REMARK  5 active torsions:
REMARK  status: ('A' for Active; 'I' for Inactive)
REMARK       I    between atoms: N_2  and  C_1 
REMARK    1  A    between atoms: C_3  and  C_1 
REMARK       I    between atoms: C_4  and  N_2 
REMARK    2  A    between atoms: O_6  and  C_4 
REMARK    3  A    between atoms: C_5  and  O_6 
REMARK    4  A    between atoms: O_15  and  C_8 
REMARK    5  A    between atoms: O_16  and  C_9 
ROOT
ATOM      1  C   UNL d   1       0.696   0.022   0.162  0.00  0.00     0.265 C 
ATOM      2  N   UNL d   1       2.073  -0.058   0.292  0.00  0.00    -0.268 N 
ATOM      3  C   UNL d   1       2.962   0.941   0.633  0.00  0.00     0.373 C 
ATOM      4  O   UNL d   1       0.030   0.976   0.549  0.00  0.00    -0.267 OA
ATOM      5  O   UNL d   1       4.089   0.662   1.040  0.00  0.00    -0.238 OA
ATOM      6  H   UNL d   1       2.487  -0.983   0.282  0.00  0.00     0.174 HD
ENDROOT
BRANCH   1   7
ATOM      7  C   UNL d   1       0.029  -1.175  -0.460  0.00  0.00     0.099 A 
ATOM      8  C   UNL d   1       0.418  -2.496  -0.143  0.00  0.00     0.086 A 
ATOM      9  C   UNL d   1      -0.182  -3.575  -0.811  0.00  0.00     0.038 A 
ATOM     10  C   UNL d   1      -1.179  -3.361  -1.757  0.00  0.00     0.005 A 
ATOM     11  C   UNL d   1      -1.598  -2.067  -2.040  0.00  0.00     0.038 A 
ATOM     12  C   UNL d   1      -1.019  -0.969  -1.387  0.00  0.00     0.086 A 
BRANCH   8  13
ATOM     13  O   UNL d   1       1.400  -2.680   0.802  0.00  0.00    -0.355 OA
ATOM     14  C   UNL d   1       1.362  -3.934   1.492  0.00  0.00     0.210 C 
ENDBRANCH   8  13
BRANCH  12  15
ATOM     15  O   UNL d   1      -1.395   0.319  -1.673  0.00  0.00    -0.355 OA
ATOM     16  C   UNL d   1      -2.718   0.502  -2.168  0.00  0.00     0.210 C 
ENDBRANCH  12  15
ENDBRANCH   1   7
BRANCH   3  17
ATOM     17  O   UNL d   1       2.476   2.233   0.455  0.00  0.00    -0.255 OA
BRANCH  17  18
ATOM     18  C   UNL d   1       3.388   3.295   0.609  0.00  0.00     0.157 A 
ATOM     19  C   UNL d   1       4.561   3.386  -0.138  0.00  0.00     0.153 A 
ATOM     20  F   UNL d   1       4.884   2.432  -1.024  0.00  0.00    -0.203 F 
ATOM     21  C   UNL d   1       5.405   4.493  -0.010  0.00  0.00     0.045 A 
ATOM     22  C   UNL d   1       5.063   5.537   0.852  0.00  0.00     0.006 A 
ATOM     23  C   UNL d   1       3.873   5.466   1.579  0.00  0.00     0.045 A 
ATOM     24  C   UNL d   1       3.044   4.349   1.452  0.00  0.00     0.153 A 
ATOM     25  F   UNL d   1       1.899   4.316   2.149  0.00  0.00    -0.203 F 
ENDBRANCH  17  18
ENDBRANCH   3  17
TORSDOF 5
