REMARK  4 active torsions:
REMARK  status: ('A' for Active; 'I' for Inactive)
REMARK    1  A    between atoms: C_4  and  C_1 
REMARK    2  A    between atoms: C_2  and  O_6 
REMARK    3  A    between atoms: C_5  and  C_2 
REMARK    4  A    between atoms: O_6  and  C_3 
ROOT
ATOM      1  C   UNL d   1       1.627  -1.391  -0.003  0.00  0.00     0.001 A 
ATOM      2  C   UNL d   1       2.454  -0.263  -0.104  0.00  0.00     0.087 A 
ATOM      3  C   UNL d   1       0.240  -1.141   0.114  0.00  0.00     0.031 A 
ATOM      4  C   UNL d   1       1.955   1.045  -0.032  0.00  0.00     0.039 A 
ATOM      5  C   UNL d   1      -0.267   0.164   0.141  0.00  0.00     0.011 A 
ATOM      6  C   UNL d   1       0.586   1.260   0.094  0.00  0.00     0.022 A 
ATOM      7 BR   UNL d   1      -2.137   0.444   0.172  0.00  0.00    -0.051 Br
ENDROOT
BRANCH   2   8
ATOM      8  O   UNL d   1       3.773  -0.304  -0.621  0.00  0.00    -0.274 OA
BRANCH   8   9
ATOM      9  C   UNL d   1       4.972  -0.938  -0.277  0.00  0.00     0.305 C 
ATOM     10  O   UNL d   1       5.144  -1.572   0.758  0.00  0.00    -0.258 OA
BRANCH   9  11
ATOM     11  C   UNL d   1       5.890  -0.718  -1.370  0.00  0.00     0.080 A 
ATOM     12  S   UNL d   1       7.500  -1.297  -1.316  0.00  0.00    -0.096 SA
ATOM     13  C   UNL d   1       7.847  -0.688  -2.880  0.00  0.00     0.050 A 
ATOM     14  C   UNL d   1       6.762  -0.052  -3.442  0.00  0.00     0.009 A 
ATOM     15  C   UNL d   1       5.641  -0.069  -2.567  0.00  0.00     0.025 A 
ENDBRANCH   9  11
ENDBRANCH   8   9
ENDBRANCH   2   8
BRANCH   1  16
ATOM     16  C   UNL d   1       2.148  -2.808  -0.065  0.00  0.00     0.144 C 
ATOM     17  S   UNL d   1       1.468  -3.779  -1.442  0.00  0.00    -0.148 SA
ATOM     18  C   UNL d   1       1.898  -5.374  -0.710  0.00  0.00     0.085 C 
ATOM     19  C   UNL d   1       1.474  -5.340   0.748  0.00  0.00     0.085 C 
ATOM     20  S   UNL d   1       1.863  -3.724   1.486  0.00  0.00    -0.148 SA
ENDBRANCH   1  16
TORSDOF 4
