REMARK  5 active torsions:
REMARK  status: ('A' for Active; 'I' for Inactive)
REMARK    1  A    between atoms: N_4  and  C_1 
REMARK    2  A    between atoms: C_2  and  C_3 
REMARK       I    between atoms: N_6  and  C_2 
REMARK    3  A    between atoms: O_22  and  C_5 
REMARK       I    between atoms: C_7  and  N_6 
REMARK       I    between atoms: N_9  and  C_7 
REMARK    4  A    between atoms: C_8  and  N_9 
REMARK    5  A    between atoms: O_23  and  C_13 
ROOT
ATOM      1  C   UNL d   1      -2.150  -2.114   1.131  0.00  0.00     0.265 C 
ATOM      2  N   UNL d   1      -3.263  -1.604   1.776  0.00  0.00    -0.275 N 
ATOM      3  C   UNL d   1      -4.362  -1.107   1.108  0.00  0.00     0.327 C 
ATOM      4  N   UNL d   1      -4.085  -0.134   0.174  0.00  0.00    -0.308 N 
ATOM      5  O   UNL d   1      -1.750  -1.603   0.086  0.00  0.00    -0.267 OA
ATOM      6  O   UNL d   1      -5.454  -1.582   1.396  0.00  0.00    -0.247 OA
ATOM      7  H   UNL d   1      -3.583  -2.168   2.552  0.00  0.00     0.173 HD
ATOM      8  H   UNL d   1      -3.143  -0.227  -0.191  0.00  0.00     0.170 HD
ENDROOT
BRANCH   1   9
ATOM      9  C   UNL d   1      -1.394  -3.245   1.814  0.00  0.00     0.101 C 
ATOM     10  C   UNL d   1      -1.734  -3.753   3.095  0.00  0.00     0.119 C 
ATOM     11  C   UNL d   1      -0.846  -4.631   3.757  0.00  0.00     0.137 C 
ATOM     12  C   UNL d   1       0.269  -5.164   3.101  0.00  0.00     0.042 C 
ATOM     13  C   UNL d   1       0.538  -4.770   1.798  0.00  0.00     0.040 C 
ATOM     14  C   UNL d   1      -0.270  -3.813   1.168  0.00  0.00     0.086 C 
BRANCH  10  15
ATOM     15  O   UNL d   1      -2.918  -3.347   3.664  0.00  0.00    -0.352 OA
ATOM     16  C   UNL d   1      -3.822  -4.425   3.963  0.00  0.00     0.210 C 
ENDBRANCH  10  15
BRANCH  11  17
ATOM     17  N   UNL d   1      -0.997  -4.955   5.178  0.00  0.00    -0.113 N 
ATOM     18  O   UNL d   1      -1.476  -4.093   5.925  0.00  0.00    -0.532 OA
ATOM     19  O   UNL d   1      -0.611  -6.073   5.548  0.00  0.00    -0.532 OA
ENDBRANCH  11  17
BRANCH  14  20
ATOM     20  O   UNL d   1       0.155  -3.398  -0.069  0.00  0.00    -0.355 OA
ATOM     21  C   UNL d   1      -0.286  -4.295  -1.089  0.00  0.00     0.210 C 
ENDBRANCH  14  20
ENDBRANCH   1   9
BRANCH   4  22
ATOM     22  C   UNL d   1      -5.038   0.577  -0.613  0.00  0.00     0.048 C 
ATOM     23  C   UNL d   1      -6.338   0.886  -0.159  0.00  0.00    -0.034 C 
ATOM     24  C   UNL d   1      -7.313   1.337  -1.074  0.00  0.00     0.015 C 
ATOM     25  C   UNL d   1      -6.769   0.850   1.284  0.00  0.00     0.050 C 
ATOM     26  C   UNL d   1      -6.995   1.600  -2.404  0.00  0.00    -0.061 C 
ATOM     27  C   UNL d   1      -5.669   1.459  -2.804  0.00  0.00     0.015 C 
ATOM     28  C   UNL d   1      -8.067   1.976  -3.385  0.00  0.00     0.048 C 
ATOM     29  C   UNL d   1      -4.672   0.995  -1.914  0.00  0.00    -0.034 C 
ATOM     30  C   UNL d   1      -3.268   0.981  -2.462  0.00  0.00     0.050 C 
ENDBRANCH   4  22
TORSDOF 5
