REMARK  4 active torsions:
REMARK  status: ('A' for Active; 'I' for Inactive)
REMARK    1  A    between atoms: C_19  and  N_4 
REMARK    2  A    between atoms: C_6  and  C_9 
REMARK    3  A    between atoms: C_9  and  C_11 
REMARK    4  A    between atoms: C_11  and  C_19 
ROOT
ATOM      1  N   UNL d   1       1.091  -0.129  -0.248  0.00  0.00    -0.306 N 
ATOM      2  HN  UNL d   1       2.090  -0.332  -0.275  1.00  0.00     0.186 HD
ATOM      3  C   UNL d   1       0.542   1.043  -0.102  0.00  0.00     0.044 C 
ATOM      4  N   UNL d   1       0.078  -1.030  -0.357  0.00  0.00    -0.327 N 
ATOM      5  C   UNL d   1       1.317   2.260  -0.018  0.00  0.00     0.028 A 
ATOM      6  S   UNL d   1       0.553   3.785   0.153  0.00  0.00    -0.100 SA
ATOM      7  C   UNL d   1      -0.958   1.024  -0.042  0.00  0.00     0.081 C 
ATOM      8  C   UNL d   1       2.692   2.398  -0.070  0.00  0.00     0.021 A 
ATOM      9  C   UNL d   1       2.044   4.617   0.154  0.00  0.00     0.050 A 
ATOM     10  C   UNL d   1       3.112   3.757   0.028  0.00  0.00     0.008 A 
ATOM     11  C   UNL d   1      -1.212  -0.466   0.034  0.00  0.00     0.148 C 
ENDROOT
BRANCH   4  12
ATOM     12  C   UNL d   1       0.336  -2.407   0.096  0.00  0.00     0.150 C 
BRANCH  12  13
ATOM     13  C   UNL d   1      -0.864  -3.340  -0.085  0.00  0.00     0.106 C 
BRANCH  13  14
ATOM     14  C   UNL d   1      -0.561  -4.785   0.287  0.00  0.00     0.168 C 
ATOM     15  O   UNL d   1       0.559  -5.115   0.668  0.00  0.00    -0.292 OA
BRANCH  14  16
ATOM     16  C   UNL d   1      -1.654  -5.757   0.184  0.00  0.00     0.050 A 
ATOM     17  S   UNL d   1      -3.239  -5.322  -0.307  0.00  0.00    -0.098 SA
ATOM     18  C   UNL d   1      -3.811  -6.923  -0.155  0.00  0.00     0.050 A 
ATOM     19  C   UNL d   1      -2.823  -7.784   0.263  0.00  0.00     0.009 A 
ATOM     20  C   UNL d   1      -1.580  -7.113   0.459  0.00  0.00     0.023 A 
ENDBRANCH  14  16
ENDBRANCH  13  14
ENDBRANCH  12  13
ENDBRANCH   4  12
TORSDOF 4
