REMARK  9 active torsions:
REMARK  status: ('A' for Active; 'I' for Inactive)
REMARK    1  A    between atoms: C_3  and  N_1 
REMARK    2  A    between atoms: S_18  and  C_2 
REMARK    3  A    between atoms: O_24  and  C_4 
REMARK    4  A    between atoms: C_17  and  C_5 
REMARK    5  A    between atoms: C_13  and  C_6 
REMARK    6  A    between atoms: C_15  and  C_20 
REMARK    7  A    between atoms: O_25  and  C_17 
REMARK    8  A    between atoms: C_20  and  S_18 
REMARK    9  A    between atoms: C_28  and  O_25 
ROOT
ATOM      1  N   UNL d   1      -0.063  -1.305  -0.087  0.00  0.00    -0.254 N 
ATOM      2  C   UNL d   1       1.123  -0.682  -0.438  0.00  0.00     0.169 A 
ATOM      3  C   UNL d   1      -0.949  -0.242   0.047  0.00  0.00     0.245 A 
ATOM      4  N   UNL d   1       0.965   0.621  -0.460  0.00  0.00    -0.276 N 
ATOM      5  HN  UNL d   1       1.691   1.308  -0.663  1.00  0.00     0.189 HD
ATOM      6  N   UNL d   1      -0.340   0.899  -0.165  0.00  0.00    -0.263 N 
ATOM      7  HN  UNL d   1      -0.764   1.826  -0.118  1.00  0.00     0.190 HD
ENDROOT
BRANCH   2   8
ATOM      8  S   UNL d   1       2.571  -1.477  -0.960  0.00  0.00    -0.085 SA
BRANCH   8   9
ATOM      9  C   UNL d   1       3.765  -0.140  -0.630  0.00  0.00     0.149 C 
BRANCH   9  10
ATOM     10  C   UNL d   1       5.175  -0.593  -0.667  0.00  0.00     0.088 A 
ATOM     11  C   UNL d   1       5.838  -1.785  -0.492  0.00  0.00     0.073 A 
ATOM     12  C   UNL d   1       7.217  -1.450  -0.559  0.00  0.00     0.132 A 
ATOM     13  N   UNL d   1       7.368  -0.137  -0.795  0.00  0.00    -0.255 N 
ATOM     14  O   UNL d   1       6.095   0.392  -0.857  0.00  0.00    -0.241 OA
ATOM     15  HN  UNL d   1       8.247   0.369  -0.907  1.00  0.00     0.195 HD
BRANCH  12  16
ATOM     16  C   UNL d   1       8.345  -2.355  -0.355  0.00  0.00     0.311 C 
ATOM     17  O   UNL d   1       8.200  -3.552  -0.124  0.00  0.00    -0.258 OA
BRANCH  16  18
ATOM     18  O   UNL d   1       9.555  -1.721  -0.387  0.00  0.00    -0.317 OA
BRANCH  18  19
ATOM     19  C   UNL d   1      10.683  -2.497   0.037  0.00  0.00     0.175 C 
ATOM     20  C   UNL d   1      10.830  -2.377   1.543  0.00  0.00     0.034 C 
ENDBRANCH  18  19
ENDBRANCH  16  18
ENDBRANCH  12  16
ENDBRANCH   9  10
ENDBRANCH   8   9
ENDBRANCH   2   8
BRANCH   1  21
ATOM     21  C   UNL d   1      -0.390  -2.688  -0.001  0.00  0.00     0.060 A 
ATOM     22  C   UNL d   1       0.347  -3.624   0.757  0.00  0.00     0.075 A 
ATOM     23  C   UNL d   1      -0.071  -4.975   0.727  0.00  0.00     0.018 A 
ATOM     24  C   UNL d   1      -1.203  -5.377   0.020  0.00  0.00     0.001 A 
ATOM     25  C   UNL d   1      -1.944  -4.440  -0.687  0.00  0.00     0.002 A 
ATOM     26  C   UNL d   1      -1.539  -3.106  -0.705  0.00  0.00     0.031 A 
BRANCH  22  27
ATOM     27  C   UNL d   1       1.493  -3.304   1.695  0.00  0.00     0.419 C 
ATOM     28  F   UNL d   1       1.579  -1.992   2.038  0.00  0.00    -0.166 F 
ATOM     29  F   UNL d   1       1.384  -3.972   2.880  0.00  0.00    -0.166 F 
ATOM     30  F   UNL d   1       2.705  -3.658   1.191  0.00  0.00    -0.166 F 
ENDBRANCH  22  27
ENDBRANCH   1  21
BRANCH   3  31
ATOM     31  O   UNL d   1      -2.227  -0.311   0.407  0.00  0.00    -0.331 OA
ATOM     32  H   UNL d   1      -2.409  -1.190   0.775  0.00  0.00     0.221 HD
ENDBRANCH   3  31
TORSDOF 9
