REMARK  1 active torsions:
REMARK  status: ('A' for Active; 'I' for Inactive)
REMARK    1  A    between atoms: C_2  and  C_1 
ROOT
ATOM      1  C   UNL d   1      -2.116   1.427   1.208  0.00  0.00    -0.025 A 
ATOM      2  C   UNL d   1      -2.602   1.006   2.466  0.00  0.00     0.019 A 
ATOM      3  C   UNL d   1      -2.112   1.497   3.672  0.00  0.00    -0.055 A 
ATOM      4  C   UNL d   1      -1.124   2.492   3.645  0.00  0.00    -0.056 A 
ATOM      5  C   UNL d   1      -1.087   2.374   1.204  0.00  0.00     0.013 A 
ATOM      6  C   UNL d   1      -0.597   2.897   2.408  0.00  0.00     0.008 A 
ATOM      7  C   UNL d   1      -2.682   0.941   4.948  0.00  0.00     0.049 C 
ATOM      8  C   UNL d   1      -0.623   3.118   4.914  0.00  0.00     0.049 C 
ENDROOT
BRANCH   1   9
ATOM      9  C   UNL d   1      -2.588   0.703   0.010  0.00  0.00    -0.025 C 
ATOM     10  C   UNL d   1      -1.658   0.214  -0.918  0.00  0.00     0.019 C 
ATOM     11  C   UNL d   1      -1.942  -0.928  -1.682  0.00  0.00    -0.055 C 
ATOM     12  C   UNL d   1      -0.827  -1.533  -2.484  0.00  0.00     0.049 C 
ATOM     13  C   UNL d   1      -3.193  -1.553  -1.534  0.00  0.00    -0.056 C 
ATOM     14  C   UNL d   1      -4.200  -0.912  -0.799  0.00  0.00     0.008 C 
ATOM     15  C   UNL d   1      -3.415  -2.984  -1.938  0.00  0.00     0.049 C 
ATOM     16  C   UNL d   1      -3.904   0.226  -0.055  0.00  0.00     0.013 C 
ENDBRANCH   1   9
TORSDOF 1
