REMARK  2 active torsions:
REMARK  status: ('A' for Active; 'I' for Inactive)
REMARK    1  A    between atoms: C_3  and  C_1 
REMARK    2  A    between atoms: O_8  and  C_3 
ROOT
ATOM      1  C   UNL d   1      -1.194   1.454   0.071  0.00  0.00     0.073 A 
ATOM      2  C   UNL d   1       0.013   0.737   0.027  0.00  0.00     0.119 A 
ATOM      3  C   UNL d   1      -0.013  -0.666  -0.024  0.00  0.00     0.103 A 
ATOM      4  O   UNL d   1       1.198   1.438   0.049  0.00  0.00    -0.345 OA
ATOM      5  O   UNL d   1       1.116  -1.446  -0.046  0.00  0.00    -0.346 OA
ATOM      6  C   UNL d   1      -2.409   0.746   0.039  0.00  0.00     0.021 A 
ATOM      7  C   UNL d   1      -2.426  -0.648  -0.033  0.00  0.00     0.004 A 
ATOM      8  C   UNL d   1      -1.226  -1.353  -0.068  0.00  0.00     0.040 A 
ATOM      9  C   UNL d   1       2.313   0.633  -0.356  0.00  0.00     0.202 C 
ATOM     10  C   UNL d   1       2.279  -0.713   0.343  0.00  0.00     0.202 C 
ENDROOT
BRANCH   1  11
ATOM     11  C   UNL d   1      -1.288   2.943   0.132  0.00  0.00     0.179 C 
ATOM     12  O   UNL d   1      -2.362   3.526   0.168  0.00  0.00    -0.646 OA
BRANCH  11  13
ATOM     13  O   UNL d   1      -0.118   3.613   0.143  0.00  0.00    -0.773 OA
ATOM     14  H   UNL d   1       0.663   3.021   0.119  0.00  0.00     0.167 HD
ENDBRANCH  11  13
ENDBRANCH   1  11
TORSDOF 2
