REMARK  7 active torsions:
REMARK  status: ('A' for Active; 'I' for Inactive)
REMARK    1  A    between atoms: N_4  and  S_1 
REMARK    2  A    between atoms: C_6  and  S_1 
REMARK    3  A    between atoms: S_2  and  N_5 
REMARK    4  A    between atoms: C_7  and  S_2 
REMARK    5  A    between atoms: C_3  and  C_8 
REMARK    6  A    between atoms: C_12  and  N_4 
REMARK    7  A    between atoms: N_5  and  C_11 
ROOT
ATOM      1  C   UNL d   1       2.324   4.164  -0.168  0.00  0.00     0.051 A 
ATOM      2  C   UNL d   1      -0.041   4.588  -0.500  0.00  0.00     0.045 A 
ATOM      3  C   UNL d   1       0.840   2.374  -0.875  0.00  0.00     0.025 A 
ATOM      4  C   UNL d   1       1.235   5.050  -0.187  0.00  0.00     0.046 A 
ATOM      5  C   UNL d   1       2.113   2.818  -0.519  0.00  0.00     0.040 A 
ATOM      6  C   UNL d   1      -0.247   3.247  -0.822  0.00  0.00     0.054 A 
ENDROOT
BRANCH   2   7
ATOM      7  N   UNL d   1      -1.130   5.493  -0.458  0.00  0.00    -0.281 N 
ATOM      8  H   UNL d   1      -1.845   5.397   0.263  0.00  0.00     0.179 HD
BRANCH   7   9
ATOM      9  S   UNL d   1      -1.570   6.372  -1.821  0.00  0.00     0.263 S 
ATOM     10  O   UNL d   1      -2.762   7.111  -1.470  0.00  0.00    -0.200 OA
ATOM     11  O   UNL d   1      -0.399   7.024  -2.364  0.00  0.00    -0.200 OA
BRANCH   9  12
ATOM     12  C   UNL d   1      -2.058   5.093  -2.959  0.00  0.00     0.081 A 
ATOM     13  C   UNL d   1      -3.365   4.598  -2.916  0.00  0.00     0.050 A 
ATOM     14  C   UNL d   1      -3.721   3.529  -3.742  0.00  0.00     0.057 A 
ATOM     15 CL   UNL d   1      -5.330   2.914  -3.608  0.00  0.00    -0.083 Cl
ATOM     16  C   UNL d   1      -2.778   2.974  -4.618  0.00  0.00     0.055 A 
ATOM     17  C   UNL d   1      -1.487   3.511  -4.688  0.00  0.00     0.027 A 
ATOM     18 CL   UNL d   1      -3.130   1.608  -5.614  0.00  0.00    -0.083 Cl
ATOM     19  C   UNL d   1      -1.126   4.580  -3.866  0.00  0.00     0.027 A 
ENDBRANCH   9  12
ENDBRANCH   7   9
ENDBRANCH   2   7
BRANCH   3  20
ATOM     20  N   UNL d   1       0.635   0.995  -1.217  0.00  0.00    -0.181 NA
ATOM     21  H   UNL d   1      -0.104   0.875  -1.912  0.00  0.00     0.146 HD
BRANCH  20  22
ATOM     22  S   UNL d   1       0.293  -0.004   0.125  0.00  0.00     0.245 S 
ATOM     23  O   UNL d   1      -1.009   0.398   0.615  0.00  0.00    -0.206 OA
ATOM     24  O   UNL d   1       1.456  -0.071   0.979  0.00  0.00    -0.206 OA
BRANCH  22  25
ATOM     25  C   UNL d   1       0.108  -1.594  -0.650  0.00  0.00     0.076 A 
ATOM     26  C   UNL d   1       1.190  -2.143  -1.344  0.00  0.00     0.050 A 
ATOM     27  C   UNL d   1       1.055  -3.398  -1.949  0.00  0.00     0.057 A 
ATOM     28 CL   UNL d   1       2.419  -4.027  -2.801  0.00  0.00    -0.083 Cl
ATOM     29  C   UNL d   1      -0.156  -4.099  -1.852  0.00  0.00     0.055 A 
ATOM     30  C   UNL d   1      -1.230  -3.540  -1.148  0.00  0.00     0.027 A 
ATOM     31 CL   UNL d   1      -0.390  -5.650  -2.573  0.00  0.00    -0.083 Cl
ATOM     32  C   UNL d   1      -1.101  -2.287  -0.546  0.00  0.00     0.026 A 
ENDBRANCH  22  25
ENDBRANCH  20  22
ENDBRANCH   3  20
BRANCH   1  33
ATOM     33  C   UNL d   1       3.700   4.633   0.238  0.00  0.00     0.417 C 
ATOM     34  F   UNL d   1       3.746   5.951   0.578  0.00  0.00    -0.166 F 
ATOM     35  F   UNL d   1       4.182   3.954   1.314  0.00  0.00    -0.166 F 
ATOM     36  F   UNL d   1       4.617   4.469  -0.754  0.00  0.00    -0.166 F 
ENDBRANCH   1  33
TORSDOF 7
