REMARK  1 active torsions:
REMARK  status: ('A' for Active; 'I' for Inactive)
REMARK    1  A    between atoms: C_12  and  C_9 
ROOT
ATOM      1  C   UNL d   1       1.174   0.876   0.008  0.00  0.00    -0.042 A 
ATOM      2  C   UNL d   1       0.707  -0.456   0.006  0.00  0.00    -0.019 A 
ATOM      3  C   UNL d   1      -0.741  -0.442  -0.001  0.00  0.00    -0.019 A 
ATOM      4  C   UNL d   1      -1.181   0.899  -0.001  0.00  0.00    -0.043 A 
ATOM      5  C   UNL d   1       0.005   1.841   0.001  0.00  0.00     0.078 A 
ATOM      6  C   UNL d   1       1.603  -1.510   0.013  0.00  0.00     0.013 A 
ATOM      7  C   UNL d   1       2.528   1.171   0.014  0.00  0.00     0.015 A 
ATOM      8  C   UNL d   1       2.973  -1.222   0.017  0.00  0.00     0.008 A 
ATOM      9  C   UNL d   1       3.444   0.109   0.009  0.00  0.00    -0.058 A 
ATOM     10  C   UNL d   1      -1.657  -1.481  -0.006  0.00  0.00     0.013 A 
ATOM     11  C   UNL d   1      -2.529   1.220  -0.002  0.00  0.00     0.008 A 
ATOM     12  C   UNL d   1      -3.020  -1.166  -0.007  0.00  0.00     0.001 A 
ATOM     13  C   UNL d   1      -3.451   0.171  -0.004  0.00  0.00     0.001 A 
ENDROOT
BRANCH   9  14
ATOM     14  C   UNL d   1       4.927   0.387   0.012  0.00  0.00     0.034 C 
ATOM     15  C   UNL d   1       5.488   0.507   1.420  0.00  0.00     0.010 C 
ENDBRANCH   9  14
TORSDOF 1
