REMARK  8 active torsions:
REMARK  status: ('A' for Active; 'I' for Inactive)
REMARK    1  A    between atoms: C_2  and  C_1 
REMARK    2  A    between atoms: C_3  and  O_12 
REMARK       I    between atoms: N_9  and  C_3 
REMARK    3  A    between atoms: C_4  and  C_21 
REMARK    4  A    between atoms: N_22  and  C_4 
REMARK    5  A    between atoms: O_12  and  N_5 
REMARK    6  A    between atoms: C_15  and  N_9 
REMARK    7  A    between atoms: S_13  and  C_10 
REMARK    8  A    between atoms: C_21  and  S_13 
ROOT
ATOM      1  C   UNL d   1      -2.024   6.577  -4.294  0.00  0.00     0.105 C 
ATOM      2  N   UNL d   1      -1.349   7.649  -3.973  0.00  0.00    -0.244 N 
ATOM      3  HN  UNL d   1      -1.367   8.538  -4.474  1.00  0.00     0.196 HD
ENDROOT
BRANCH   1   4
ATOM      4  C   UNL d   1      -2.931   6.640  -5.525  0.00  0.00     0.158 C 
BRANCH   4   5
ATOM      5  S   UNL d   1      -4.280   5.411  -5.449  0.00  0.00    -0.105 SA
BRANCH   5   6
ATOM      6  C   UNL d   1      -5.260   6.095  -4.127  0.00  0.00     0.069 A 
ATOM      7  C   UNL d   1      -6.035   5.248  -3.343  0.00  0.00     0.038 A 
ATOM      8  C   UNL d   1      -6.861   5.804  -2.366  0.00  0.00     0.020 A 
ATOM      9  C   UNL d   1      -6.901   7.191  -2.202  0.00  0.00     0.063 A 
ATOM     10  C   UNL d   1      -6.080   7.952  -3.019  0.00  0.00     0.105 A 
ATOM     11  N   UNL d   1      -5.269   7.436  -3.974  0.00  0.00    -0.360 N 
ATOM     12  HN  UNL d   1      -4.688   8.039  -4.557  1.00  0.00     0.166 HD
BRANCH   9  13
ATOM     13  C   UNL d   1      -7.807   7.840  -1.201  0.00  0.00     0.418 C 
ATOM     14  F   UNL d   1      -7.757   9.201  -1.220  0.00  0.00    -0.166 F 
ATOM     15  F   UNL d   1      -7.524   7.473   0.078  0.00  0.00    -0.166 F 
ATOM     16  F   UNL d   1      -9.114   7.515  -1.401  0.00  0.00    -0.166 F 
ENDBRANCH   9  13
ENDBRANCH   5   6
ENDBRANCH   4   5
ENDBRANCH   1   4
BRANCH   1  17
ATOM     17  N   UNL d   1      -1.896   5.381  -3.621  0.00  0.00    -0.387 N 
ATOM     18  H   UNL d   1      -2.164   4.533  -4.108  0.00  0.00     0.157 HD
ATOM     19  H   UNL d   1      -1.088   5.306  -3.013  0.00  0.00     0.157 HD
ENDBRANCH   1  17
BRANCH   2  20
ATOM     20  O   UNL d   1      -0.586   7.368  -2.810  0.00  0.00    -0.179 OA
BRANCH  20  21
ATOM     21  C   UNL d   1       0.163   8.432  -2.347  0.00  0.00     0.387 C 
ATOM     22  N   UNL d   1       0.144   9.537  -3.167  0.00  0.00    -0.301 N 
ATOM     23  H   UNL d   1      -0.417   9.388  -3.998  0.00  0.00     0.171 HD
ATOM     24  O   UNL d   1       0.789   8.310  -1.303  0.00  0.00    -0.236 OA
BRANCH  22  25
ATOM     25  C   UNL d   1       0.815  10.760  -2.978  0.00  0.00     0.038 A 
ATOM     26  C   UNL d   1       1.547  11.068  -1.825  0.00  0.00     0.053 A 
ATOM     27  C   UNL d   1       2.187  12.303  -1.704  0.00  0.00     0.036 A 
ATOM     28 CL   UNL d   1       3.074  12.669  -0.274  0.00  0.00    -0.084 Cl
ATOM     29  C   UNL d   1       2.111  13.245  -2.725  0.00  0.00     0.024 A 
ATOM     30  C   UNL d   1       1.386  12.948  -3.878  0.00  0.00     0.004 A 
ATOM     31  C   UNL d   1       0.738  11.713  -4.000  0.00  0.00     0.029 A 
ENDBRANCH  22  25
ENDBRANCH  20  21
ENDBRANCH   2  20
TORSDOF 8
