REMARK  4 active torsions:
REMARK  status: ('A' for Active; 'I' for Inactive)
REMARK    1  A    between atoms: S_7  and  C_1 
REMARK    2  A    between atoms: C_5  and  C_15 
REMARK       I    between atoms: N_6  and  C_5 
REMARK    3  A    between atoms: C_8  and  N_6 
REMARK    4  A    between atoms: C_15  and  S_7 
ROOT
ATOM      1  C   UNL d   1       1.005   5.308  -0.279  0.00  0.00     0.231 C 
ATOM      2  N   UNL d   1      -0.285   5.733  -0.002  0.00  0.00    -0.326 N 
ATOM      3  O   UNL d   1       1.945   6.041  -0.581  0.00  0.00    -0.272 OA
ATOM      4  H   UNL d   1      -0.929   5.015   0.313  0.00  0.00     0.169 HD
ENDROOT
BRANCH   2   5
ATOM      5  C   UNL d   1      -0.807   7.037  -0.144  0.00  0.00     0.036 A 
ATOM      6  C   UNL d   1      -0.093   8.100  -0.711  0.00  0.00     0.056 A 
ATOM      7  C   UNL d   1      -0.684   9.361  -0.838  0.00  0.00     0.074 A 
ATOM      8 CL   UNL d   1       0.207  10.646  -1.561  0.00  0.00    -0.081 Cl
ATOM      9  C   UNL d   1      -1.985   9.566  -0.393  0.00  0.00     0.138 A 
ATOM     10  C   UNL d   1      -2.708   8.523   0.172  0.00  0.00     0.046 A 
ATOM     11  F   UNL d   1      -2.570  10.766  -0.505  0.00  0.00    -0.204 F 
ATOM     12  C   UNL d   1      -2.121   7.260   0.292  0.00  0.00     0.032 A 
ENDBRANCH   2   5
BRANCH   1  13
ATOM     13  C   UNL d   1       1.250   3.820  -0.066  0.00  0.00     0.183 C 
BRANCH  13  14
ATOM     14  S   UNL d   1      -0.107   2.797  -0.714  0.00  0.00    -0.113 SA
BRANCH  14  15
ATOM     15  C   UNL d   1       0.588   1.192  -0.525  0.00  0.00     0.041 A 
ATOM     16  S   UNL d   1       1.058   0.551   0.990  0.00  0.00    -0.095 SA
ATOM     17  C   UNL d   1       1.558  -0.925   0.283  0.00  0.00     0.051 A 
ATOM     18  C   UNL d   1       1.358  -0.937  -1.079  0.00  0.00     0.009 A 
ATOM     19  C   UNL d   1       0.792   0.287  -1.546  0.00  0.00     0.026 A 
ENDBRANCH  14  15
ENDBRANCH  13  14
ENDBRANCH   1  13
TORSDOF 4
