REMARK  2 active torsions:
REMARK  status: ('A' for Active; 'I' for Inactive)
REMARK    1  A    between atoms: O_16  and  C_4 
REMARK    2  A    between atoms: C_10  and  C_7 
ROOT
ATOM      1  C   UNL d   1       2.120   0.086   0.048  0.00  0.00     0.073 A 
ATOM      2  C   UNL d   1       3.562   0.039   0.047  0.00  0.00     0.094 A 
ATOM      3  S   UNL d   1       1.217   0.995   1.186  0.00  0.00    -0.084 SA
ATOM      4  C   UNL d   1       1.269  -0.550  -0.840  0.00  0.00     0.097 A 
ATOM      5  N   UNL d   1       4.215  -0.626  -0.889  0.00  0.00    -0.348 N 
ATOM      6  HN  UNL d   1       3.772  -1.179  -1.622  1.00  0.00     0.166 HD
ATOM      7  C   UNL d   1       5.585  -0.472  -0.738  0.00  0.00     0.051 A 
ATOM      8  C   UNL d   1      -0.122  -0.330  -0.575  0.00  0.00     0.016 A 
ATOM      9  S   UNL d   1       4.565   0.806   1.214  0.00  0.00    -0.081 SA
ATOM     10  C   UNL d   1      -0.292   0.525   0.514  0.00  0.00     0.018 A 
ATOM     11  C   UNL d   1       5.953   0.262   0.374  0.00  0.00     0.082 A 
ATOM     12  C   UNL d   1      -1.284  -0.813  -1.227  0.00  0.00     0.015 A 
ATOM     13  C   UNL d   1      -1.570   0.915   0.960  0.00  0.00     0.020 A 
ATOM     14  C   UNL d   1      -2.556  -0.435  -0.785  0.00  0.00     0.001 A 
ATOM     15  C   UNL d   1      -2.695   0.424   0.296  0.00  0.00     0.001 A 
ENDROOT
BRANCH   4  16
ATOM     16  O   UNL d   1       1.713  -1.313  -1.867  0.00  0.00    -0.358 OA
ATOM     17  H   UNL d   1       2.693  -1.281  -1.910  0.00  0.00     0.217 HD
ENDBRANCH   4  16
BRANCH   7  18
ATOM     18  C   UNL d   1       6.543  -1.051  -1.684  0.00  0.00     0.013 A 
ATOM     19  C   UNL d   1       6.261  -1.216  -3.055  0.00  0.00     0.048 A 
ATOM     20  C   UNL d   1       7.214  -1.772  -3.920  0.00  0.00     0.048 A 
ATOM     21 CL   UNL d   1       4.775  -0.717  -3.795  0.00  0.00    -0.083 Cl
ATOM     22  C   UNL d   1       8.458  -2.158  -3.433  0.00  0.00     0.035 A 
ATOM     23  C   UNL d   1       8.762  -2.003  -2.086  0.00  0.00     0.025 A 
ATOM     24 CL   UNL d   1       9.627  -2.827  -4.502  0.00  0.00    -0.084 Cl
ATOM     25  C   UNL d   1       7.810  -1.460  -1.218  0.00  0.00     0.017 A 
ENDBRANCH   7  18
TORSDOF 2
