REMARK  6 active torsions:
REMARK  status: ('A' for Active; 'I' for Inactive)
REMARK    1  A    between atoms: S_5  and  C_1 
REMARK    2  A    between atoms: C_4  and  C_2 
REMARK    3  A    between atoms: C_3  and  C_6 
REMARK       I    between atoms: N_7  and  C_4 
REMARK    4  A    between atoms: C_10  and  S_5 
REMARK    5  A    between atoms: C_16  and  N_7 
REMARK    6  A    between atoms: C_17  and  C_16 
ROOT
ATOM      1  C   UNL d   1      -0.314   1.291  -0.775  0.00  0.00     0.090 A 
ATOM      2  C   UNL d   1       0.630   1.377   0.257  0.00  0.00     0.065 A 
ATOM      3  N   UNL d   1      -0.771   0.093  -1.246  0.00  0.00    -0.359 N 
ATOM      4  HN  UNL d   1      -1.482   0.059  -1.976  1.00  0.00     0.166 HD
ATOM      5  C   UNL d   1       1.170   0.164   0.729  0.00  0.00     0.021 A 
ATOM      6  C   UNL d   1      -0.263  -1.043  -0.728  0.00  0.00     0.089 A 
ATOM      7  C   UNL d   1       0.720  -1.056   0.239  0.00  0.00     0.018 A 
ENDROOT
BRANCH   2   8
ATOM      8  C   UNL d   1       1.105   2.617   0.943  0.00  0.00     0.254 C 
ATOM      9  N   UNL d   1       0.427   3.798   0.736  0.00  0.00    -0.353 N 
ATOM     10  H   UNL d   1      -0.424   3.796   0.191  0.00  0.00     0.163 HD
ATOM     11  O   UNL d   1       2.050   2.543   1.725  0.00  0.00    -0.268 OA
BRANCH   9  12
ATOM     12  C   UNL d   1       0.680   4.965   1.558  0.00  0.00     0.161 C 
BRANCH  12  13
ATOM     13  C   UNL d   1       0.300   6.271   0.897  0.00  0.00    -0.041 A 
ATOM     14  C   UNL d   1       0.259   6.429  -0.493  0.00  0.00     0.009 A 
ATOM     15  C   UNL d   1      -0.113   7.650  -1.065  0.00  0.00     0.007 A 
ATOM     16  C   UNL d   1      -0.425   8.747  -0.256  0.00  0.00    -0.062 A 
ATOM     17  C   UNL d   1      -0.317   8.616   1.131  0.00  0.00     0.007 A 
ATOM     18  C   UNL d   1      -0.833  10.049  -0.879  0.00  0.00     0.048 C 
ATOM     19  C   UNL d   1       0.040   7.391   1.701  0.00  0.00     0.009 A 
ENDBRANCH  12  13
ENDBRANCH   9  12
ENDBRANCH   2   8
BRANCH   1  20
ATOM     20  S   UNL d   1      -1.030   2.664  -1.644  0.00  0.00    -0.072 SA
BRANCH  20  21
ATOM     21  C   UNL d   1       0.040   2.893  -3.060  0.00  0.00     0.007 A 
ATOM     22  C   UNL d   1      -0.168   4.049  -3.829  0.00  0.00     0.035 A 
ATOM     23  C   UNL d   1       0.612   4.324  -4.966  0.00  0.00     0.049 A 
ATOM     24  C   UNL d   1       1.619   3.423  -5.330  0.00  0.00     0.016 A 
ATOM     25  C   UNL d   1       1.833   2.268  -4.580  0.00  0.00     0.002 A 
ATOM     26  C   UNL d   1       1.045   2.004  -3.455  0.00  0.00     0.019 A 
BRANCH  23  27
ATOM     27  C   UNL d   1       0.366   5.562  -5.792  0.00  0.00     0.417 C 
ATOM     28  F   UNL d   1      -0.610   6.368  -5.289  0.00  0.00    -0.166 F 
ATOM     29  F   UNL d   1       1.475   6.346  -5.898  0.00  0.00    -0.166 F 
ATOM     30  F   UNL d   1      -0.010   5.271  -7.067  0.00  0.00    -0.166 F 
ENDBRANCH  23  27
ENDBRANCH  20  21
ENDBRANCH   1  20
TORSDOF 6
