REMARK  4 active torsions:
REMARK  status: ('A' for Active; 'I' for Inactive)
REMARK    1  A    between atoms: C_8  and  S_1 
REMARK    2  A    between atoms: S_2  and  C_9 
REMARK    3  A    between atoms: K_23  and  K_23 
REMARK    4  A    between atoms: K_24  and  K_24 
ROOT
ATOM      1  K   UNL d   2       2.864  -2.223   0.417  0.00  0.00     0.000 K 
ENDROOT
TORSDOF 4
