REMARK  5 active torsions:
REMARK  status: ('A' for Active; 'I' for Inactive)
REMARK    1  A    between atoms: C_7  and  C_4 
REMARK    2  A    between atoms: C_5  and  C_6 
REMARK    3  A    between atoms: C_6  and  O_11 
REMARK    4  A    between atoms: C_10  and  C_7 
REMARK       I    between atoms: N_12  and  C_10 
REMARK    5  A    between atoms: O_11  and  N_12 
ROOT
ATOM      1  C   UNL d   1       2.461   0.453   2.796  0.00  0.00     0.243 C 
ATOM      2  N   UNL d   1       2.088   1.769   2.958  0.00  0.00    -0.225 N 
ATOM      3  O   UNL d   1       3.543  -0.003   3.168  0.00  0.00    -0.271 OA
ATOM      4  H   UNL d   1       1.117   2.054   3.040  0.00  0.00     0.198 HD
ENDROOT
BRANCH   1   5
ATOM      5  C   UNL d   1       1.446  -0.428   2.100  0.00  0.00     0.130 C 
BRANCH   5   6
ATOM      6  C   UNL d   1       1.753  -0.619   0.607  0.00  0.00     0.153 C 
ATOM      7  C   UNL d   1       1.639   0.685  -0.170  0.00  0.00     0.236 C 
ATOM      8  N   UNL d   1       0.393   1.238  -0.312  0.00  0.00    -0.325 N 
ATOM      9  O   UNL d   1       2.628   1.303  -0.563  0.00  0.00    -0.272 OA
ATOM     10  C   UNL d   1      -0.825   0.557  -0.150  0.00  0.00     0.051 A 
ATOM     11  H   UNL d   1       0.382   2.185  -0.673  0.00  0.00     0.169 HD
ATOM     12  C   UNL d   1      -0.888  -0.844  -0.066  0.00  0.00     0.028 A 
ATOM     13  C   UNL d   1      -1.996   1.315  -0.097  0.00  0.00     0.031 A 
ATOM     14  S   UNL d   1       0.588  -1.846  -0.112  0.00  0.00    -0.113 SA
ATOM     15  C   UNL d   1      -2.133  -1.472   0.046  0.00  0.00     0.021 A 
ATOM     16  C   UNL d   1      -3.300  -0.709   0.117  0.00  0.00     0.002 A 
ATOM     17  C   UNL d   1      -3.230   0.682   0.057  0.00  0.00     0.002 A 
ENDBRANCH   5   6
ENDBRANCH   1   5
BRANCH   2  18
ATOM     18  O   UNL d   1       3.009   2.551   3.716  0.00  0.00    -0.192 OA
BRANCH  18  19
ATOM     19  C   UNL d   1       2.391   3.598   4.348  0.00  0.00     0.316 C 
ATOM     20  O   UNL d   1       1.188   3.805   4.272  0.00  0.00    -0.257 OA
BRANCH  19  21
ATOM     21  C   UNL d   1       3.381   4.439   5.095  0.00  0.00     0.063 A 
ATOM     22  C   UNL d   1       2.999   5.269   6.162  0.00  0.00     0.050 A 
ATOM     23 CL   UNL d   1       1.397   5.324   6.808  0.00  0.00    -0.083 Cl
ATOM     24  C   UNL d   1       3.946   6.093   6.795  0.00  0.00     0.025 A 
ATOM     25  C   UNL d   1       5.277   6.092   6.383  0.00  0.00     0.002 A 
ATOM     26  C   UNL d   1       5.671   5.264   5.337  0.00  0.00     0.001 A 
ATOM     27  C   UNL d   1       4.732   4.447   4.694  0.00  0.00     0.019 A 
ENDBRANCH  19  21
ENDBRANCH  18  19
ENDBRANCH   2  18
TORSDOF 5
