REMARK  4 active torsions:
REMARK  status: ('A' for Active; 'I' for Inactive)
REMARK    1  A    between atoms: C_7  and  N_1 
REMARK    2  A    between atoms: C_13  and  C_6 
REMARK    3  A    between atoms: O_9  and  C_8 
REMARK    4  A    between atoms: C_10  and  O_9 
ROOT
ATOM      1  C   UNL d   1      -0.536  -2.618  -0.196  0.00  0.00     0.088 A 
ATOM      2  C   UNL d   1       0.013  -3.422   0.820  0.00  0.00     0.104 A 
ATOM      3  C   UNL d   1      -1.328  -3.226  -1.187  0.00  0.00     0.034 A 
ATOM      4  C   UNL d   1      -0.358  -4.776   0.905  0.00  0.00     0.040 A 
ATOM      5  C   UNL d   1      -1.637  -4.587  -1.124  0.00  0.00     0.002 A 
ATOM      6  C   UNL d   1      -1.174  -5.356  -0.065  0.00  0.00     0.003 A 
ENDROOT
BRANCH   1   7
ATOM      7  N   UNL d   1      -0.317  -1.210  -0.239  0.00  0.00    -0.239 N 
ATOM      8  N   UNL d   1       0.825  -0.661   0.239  0.00  0.00    -0.014 NA
ATOM      9  N   UNL d   1       0.798   0.644   0.024  0.00  0.00    -0.281 N 
ATOM     10  C   UNL d   1      -0.392   0.958  -0.568  0.00  0.00     0.080 A 
ATOM     11  HN  UNL d   1       1.540   1.303   0.261  1.00  0.00     0.184 HD
ATOM     12  C   UNL d   1      -1.144  -0.195  -0.730  0.00  0.00     0.057 A 
ATOM     13  C   UNL d   1      -2.554  -0.377  -1.159  0.00  0.00     0.072 C 
BRANCH  10  14
ATOM     14  C   UNL d   1      -0.788   2.330  -0.849  0.00  0.00    -0.006 A 
ATOM     15  C   UNL d   1      -0.333   3.359  -0.011  0.00  0.00     0.014 A 
ATOM     16  C   UNL d   1      -0.716   4.685  -0.232  0.00  0.00     0.001 A 
ATOM     17  C   UNL d   1      -1.557   4.999  -1.297  0.00  0.00     0.000 A 
ATOM     18  C   UNL d   1      -2.001   3.991  -2.150  0.00  0.00     0.001 A 
ATOM     19  C   UNL d   1      -1.611   2.666  -1.933  0.00  0.00     0.014 A 
ENDBRANCH  10  14
ENDBRANCH   1   7
BRANCH   2  20
ATOM     20  O   UNL d   1       0.815  -2.865   1.796  0.00  0.00    -0.307 OA
BRANCH  20  21
ATOM     21  C   UNL d   1       1.899  -3.593   2.246  0.00  0.00     0.098 A 
ATOM     22  C   UNL d   1       2.190  -3.582   3.617  0.00  0.00     0.069 A 
ATOM     23  C   UNL d   1       3.256  -4.331   4.118  0.00  0.00     0.050 A 
ATOM     24 CL   UNL d   1       1.230  -2.676   4.731  0.00  0.00    -0.081 Cl
ATOM     25  C   UNL d   1       4.039  -5.084   3.245  0.00  0.00     0.035 A 
ATOM     26  C   UNL d   1       3.786  -5.072   1.875  0.00  0.00     0.026 A 
ATOM     27 CL   UNL d   1       5.330  -6.040   3.863  0.00  0.00    -0.084 Cl
ATOM     28  C   UNL d   1       2.728  -4.311   1.372  0.00  0.00     0.041 A 
ENDBRANCH  20  21
ENDBRANCH   2  20
TORSDOF 4
