REMARK  3 active torsions:
REMARK  status: ('A' for Active; 'I' for Inactive)
REMARK    1  A    between atoms: C_2  and  S_1 
REMARK    2  A    between atoms: O_3  and  S_1 
REMARK    3  A    between atoms: C_5  and  O_3 
ROOT
ATOM      1  S   UNL d   1       0.887  -0.043   0.089  0.00  0.00     0.303 S 
ATOM      2  O   UNL d   1       0.148  -0.998  -0.715  0.00  0.00    -0.193 OA
ATOM      3  O   UNL d   1       2.338  -0.052   0.106  0.00  0.00    -0.193 OA
ENDROOT
BRANCH   1   4
ATOM      4  C   UNL d   1       0.360  -0.273   1.778  0.00  0.00     0.088 A 
ATOM      5  C   UNL d   1       1.221   0.085   2.821  0.00  0.00     0.051 A 
ATOM      6  C   UNL d   1       0.841  -0.158   4.144  0.00  0.00     0.057 A 
ATOM      7 CL   UNL d   1       1.945   0.301   5.391  0.00  0.00    -0.083 Cl
ATOM      8  C   UNL d   1      -0.393  -0.762   4.420  0.00  0.00     0.055 A 
ATOM      9  C   UNL d   1      -1.244  -1.121   3.369  0.00  0.00     0.027 A 
ATOM     10 CL   UNL d   1      -0.919  -1.099   6.030  0.00  0.00    -0.083 Cl
ATOM     11  C   UNL d   1      -0.870  -0.882   2.045  0.00  0.00     0.027 A 
ENDBRANCH   1   4
BRANCH   1  12
ATOM     12  O   UNL d   1       0.367   1.461  -0.266  0.00  0.00    -0.229 OA
BRANCH  12  13
ATOM     13  C   UNL d   1       0.647   2.074  -1.464  0.00  0.00     0.092 A 
ATOM     14  C   UNL d   1       1.351   1.499  -2.524  0.00  0.00     0.062 A 
ATOM     15  C   UNL d   1       1.583   2.240  -3.687  0.00  0.00     0.038 A 
ATOM     16 CL   UNL d   1       2.461   1.530  -4.986  0.00  0.00    -0.084 Cl
ATOM     17  C   UNL d   1       1.117   3.546  -3.808  0.00  0.00     0.048 A 
ATOM     18  C   UNL d   1       0.408   4.110  -2.753  0.00  0.00     0.038 A 
ATOM     19  C   UNL d   1       0.171   3.383  -1.586  0.00  0.00     0.062 A 
ATOM     20 CL   UNL d   1      -0.179   5.722  -2.887  0.00  0.00    -0.084 Cl
ENDBRANCH  12  13
ENDBRANCH   1  12
TORSDOF 3
