REMARK  5 active torsions:
REMARK  status: ('A' for Active; 'I' for Inactive)
REMARK    1  A    between atoms: C_7  and  C_1 
REMARK    2  A    between atoms: O_9  and  C_7 
REMARK    3  A    between atoms: C_8  and  C_11 
REMARK    4  A    between atoms: C_11  and  O_9 
REMARK    5  A    between atoms: O_18  and  C_10 
ROOT
ATOM      1  C   UNL d   1      -0.009  -1.697  -0.132  0.00  0.00     0.157 C 
ATOM      2  O   UNL d   1      -0.015   1.228   0.078  0.00  0.00    -0.310 OA
ATOM      3  C   UNL d   1       1.252  -0.858  -0.010  0.00  0.00    -0.006 A 
ATOM      4  C   UNL d   1      -1.258  -0.844  -0.277  0.00  0.00    -0.006 A 
ATOM      5  C   UNL d   1       1.168   0.535   0.065  0.00  0.00     0.083 A 
ATOM      6  C   UNL d   1      -1.180   0.547  -0.164  0.00  0.00     0.083 A 
ATOM      7  C   UNL d   1       2.529  -1.447  -0.044  0.00  0.00     0.011 A 
ATOM      8  C   UNL d   1      -2.508  -1.415  -0.574  0.00  0.00     0.011 A 
ATOM      9  C   UNL d   1      -2.319   1.344  -0.314  0.00  0.00     0.038 A 
ATOM     10  C   UNL d   1       2.323   1.321   0.117  0.00  0.00     0.038 A 
ATOM     11  C   UNL d   1       3.683  -0.661   0.019  0.00  0.00     0.001 A 
ATOM     12  C   UNL d   1      -3.648  -0.620  -0.719  0.00  0.00     0.001 A 
ATOM     13  C   UNL d   1       3.581   0.725   0.096  0.00  0.00     0.003 A 
ATOM     14  C   UNL d   1      -3.553   0.763  -0.586  0.00  0.00     0.003 A 
ENDROOT
BRANCH   1  15
ATOM     15  C   UNL d   1      -0.181  -2.812   0.915  0.00  0.00     0.272 C 
ATOM     16  O   UNL d   1      -1.039  -3.687   0.821  0.00  0.00    -0.264 OA
BRANCH  15  17
ATOM     17  O   UNL d   1       0.739  -2.780   1.919  0.00  0.00    -0.316 OA
BRANCH  17  18
ATOM     18  C   UNL d   1       0.735  -3.910   2.822  0.00  0.00     0.220 C 
BRANCH  18  19
ATOM     19  C   UNL d   1      -0.001  -3.670   4.122  0.00  0.00     0.001 A 
ATOM     20  C   UNL d   1      -0.186  -4.647   5.122  0.00  0.00     0.076 A 
ATOM     21  C   UNL d   1      -0.839  -4.297   6.319  0.00  0.00     0.039 A 
ATOM     22  C   UNL d   1      -1.308  -3.006   6.553  0.00  0.00     0.022 A 
ATOM     23  C   UNL d   1      -1.119  -2.039   5.581  0.00  0.00     0.011 A 
ATOM     24  C   UNL d   1      -0.477  -2.363   4.386  0.00  0.00     0.031 A 
ATOM     25 BR   UNL d   1      -1.711  -0.270   5.883  0.00  0.00    -0.051 Br
BRANCH  20  26
ATOM     26  O   UNL d   1       0.229  -5.949   5.177  0.00  0.00    -0.355 OA
ATOM     27  C   UNL d   1       0.615  -6.663   4.020  0.00  0.00     0.210 C 
ENDBRANCH  20  26
ENDBRANCH  18  19
ENDBRANCH  17  18
ENDBRANCH  15  17
ENDBRANCH   1  15
TORSDOF 5
