REMARK  17 active torsions:
REMARK  status: ('A' for Active; 'I' for Inactive)
REMARK    1  A    between atoms: C_3  and  N_1 
REMARK    2  A    between atoms: S_11  and  C_2 
REMARK    3  A    between atoms: C_9  and  C_4 
REMARK    4  A    between atoms: C_28  and  C_10 
REMARK    5  A    between atoms: C_19  and  S_11 
REMARK    6  A    between atoms: C_12  and  C_19 
REMARK       I    between atoms: N_13  and  C_12 
REMARK    7  A    between atoms: C_22  and  N_13 
REMARK    8  A    between atoms: C_25  and  C_14 
REMARK    9  A    between atoms: C_31  and  C_28 
REMARK   10  A    between atoms: C_41  and  C_31 
REMARK   11  A    between atoms: C_32  and  C_35 
REMARK   12  A    between atoms: C_35  and  C_36 
REMARK   13  A    between atoms: C_36  and  C_40 
REMARK   14  A    between atoms: C_37  and  C_38 
REMARK   15  A    between atoms: C_40  and  C_37 
REMARK   16  A    between atoms: C_38  and  C_39 
REMARK   17  A    between atoms: C_39  and  C_41 
ROOT
ATOM      1  N   UNL d   1      -0.272  -1.380  -0.208  0.00  0.00    -0.278 N 
ATOM      2  C   UNL d   1       0.886  -0.788  -0.662  0.00  0.00     0.168 C 
ATOM      3  N   UNL d   1       0.918   0.479  -0.303  0.00  0.00    -0.278 N 
ATOM      4  HN  UNL d   1       1.732   1.093  -0.310  1.00  0.00     0.189 HD
ATOM      5  N   UNL d   1      -0.345   0.811   0.081  0.00  0.00    -0.286 N 
ATOM      6  HN  UNL d   1      -0.649   1.736   0.382  1.00  0.00     0.188 HD
ATOM      7  C   UNL d   1      -1.113  -0.261  -0.002  0.00  0.00     0.104 C 
ENDROOT
BRANCH   2   8
ATOM      8  S   UNL d   1       1.963  -1.508  -1.823  0.00  0.00    -0.083 SA
BRANCH   8   9
ATOM      9  C   UNL d   1       3.424  -0.431  -1.714  0.00  0.00     0.185 C 
BRANCH   9  10
ATOM     10  C   UNL d   1       3.306   0.800  -2.599  0.00  0.00     0.231 C 
ATOM     11  N   UNL d   1       2.187   1.567  -2.369  0.00  0.00    -0.327 N 
ATOM     12  H   UNL d   1       1.695   1.422  -1.488  0.00  0.00     0.169 HD
ATOM     13  O   UNL d   1       4.209   1.104  -3.379  0.00  0.00    -0.272 OA
BRANCH  11  14
ATOM     14  C   UNL d   1       1.740   2.642  -3.139  0.00  0.00     0.034 A 
ATOM     15  C   UNL d   1       1.943   2.713  -4.514  0.00  0.00     0.030 A 
ATOM     16  C   UNL d   1       1.385   3.766  -5.240  0.00  0.00     0.010 A 
ATOM     17  C   UNL d   1       0.654   4.777  -4.596  0.00  0.00    -0.055 A 
ATOM     18  C   UNL d   1       0.492   4.710  -3.205  0.00  0.00     0.010 A 
ATOM     19  C   UNL d   1       1.003   3.631  -2.488  0.00  0.00     0.030 A 
BRANCH  17  20
ATOM     20  C   UNL d   1       0.001   5.902  -5.374  0.00  0.00     0.010 C 
ATOM     21  C   UNL d   1       1.020   6.713  -6.174  0.00  0.00     0.015 C 
ATOM     22  C   UNL d   1      -1.103   5.360  -6.285  0.00  0.00     0.015 C 
ENDBRANCH  17  20
ENDBRANCH  11  14
ENDBRANCH   9  10
ENDBRANCH   8   9
ENDBRANCH   2   8
BRANCH   1  23
ATOM     23  C   UNL d   1      -0.549  -2.780  -0.044  0.00  0.00     0.058 A 
ATOM     24  C   UNL d   1       0.434  -3.736   0.350  0.00  0.00     0.075 A 
ATOM     25  C   UNL d   1       0.066  -5.105   0.386  0.00  0.00     0.018 A 
ATOM     26  C   UNL d   1      -1.228  -5.531   0.117  0.00  0.00     0.001 A 
ATOM     27  C   UNL d   1      -2.194  -4.602  -0.201  0.00  0.00     0.002 A 
ATOM     28  C   UNL d   1      -1.856  -3.248  -0.290  0.00  0.00     0.031 A 
BRANCH  24  29
ATOM     29  C   UNL d   1       1.853  -3.483   0.834  0.00  0.00     0.419 C 
ATOM     30  F   UNL d   1       2.178  -2.192   1.094  0.00  0.00    -0.166 F 
ATOM     31  F   UNL d   1       2.112  -4.141   2.003  0.00  0.00    -0.166 F 
ATOM     32  F   UNL d   1       2.786  -3.951  -0.045  0.00  0.00    -0.166 F 
ENDBRANCH  24  29
ENDBRANCH   1  23
BRANCH   7  33
ATOM     33  C   UNL d   1      -2.607  -0.231   0.120  0.00  0.00     0.078 C 
BRANCH  33  34
ATOM     34  C   UNL d   1      -3.155   1.201   0.165  0.00  0.00     0.007 C 
BRANCH  34  35
ATOM     35  C   UNL d   1      -4.692   1.265   0.203  0.00  0.00     0.000 C 
BRANCH  35  36
ATOM     36  C   UNL d   1      -5.133   2.732   0.200  0.00  0.00     0.000 C 
BRANCH  36  37
ATOM     37  C   UNL d   1      -6.647   2.917   0.269  0.00  0.00     0.000 C 
BRANCH  37  38
ATOM     38  C   UNL d   1      -6.993   4.410   0.275  0.00  0.00     0.000 C 
BRANCH  38  39
ATOM     39  C   UNL d   1      -8.500   4.638   0.350  0.00  0.00     0.000 C 
BRANCH  39  40
ATOM     40  C   UNL d   1      -8.841   6.130   0.361  0.00  0.00     0.000 C 
BRANCH  40  41
ATOM     41  C   UNL d   1     -10.354   6.338   0.439  0.00  0.00    -0.000 C 
BRANCH  41  42
ATOM     42  C   UNL d   1     -10.718   7.821   0.448  0.00  0.00    -0.005 C 
ATOM     43  C   UNL d   1     -12.224   8.018   0.527  0.00  0.00     0.005 C 
ENDBRANCH  41  42
ENDBRANCH  40  41
ENDBRANCH  39  40
ENDBRANCH  38  39
ENDBRANCH  37  38
ENDBRANCH  36  37
ENDBRANCH  35  36
ENDBRANCH  34  35
ENDBRANCH  33  34
ENDBRANCH   7  33
TORSDOF 17
