REMARK  5 active torsions:
REMARK  status: ('A' for Active; 'I' for Inactive)
REMARK    1  A    between atoms: C_12  and  N_3 
REMARK    2  A    between atoms: S_18  and  C_9 
REMARK    3  A    between atoms: C_16  and  C_12 
REMARK    4  A    between atoms: O_20  and  C_16 
REMARK    5  A    between atoms: C_22  and  O_20 
ROOT
ATOM      1  C   UNL d   1       0.783  -0.609  -0.032  0.00  0.00     0.039 A 
ATOM      2  C   UNL d   1       1.277   0.676  -0.042  0.00  0.00     0.094 A 
ATOM      3  N   UNL d   1       0.533   1.861  -0.063  0.00  0.00    -0.297 N 
ATOM      4  C   UNL d   1      -0.699  -0.738  -0.032  0.00  0.00     0.035 A 
ATOM      5  C   UNL d   1      -1.461   0.412  -0.085  0.00  0.00     0.051 A 
ATOM      6  C   UNL d   1       1.813  -1.594  -0.003  0.00  0.00     0.082 A 
ATOM      7  S   UNL d   1       2.967   0.703  -0.010  0.00  0.00    -0.063 SA
ATOM      8  C   UNL d   1      -0.874   1.758  -0.147  0.00  0.00     0.260 A 
ATOM      9  C   UNL d   1       3.073  -1.012   0.001  0.00  0.00     0.064 A 
ATOM     10  C   UNL d   1       1.616  -3.019   0.018  0.00  0.00     0.102 C 
ATOM     11  S   UNL d   1      -1.624  -2.154   0.039  0.00  0.00    -0.100 SA
ATOM     12  N   UNL d   1       1.457  -4.168   0.026  0.00  0.00    -0.191 NA
ATOM     13  C   UNL d   1      -2.860   0.090  -0.053  0.00  0.00     0.025 A 
ATOM     14  C   UNL d   1      -3.087  -1.268   0.011  0.00  0.00     0.051 A 
ATOM     15  O   UNL d   1      -1.598   2.748  -0.244  0.00  0.00    -0.267 OA
ENDROOT
BRANCH   9  16
ATOM     16  S   UNL d   1       4.616  -1.874   0.083  0.00  0.00    -0.126 SA
ATOM     17  C   UNL d   1       5.744  -0.809  -0.842  0.00  0.00     0.096 C 
ENDBRANCH   9  16
BRANCH   3  18
ATOM     18  C   UNL d   1       1.089   3.214   0.036  0.00  0.00     0.244 C 
BRANCH  18  19
ATOM     19  C   UNL d   1       1.396   3.950  -1.258  0.00  0.00     0.277 C 
ATOM     20  O   UNL d   1       1.901   5.069  -1.266  0.00  0.00    -0.263 OA
BRANCH  19  21
ATOM     21  O   UNL d   1       0.983   3.283  -2.369  0.00  0.00    -0.321 OA
BRANCH  21  22
ATOM     22  C   UNL d   1       0.861   4.096  -3.548  0.00  0.00     0.174 C 
ATOM     23  C   UNL d   1      -0.545   4.667  -3.579  0.00  0.00     0.034 C 
ENDBRANCH  21  22
ENDBRANCH  19  21
ENDBRANCH  18  19
ENDBRANCH   3  18
TORSDOF 5
