REMARK  2 active torsions:
REMARK  status: ('A' for Active; 'I' for Inactive)
REMARK    1  A    between atoms: C_11  and  N_3 
REMARK    2  A    between atoms: C_12  and  C_6 
ROOT
ATOM      1  C   UNL d   1       0.214  -0.639  -0.014  0.00  0.00     0.186 A 
ATOM      2  C   UNL d   1       0.275   0.729   0.009  0.00  0.00     0.052 A 
ATOM      3  N   UNL d   1       1.518  -1.101   0.050  0.00  0.00    -0.233 N 
ATOM      4  N   UNL d   1       2.390  -0.050   0.151  0.00  0.00    -0.295 N 
ATOM      5  HN  UNL d   1       3.405  -0.100   0.241  1.00  0.00     0.187 HD
ATOM      6  C   UNL d   1      -0.952   1.444  -0.052  0.00  0.00    -0.004 A 
ATOM      7  C   UNL d   1       1.636   1.058   0.109  0.00  0.00     0.038 A 
ATOM      8  O   UNL d   1      -0.872  -1.398  -0.060  0.00  0.00    -0.255 OA
ATOM      9  C   UNL d   1      -2.072  -0.757  -0.093  0.00  0.00     0.290 A 
ATOM     10  C   UNL d   1      -2.093   0.729  -0.099  0.00  0.00     0.096 A 
ATOM     11  O   UNL d   1      -3.132  -1.374  -0.126  0.00  0.00    -0.260 OA
ATOM     12  C   UNL d   1       2.305   2.382   0.171  0.00  0.00     0.070 C 
ENDROOT
BRANCH   3  13
ATOM     13  C   UNL d   1       2.012  -2.439   0.028  0.00  0.00     0.059 A 
ATOM     14  C   UNL d   1       1.175  -3.533  -0.230  0.00  0.00     0.031 A 
ATOM     15  C   UNL d   1       1.693  -4.832  -0.231  0.00  0.00     0.002 A 
ATOM     16  C   UNL d   1       3.044  -5.051   0.027  0.00  0.00     0.000 A 
ATOM     17  C   UNL d   1       3.886  -3.971   0.275  0.00  0.00     0.002 A 
ATOM     18  C   UNL d   1       3.377  -2.669   0.270  0.00  0.00     0.031 A 
ENDBRANCH   3  13
BRANCH   6  19
ATOM     19  C   UNL d   1      -1.081   2.909  -0.083  0.00  0.00    -0.025 A 
ATOM     20  C   UNL d   1      -1.200   3.634   1.109  0.00  0.00     0.012 A 
ATOM     21  C   UNL d   1      -1.263   5.027   1.077  0.00  0.00     0.001 A 
ATOM     22  C   UNL d   1      -1.216   5.700  -0.144  0.00  0.00     0.000 A 
ATOM     23  C   UNL d   1      -1.115   4.982  -1.335  0.00  0.00     0.001 A 
ATOM     24  C   UNL d   1      -1.048   3.589  -1.307  0.00  0.00     0.012 A 
ENDBRANCH   6  19
TORSDOF 2
