REMARK  6 active torsions:
REMARK  status: ('A' for Active; 'I' for Inactive)
REMARK    1  A    between atoms: C_8  and  C_3 
REMARK    2  A    between atoms: C_19  and  C_4 
REMARK    3  A    between atoms: C_7  and  C_16 
REMARK       I    between atoms: N_10  and  C_7 
REMARK    4  A    between atoms: N_15  and  N_10 
REMARK    5  A    between atoms: S_13  and  C_19 
REMARK    6  A    between atoms: C_16  and  S_13 
ROOT
ATOM      1  N   UNL d   1       1.445  -0.575  -0.075  0.00  0.00    -0.352 N 
ATOM      2  HN  UNL d   1       2.348  -1.047  -0.131  1.00  0.00     0.166 HD
ATOM      3  C   UNL d   1       1.267   0.804  -0.025  0.00  0.00     0.049 A 
ATOM      4  C   UNL d   1       0.272  -1.183  -0.038  0.00  0.00     0.060 A 
ATOM      5  S   UNL d   1      -1.093  -0.143   0.058  0.00  0.00    -0.086 SA
ATOM      6  C   UNL d   1      -0.049   1.214   0.049  0.00  0.00     0.081 A 
ENDROOT
BRANCH   4   7
ATOM      7  C   UNL d   1       0.095  -2.670  -0.086  0.00  0.00     0.139 C 
BRANCH   7   8
ATOM      8  S   UNL d   1      -0.085  -3.295  -1.792  0.00  0.00    -0.153 SA
BRANCH   8   9
ATOM      9  C   UNL d   1       1.499  -2.755  -2.526  0.00  0.00     0.178 C 
BRANCH   9  10
ATOM     10  C   UNL d   1       2.683  -3.402  -1.834  0.00  0.00     0.240 C 
ATOM     11  O   UNL d   1       3.043  -4.558  -2.055  0.00  0.00    -0.271 OA
ATOM     12  N   UNL d   1       3.312  -2.588  -0.898  0.00  0.00    -0.293 N 
ATOM     13  H   UNL d   1       2.924  -1.668  -0.661  0.00  0.00     0.183 HD
BRANCH  12  14
ATOM     14  N   UNL d   1       4.359  -3.123  -0.112  0.00  0.00    -0.247 NA
ATOM     15  H   UNL d   1       4.709  -3.952  -0.615  0.00  0.00     0.143 HD
ATOM     16  H   UNL d   1       3.946  -3.516   0.738  0.00  0.00     0.143 HD
ENDBRANCH  12  14
ENDBRANCH   9  10
ENDBRANCH   8   9
ENDBRANCH   7   8
ENDBRANCH   4   7
BRANCH   3  17
ATOM     17  C   UNL d   1       2.410   1.709  -0.015  0.00  0.00    -0.009 A 
ATOM     18  C   UNL d   1       2.330   3.010  -0.538  0.00  0.00     0.015 A 
ATOM     19  C   UNL d   1       3.440   3.860  -0.501  0.00  0.00     0.024 A 
ATOM     20  C   UNL d   1       4.637   3.417   0.058  0.00  0.00     0.034 A 
ATOM     21  C   UNL d   1       4.736   2.126   0.572  0.00  0.00     0.024 A 
ATOM     22 CL   UNL d   1       5.998   4.466   0.112  0.00  0.00    -0.084 Cl
ATOM     23  C   UNL d   1       3.627   1.275   0.531  0.00  0.00     0.015 A 
ENDBRANCH   3  17
TORSDOF 6
