REMARK  3 active torsions:
REMARK  status: ('A' for Active; 'I' for Inactive)
REMARK    1  A    between atoms: C_5  and  C_1 
REMARK    2  A    between atoms: C_15  and  N_4 
REMARK    3  A    between atoms: C_16  and  C_14 
ROOT
ATOM      1  C   UNL d   1      -0.116  -1.350   0.064  0.00  0.00     0.126 A 
ATOM      2  N   UNL d   1       1.130  -0.858   0.068  0.00  0.00    -0.273 N 
ATOM      3  HN  UNL d   1       2.016  -1.364   0.079  1.00  0.00     0.189 HD
ATOM      4  N   UNL d   1       0.920   0.481   0.055  0.00  0.00    -0.196 N 
ATOM      5  N   UNL d   1      -0.381   0.879   0.067  0.00  0.00    -0.281 N 
ATOM      6  HN  UNL d   1      -0.758   1.826   0.087  1.00  0.00     0.189 HD
ATOM      7  C   UNL d   1      -1.043  -0.287   0.046  0.00  0.00     0.056 A 
ATOM      8  C   UNL d   1      -2.523  -0.321   0.031  0.00  0.00     0.072 C 
ENDROOT
BRANCH   1   9
ATOM      9  C   UNL d   1      -0.396  -2.812   0.102  0.00  0.00     0.195 A 
ATOM     10  O   UNL d   1       0.593  -3.756   0.241  0.00  0.00    -0.271 OA
ATOM     11  C   UNL d   1      -0.118  -4.921   0.320  0.00  0.00     0.174 A 
ATOM     12  N   UNL d   1      -1.414  -4.729   0.188  0.00  0.00    -0.277 N 
ATOM     13  N   UNL d   1      -1.596  -3.363   0.053  0.00  0.00    -0.276 N 
ATOM     14  HN  UNL d   1      -2.140  -5.445   0.185  1.00  0.00     0.189 HD
ATOM     15  HN  UNL d   1      -2.485  -2.876  -0.061  1.00  0.00     0.189 HD
BRANCH  11  16
ATOM     16  C   UNL d   1       0.641  -6.131   0.614  0.00  0.00     0.017 A 
ATOM     17  C   UNL d   1       2.033  -6.098   0.796  0.00  0.00     0.016 A 
ATOM     18  C   UNL d   1       2.737  -7.250   1.156  0.00  0.00     0.001 A 
ATOM     19  C   UNL d   1       2.058  -8.453   1.332  0.00  0.00     0.000 A 
ATOM     20  C   UNL d   1       0.680  -8.508   1.134  0.00  0.00     0.001 A 
ATOM     21  C   UNL d   1      -0.025  -7.355   0.775  0.00  0.00     0.016 A 
ENDBRANCH  11  16
ENDBRANCH   1   9
BRANCH   4  22
ATOM     22  C   UNL d   1       1.996   1.405   0.009  0.00  0.00     0.074 A 
ATOM     23  C   UNL d   1       3.313   0.939  -0.122  0.00  0.00     0.033 A 
ATOM     24  C   UNL d   1       4.369   1.848  -0.197  0.00  0.00     0.002 A 
ATOM     25  C   UNL d   1       4.117   3.218  -0.129  0.00  0.00     0.000 A 
ATOM     26  C   UNL d   1       2.811   3.684   0.014  0.00  0.00     0.002 A 
ATOM     27  C   UNL d   1       1.747   2.782   0.079  0.00  0.00     0.033 A 
ENDBRANCH   4  22
TORSDOF 3
