REMARK  2 active torsions:
REMARK  status: ('A' for Active; 'I' for Inactive)
REMARK    1  A    between atoms: C_8  and  N_1 
REMARK    2  A    between atoms: C_10  and  C_8 
ROOT
ATOM      1  N   UNL d   1       1.056  -0.710   0.103  0.00  0.00    -0.253 N 
ATOM      2  N   UNL d   1       0.615  -0.546  -1.200  0.00  0.00    -0.300 N 
ATOM      3  HN  UNL d   1       1.158  -0.896  -1.990  1.00  0.00     0.187 HD
ATOM      4  C   UNL d   1       0.382  -0.224   1.214  0.00  0.00     0.262 A 
ATOM      5  C   UNL d   1      -0.911   0.443   0.950  0.00  0.00     0.078 A 
ATOM      6  C   UNL d   1      -0.512   0.067  -1.379  0.00  0.00     0.022 A 
ATOM      7  C   UNL d   1      -1.364   0.589  -0.294  0.00  0.00     0.031 A 
ATOM      8  O   UNL d   1       0.778  -0.301   2.378  0.00  0.00    -0.267 OA
ATOM      9  C   UNL d   1      -0.992   0.296  -2.791  0.00  0.00     0.069 C 
ENDROOT
BRANCH   1  10
ATOM     10  C   UNL d   1       2.318  -1.427   0.278  0.00  0.00     0.191 C 
BRANCH  10  11
ATOM     11  C   UNL d   1       2.118  -2.923   0.369  0.00  0.00    -0.038 A 
ATOM     12  C   UNL d   1       2.115  -3.713  -0.790  0.00  0.00     0.009 A 
ATOM     13  C   UNL d   1       1.844  -5.080  -0.716  0.00  0.00     0.001 A 
ATOM     14  C   UNL d   1       1.576  -5.673   0.517  0.00  0.00     0.000 A 
ATOM     15  C   UNL d   1       1.603  -4.904   1.679  0.00  0.00     0.001 A 
ATOM     16  C   UNL d   1       1.874  -3.537   1.607  0.00  0.00     0.009 A 
ENDBRANCH  10  11
ENDBRANCH   1  10
TORSDOF 2
