REMARK  3 active torsions:
REMARK  status: ('A' for Active; 'I' for Inactive)
REMARK    1  A    between atoms: C_2  and  C_1 
REMARK    2  A    between atoms: N_3  and  C_5 
REMARK    3  A    between atoms: N_9  and  C_8 
ROOT
ATOM      1  C   UNL d   1       1.172   0.448  -2.025  0.00  0.00     0.065 A 
ATOM      2  C   UNL d   1       0.401  -0.378  -4.556  0.00  0.00     0.128 A 
ATOM      3  N   UNL d   1      -0.038  -1.072  -3.474  0.00  0.00    -0.350 N 
ATOM      4  HN  UNL d   1      -0.644  -1.885  -3.580  1.00  0.00     0.166 HD
ATOM      5  C   UNL d   1       1.619   1.150  -3.146  0.00  0.00     0.045 A 
ATOM      6  C   UNL d   1       1.220   0.746  -4.424  0.00  0.00     0.079 A 
ATOM      7  C   UNL d   1       0.354  -0.649  -2.249  0.00  0.00     0.106 A 
ATOM      8 CL   UNL d   1       1.746   1.687  -5.771  0.00  0.00    -0.080 Cl
ENDROOT
BRANCH   2   9
ATOM      9  N   UNL d   1      -0.081  -0.802  -5.809  0.00  0.00    -0.337 N 
ATOM     10  C   UNL d   1      -0.506  -2.017  -5.928  0.00  0.00     0.180 C 
ATOM     11  HN  UNL d   1      -0.094  -0.165  -6.605  1.00  0.00     0.168 HD
BRANCH  10  12
ATOM     12  N   UNL d   1      -1.056  -2.582  -7.063  0.00  0.00    -0.374 N 
ATOM     13  C   UNL d   1      -2.020  -3.686  -6.918  0.00  0.00     0.154 C 
ATOM     14  C   UNL d   1      -2.205  -4.465  -8.239  0.00  0.00     0.291 C 
ATOM     15  N   UNL d   1      -2.493  -3.637  -9.430  0.00  0.00     0.087 N 
ATOM     16  C   UNL d   1      -1.472  -2.571  -9.521  0.00  0.00     0.291 C 
ATOM     17  C   UNL d   1      -3.845  -3.083  -9.393  0.00  0.00     0.310 C 
ATOM     18  C   UNL d   1      -1.275  -1.729  -8.241  0.00  0.00     0.154 C 
ENDBRANCH  10  12
ENDBRANCH   2   9
BRANCH   1  19
ATOM     19  C   UNL d   1       1.517   0.856  -0.627  0.00  0.00     0.418 C 
ATOM     20  F   UNL d   1       2.313   1.958  -0.567  0.00  0.00    -0.166 F 
ATOM     21  F   UNL d   1       2.174  -0.119   0.057  0.00  0.00    -0.166 F 
ATOM     22  F   UNL d   1       0.413   1.153   0.111  0.00  0.00    -0.166 F 
ENDBRANCH   1  19
TORSDOF 3
