REMARK  5 active torsions:
REMARK  status: ('A' for Active; 'I' for Inactive)
REMARK    1  A    between atoms: N_11  and  N_1 
REMARK    2  A    between atoms: C_10  and  C_2 
REMARK    3  A    between atoms: C_3  and  C_5 
REMARK       I    between atoms: C_4  and  N_15 
REMARK    4  A    between atoms: C_6  and  C_4 
REMARK    5  A    between atoms: N_15  and  N_7 
ROOT
ATOM      1  C   UNL d   1       3.188  -4.914  -0.708  0.00  0.00     0.270 C 
ATOM      2  N   UNL d   1       3.278  -3.568  -0.375  0.00  0.00    -0.266 N 
ATOM      3  O   UNL d   1       2.138  -5.510  -0.939  0.00  0.00    -0.266 OA
ATOM      4  H   UNL d   1       4.149  -3.143  -0.087  0.00  0.00     0.190 HD
ENDROOT
BRANCH   2   5
ATOM      5  N   UNL d   1       2.121  -2.840  -0.316  0.00  0.00    -0.307 N 
ATOM      6  C   UNL d   1       2.224  -1.559  -0.162  0.00  0.00     0.138 C 
ATOM      7  HN  UNL d   1       1.209  -3.291  -0.391  1.00  0.00     0.186 HD
BRANCH   6   8
ATOM      8  C   UNL d   1       1.032  -0.751  -0.102  0.00  0.00     0.067 A 
ATOM      9  N   UNL d   1       0.927   0.598  -0.385  0.00  0.00    -0.286 N 
ATOM     10  C   UNL d   1      -0.348   1.025  -0.113  0.00  0.00     0.111 A 
ATOM     11  C   UNL d   1      -1.111  -0.065   0.231  0.00  0.00     0.021 A 
ATOM     12  C   UNL d   1      -0.253  -1.185   0.210  0.00  0.00     0.034 A 
BRANCH   9  13
ATOM     13  N   UNL d   1       1.873   1.473  -1.002  0.00  0.00    -0.233 NA
ATOM     14  C   UNL d   1       2.449   0.956  -2.232  0.00  0.00     0.136 C 
ATOM     15  C   UNL d   1       2.836   2.045  -0.082  0.00  0.00     0.136 C 
ENDBRANCH   9  13
ENDBRANCH   6   8
ENDBRANCH   2   5
BRANCH   1  16
ATOM     16  C   UNL d   1       4.466  -5.681  -0.790  0.00  0.00     0.034 A 
ATOM     17  C   UNL d   1       5.677  -5.099  -1.180  0.00  0.00     0.033 A 
ATOM     18  C   UNL d   1       6.833  -5.897  -1.334  0.00  0.00     0.048 A 
ATOM     19  C   UNL d   1       6.756  -7.274  -1.073  0.00  0.00     0.016 A 
ATOM     20  C   UNL d   1       5.549  -7.853  -0.684  0.00  0.00     0.002 A 
ATOM     21  C   UNL d   1       4.408  -7.062  -0.551  0.00  0.00     0.017 A 
BRANCH  18  22
ATOM     22  C   UNL d   1       8.136  -5.308  -1.817  0.00  0.00     0.417 C 
ATOM     23  F   UNL d   1       8.068  -3.970  -2.059  0.00  0.00    -0.166 F 
ATOM     24  F   UNL d   1       9.148  -5.473  -0.921  0.00  0.00    -0.166 F 
ATOM     25  F   UNL d   1       8.566  -5.876  -2.978  0.00  0.00    -0.166 F 
ENDBRANCH  18  22
ENDBRANCH   1  16
TORSDOF 5
