REMARK  3 active torsions:
REMARK  status: ('A' for Active; 'I' for Inactive)
REMARK    1  A    between atoms: C_8  and  C_1 
REMARK    2  A    between atoms: C_12  and  C_2 
REMARK    3  A    between atoms: N_5  and  C_9 
ROOT
ATOM      1  C   UNL d   1      -1.441   0.722   0.090  0.00  0.00     0.079 A 
ATOM      2  C   UNL d   1      -1.429  -0.662  -0.011  0.00  0.00     0.115 A 
ATOM      3  N   UNL d   1      -0.150   1.202   0.082  0.00  0.00    -0.338 N 
ATOM      4  HN  UNL d   1       0.160   2.173   0.108  1.00  0.00     0.168 HD
ATOM      5  O   UNL d   1      -0.116  -1.057  -0.017  0.00  0.00    -0.295 OA
ATOM      6  C   UNL d   1       0.590   0.113   0.033  0.00  0.00     0.121 A 
ATOM      7  C   UNL d   1       2.062  -0.006   0.030  0.00  0.00     0.098 C 
ENDROOT
BRANCH   1   8
ATOM      8  C   UNL d   1      -2.606   1.588   0.190  0.00  0.00    -0.006 A 
ATOM      9  C   UNL d   1      -3.769   1.175   0.858  0.00  0.00     0.016 A 
ATOM     10  C   UNL d   1      -4.910   1.980   0.883  0.00  0.00     0.037 A 
ATOM     11  C   UNL d   1      -4.873   3.238   0.277  0.00  0.00     0.102 A 
ATOM     12  C   UNL d   1      -3.706   3.692  -0.350  0.00  0.00     0.037 A 
ATOM     13  C   UNL d   1      -2.577   2.862  -0.393  0.00  0.00     0.016 A 
BRANCH  11  14
ATOM     14  N   UNL d   1      -6.069   4.088   0.311  0.00  0.00    -0.116 N 
ATOM     15  O   UNL d   1      -7.095   3.627   0.833  0.00  0.00    -0.532 OA
ATOM     16  O   UNL d   1      -5.987   5.220  -0.189  0.00  0.00    -0.532 OA
ENDBRANCH  11  14
ENDBRANCH   1   8
BRANCH   2  17
ATOM     17  C   UNL d   1      -2.429  -1.717  -0.103  0.00  0.00     0.000 A 
ATOM     18  C   UNL d   1      -3.593  -1.525  -0.862  0.00  0.00     0.014 A 
ATOM     19  C   UNL d   1      -4.633  -2.455  -0.832  0.00  0.00     0.001 A 
ATOM     20  C   UNL d   1      -4.500  -3.615  -0.077  0.00  0.00     0.000 A 
ATOM     21  C   UNL d   1      -3.326  -3.850   0.638  0.00  0.00     0.001 A 
ATOM     22  C   UNL d   1      -2.295  -2.906   0.626  0.00  0.00     0.014 A 
ENDBRANCH   2  17
TORSDOF 3
