REMARK  4 active torsions:
REMARK  status: ('A' for Active; 'I' for Inactive)
REMARK    1  A    between atoms: S_3  and  C_1 
REMARK    2  A    between atoms: C_12  and  N_2 
REMARK    3  A    between atoms: C_5  and  S_3 
REMARK    4  A    between atoms: N_4  and  C_6 
ROOT
ATOM      1  C   UNL d   1       1.024  -0.814  -0.104  0.00  0.00     0.169 A 
ATOM      2  N   UNL d   1      -0.309  -1.121   0.057  0.00  0.00    -0.312 N 
ATOM      3  N   UNL d   1       1.171   0.481  -0.289  0.00  0.00    -0.278 N 
ATOM      4  HN  UNL d   1       2.057   0.971  -0.417  1.00  0.00     0.189 HD
ATOM      5  N   UNL d   1      -0.068   1.054  -0.281  0.00  0.00    -0.294 N 
ATOM      6  HN  UNL d   1      -0.276   2.045  -0.402  1.00  0.00     0.187 HD
ATOM      7  C   UNL d   1      -0.940   0.096  -0.090  0.00  0.00     0.202 A 
ENDROOT
BRANCH   1   8
ATOM      8  S   UNL d   1       2.367  -1.895   0.004  0.00  0.00    -0.032 SA
BRANCH   8   9
ATOM      9  C   UNL d   1       2.708  -2.130  -1.732  0.00  0.00     0.110 A 
ATOM     10  C   UNL d   1       3.988  -2.210  -2.269  0.00  0.00     0.136 A 
ATOM     11  C   UNL d   1       4.171  -2.425  -3.641  0.00  0.00     0.040 A 
ATOM     12  C   UNL d   1       3.054  -2.571  -4.450  0.00  0.00     0.020 A 
ATOM     13  C   UNL d   1       1.807  -2.498  -3.854  0.00  0.00     0.089 A 
ATOM     14  N   UNL d   1       1.618  -2.295  -2.529  0.00  0.00    -0.358 N 
ATOM     15  HN  UNL d   1       0.678  -2.266  -2.136  1.00  0.00     0.166 HD
BRANCH  10  16
ATOM     16  N   UNL d   1       5.161  -2.119  -1.440  0.00  0.00    -0.113 N 
ATOM     17  O   UNL d   1       5.309  -2.980  -0.563  0.00  0.00    -0.532 OA
ATOM     18  O   UNL d   1       5.979  -1.231  -1.721  0.00  0.00    -0.532 OA
ENDBRANCH  10  16
ENDBRANCH   8   9
ENDBRANCH   1   8
BRANCH   2  19
ATOM     19  C   UNL d   1      -1.022  -2.398   0.253  0.00  0.00     0.029 C 
ATOM     20  C   UNL d   1      -0.211  -3.475   1.004  0.00  0.00     0.038 C 
ATOM     21  C   UNL d   1      -2.310  -2.187   1.095  0.00  0.00     0.038 C 
ATOM     22  C   UNL d   1      -1.450  -2.963  -1.115  0.00  0.00     0.038 C 
ENDBRANCH   2  19
TORSDOF 4
