REMARK  5 active torsions:
REMARK  status: ('A' for Active; 'I' for Inactive)
REMARK       I    between atoms: N_2  and  C_1 
REMARK    1  A    between atoms: C_4  and  C_1 
REMARK       I    between atoms: C_3  and  N_2 
REMARK       I    between atoms: N_8  and  C_3 
REMARK    2  A    between atoms: C_6  and  C_5 
REMARK       I    between atoms: N_9  and  C_6 
REMARK    3  A    between atoms: C_7  and  N_8 
REMARK    4  A    between atoms: C_17  and  N_9 
REMARK    5  A    between atoms: C_10  and  C_17 
ROOT
ATOM      1  C   UNL d   1       4.074  -1.384  -5.481  0.00  0.00     0.262 C 
ATOM      2  N   UNL d   1       3.818  -0.793  -4.257  0.00  0.00    -0.275 N 
ATOM      3  C   UNL d   1       2.564  -0.468  -3.808  0.00  0.00     0.327 C 
ATOM      4  N   UNL d   1       2.391  -0.412  -2.452  0.00  0.00    -0.308 N 
ATOM      5  O   UNL d   1       3.253  -1.557  -6.375  0.00  0.00    -0.267 OA
ATOM      6  O   UNL d   1       1.569  -0.319  -4.514  0.00  0.00    -0.247 OA
ATOM      7  H   UNL d   1       4.553  -0.813  -3.567  0.00  0.00     0.173 HD
ATOM      8  H   UNL d   1       1.411  -0.517  -2.197  0.00  0.00     0.170 HD
ENDROOT
BRANCH   4   9
ATOM      9  C   UNL d   1       3.321  -0.394  -1.399  0.00  0.00     0.052 A 
ATOM     10  C   UNL d   1       3.106  -1.177  -0.247  0.00  0.00     0.058 A 
ATOM     11  C   UNL d   1       3.935  -0.998   0.871  0.00  0.00     0.019 A 
ATOM     12  C   UNL d   1       4.965  -0.055   0.847  0.00  0.00     0.001 A 
ATOM     13  C   UNL d   1       5.187   0.704  -0.300  0.00  0.00     0.002 A 
ATOM     14  C   UNL d   1       4.371   0.533  -1.423  0.00  0.00     0.030 A 
BRANCH  10  15
ATOM     15  C   UNL d   1       2.069  -2.255  -0.162  0.00  0.00     0.253 C 
ATOM     16  N   UNL d   1       1.759  -2.902  -1.337  0.00  0.00    -0.356 N 
ATOM     17  H   UNL d   1       2.257  -2.675  -2.185  0.00  0.00     0.162 HD
ATOM     18  O   UNL d   1       1.572  -2.549   0.920  0.00  0.00    -0.268 OA
BRANCH  16  19
ATOM     19  C   UNL d   1       0.778  -3.965  -1.403  0.00  0.00     0.127 C 
BRANCH  19  20
ATOM     20  C   UNL d   1       0.641  -4.419  -2.824  0.00  0.00     0.003 A 
ATOM     21  C   UNL d   1       0.046  -3.500  -3.864  0.00  0.00     0.007 A 
ATOM     22  C   UNL d   1      -0.709  -4.725  -3.429  0.00  0.00     0.007 A 
ENDBRANCH  19  20
ENDBRANCH  16  19
ENDBRANCH  10  15
ENDBRANCH   4   9
BRANCH   1  23
ATOM     23  C   UNL d   1       5.464  -1.882  -5.701  0.00  0.00     0.070 A 
ATOM     24  C   UNL d   1       6.541  -1.470  -4.916  0.00  0.00     0.132 A 
ATOM     25  F   UNL d   1       6.367  -0.596  -3.913  0.00  0.00    -0.205 F 
ATOM     26  C   UNL d   1       7.828  -1.962  -5.142  0.00  0.00     0.043 A 
ATOM     27  C   UNL d   1       8.047  -2.884  -6.163  0.00  0.00     0.003 A 
ATOM     28  C   UNL d   1       6.983  -3.306  -6.958  0.00  0.00     0.001 A 
ATOM     29  C   UNL d   1       5.697  -2.804  -6.733  0.00  0.00     0.020 A 
ENDBRANCH   1  23
TORSDOF 5
