REMARK  4 active torsions:
REMARK  status: ('A' for Active; 'I' for Inactive)
REMARK    1  A    between atoms: C_5  and  C_1 
REMARK    2  A    between atoms: C_2  and  C_5 
REMARK    3  A    between atoms: C_13  and  C_7 
REMARK    4  A    between atoms: O_19  and  C_14 
ROOT
ATOM      1  C   UNL d   1      -3.918  -0.890   0.034  0.00  0.00     0.097 C 
ATOM      2  C   UNL d   1      -5.042  -1.637   0.089  0.00  0.00     0.038 C 
ATOM      3  C   UNL d   1      -2.628  -1.494  -0.017  0.00  0.00     0.103 C 
ATOM      4  N   UNL d   1      -1.601  -2.032  -0.082  0.00  0.00    -0.191 NA
ENDROOT
BRANCH   1   5
ATOM      5  C   UNL d   1      -4.111   0.594  -0.024  0.00  0.00     0.221 C 
ATOM      6  O   UNL d   1      -5.181   1.076  -0.396  0.00  0.00    -0.284 OA
BRANCH   5   7
ATOM      7  C   UNL d   1      -3.007   1.459   0.407  0.00  0.00     0.108 A 
ATOM      8  N   UNL d   1      -1.858   1.007   0.927  0.00  0.00    -0.257 N 
ATOM      9  O   UNL d   1      -1.084   2.114   1.197  0.00  0.00    -0.242 OA
ATOM     10  HN  UNL d   1      -1.605   0.033   1.090  1.00  0.00     0.195 HD
ATOM     11  C   UNL d   1      -1.774   3.238   0.881  0.00  0.00     0.074 A 
ATOM     12  C   UNL d   1      -3.003   2.883   0.387  0.00  0.00     0.070 A 
ATOM     13  C   UNL d   1      -1.084   4.515   1.129  0.00  0.00     0.079 C 
ENDBRANCH   5   7
ENDBRANCH   1   5
BRANCH   2  14
ATOM     14  C   UNL d   1      -5.036  -3.099   0.186  0.00  0.00    -0.035 A 
ATOM     15  C   UNL d   1      -5.007  -3.705   1.446  0.00  0.00     0.014 A 
ATOM     16  C   UNL d   1      -4.906  -5.096   1.560  0.00  0.00     0.037 A 
ATOM     17  C   UNL d   1      -4.832  -5.890   0.416  0.00  0.00     0.068 A 
ATOM     18  C   UNL d   1      -4.885  -5.282  -0.842  0.00  0.00     0.037 A 
ATOM     19  C   UNL d   1      -4.986  -3.893  -0.962  0.00  0.00     0.014 A 
BRANCH  17  20
ATOM     20  O   UNL d   1      -4.704  -7.251   0.391  0.00  0.00    -0.356 OA
ATOM     21  C   UNL d   1      -4.547  -7.902   1.645  0.00  0.00     0.210 C 
ENDBRANCH  17  20
ENDBRANCH   2  14
TORSDOF 4
