REMARK  6 active torsions:
REMARK  status: ('A' for Active; 'I' for Inactive)
REMARK    1  A    between atoms: C_8  and  C_1 
REMARK    2  A    between atoms: S_2  and  C_9 
REMARK    3  A    between atoms: C_10  and  S_2 
REMARK    4  A    between atoms: C_9  and  C_3 
REMARK       I    between atoms: N_12  and  C_8 
REMARK       I    between atoms: C_11  and  N_13 
REMARK    5  A    between atoms: C_18  and  C_11 
REMARK    6  A    between atoms: N_13  and  N_12 
ROOT
ATOM      1  C   UNL d   1      -0.135  -1.183  -0.175  0.00  0.00     0.098 A 
ATOM      2  C   UNL d   1       0.665   1.127  -0.184  0.00  0.00     0.066 A 
ATOM      3  N   UNL d   1      -0.646   1.103  -0.097  0.00  0.00    -0.355 N 
ATOM      4  HN  UNL d   1      -1.238   1.932  -0.044  1.00  0.00     0.166 HD
ATOM      5  C   UNL d   1      -1.115  -0.203  -0.087  0.00  0.00     0.028 A 
ATOM      6  S   UNL d   1       1.396  -0.423  -0.369  0.00  0.00    -0.068 SA
ATOM      7  C   UNL d   1      -2.582  -0.406   0.071  0.00  0.00     0.070 C 
ENDROOT
BRANCH   1   8
ATOM      8  C   UNL d   1      -0.302  -2.626  -0.051  0.00  0.00     0.279 C 
ATOM      9  N   UNL d   1       0.809  -3.418  -0.293  0.00  0.00    -0.262 N 
ATOM     10  H   UNL d   1       1.684  -3.058  -0.669  0.00  0.00     0.190 HD
ATOM     11  O   UNL d   1      -1.365  -3.152   0.292  0.00  0.00    -0.265 OA
BRANCH   9  12
ATOM     12  N   UNL d   1       0.734  -4.805  -0.049  0.00  0.00    -0.263 N 
ATOM     13  C   UNL d   1       1.577  -5.641  -0.756  0.00  0.00     0.270 C 
ATOM     14  O   UNL d   1       2.394  -5.226  -1.573  0.00  0.00    -0.266 OA
ATOM     15  H   UNL d   1      -0.105  -5.135   0.426  0.00  0.00     0.190 HD
BRANCH  13  16
ATOM     16  C   UNL d   1       1.466  -7.102  -0.479  0.00  0.00     0.033 A 
ATOM     17  C   UNL d   1       1.774  -8.004  -1.509  0.00  0.00     0.019 A 
ATOM     18  C   UNL d   1       1.769  -9.383  -1.269  0.00  0.00     0.025 A 
ATOM     19  C   UNL d   1       1.470  -9.862   0.004  0.00  0.00     0.034 A 
ATOM     20  C   UNL d   1       1.162  -8.974   1.036  0.00  0.00     0.025 A 
ATOM     21 CL   UNL d   1       1.504 -11.554   0.313  0.00  0.00    -0.084 Cl
ATOM     22  C   UNL d   1       1.156  -7.593   0.797  0.00  0.00     0.019 A 
ENDBRANCH  13  16
ENDBRANCH   9  12
ENDBRANCH   1   8
BRANCH   2  23
ATOM     23  C   UNL d   1       1.491   2.354   0.002  0.00  0.00     0.212 C 
BRANCH  23  24
ATOM     24  S   UNL d   1       1.478   3.344  -1.463  0.00  0.00     0.196 S 
ATOM     25  O   UNL d   1       2.263   4.539  -1.199  0.00  0.00    -0.221 OA
ATOM     26  O   UNL d   1       1.847   2.497  -2.588  0.00  0.00    -0.221 OA
BRANCH  24  27
ATOM     27  C   UNL d   1      -0.210   3.860  -1.694  0.00  0.00     0.128 A 
ATOM     28  N   UNL d   1      -0.748   4.509  -0.627  0.00  0.00    -0.357 N 
ATOM     29  C   UNL d   1      -2.024   4.925  -0.783  0.00  0.00     0.089 A 
ATOM     30  HN  UNL d   1      -0.224   4.670   0.232  1.00  0.00     0.166 HD
ATOM     31  C   UNL d   1      -2.771   4.719  -1.936  0.00  0.00     0.017 A 
ATOM     32  C   UNL d   1      -2.178   4.053  -3.006  0.00  0.00     0.004 A 
ATOM     33  C   UNL d   1      -0.864   3.615  -2.892  0.00  0.00     0.042 A 
ENDBRANCH  24  27
ENDBRANCH  23  24
ENDBRANCH   2  23
TORSDOF 6
