REMARK  3 active torsions:
REMARK  status: ('A' for Active; 'I' for Inactive)
REMARK    1  A    between atoms: C_10  and  C_3 
REMARK    2  A    between atoms: C_8  and  C_4 
REMARK    3  A    between atoms: C_13  and  C_14 
ROOT
ATOM      1  N   UNL d   1       0.745   0.207  -0.952  0.00  0.00    -0.319 N 
ATOM      2  HN  UNL d   1       1.342   0.423  -1.750  1.00  0.00     0.169 HD
ATOM      3  C   UNL d   1       0.236   1.064   0.000  0.00  0.00     0.138 A 
ATOM      4  C   UNL d   1       0.267  -0.958  -0.575  0.00  0.00     0.182 A 
ATOM      5  N   UNL d   1      -0.519   0.457   0.931  0.00  0.00    -0.242 N 
ATOM      6  HN  UNL d   1      -0.995   0.878   1.730  1.00  0.00     0.196 HD
ATOM      7  O   UNL d   1      -0.500  -0.881   0.550  0.00  0.00    -0.217 OA
ENDROOT
BRANCH   3   8
ATOM      8  C   UNL d   1       0.507   2.496  -0.018  0.00  0.00     0.010 A 
ATOM      9  C   UNL d   1       1.269   3.065  -1.043  0.00  0.00     0.016 A 
ATOM     10  C   UNL d   1       1.538   4.439  -1.055  0.00  0.00     0.009 A 
ATOM     11  C   UNL d   1       1.061   5.290  -0.041  0.00  0.00    -0.051 A 
ATOM     12  C   UNL d   1       0.288   4.706   0.976  0.00  0.00     0.009 A 
ATOM     13  C   UNL d   1       0.016   3.333   0.988  0.00  0.00     0.016 A 
BRANCH  11  14
ATOM     14  C   UNL d   1       1.405   6.790  -0.054  0.00  0.00    -0.024 C 
ATOM     15  C   UNL d   1       0.819   7.568   1.146  0.00  0.00     0.019 C 
ATOM     16  C   UNL d   1       2.938   6.965  -0.008  0.00  0.00     0.019 C 
ATOM     17  C   UNL d   1       0.858   7.449  -1.338  0.00  0.00     0.019 C 
ENDBRANCH  11  14
ENDBRANCH   3   8
BRANCH   4  18
ATOM     18  C   UNL d   1       0.441  -2.275  -1.174  0.00  0.00     0.018 A 
ATOM     19  C   UNL d   1      -0.203  -3.413  -0.656  0.00  0.00     0.026 A 
ATOM     20  C   UNL d   1       0.007  -4.636  -1.272  0.00  0.00    -0.022 A 
ATOM     21  C   UNL d   1      -0.590  -5.956  -0.976  0.00  0.00     0.068 C 
ATOM     22  C   UNL d   1       0.824  -4.743  -2.385  0.00  0.00     0.075 A 
ATOM     23  C   UNL d   1       0.320  -6.830  -1.842  0.00  0.00     0.180 C 
ATOM     24  O   UNL d   1       0.909  -6.015  -2.883  0.00  0.00    -0.350 OA
ATOM     25  C   UNL d   1       1.462  -3.650  -2.929  0.00  0.00     0.038 A 
ATOM     26  C   UNL d   1       1.269  -2.410  -2.313  0.00  0.00     0.018 A 
ENDBRANCH   4  18
TORSDOF 3
