REMARK  4 active torsions:
REMARK  status: ('A' for Active; 'I' for Inactive)
REMARK       I    between atoms: N_2  and  C_1 
REMARK    1  A    between atoms: C_5  and  C_1 
REMARK    2  A    between atoms: N_6  and  N_2 
REMARK    3  A    between atoms: C_9  and  N_6 
REMARK    4  A    between atoms: C_19  and  C_17 
ROOT
ATOM      1  C   UNL d   1       1.034  -0.222  -0.163  0.00  0.00     0.266 C 
ATOM      2  N   UNL d   1       0.262  -1.251   0.356  0.00  0.00    -0.283 N 
ATOM      3  O   UNL d   1       2.255  -0.264  -0.253  0.00  0.00    -0.266 OA
ATOM      4  H   UNL d   1      -0.626  -1.022   0.793  0.00  0.00     0.184 HD
ENDROOT
BRANCH   2   5
ATOM      5  N   UNL d   1       0.936  -2.333   0.931  0.00  0.00    -0.203 NA
ATOM      6  H   UNL d   1       1.938  -2.334   0.698  0.00  0.00     0.153 HD
BRANCH   5   7
ATOM      7  C   UNL d   1       0.329  -3.599   0.743  0.00  0.00     0.029 A 
ATOM      8  C   UNL d   1       1.008  -4.737   1.198  0.00  0.00     0.049 A 
ATOM      9  C   UNL d   1       0.405  -6.001   1.171  0.00  0.00     0.041 A 
ATOM     10 CL   UNL d   1       1.311  -7.343   1.775  0.00  0.00    -0.084 Cl
ATOM     11  C   UNL d   1      -0.902  -6.162   0.691  0.00  0.00    -0.040 A 
ATOM     12  C   UNL d   1      -1.583  -5.029   0.232  0.00  0.00     0.010 A 
ATOM     13  C   UNL d   1      -1.596  -7.495   0.684  0.00  0.00     0.050 C 
ATOM     14  C   UNL d   1      -0.979  -3.767   0.270  0.00  0.00     0.026 A 
ENDBRANCH   5   7
ENDBRANCH   2   5
BRANCH   1  15
ATOM     15  C   UNL d   1       0.264   0.976  -0.598  0.00  0.00     0.033 A 
ATOM     16  C   UNL d   1       0.863   2.237  -0.533  0.00  0.00     0.017 A 
ATOM     17  C   UNL d   1       0.166   3.367  -0.974  0.00  0.00     0.008 A 
ATOM     18  C   UNL d   1      -1.127   3.245  -1.502  0.00  0.00    -0.059 A 
ATOM     19  C   UNL d   1      -1.726   1.980  -1.552  0.00  0.00     0.008 A 
ATOM     20  C   UNL d   1      -1.035   0.851  -1.108  0.00  0.00     0.017 A 
BRANCH  18  21
ATOM     21  C   UNL d   1      -1.866   4.453  -2.023  0.00  0.00     0.034 C 
ATOM     22  C   UNL d   1      -2.731   5.108  -0.959  0.00  0.00     0.010 C 
ENDBRANCH  18  21
ENDBRANCH   1  15
TORSDOF 4
