REMARK  5 active torsions:
REMARK  status: ('A' for Active; 'I' for Inactive)
REMARK    1  A    between atoms: C_3  and  C_1 
REMARK    2  A    between atoms: C_5  and  C_1 
REMARK    3  A    between atoms: C_2  and  C_6 
REMARK    4  A    between atoms: C_4  and  C_2 
REMARK    5  A    between atoms: C_6  and  C_5 
ROOT
ATOM      1  C   UNL d   1       0.362  -0.494  -1.202  0.00  0.00     0.091 C 
ENDROOT
BRANCH   1   2
ATOM      2  C   UNL d   1       1.024  -0.038   0.089  0.00  0.00     0.160 C 
ATOM      3  O   UNL d   1       0.366   0.317   1.065  0.00  0.00    -0.292 OA
BRANCH   2   4
ATOM      4  C   UNL d   1       2.518  -0.022   0.173  0.00  0.00     0.010 A 
ATOM      5  C   UNL d   1       3.335  -0.403  -0.901  0.00  0.00     0.018 A 
ATOM      6  C   UNL d   1       4.727  -0.391  -0.763  0.00  0.00     0.043 A 
ATOM      7  C   UNL d   1       5.300   0.003   0.442  0.00  0.00     0.116 A 
ATOM      8  C   UNL d   1       4.508   0.392   1.513  0.00  0.00     0.043 A 
ATOM      9  F   UNL d   1       6.633   0.004   0.569  0.00  0.00    -0.206 F 
ATOM     10  C   UNL d   1       3.117   0.381   1.380  0.00  0.00     0.018 A 
ENDBRANCH   2   4
ENDBRANCH   1   2
BRANCH   1  11
ATOM     11  C   UNL d   1      -1.162  -0.477  -1.072  0.00  0.00     0.091 C 
BRANCH  11  12
ATOM     12  C   UNL d   1      -1.865  -0.925  -2.340  0.00  0.00     0.160 C 
ATOM     13  O   UNL d   1      -1.246  -1.296  -3.336  0.00  0.00    -0.292 OA
BRANCH  12  14
ATOM     14  C   UNL d   1      -3.365  -0.903  -2.367  0.00  0.00     0.010 A 
ATOM     15  C   UNL d   1      -4.121  -0.518  -1.249  0.00  0.00     0.018 A 
ATOM     16  C   UNL d   1      -5.517  -0.483  -1.321  0.00  0.00     0.043 A 
ATOM     17  C   UNL d   1      -6.156  -0.833  -2.504  0.00  0.00     0.116 A 
ATOM     18  C   UNL d   1      -5.425  -1.229  -3.618  0.00  0.00     0.043 A 
ATOM     19  F   UNL d   1      -7.492  -0.786  -2.570  0.00  0.00    -0.206 F 
ATOM     20  C   UNL d   1      -4.029  -1.266  -3.550  0.00  0.00     0.018 A 
ENDBRANCH  12  14
ENDBRANCH  11  12
ENDBRANCH   1  11
TORSDOF 5
