REMARK  4 active torsions:
REMARK  status: ('A' for Active; 'I' for Inactive)
REMARK    1  A    between atoms: C_3  and  C_1 
REMARK    2  A    between atoms: N_6  and  C_2 
REMARK    3  A    between atoms: O_9  and  C_3 
REMARK    4  A    between atoms: N_11  and  C_8 
ROOT
ATOM      1  C   UNL d   1       0.217   1.278  -0.108  0.00  0.00     0.065 A 
ATOM      2  C   UNL d   1       0.996   0.096  -0.100  0.00  0.00     0.046 A 
ATOM      3  C   UNL d   1      -1.197   1.222  -0.097  0.00  0.00     0.043 A 
ATOM      4  C   UNL d   1       0.270  -1.111  -0.023  0.00  0.00     0.032 A 
ATOM      5  C   UNL d   1      -1.879   0.010  -0.066  0.00  0.00     0.007 A 
ATOM      6  C   UNL d   1      -1.131  -1.154   0.025  0.00  0.00     0.025 A 
ENDROOT
BRANCH   1   7
ATOM      7  C   UNL d   1       0.801   2.640  -0.237  0.00  0.00     0.178 C 
ATOM      8  O   UNL d   1       1.691   2.953  -1.012  0.00  0.00    -0.646 OA
BRANCH   7   9
ATOM      9  O   UNL d   1       0.232   3.532   0.610  0.00  0.00    -0.773 OA
ATOM     10  H   UNL d   1      -0.397   3.147   1.247  0.00  0.00     0.167 HD
ENDBRANCH   7   9
ENDBRANCH   1   7
BRANCH   2  11
ATOM     11  N   UNL d   1       2.383   0.054  -0.179  0.00  0.00    -0.389 N 
ATOM     12  C   UNL d   1       3.233   0.909   0.642  0.00  0.00     0.149 C 
ATOM     13  C   UNL d   1       3.054  -1.069  -0.826  0.00  0.00     0.149 C 
ENDBRANCH   2  11
BRANCH   5  14
ATOM     14  N   UNL d   1      -3.265  -0.014   0.106  0.00  0.00    -0.303 NA
ATOM     15  H   UNL d   1      -3.750   0.792  -0.278  0.00  0.00     0.124 HD
ATOM     16  H   UNL d   1      -3.700  -0.886  -0.181  0.00  0.00     0.124 HD
ENDBRANCH   5  14
TORSDOF 4
