REMARK  5 active torsions:
REMARK  status: ('A' for Active; 'I' for Inactive)
REMARK    1  A    between atoms: S_2  and  C_1 
REMARK    2  A    between atoms: C_10  and  S_2 
REMARK    3  A    between atoms: S_11  and  C_3 
REMARK    4  A    between atoms: C_7  and  C_5 
REMARK    5  A    between atoms: O_13  and  C_7 
ROOT
ATOM      1  C   UNL d   1       1.488   0.825   0.052  0.00  0.00     0.084 A 
ATOM      2  C   UNL d   1       0.239   1.382  -0.193  0.00  0.00     0.063 A 
ATOM      3  C   UNL d   1       1.421  -0.620   0.108  0.00  0.00     0.051 A 
ATOM      4  C   UNL d   1       0.151  -1.130  -0.031  0.00  0.00     0.081 A 
ATOM      5  S   UNL d   1      -0.970   0.126  -0.223  0.00  0.00    -0.075 SA
ENDROOT
BRANCH   1   6
ATOM      6  S   UNL d   1       3.062   1.563   0.225  0.00  0.00     0.180 S 
ATOM      7  O   UNL d   1       2.847   2.888   0.743  0.00  0.00    -0.222 OA
ATOM      8  O   UNL d   1       3.809   0.585   0.997  0.00  0.00    -0.222 OA
BRANCH   6   9
ATOM      9  C   UNL d   1       3.752   1.615  -1.433  0.00  0.00     0.105 C 
ATOM     10  C   UNL d   1       3.010   2.577  -2.348  0.00  0.00     0.026 C 
ATOM     11  C   UNL d   1       5.232   1.990  -1.371  0.00  0.00     0.026 C 
ENDBRANCH   6   9
ENDBRANCH   1   6
BRANCH   2  12
ATOM     12  S   UNL d   1      -0.435   2.959  -0.591  0.00  0.00    -0.126 SA
ATOM     13  C   UNL d   1       0.558   4.277   0.086  0.00  0.00     0.096 C 
ENDBRANCH   2  12
BRANCH   4  14
ATOM     14  C   UNL d   1      -0.233  -2.532  -0.030  0.00  0.00     0.183 C 
ATOM     15  O   UNL d   1       0.542  -3.470   0.058  0.00  0.00    -0.646 OA
BRANCH  14  16
ATOM     16  O   UNL d   1      -1.573  -2.721  -0.152  0.00  0.00    -0.772 OA
ATOM     17  H   UNL d   1      -2.060  -1.877  -0.211  0.00  0.00     0.167 HD
ENDBRANCH  14  16
ENDBRANCH   4  14
TORSDOF 5
