REMARK  3 active torsions:
REMARK  status: ('A' for Active; 'I' for Inactive)
REMARK    1  A    between atoms: C_2  and  C_1 
REMARK    2  A    between atoms: C_16  and  O_18 
REMARK    3  A    between atoms: O_18  and  C_17 
ROOT
ATOM      1  C   UNL d   1      -3.264  -1.357  -0.020  0.00  0.00     0.088 C 
ATOM      2  C   UNL d   1      -3.855  -2.177   1.072  0.00  0.00     0.201 C 
ATOM      3  C   UNL d   1      -4.027  -1.046  -1.087  0.00  0.00     0.068 C 
ATOM      4  C   UNL d   1      -5.179  -2.762   0.799  0.00  0.00     0.049 A 
ATOM      5  C   UNL d   1      -5.857  -2.362  -0.347  0.00  0.00     0.092 A 
ATOM      6  O   UNL d   1      -5.347  -1.451  -1.233  0.00  0.00    -0.313 OA
ATOM      7  C   UNL d   1      -7.115  -2.884  -0.643  0.00  0.00     0.075 A 
ATOM      8  C   UNL d   1      -5.752  -3.701   1.664  0.00  0.00     0.021 A 
ATOM      9  O   UNL d   1      -3.309  -2.344   2.155  0.00  0.00    -0.286 OA
ATOM     10  C   UNL d   1      -7.695  -3.803   0.230  0.00  0.00     0.081 A 
ATOM     11  C   UNL d   1      -7.014  -4.229   1.373  0.00  0.00     0.038 A 
ATOM     12  C   UNL d   1      -3.581  -0.221  -2.264  0.00  0.00     0.078 C 
ENDROOT
BRANCH   1  13
ATOM     13  C   UNL d   1      -1.903  -0.967   0.055  0.00  0.00     0.125 A 
ATOM     14  N   UNL d   1      -0.848  -1.600  -0.425  0.00  0.00    -0.340 N 
ATOM     15  C   UNL d   1       0.225  -0.783  -0.188  0.00  0.00     0.060 A 
ATOM     16  HN  UNL d   1      -0.836  -2.513  -0.880  1.00  0.00     0.167 HD
ATOM     17  C   UNL d   1       1.579  -0.980  -0.498  0.00  0.00     0.032 A 
ATOM     18  C   UNL d   1      -0.172   0.395   0.432  0.00  0.00     0.062 A 
ATOM     19  C   UNL d   1       2.496   0.031  -0.185  0.00  0.00     0.002 A 
ATOM     20  C   UNL d   1       2.072   1.213   0.424  0.00  0.00     0.002 A 
ATOM     21  C   UNL d   1       0.727   1.422   0.750  0.00  0.00     0.032 A 
ATOM     22  N   UNL d   1      -1.534   0.247   0.599  0.00  0.00    -0.335 N 
ATOM     23  C   UNL d   1      -2.385   1.249   1.197  0.00  0.00     0.158 C 
ENDBRANCH   1  13
BRANCH  10  24
ATOM     24  O   UNL d   1      -8.938  -4.417  -0.026  0.00  0.00    -0.279 OA
BRANCH  24  25
ATOM     25  C   UNL d   1      -9.977  -3.702  -0.622  0.00  0.00     0.260 C 
ATOM     26  O   UNL d   1      -9.974  -2.515  -0.918  0.00  0.00    -0.265 OA
ATOM     27  C   UNL d   1     -11.146  -4.613  -0.858  0.00  0.00     0.126 C 
ENDBRANCH  24  25
ENDBRANCH  10  24
TORSDOF 3
