REMARK  8 active torsions:
REMARK  status: ('A' for Active; 'I' for Inactive)
REMARK    1  A    between atoms: N_6  and  C_3 
REMARK    2  A    between atoms: N_7  and  C_4 
REMARK    3  A    between atoms: N_8  and  C_5 
REMARK       I    between atoms: C_9  and  N_8 
REMARK    4  A    between atoms: C_23  and  C_9 
REMARK    5  A    between atoms: C_10  and  C_24 
REMARK    6  A    between atoms: O_18  and  C_10 
REMARK    7  A    between atoms: O_17  and  C_23 
REMARK    8  A    between atoms: C_24  and  O_17 
ROOT
ATOM      1  N   UNL d   1      -1.135   0.068  -0.051  0.00  0.00    -0.331 N 
ATOM      2  HN  UNL d   1      -2.152   0.119  -0.005  1.00  0.00     0.168 HD
ATOM      3  C   UNL d   1      -0.380   1.195   0.022  0.00  0.00     0.111 A 
ATOM      4  C   UNL d   1      -0.506  -1.125  -0.187  0.00  0.00     0.104 A 
ATOM      5  C   UNL d   1       1.034   1.160  -0.063  0.00  0.00     0.073 A 
ATOM      6  C   UNL d   1       0.886  -1.211  -0.235  0.00  0.00     0.051 A 
ATOM      7  C   UNL d   1       1.663  -0.066  -0.185  0.00  0.00     0.037 A 
ENDROOT
BRANCH   5   8
ATOM      8  N   UNL d   1       1.741   2.384  -0.001  0.00  0.00    -0.323 N 
ATOM      9  C   UNL d   1       3.023   2.608  -0.461  0.00  0.00     0.245 C 
ATOM     10  O   UNL d   1       3.763   1.769  -0.970  0.00  0.00    -0.271 OA
ATOM     11  H   UNL d   1       1.149   3.167   0.262  0.00  0.00     0.169 HD
BRANCH   9  12
ATOM     12  C   UNL d   1       3.482   4.055  -0.304  0.00  0.00     0.271 C 
BRANCH  12  13
ATOM     13  O   UNL d   1       4.473   4.128   0.722  0.00  0.00    -0.372 OA
BRANCH  13  14
ATOM     14  C   UNL d   1       5.054   5.432   0.810  0.00  0.00     0.277 C 
BRANCH  14  15
ATOM     15  C   UNL d   1       4.267   6.272   1.796  0.00  0.00     0.164 C 
ATOM     16  O   UNL d   1       4.249   7.495   1.812  0.00  0.00    -0.648 OA
BRANCH  15  17
ATOM     17  O   UNL d   1       3.577   5.508   2.680  0.00  0.00    -0.775 OA
ATOM     18  H   UNL d   1       3.756   4.559   2.486  0.00  0.00     0.167 HD
ENDBRANCH  15  17
ENDBRANCH  14  15
ENDBRANCH  13  14
ENDBRANCH  12  13
ENDBRANCH   9  12
ENDBRANCH   5   8
BRANCH   3  19
ATOM     19  N   UNL d   1      -0.989   2.474   0.176  0.00  0.00    -0.263 NA
ATOM     20  C   UNL d   1      -2.300   2.413   0.862  0.00  0.00     0.123 C 
ATOM     21  C   UNL d   1      -2.797   3.856   1.080  0.00  0.00     0.182 C 
ATOM     22  O   UNL d   1      -2.903   4.577  -0.163  0.00  0.00    -0.389 OA
ATOM     23  C   UNL d   1      -1.643   4.591  -0.854  0.00  0.00     0.182 C 
ATOM     24  C   UNL d   1      -1.141   3.162  -1.129  0.00  0.00     0.123 C 
ENDBRANCH   3  19
BRANCH   4  25
ATOM     25  N   UNL d   1      -1.223  -2.299  -0.398  0.00  0.00    -0.363 N 
ATOM     26  C   UNL d   1      -2.612  -2.180  -0.853  0.00  0.00     0.150 C 
ATOM     27  C   UNL d   1      -3.020  -3.541  -1.453  0.00  0.00     0.187 C 
ATOM     28  O   UNL d   1      -2.874  -4.610  -0.498  0.00  0.00    -0.388 OA
ATOM     29  C   UNL d   1      -1.513  -4.694  -0.035  0.00  0.00     0.187 C 
ATOM     30  C   UNL d   1      -1.051  -3.371   0.600  0.00  0.00     0.150 C 
ENDBRANCH   4  25
TORSDOF 8
