REMARK  5 active torsions:
REMARK  status: ('A' for Active; 'I' for Inactive)
REMARK    1  A    between atoms: C_5  and  C_1 
REMARK    2  A    between atoms: C_11  and  C_4 
REMARK    3  A    between atoms: S_14  and  C_10 
REMARK    4  A    between atoms: C_20  and  S_14 
REMARK    5  A    between atoms: C_22  and  C_20 
ROOT
ATOM      1  C   UNL d   1       0.292  -2.740   0.110  0.00  0.00     0.050 A 
ATOM      2  N   UNL d   1      -0.138  -3.475  -0.937  0.00  0.00    -0.336 N 
ATOM      3  HN  UNL d   1      -0.698  -3.062  -1.683  1.00  0.00     0.168 HD
ATOM      4  C   UNL d   1       0.201  -4.773  -0.955  0.00  0.00     0.144 A 
ATOM      5  N   UNL d   1       0.953  -5.377  -0.026  0.00  0.00    -0.347 N 
ATOM      6  HN  UNL d   1       1.203  -6.363  -0.094  1.00  0.00     0.167 HD
ATOM      7  C   UNL d   1       1.033  -3.282   1.135  0.00  0.00     0.047 A 
ATOM      8  C   UNL d   1       1.359  -4.611   1.002  0.00  0.00     0.092 A 
ENDROOT
BRANCH   1   9
ATOM      9  C   UNL d   1      -0.058  -1.328   0.076  0.00  0.00     0.051 A 
ATOM     10  C   UNL d   1       0.646  -0.142   0.476  0.00  0.00     0.080 A 
ATOM     11  N   UNL d   1      -0.131   0.940   0.298  0.00  0.00    -0.259 N 
ATOM     12  O   UNL d   1      -1.307   0.492  -0.257  0.00  0.00    -0.241 OA
ATOM     13  HN  UNL d   1       0.106   1.905   0.529  1.00  0.00     0.195 HD
ATOM     14  C   UNL d   1      -1.265  -0.856  -0.400  0.00  0.00     0.087 A 
ATOM     15  C   UNL d   1      -2.468  -1.485  -0.985  0.00  0.00     0.080 C 
BRANCH  10  16
ATOM     16  C   UNL d   1       1.997   0.001   1.028  0.00  0.00    -0.006 A 
ATOM     17  C   UNL d   1       2.268   0.971   2.007  0.00  0.00     0.015 A 
ATOM     18  C   UNL d   1       3.530   1.046   2.606  0.00  0.00     0.024 A 
ATOM     19  C   UNL d   1       4.527   0.148   2.236  0.00  0.00     0.034 A 
ATOM     20  C   UNL d   1       4.288  -0.793   1.238  0.00  0.00     0.024 A 
ATOM     21 CL   UNL d   1       6.060   0.195   3.013  0.00  0.00    -0.084 Cl
ATOM     22  C   UNL d   1       3.039  -0.844   0.616  0.00  0.00     0.015 A 
ENDBRANCH  10  16
ENDBRANCH   1   9
BRANCH   4  23
ATOM     23  S   UNL d   1      -0.373  -5.710  -2.348  0.00  0.00    -0.089 SA
BRANCH  23  24
ATOM     24  C   UNL d   1      -0.595  -7.330  -1.557  0.00  0.00     0.121 C 
BRANCH  24  25
ATOM     25  C   UNL d   1      -1.167  -8.340  -2.527  0.00  0.00    -0.048 A 
ATOM     26  C   UNL d   1      -0.316  -9.090  -3.354  0.00  0.00     0.009 A 
ATOM     27  C   UNL d   1      -0.840 -10.017  -4.261  0.00  0.00     0.024 A 
ATOM     28  C   UNL d   1      -2.219 -10.193  -4.353  0.00  0.00     0.034 A 
ATOM     29  C   UNL d   1      -3.078  -9.449  -3.547  0.00  0.00     0.024 A 
ATOM     30 CL   UNL d   1      -2.863 -11.331  -5.471  0.00  0.00    -0.084 Cl
ATOM     31  C   UNL d   1      -2.555  -8.524  -2.639  0.00  0.00     0.009 A 
ENDBRANCH  24  25
ENDBRANCH  23  24
ENDBRANCH   4  23
TORSDOF 5
