REMARK  3 active torsions:
REMARK  status: ('A' for Active; 'I' for Inactive)
REMARK       I    between atoms: N_2  and  C_1 
REMARK       I    between atoms: N_3  and  C_1 
REMARK    1  A    between atoms: C_8  and  N_3 
REMARK    2  A    between atoms: C_7  and  N_4 
REMARK    3  A    between atoms: C_11  and  C_7 
ROOT
ATOM      1  C   UNL d   1       0.683   0.001   0.446  0.00  0.00     0.322 C 
ATOM      2  N   UNL d   1       0.259  -1.171  -0.183  0.00  0.00    -0.332 N 
ATOM      3  N   UNL d   1       1.417  -0.170   1.599  0.00  0.00    -0.309 N 
ATOM      4  N   UNL d   1      -2.277  -2.828  -0.983  0.00  0.00     0.094 N 
ATOM      5  O   UNL d   1       0.419   1.099  -0.038  0.00  0.00    -0.247 OA
ATOM      6  C   UNL d   1      -0.499  -1.026  -1.435  0.00  0.00     0.157 C 
ATOM      7  C   UNL d   1      -1.975  -1.427  -1.318  0.00  0.00     0.292 C 
ATOM      8  C   UNL d   1      -0.546  -3.303   0.901  0.00  0.00     0.050 C 
ATOM      9  C   UNL d   1       0.574  -2.545   0.190  0.00  0.00     0.129 C 
ATOM     10  C   UNL d   1      -1.993  -3.123   0.421  0.00  0.00     0.274 C 
ATOM     11  H   UNL d   1       1.473  -1.100   1.973  0.00  0.00     0.170 HD
ENDROOT
BRANCH   3  12
ATOM     12  C   UNL d   1       2.043   0.834   2.375  0.00  0.00     0.036 A 
ATOM     13  C   UNL d   1       1.992   2.201   2.086  0.00  0.00     0.031 A 
ATOM     14  C   UNL d   1       2.627   3.135   2.913  0.00  0.00     0.026 A 
ATOM     15  C   UNL d   1       3.331   2.705   4.031  0.00  0.00     0.034 A 
ATOM     16  C   UNL d   1       3.407   1.347   4.328  0.00  0.00     0.026 A 
ATOM     17 CL   UNL d   1       4.105   3.852   5.053  0.00  0.00    -0.084 Cl
ATOM     18  C   UNL d   1       2.764   0.416   3.503  0.00  0.00     0.031 A 
ENDBRANCH   3  12
BRANCH   4  19
ATOM     19  C   UNL d   1      -1.784  -3.838  -1.924  0.00  0.00     0.311 C 
BRANCH  19  20
ATOM     20  C   UNL d   1      -2.225  -3.617  -3.359  0.00  0.00    -0.030 A 
ATOM     21  C   UNL d   1      -1.279  -3.338  -4.361  0.00  0.00     0.012 A 
ATOM     22  C   UNL d   1      -1.685  -3.121  -5.678  0.00  0.00     0.043 A 
ATOM     23  C   UNL d   1      -3.036  -3.188  -5.999  0.00  0.00     0.116 A 
ATOM     24  C   UNL d   1      -3.990  -3.468  -5.024  0.00  0.00     0.043 A 
ATOM     25  F   UNL d   1      -3.425  -2.979  -7.262  0.00  0.00    -0.206 F 
ATOM     26  C   UNL d   1      -3.585  -3.682  -3.705  0.00  0.00     0.012 A 
ENDBRANCH  19  20
ENDBRANCH   4  19
TORSDOF 3
