REMARK  3 active torsions:
REMARK  status: ('A' for Active; 'I' for Inactive)
REMARK    1  A    between atoms: N_2  and  C_1 
REMARK       I    between atoms: C_5  and  N_10 
REMARK       I    between atoms: N_8  and  C_5 
REMARK    2  A    between atoms: C_6  and  N_8 
REMARK    3  A    between atoms: N_10  and  C_7 
ROOT
ATOM      1  C   UNL d   1       3.635  -0.901  -0.358  0.00  0.00     0.325 C 
ATOM      2  N   UNL d   1       3.858   0.404  -0.028  0.00  0.00    -0.305 N 
ATOM      3  N   UNL d   1       2.373  -1.394  -0.362  0.00  0.00    -0.308 N 
ATOM      4  O   UNL d   1       4.530  -1.712  -0.617  0.00  0.00    -0.247 OA
ATOM      5  H   UNL d   1       3.293   0.704   0.755  0.00  0.00     0.171 HD
ATOM      6  H   UNL d   1       2.408  -2.376  -0.612  0.00  0.00     0.170 HD
ENDROOT
BRANCH   3   7
ATOM      7  C   UNL d   1       1.111  -0.889  -0.103  0.00  0.00     0.045 A 
ATOM      8  C   UNL d   1       0.669   0.422   0.250  0.00  0.00     0.074 A 
ATOM      9  C   UNL d   1      -0.699   0.460   0.470  0.00  0.00     0.145 A 
ATOM     10  S   UNL d   1      -1.457  -1.032   0.201  0.00  0.00    -0.076 SA
ATOM     11  C   UNL d   1       0.037  -1.760  -0.185  0.00  0.00     0.081 A 
BRANCH   9  12
ATOM     12  N   UNL d   1      -1.479   1.597   0.883  0.00  0.00    -0.108 N 
ATOM     13  O   UNL d   1      -0.865   2.665   1.008  0.00  0.00    -0.531 OA
ATOM     14  O   UNL d   1      -2.690   1.435   1.099  0.00  0.00    -0.531 OA
ENDBRANCH   9  12
ENDBRANCH   3   7
BRANCH   2  15
ATOM     15  C   UNL d   1       5.211   0.882   0.021  0.00  0.00     0.080 A 
ATOM     16  C   UNL d   1       6.122   0.735  -1.044  0.00  0.00     0.062 A 
ATOM     17 CL   UNL d   1       5.625   0.294  -2.645  0.00  0.00    -0.082 Cl
ATOM     18  C   UNL d   1       7.478   1.037  -0.867  0.00  0.00     0.026 A 
ATOM     19  C   UNL d   1       7.937   1.529   0.354  0.00  0.00     0.003 A 
ATOM     20  C   UNL d   1       7.031   1.766   1.386  0.00  0.00     0.026 A 
ATOM     21  C   UNL d   1       5.676   1.458   1.215  0.00  0.00     0.062 A 
ATOM     22 CL   UNL d   1       4.601   1.745   2.541  0.00  0.00    -0.082 Cl
ENDBRANCH   2  15
TORSDOF 3
