REMARK  8 active torsions:
REMARK  status: ('A' for Active; 'I' for Inactive)
REMARK    1  A    between atoms: C_2  and  C_1 
REMARK    2  A    between atoms: N_8  and  C_13 
REMARK    3  A    between atoms: C_18  and  N_8 
REMARK    4  A    between atoms: C_15  and  O_16 
REMARK    5  A    between atoms: O_16  and  C_20 
REMARK    6  A    between atoms: C_17  and  C_18 
REMARK    7  A    between atoms: C_20  and  C_17 
REMARK    8  A    between atoms: O_23  and  C_17 
ROOT
ATOM      1  C   UNL d   1       5.244  -1.300   0.087  0.00  0.00     0.153 C 
ENDROOT
BRANCH   1   2
ATOM      2  C   UNL d   1       6.763  -1.013   0.154  0.00  0.00     0.160 C 
BRANCH   2   3
ATOM      3  C   UNL d   1       7.114  -0.181   1.389  0.00  0.00     0.209 C 
BRANCH   3   4
ATOM      4  O   UNL d   1       6.420   1.064   1.355  0.00  0.00    -0.349 OA
BRANCH   4   5
ATOM      5  C   UNL d   1       6.713   1.946   2.354  0.00  0.00     0.069 A 
ATOM      6  C   UNL d   1       7.538   1.692   3.455  0.00  0.00     0.044 A 
ATOM      7  C   UNL d   1       7.795   2.684   4.413  0.00  0.00    -0.053 A 
ATOM      8  C   UNL d   1       8.699   2.362   5.573  0.00  0.00     0.049 C 
ATOM      9  C   UNL d   1       7.213   3.958   4.268  0.00  0.00    -0.056 A 
ATOM     10  C   UNL d   1       6.366   4.199   3.174  0.00  0.00     0.010 A 
ATOM     11  C   UNL d   1       7.497   5.067   5.242  0.00  0.00     0.049 C 
ATOM     12  C   UNL d   1       6.120   3.201   2.233  0.00  0.00     0.037 A 
ENDBRANCH   4   5
ENDBRANCH   3   4
ENDBRANCH   2   3
BRANCH   2  13
ATOM     13  O   UNL d   1       7.529  -2.225   0.194  0.00  0.00    -0.392 OA
ATOM     14  H   UNL d   1       7.090  -2.837   0.812  0.00  0.00     0.210 HD
ENDBRANCH   2  13
ENDBRANCH   1   2
BRANCH   1  15
ATOM     15  N   UNL d   1       4.926  -2.099  -1.101  0.00  0.00    -0.387 N 
ATOM     16  H   UNL d   1       5.427  -1.777  -1.929  0.00  0.00     0.159 HD
BRANCH  15  17
ATOM     17  C   UNL d   1       3.603  -2.446  -1.377  0.00  0.00     0.028 A 
ATOM     18  C   UNL d   1       2.632  -2.639  -0.388  0.00  0.00     0.046 A 
ATOM     19  C   UNL d   1       1.324  -3.107  -0.677  0.00  0.00     0.067 A 
ATOM     20  C   UNL d   1       1.004  -3.389  -2.007  0.00  0.00     0.026 A 
ATOM     21  C   UNL d   1       1.968  -3.222  -3.006  0.00  0.00     0.022 A 
ATOM     22 BR   UNL d   1      -0.686  -4.028  -2.584  0.00  0.00    -0.050 Br
ATOM     23  C   UNL d   1       3.253  -2.774  -2.689  0.00  0.00     0.030 A 
BRANCH  19  24
ATOM     24  C   UNL d   1       0.400  -3.284   0.501  0.00  0.00     0.418 C 
ATOM     25  F   UNL d   1      -0.863  -3.706   0.232  0.00  0.00    -0.166 F 
ATOM     26  F   UNL d   1       0.896  -4.183   1.401  0.00  0.00    -0.166 F 
ATOM     27  F   UNL d   1       0.248  -2.123   1.204  0.00  0.00    -0.166 F 
ENDBRANCH  19  24
ENDBRANCH  15  17
ENDBRANCH   1  15
TORSDOF 8
