REMARK  0 active torsions:
REMARK  status: ('A' for Active; 'I' for Inactive)
ROOT
ATOM      1  N   UNL d   1      -0.430   0.146  -0.002  0.00  0.00    -0.256 N 
ATOM      2  C   UNL d   1      -0.047  -1.184  -0.002  0.00  0.00     0.160 A 
ATOM      3  C   UNL d   1       0.516   1.159  -0.001  0.00  0.00     0.267 A 
ATOM      4  C   UNL d   1      -1.841   0.325  -0.001  0.00  0.00     0.063 A 
ATOM      5  N   UNL d   1       1.161  -1.632  -0.002  0.00  0.00    -0.335 N 
ATOM      6  HN  UNL d   1       1.362  -2.632  -0.002  1.00  0.00     0.168 HD
ATOM      7  C   UNL d   1       1.931   0.701  -0.001  0.00  0.00     0.059 A 
ATOM      8  S   UNL d   1      -1.425  -2.268  -0.002  0.00  0.00    -0.051 SA
ATOM      9  C   UNL d   1      -2.534  -0.892  -0.001  0.00  0.00     0.035 A 
ATOM     10  C   UNL d   1       2.184  -0.676  -0.002  0.00  0.00     0.050 A 
ATOM     11  C   UNL d   1      -2.553   1.520  -0.001  0.00  0.00     0.055 A 
ATOM     12  O   UNL d   1       0.285   2.366   0.001  0.00  0.00    -0.267 OA
ATOM     13  C   UNL d   1      -3.919  -0.956   0.000  0.00  0.00     0.023 A 
ATOM     14  C   UNL d   1      -3.952   1.465  -0.000  0.00  0.00     0.036 A 
ATOM     15  C   UNL d   1       2.991   1.617  -0.001  0.00  0.00     0.019 A 
ATOM     16  C   UNL d   1      -4.634   0.240   0.001  0.00  0.00     0.025 A 
ATOM     17 CL   UNL d   1      -4.863   2.927  -0.000  0.00  0.00    -0.084 Cl
ATOM     18  C   UNL d   1       3.506  -1.125  -0.002  0.00  0.00     0.030 A 
ATOM     19  C   UNL d   1       4.308   1.154  -0.001  0.00  0.00     0.001 A 
ATOM     20  C   UNL d   1       4.566  -0.218  -0.001  0.00  0.00     0.002 A 
ENDROOT
TORSDOF 0
