REMARK  8 active torsions:
REMARK  status: ('A' for Active; 'I' for Inactive)
REMARK    1  A    between atoms: N_8  and  S_1 
REMARK    2  A    between atoms: C_10  and  S_1 
REMARK    3  A    between atoms: C_7  and  C_2 
REMARK    4  A    between atoms: C_4  and  C_11 
REMARK    5  A    between atoms: C_9  and  C_5 
REMARK    6  A    between atoms: C_23  and  N_8 
REMARK    7  A    between atoms: O_26  and  C_9 
REMARK    8  A    between atoms: C_27  and  C_15 
ROOT
ATOM      1  C   UNL d   1       0.326  -0.011  -1.646  0.00  0.00     0.079 A 
ATOM      2  C   UNL d   1      -0.690  -0.237  -4.270  0.00  0.00    -0.025 A 
ATOM      3  C   UNL d   1       0.138  -1.267  -2.216  0.00  0.00     0.026 A 
ATOM      4  C   UNL d   1      -0.043   1.138  -2.348  0.00  0.00     0.026 A 
ATOM      5  C   UNL d   1      -0.392  -1.372  -3.505  0.00  0.00     0.014 A 
ATOM      6  C   UNL d   1      -0.522   1.021  -3.660  0.00  0.00     0.014 A 
ENDROOT
BRANCH   1   7
ATOM      7  S   UNL d   1       1.012   0.105  -0.009  0.00  0.00     0.263 S 
ATOM      8  O   UNL d   1       0.539   1.332   0.591  0.00  0.00    -0.200 OA
ATOM      9  O   UNL d   1       0.801  -1.177   0.634  0.00  0.00    -0.200 OA
BRANCH   7  10
ATOM     10  N   UNL d   1       2.675   0.215  -0.300  0.00  0.00    -0.281 N 
ATOM     11  H   UNL d   1       3.097  -0.691  -0.495  0.00  0.00     0.179 HD
BRANCH  10  12
ATOM     12  C   UNL d   1       3.162   1.335  -1.025  0.00  0.00     0.042 A 
ATOM     13  C   UNL d   1       3.475   2.501  -0.335  0.00  0.00     0.030 A 
ATOM     14  C   UNL d   1       3.923   3.624  -1.032  0.00  0.00     0.010 A 
ATOM     15  C   UNL d   1       4.032   3.606  -2.432  0.00  0.00    -0.055 A 
ATOM     16  C   UNL d   1       3.687   2.429  -3.114  0.00  0.00     0.010 A 
ATOM     17  C   UNL d   1       3.270   1.294  -2.413  0.00  0.00     0.030 A 
BRANCH  15  18
ATOM     18  C   UNL d   1       4.523   4.818  -3.205  0.00  0.00     0.010 C 
ATOM     19  C   UNL d   1       3.624   6.038  -2.987  0.00  0.00     0.015 C 
ATOM     20  C   UNL d   1       5.976   5.153  -2.856  0.00  0.00     0.015 C 
ENDBRANCH  15  18
ENDBRANCH  10  12
ENDBRANCH   7  10
ENDBRANCH   1   7
BRANCH   2  21
ATOM     21  C   UNL d   1      -1.207  -0.330  -5.648  0.00  0.00    -0.002 A 
ATOM     22  C   UNL d   1      -0.866  -1.314  -6.577  0.00  0.00     0.100 A 
ATOM     23  S   UNL d   1      -1.660  -1.060  -8.087  0.00  0.00    -0.079 SA
ATOM     24  C   UNL d   1      -2.438   0.355  -7.557  0.00  0.00     0.081 A 
ATOM     25  C   UNL d   1      -2.118   0.625  -6.242  0.00  0.00     0.038 A 
BRANCH  22  26
ATOM     26  C   UNL d   1       0.052  -2.500  -6.484  0.00  0.00     0.424 C 
ATOM     27  F   UNL d   1       0.267  -3.119  -7.677  0.00  0.00    -0.166 F 
ATOM     28  F   UNL d   1       1.277  -2.156  -6.010  0.00  0.00    -0.166 F 
ATOM     29  F   UNL d   1      -0.439  -3.462  -5.659  0.00  0.00    -0.166 F 
ENDBRANCH  22  26
BRANCH  24  30
ATOM     30  C   UNL d   1      -3.298   1.083  -8.477  0.00  0.00     0.299 C 
ATOM     31  O   UNL d   1      -3.535   0.787  -9.639  0.00  0.00    -0.259 OA
BRANCH  30  32
ATOM     32  O   UNL d   1      -3.821   2.178  -7.849  0.00  0.00    -0.322 OA
ATOM     33  C   UNL d   1      -4.694   2.957  -8.669  0.00  0.00     0.213 C 
ENDBRANCH  30  32
ENDBRANCH  24  30
ENDBRANCH   2  21
TORSDOF 8
