REMARK  6 active torsions:
REMARK  status: ('A' for Active; 'I' for Inactive)
REMARK    1  A    between atoms: C_11  and  C_1 
REMARK    2  A    between atoms: S_2  and  N_12 
REMARK    3  A    between atoms: C_16  and  S_2 
REMARK    4  A    between atoms: C_5  and  C_3 
REMARK       I    between atoms: N_15  and  C_11 
REMARK    5  A    between atoms: N_12  and  N_15 
REMARK    6  A    between atoms: C_14  and  C_18 
ROOT
ATOM      1  C   UNL d   1      -0.336  -2.592  -0.036  0.00  0.00     0.279 C 
ATOM      2  N   UNL d   1       0.814  -3.366  -0.024  0.00  0.00    -0.256 N 
ATOM      3  O   UNL d   1      -1.445  -3.131   0.007  0.00  0.00    -0.265 OA
ATOM      4  H   UNL d   1       1.740  -2.963  -0.146  0.00  0.00     0.191 HD
ENDROOT
BRANCH   2   5
ATOM      5  N   UNL d   1       0.686  -4.801   0.124  0.00  0.00    -0.220 N 
ATOM      6  H   UNL d   1      -0.248  -5.220   0.201  0.00  0.00     0.200 HD
BRANCH   5   7
ATOM      7  S   UNL d   1       2.006  -5.826   0.043  0.00  0.00     0.276 S 
ATOM      8  O   UNL d   1       1.517  -7.184   0.162  0.00  0.00    -0.199 OA
ATOM      9  O   UNL d   1       2.829  -5.402  -1.069  0.00  0.00    -0.199 OA
BRANCH   7  10
ATOM     10  C   UNL d   1       2.877  -5.422   1.540  0.00  0.00     0.081 A 
ATOM     11  C   UNL d   1       2.579  -6.100   2.727  0.00  0.00     0.041 A 
ATOM     12  C   UNL d   1       3.311  -5.822   3.893  0.00  0.00     0.049 A 
ATOM     13  C   UNL d   1       4.331  -4.854   3.843  0.00  0.00     0.016 A 
ATOM     14  C   UNL d   1       4.625  -4.186   2.653  0.00  0.00     0.002 A 
ATOM     15  C   UNL d   1       3.906  -4.475   1.496  0.00  0.00     0.025 A 
BRANCH  12  16
ATOM     16  C   UNL d   1       3.041  -6.557   5.185  0.00  0.00     0.417 C 
ATOM     17  F   UNL d   1       2.031  -7.466   5.092  0.00  0.00    -0.166 F 
ATOM     18  F   UNL d   1       4.128  -7.249   5.624  0.00  0.00    -0.166 F 
ATOM     19  F   UNL d   1       2.696  -5.716   6.199  0.00  0.00    -0.166 F 
ENDBRANCH  12  16
ENDBRANCH   7  10
ENDBRANCH   5   7
ENDBRANCH   2   5
BRANCH   1  20
ATOM     20  C   UNL d   1      -0.150  -1.153  -0.079  0.00  0.00     0.098 A 
ATOM     21  S   UNL d   1       1.388  -0.402   0.073  0.00  0.00    -0.063 SA
ATOM     22  C   UNL d   1       0.644   1.149   0.040  0.00  0.00     0.104 A 
ATOM     23  N   UNL d   1      -0.665   1.131  -0.113  0.00  0.00    -0.351 N 
ATOM     24  C   UNL d   1      -1.124  -0.174  -0.214  0.00  0.00     0.029 A 
ATOM     25  HN  UNL d   1      -1.257   1.961  -0.152  1.00  0.00     0.166 HD
ATOM     26  C   UNL d   1      -2.579  -0.390  -0.449  0.00  0.00     0.070 C 
BRANCH  22  27
ATOM     27  C   UNL d   1       1.403   2.439   0.180  0.00  0.00     0.091 A 
ATOM     28  N   UNL d   1       2.741   2.513   0.233  0.00  0.00    -0.258 N 
ATOM     29  O   UNL d   1       3.038   3.860   0.362  0.00  0.00    -0.242 OA
ATOM     30  HN  UNL d   1       3.403   1.738   0.188  1.00  0.00     0.195 HD
ATOM     31  C   UNL d   1       1.885   4.579   0.406  0.00  0.00     0.074 A 
ATOM     32  C   UNL d   1       0.817   3.724   0.283  0.00  0.00     0.068 A 
ATOM     33  C   UNL d   1       2.026   6.037   0.572  0.00  0.00     0.079 C 
ENDBRANCH  22  27
ENDBRANCH   1  20
TORSDOF 6
