REMARK  3 active torsions:
REMARK  status: ('A' for Active; 'I' for Inactive)
REMARK    1  A    between atoms: C_6  and  C_1 
REMARK    2  A    between atoms: C_3  and  C_2 
REMARK       I    between atoms: N_8  and  C_3 
REMARK    3  A    between atoms: C_7  and  N_8 
ROOT
ATOM      1  C   UNL d   1      -1.439  -0.418  -0.207  0.00  0.00     0.088 A 
ATOM      2  C   UNL d   1      -0.169  -1.106  -0.117  0.00  0.00     0.093 A 
ATOM      3  N   UNL d   1      -1.228   0.908  -0.308  0.00  0.00    -0.259 N 
ATOM      4  HN  UNL d   1      -1.939   1.625  -0.449  1.00  0.00     0.195 HD
ATOM      5  O   UNL d   1       0.111   1.114  -0.188  0.00  0.00    -0.241 OA
ATOM      6  C   UNL d   1       0.750  -0.072  -0.066  0.00  0.00     0.090 A 
ATOM      7  C   UNL d   1       2.217   0.071   0.087  0.00  0.00     0.080 C 
ENDROOT
BRANCH   2   8
ATOM      8  C   UNL d   1       0.089  -2.542  -0.081  0.00  0.00     0.262 C 
ATOM      9  N   UNL d   1       1.286  -2.889  -0.680  0.00  0.00    -0.307 N 
ATOM     10  H   UNL d   1       1.823  -2.168  -1.132  0.00  0.00     0.170 HD
ATOM     11  O   UNL d   1      -0.731  -3.312   0.400  0.00  0.00    -0.267 OA
BRANCH   9  12
ATOM     12  C   UNL d   1       1.661  -4.172  -1.032  0.00  0.00     0.130 C 
ATOM     13  N   UNL d   1       1.042  -5.308  -0.705  0.00  0.00    -0.245 N 
ATOM     14  O   UNL d   1       1.600  -6.291  -1.504  0.00  0.00    -0.241 OA
ATOM     15  HN  UNL d   1       0.307  -5.428  -0.007  1.00  0.00     0.196 HD
ATOM     16  C   UNL d   1       2.569  -5.739  -2.280  0.00  0.00     0.076 C 
ATOM     17  C   UNL d   1       2.743  -4.429  -1.912  0.00  0.00     0.084 C 
ATOM     18  C   UNL d   1       3.104  -6.570  -3.373  0.00  0.00     0.079 C 
ENDBRANCH   9  12
ENDBRANCH   2   8
BRANCH   1  19
ATOM     19  C   UNL d   1      -2.820  -0.891  -0.308  0.00  0.00     0.054 A 
ATOM     20  C   UNL d   1      -3.866  -0.290   0.424  0.00  0.00     0.049 A 
ATOM     21 CL   UNL d   1      -3.589   0.828   1.723  0.00  0.00    -0.083 Cl
ATOM     22  C   UNL d   1      -5.208  -0.578   0.136  0.00  0.00     0.025 A 
ATOM     23  C   UNL d   1      -5.532  -1.499  -0.857  0.00  0.00     0.005 A 
ATOM     24  C   UNL d   1      -4.511  -2.148  -1.547  0.00  0.00     0.043 A 
ATOM     25  C   UNL d   1      -3.172  -1.835  -1.278  0.00  0.00     0.130 A 
ATOM     26  F   UNL d   1      -2.231  -2.422  -2.032  0.00  0.00    -0.205 F 
ENDBRANCH   1  19
TORSDOF 3
