REMARK  5 active torsions:
REMARK  status: ('A' for Active; 'I' for Inactive)
REMARK    1  A    between atoms: N_3  and  S_1 
REMARK    2  A    between atoms: C_4  and  S_1 
REMARK    3  A    between atoms: C_2  and  O_13 
REMARK    4  A    between atoms: C_17  and  N_3 
REMARK    5  A    between atoms: O_13  and  C_16 
ROOT
ATOM      1  C   UNL d   1      -0.849  -5.315   3.651  0.00  0.00     0.117 A 
ATOM      2  N   UNL d   1       1.390  -6.160   6.283  0.00  0.00    -0.191 NA
ATOM      3  N   UNL d   1      -3.114  -3.583   1.487  0.00  0.00    -0.191 NA
ATOM      4  C   UNL d   1      -0.353  -6.417   4.375  0.00  0.00     0.080 A 
ATOM      5  C   UNL d   1      -1.889  -5.513   2.722  0.00  0.00     0.080 A 
ATOM      6  C   UNL d   1       0.620  -6.251   5.422  0.00  0.00     0.102 C 
ATOM      7  C   UNL d   1      -2.560  -4.431   2.056  0.00  0.00     0.102 C 
ATOM      8  C   UNL d   1      -2.330  -6.816   2.441  0.00  0.00     0.026 A 
ATOM      9  C   UNL d   1      -0.827  -7.710   4.099  0.00  0.00     0.026 A 
ATOM     10  C   UNL d   1      -1.796  -7.910   3.118  0.00  0.00     0.003 A 
ENDROOT
BRANCH   1  11
ATOM     11  O   UNL d   1      -0.334  -4.077   3.985  0.00  0.00    -0.308 OA
BRANCH  11  12
ATOM     12  C   UNL d   1      -0.004  -3.174   2.997  0.00  0.00     0.076 A 
ATOM     13  C   UNL d   1      -0.131  -1.826   3.349  0.00  0.00     0.039 A 
ATOM     14  C   UNL d   1       0.139  -0.821   2.416  0.00  0.00     0.028 A 
ATOM     15  C   UNL d   1       0.530  -1.171   1.122  0.00  0.00     0.080 A 
ATOM     16  C   UNL d   1       0.699  -2.517   0.775  0.00  0.00     0.028 A 
ATOM     17  C   UNL d   1       0.454  -3.519   1.721  0.00  0.00     0.039 A 
BRANCH  15  18
ATOM     18  S   UNL d   1       0.986   0.099  -0.046  0.00  0.00     0.263 S 
ATOM     19  O   UNL d   1       1.346   1.284   0.703  0.00  0.00    -0.200 OA
ATOM     20  O   UNL d   1       1.918  -0.505  -0.978  0.00  0.00    -0.200 OA
BRANCH  18  21
ATOM     21  N   UNL d   1      -0.419   0.388  -0.921  0.00  0.00    -0.281 N 
ATOM     22  H   UNL d   1      -0.561  -0.254  -1.698  0.00  0.00     0.179 HD
BRANCH  21  23
ATOM     23  C   UNL d   1      -1.562   0.922  -0.276  0.00  0.00     0.042 A 
ATOM     24  C   UNL d   1      -1.640   2.293  -0.030  0.00  0.00     0.030 A 
ATOM     25  C   UNL d   1      -2.773   2.826   0.586  0.00  0.00     0.002 A 
ATOM     26  C   UNL d   1      -3.816   1.984   0.973  0.00  0.00     0.000 A 
ATOM     27  C   UNL d   1      -3.726   0.610   0.742  0.00  0.00     0.002 A 
ATOM     28  C   UNL d   1      -2.600   0.078   0.112  0.00  0.00     0.030 A 
ENDBRANCH  21  23
ENDBRANCH  18  21
ENDBRANCH  15  18
ENDBRANCH  11  12
ENDBRANCH   1  11
TORSDOF 5
