REMARK  4 active torsions:
REMARK  status: ('A' for Active; 'I' for Inactive)
REMARK    1  A    between atoms: S_4  and  C_3 
REMARK    2  A    between atoms: C_8  and  S_4 
REMARK    3  A    between atoms: O_13  and  C_5 
REMARK    4  A    between atoms: N_10  and  C_6 
ROOT
ATOM      1  N   UNL d   1      -1.042  -1.161   0.072  0.00  0.00    -0.330 N 
ATOM      2  HN  UNL d   1      -1.530  -2.056   0.100  1.00  0.00     0.168 HD
ATOM      3  C   UNL d   1       0.310  -1.090   0.012  0.00  0.00     0.098 A 
ATOM      4  C   UNL d   1      -1.709   0.009   0.094  0.00  0.00     0.142 A 
ATOM      5  C   UNL d   1       1.030   0.120  -0.086  0.00  0.00     0.040 A 
ATOM      6  C   UNL d   1       0.294   1.302   0.010  0.00  0.00     0.030 A 
ATOM      7  C   UNL d   1      -1.095   1.250   0.082  0.00  0.00     0.058 A 
ENDROOT
BRANCH   3   8
ATOM      8  S   UNL d   1       1.164  -2.661  -0.056  0.00  0.00    -0.071 SA
BRANCH   8   9
ATOM      9  C   UNL d   1       1.312  -3.116   1.665  0.00  0.00     0.007 A 
ATOM     10  C   UNL d   1       1.125  -4.461   2.011  0.00  0.00     0.020 A 
ATOM     11  C   UNL d   1       1.322  -4.894   3.327  0.00  0.00     0.025 A 
ATOM     12  C   UNL d   1       1.709  -3.981   4.303  0.00  0.00     0.034 A 
ATOM     13  C   UNL d   1       1.892  -2.640   3.978  0.00  0.00     0.025 A 
ATOM     14 CL   UNL d   1       1.983  -4.516   5.915  0.00  0.00    -0.084 Cl
ATOM     15  C   UNL d   1       1.699  -2.209   2.660  0.00  0.00     0.020 A 
ENDBRANCH   8   9
ENDBRANCH   3   8
BRANCH   5  16
ATOM     16  N   UNL d   1       2.438   0.186  -0.043  0.00  0.00    -0.300 NA
ATOM     17  H   UNL d   1       2.872  -0.669  -0.386  0.00  0.00     0.124 HD
ATOM     18  H   UNL d   1       2.822   1.016  -0.486  0.00  0.00     0.124 HD
ENDBRANCH   5  16
BRANCH   4  19
ATOM     19  O   UNL d   1      -3.089   0.017   0.139  0.00  0.00    -0.341 OA
ATOM     20  C   UNL d   1      -3.656  -1.285   0.035  0.00  0.00     0.211 C 
ENDBRANCH   4  19
TORSDOF 4
