REMARK  4 active torsions:
REMARK  status: ('A' for Active; 'I' for Inactive)
REMARK    1  A    between atoms: C_12  and  C_4 
REMARK       I    between atoms: C_8  and  N_7 
REMARK       I    between atoms: N_11  and  C_8 
REMARK    2  A    between atoms: C_10  and  O_13 
REMARK    3  A    between atoms: C_15  and  N_11 
REMARK    4  A    between atoms: O_13  and  C_22 
ROOT
ATOM      1  N   UNL d   1       0.741   0.232  -0.761  0.00  0.00    -0.304 N 
ATOM      2  HN  UNL d   1       1.611   0.397  -1.268  1.00  0.00     0.171 HD
ATOM      3  C   UNL d   1       0.286  -0.884  -0.259  0.00  0.00     0.253 C 
ATOM      4  C   UNL d   1      -0.252   1.131  -0.433  0.00  0.00     0.139 C 
ATOM      5  N   UNL d   1      -1.339   0.562   0.112  0.00  0.00    -0.240 N 
ATOM      6  HN  UNL d   1      -2.219   1.006   0.374  1.00  0.00     0.196 HD
ATOM      7  N   UNL d   1       0.973  -2.050  -0.165  0.00  0.00    -0.272 N 
ATOM      8  C   UNL d   1       0.698  -3.145   0.593  0.00  0.00     0.327 C 
ATOM      9  O   UNL d   1      -0.979  -0.776   0.237  0.00  0.00    -0.199 OA
ATOM     10  N   UNL d   1      -0.362  -3.073   1.463  0.00  0.00    -0.309 N 
ATOM     11  O   UNL d   1       1.458  -4.103   0.478  0.00  0.00    -0.247 OA
ATOM     12  H   UNL d   1       1.852  -2.090  -0.660  0.00  0.00     0.174 HD
ATOM     13  H   UNL d   1      -0.792  -2.169   1.591  0.00  0.00     0.170 HD
ENDROOT
BRANCH   4  14
ATOM     14  C   UNL d   1      -0.022   2.572  -0.480  0.00  0.00     0.010 A 
ATOM     15  C   UNL d   1       1.193   3.074  -0.966  0.00  0.00     0.018 A 
ATOM     16  C   UNL d   1       1.508   4.433  -0.842  0.00  0.00     0.038 A 
ATOM     17  C   UNL d   1       0.627   5.299  -0.201  0.00  0.00     0.078 A 
ATOM     18  C   UNL d   1      -0.622   4.822   0.204  0.00  0.00     0.038 A 
ATOM     19  C   UNL d   1      -0.948   3.468   0.067  0.00  0.00     0.018 A 
BRANCH  17  20
ATOM     20  O   UNL d   1       0.842   6.623   0.022  0.00  0.00    -0.255 OA
BRANCH  20  21
ATOM     21  C   UNL d   1       2.150   7.071   0.363  0.00  0.00     0.530 C 
ATOM     22  F   UNL d   1       3.087   6.101   0.396  0.00  0.00    -0.144 F 
ATOM     23  F   UNL d   1       2.535   8.008  -0.529  0.00  0.00    -0.144 F 
ATOM     24  F   UNL d   1       2.108   7.647   1.586  0.00  0.00    -0.144 F 
ENDBRANCH  20  21
ENDBRANCH  17  20
ENDBRANCH   4  14
BRANCH  10  25
ATOM     25  C   UNL d   1      -0.873  -4.112   2.275  0.00  0.00     0.037 A 
ATOM     26  C   UNL d   1      -0.460  -5.441   2.180  0.00  0.00     0.053 A 
ATOM     27  C   UNL d   1      -1.071  -6.422   2.963  0.00  0.00     0.036 A 
ATOM     28 CL   UNL d   1      -0.591  -8.068   2.796  0.00  0.00    -0.084 Cl
ATOM     29  C   UNL d   1      -2.079  -6.090   3.861  0.00  0.00     0.024 A 
ATOM     30  C   UNL d   1      -2.476  -4.759   3.987  0.00  0.00     0.004 A 
ATOM     31  C   UNL d   1      -1.877  -3.775   3.194  0.00  0.00     0.029 A 
ENDBRANCH  10  25
TORSDOF 4
