REMARK  3 active torsions:
REMARK  status: ('A' for Active; 'I' for Inactive)
REMARK    1  A    between atoms: C_6  and  N_1 
REMARK    2  A    between atoms: C_8  and  C_6 
REMARK    3  A    between atoms: C_7  and  C_8 
ROOT
ATOM      1  N   UNL d   1       1.832  -0.003  -0.162  0.00  0.00    -0.273 N 
ATOM      2  C   UNL d   1       1.087   0.242   0.966  0.00  0.00     0.262 C 
ATOM      3  C   UNL d   1       1.068  -0.603  -1.125  0.00  0.00     0.262 C 
ATOM      4  C   UNL d   1      -0.310  -0.029   0.608  0.00  0.00     0.048 A 
ATOM      5  C   UNL d   1      -0.319  -0.539  -0.675  0.00  0.00     0.048 A 
ATOM      6  O   UNL d   1       1.426  -1.141  -2.159  0.00  0.00    -0.267 OA
ATOM      7  O   UNL d   1       1.440   0.581   2.073  0.00  0.00    -0.267 OA
ATOM      8  C   UNL d   1      -1.490  -0.877  -1.327  0.00  0.00     0.018 A 
ATOM      9  C   UNL d   1      -1.478   0.156   1.323  0.00  0.00     0.018 A 
ATOM     10  C   UNL d   1      -2.680  -0.166   0.683  0.00  0.00     0.001 A 
ATOM     11  C   UNL d   1      -2.687  -0.674  -0.632  0.00  0.00     0.001 A 
ENDROOT
BRANCH   1  12
ATOM     12  C   UNL d   1       3.283   0.026  -0.228  0.00  0.00     0.219 C 
BRANCH  12  13
ATOM     13  C   UNL d   1       3.900   1.393   0.055  0.00  0.00     0.179 C 
ATOM     14  O   UNL d   1       4.192   1.735   1.199  0.00  0.00    -0.290 OA
BRANCH  13  15
ATOM     15  C   UNL d   1       4.099   2.378  -1.051  0.00  0.00     0.033 A 
ATOM     16  C   UNL d   1       5.199   3.257  -1.058  0.00  0.00     0.049 A 
ATOM     17  C   UNL d   1       5.263   4.307  -1.984  0.00  0.00     0.048 A 
ATOM     18 CL   UNL d   1       6.561   3.080  -0.007  0.00  0.00    -0.083 Cl
ATOM     19  C   UNL d   1       4.244   4.473  -2.915  0.00  0.00     0.035 A 
ATOM     20  C   UNL d   1       3.179   3.577  -2.957  0.00  0.00     0.025 A 
ATOM     21 CL   UNL d   1       4.291   5.798  -4.011  0.00  0.00    -0.084 Cl
ATOM     22  C   UNL d   1       3.106   2.530  -2.030  0.00  0.00     0.018 A 
ENDBRANCH  13  15
ENDBRANCH  12  13
ENDBRANCH   1  12
TORSDOF 3
