REMARK  4 active torsions:
REMARK  status: ('A' for Active; 'I' for Inactive)
REMARK    1  A    between atoms: C_3  and  N_1 
REMARK    2  A    between atoms: C_8  and  C_3 
REMARK    3  A    between atoms: C_9  and  C_3 
REMARK    4  A    between atoms: C_10  and  C_3 
ROOT
ATOM      1  C   UNL d   1       0.618  -2.514  -0.133  0.00  0.00     0.126 C 
ENDROOT
BRANCH   1   2
ATOM      2  N   UNL d   1       0.368  -1.021  -0.055  0.00  0.00    -0.255 N 
ATOM      3  C   UNL d   1       0.137  -0.247  -1.156  0.00  0.00     0.290 C 
ATOM      4  S   UNL d   1       0.069   1.448  -0.712  0.00  0.00    -0.059 SA
ATOM      5  O   UNL d   1      -0.099  -0.577  -2.305  0.00  0.00    -0.260 OA
ATOM      6  C   UNL d   1      -0.279   1.050   0.996  0.00  0.00     0.187 C 
ATOM      7  C   UNL d   1      -0.121  -0.443   1.104  0.00  0.00     0.238 C 
ATOM      8  O   UNL d   1      -0.462  -1.030   2.126  0.00  0.00    -0.272 OA
ENDBRANCH   1   2
BRANCH   1   9
ATOM      9  C   UNL d   1       1.489  -2.847  -1.432  0.00  0.00    -0.020 A 
ATOM     10  C   UNL d   1       2.894  -2.746  -1.456  0.00  0.00     0.010 A 
ATOM     11  C   UNL d   1       3.637  -3.082  -2.598  0.00  0.00     0.001 A 
ATOM     12  C   UNL d   1       2.997  -3.510  -3.754  0.00  0.00     0.000 A 
ATOM     13  C   UNL d   1       1.611  -3.577  -3.782  0.00  0.00     0.001 A 
ATOM     14  C   UNL d   1       0.871  -3.237  -2.645  0.00  0.00     0.010 A 
ENDBRANCH   1   9
BRANCH   1  15
ATOM     15  C   UNL d   1       1.496  -2.935   1.150  0.00  0.00    -0.020 A 
ATOM     16  C   UNL d   1       1.433  -4.203   1.760  0.00  0.00     0.010 A 
ATOM     17  C   UNL d   1       2.297  -4.574   2.799  0.00  0.00     0.001 A 
ATOM     18  C   UNL d   1       3.239  -3.679   3.284  0.00  0.00     0.000 A 
ATOM     19  C   UNL d   1       3.313  -2.406   2.737  0.00  0.00     0.001 A 
ATOM     20  C   UNL d   1       2.463  -2.042   1.685  0.00  0.00     0.010 A 
ENDBRANCH   1  15
BRANCH   1  21
ATOM     21  C   UNL d   1      -0.749  -3.320  -0.205  0.00  0.00    -0.020 A 
ATOM     22  C   UNL d   1      -2.017  -2.712  -0.128  0.00  0.00     0.010 A 
ATOM     23  C   UNL d   1      -3.198  -3.464  -0.209  0.00  0.00     0.001 A 
ATOM     24  C   UNL d   1      -3.147  -4.844  -0.368  0.00  0.00     0.000 A 
ATOM     25  C   UNL d   1      -1.918  -5.473  -0.489  0.00  0.00     0.001 A 
ATOM     26  C   UNL d   1      -0.744  -4.719  -0.437  0.00  0.00     0.010 A 
ENDBRANCH   1  21
TORSDOF 4
