REMARK  8 active torsions:
REMARK  status: ('A' for Active; 'I' for Inactive)
REMARK    1  A    between atoms: S_9  and  C_1 
REMARK    2  A    between atoms: C_2  and  O_7 
REMARK    3  A    between atoms: C_8  and  C_2 
REMARK    4  A    between atoms: C_3  and  C_20 
REMARK    5  A    between atoms: N_21  and  C_3 
REMARK    6  A    between atoms: O_7  and  N_4 
REMARK    7  A    between atoms: C_20  and  S_9 
REMARK    8  A    between atoms: C_10  and  C_11 
ROOT
ATOM      1  C   UNL d   1      -4.596   2.805   1.357  0.00  0.00     0.105 C 
ATOM      2  N   UNL d   1      -4.043   3.501   0.407  0.00  0.00    -0.245 N 
ATOM      3  HN  UNL d   1      -4.083   3.260  -0.584  1.00  0.00     0.196 HD
ENDROOT
BRANCH   2   4
ATOM      4  O   UNL d   1      -3.380   4.632   0.930  0.00  0.00    -0.193 OA
BRANCH   4   5
ATOM      5  C   UNL d   1      -2.667   5.240  -0.062  0.00  0.00     0.315 C 
ATOM      6  O   UNL d   1      -1.897   4.694  -0.840  0.00  0.00    -0.257 OA
BRANCH   5   7
ATOM      7  C   UNL d   1      -2.948   6.705  -0.070  0.00  0.00     0.041 A 
ATOM      8  C   UNL d   1      -2.250   7.527  -0.959  0.00  0.00     0.018 A 
ATOM      9  C   UNL d   1      -2.532   8.901  -1.031  0.00  0.00     0.009 A 
ATOM     10  C   UNL d   1      -3.515   9.494  -0.215  0.00  0.00    -0.051 A 
ATOM     11  C   UNL d   1      -4.209   8.646   0.664  0.00  0.00     0.009 A 
ATOM     12  C   UNL d   1      -3.933   7.276   0.739  0.00  0.00     0.018 A 
BRANCH  10  13
ATOM     13  C   UNL d   1      -3.789  11.010  -0.281  0.00  0.00    -0.024 C 
ATOM     14  C   UNL d   1      -4.888  11.479   0.701  0.00  0.00     0.019 C 
ATOM     15  C   UNL d   1      -2.501  11.783   0.074  0.00  0.00     0.019 C 
ATOM     16  C   UNL d   1      -4.244  11.422  -1.698  0.00  0.00     0.019 C 
ENDBRANCH  10  13
ENDBRANCH   5   7
ENDBRANCH   4   5
ENDBRANCH   2   4
BRANCH   1  17
ATOM     17  C   UNL d   1      -5.486   1.630   0.928  0.00  0.00     0.157 C 
BRANCH  17  18
ATOM     18  S   UNL d   1      -6.854   1.412   2.102  0.00  0.00    -0.115 SA
BRANCH  18  19
ATOM     19  C   UNL d   1      -7.796   0.082   1.447  0.00  0.00     0.041 A 
ATOM     20  S   UNL d   1      -9.183  -0.466   2.302  0.00  0.00    -0.095 SA
ATOM     21  C   UNL d   1      -9.524  -1.659   1.129  0.00  0.00     0.051 A 
ATOM     22  C   UNL d   1      -8.603  -1.650   0.104  0.00  0.00     0.009 A 
ATOM     23  C   UNL d   1      -7.606  -0.646   0.290  0.00  0.00     0.026 A 
ENDBRANCH  18  19
ENDBRANCH  17  18
ENDBRANCH   1  17
BRANCH   1  24
ATOM     24  N   UNL d   1      -4.385   3.038   2.698  0.00  0.00    -0.387 N 
ATOM     25  H   UNL d   1      -4.610   2.284   3.338  0.00  0.00     0.157 HD
ATOM     26  H   UNL d   1      -3.538   3.550   2.915  0.00  0.00     0.157 HD
ENDBRANCH   1  24
TORSDOF 8
