REMARK  3 active torsions:
REMARK  status: ('A' for Active; 'I' for Inactive)
REMARK    1  A    between atoms: C_8  and  N_2 
REMARK    2  A    between atoms: C_6  and  C_3 
REMARK    3  A    between atoms: C_9  and  C_6 
ROOT
ATOM      1  C   UNL d   1      -0.602  -0.821  -0.318  0.00  0.00     0.084 C 
ATOM      2  N   UNL d   1      -1.118   0.348   0.240  0.00  0.00    -0.276 N 
ATOM      3  C   UNL d   1      -1.343  -1.770  -0.917  0.00  0.00     0.093 C 
ATOM      4  S   UNL d   1       1.093  -0.952   0.015  0.00  0.00    -0.102 SA
ATOM      5  C   UNL d   1      -0.286   0.972   1.194  0.00  0.00     0.239 C 
ATOM      6  C   UNL d   1       1.000   0.206   1.386  0.00  0.00     0.184 C 
ATOM      7  O   UNL d   1      -0.526   1.991   1.832  0.00  0.00    -0.272 OA
ENDROOT
BRANCH   2   8
ATOM      8  C   UNL d   1      -2.364   0.960  -0.097  0.00  0.00     0.043 A 
ATOM      9  C   UNL d   1      -2.711   1.170  -1.440  0.00  0.00     0.030 A 
ATOM     10  C   UNL d   1      -3.885   1.853  -1.771  0.00  0.00     0.002 A 
ATOM     11  C   UNL d   1      -4.740   2.303  -0.767  0.00  0.00     0.000 A 
ATOM     12  C   UNL d   1      -4.415   2.084   0.570  0.00  0.00     0.002 A 
ATOM     13  C   UNL d   1      -3.227   1.430   0.902  0.00  0.00     0.030 A 
ENDBRANCH   2   8
BRANCH   3  14
ATOM     14  C   UNL d   1      -0.868  -3.130  -1.330  0.00  0.00     0.184 C 
ATOM     15  O   UNL d   1       0.218  -3.599  -1.015  0.00  0.00    -0.287 OA
BRANCH  14  16
ATOM     16  C   UNL d   1      -1.821  -4.001  -2.068  0.00  0.00     0.014 A 
ATOM     17  C   UNL d   1      -2.763  -3.492  -2.969  0.00  0.00     0.017 A 
ATOM     18  C   UNL d   1      -3.634  -4.364  -3.631  0.00  0.00     0.025 A 
ATOM     19  C   UNL d   1      -3.558  -5.738  -3.401  0.00  0.00     0.034 A 
ATOM     20  C   UNL d   1      -2.610  -6.253  -2.522  0.00  0.00     0.025 A 
ATOM     21 CL   UNL d   1      -4.640  -6.800  -4.214  0.00  0.00    -0.084 Cl
ATOM     22  C   UNL d   1      -1.738  -5.388  -1.860  0.00  0.00     0.017 A 
ENDBRANCH  14  16
ENDBRANCH   3  14
TORSDOF 3
