REMARK  4 active torsions:
REMARK  status: ('A' for Active; 'I' for Inactive)
REMARK    1  A    between atoms: N_2  and  C_1 
REMARK    2  A    between atoms: N_6  and  C_3 
REMARK    3  A    between atoms: N_7  and  S_4 
REMARK       I    between atoms: C_5  and  N_7 
REMARK       I    between atoms: N_11  and  C_5 
REMARK    4  A    between atoms: C_22  and  N_11 
ROOT
ATOM      1  C   UNL d   1       1.455  -1.170  -0.555  0.00  0.00     0.130 A 
ATOM      2  C   UNL d   1       2.330  -0.165  -0.111  0.00  0.00     0.063 A 
ATOM      3  N   UNL d   1      -3.073   0.617  -0.510  0.00  0.00    -0.191 NA
ATOM      4  C   UNL d   1       0.058  -0.982  -0.671  0.00  0.00     0.061 A 
ATOM      5  C   UNL d   1      -1.928   0.453  -0.436  0.00  0.00     0.099 C 
ATOM      6  C   UNL d   1       1.708   1.061   0.209  0.00  0.00     0.033 A 
ATOM      7  C   UNL d   1      -0.509   0.249  -0.341  0.00  0.00     0.047 A 
ATOM      8  C   UNL d   1       0.324   1.273   0.100  0.00  0.00     0.025 A 
ENDROOT
BRANCH   1   9
ATOM      9  N   UNL d   1       1.927  -2.512  -0.834  0.00  0.00    -0.113 N 
ATOM     10  O   UNL d   1       2.372  -3.174   0.109  0.00  0.00    -0.532 OA
ATOM     11  O   UNL d   1       1.732  -2.940  -1.982  0.00  0.00    -0.532 OA
ENDBRANCH   1   9
BRANCH   2  12
ATOM     12  N   UNL d   1       3.692  -0.272   0.041  0.00  0.00    -0.377 N 
ATOM     13  C   UNL d   1       4.630  -0.904  -0.898  0.00  0.00     0.134 C 
ATOM     14  C   UNL d   1       5.689   0.090  -1.398  0.00  0.00     0.105 C 
ATOM     15  S   UNL d   1       6.584   1.135  -0.189  0.00  0.00    -0.120 SA
ATOM     16  C   UNL d   1       5.261   1.345   1.052  0.00  0.00     0.105 C 
ATOM     17  C   UNL d   1       4.350   0.145   1.289  0.00  0.00     0.134 C 
BRANCH  15  18
ATOM     18  N   UNL d   1       7.405   0.080   0.519  0.00  0.00    -0.292 N 
ATOM     19  C   UNL d   1       8.264   0.395   1.518  0.00  0.00     0.330 C 
ATOM     20  N   UNL d   1       8.624   1.736   1.637  0.00  0.00    -0.308 N 
ATOM     21  O   UNL d   1       8.712  -0.468   2.274  0.00  0.00    -0.246 OA
ATOM     22  H   UNL d   1       8.159   2.332   0.969  0.00  0.00     0.170 HD
ATOM     23  HN  UNL d   1       7.308  -0.895   0.237  1.00  0.00     0.178 HD
BRANCH  20  24
ATOM     24  C   UNL d   1       9.594   2.342   2.461  0.00  0.00     0.036 A 
ATOM     25  C   UNL d   1      10.466   1.638   3.289  0.00  0.00     0.030 A 
ATOM     26  C   UNL d   1      11.505   2.298   3.960  0.00  0.00     0.009 A 
ATOM     27  C   UNL d   1      11.688   3.677   3.815  0.00  0.00    -0.062 A 
ATOM     28  C   UNL d   1      10.755   4.401   3.068  0.00  0.00     0.009 A 
ATOM     29  C   UNL d   1      12.861   4.360   4.452  0.00  0.00     0.048 C 
ATOM     30  C   UNL d   1       9.724   3.736   2.390  0.00  0.00     0.030 A 
ENDBRANCH  20  24
ENDBRANCH  15  18
ENDBRANCH   2  12
TORSDOF 4
