REMARK  3 active torsions:
REMARK  status: ('A' for Active; 'I' for Inactive)
REMARK    1  A    between atoms: S_7  and  C_1 
REMARK    2  A    between atoms: C_9  and  S_7 
REMARK    3  A    between atoms: C_12  and  C_9 
ROOT
ATOM      1  C   UNL d   1      -1.530  -0.512   0.070  0.00  0.00     0.041 C 
ATOM      2  C   UNL d   1      -0.557  -1.417   0.174  0.00  0.00     0.075 C 
ATOM      3  S   UNL d   1      -1.272   1.117  -0.431  0.00  0.00    -0.113 SA
ATOM      4  C   UNL d   1       0.877  -1.152  -0.050  0.00  0.00     0.152 C 
ATOM      5  C   UNL d   1       0.489   1.445  -0.085  0.00  0.00     0.013 C 
ATOM      6  C   UNL d   1       1.427   0.242  -0.200  0.00  0.00     0.103 C 
ATOM      7  O   UNL d   1       1.633  -2.123  -0.096  0.00  0.00    -0.293 OA
ATOM      8  C   UNL d   1       0.624   2.108   1.300  0.00  0.00     0.027 C 
ATOM      9  C   UNL d   1       0.900   2.481  -1.151  0.00  0.00     0.027 C 
ENDROOT
BRANCH   1  10
ATOM     10  S   UNL d   1      -3.168  -0.963   0.483  0.00  0.00    -0.118 SA
BRANCH  10  11
ATOM     11  C   UNL d   1      -3.659  -1.997  -0.934  0.00  0.00     0.118 C 
BRANCH  11  12
ATOM     12  C   UNL d   1      -5.137  -2.318  -0.874  0.00  0.00    -0.047 A 
ATOM     13  C   UNL d   1      -5.606  -3.393  -0.100  0.00  0.00     0.031 A 
ATOM     14  C   UNL d   1      -6.976  -3.656  -0.010  0.00  0.00     0.034 A 
ATOM     15 CL   UNL d   1      -7.532  -4.971   0.951  0.00  0.00    -0.084 Cl
ATOM     16  C   UNL d   1      -7.892  -2.860  -0.689  0.00  0.00     0.024 A 
ATOM     17  C   UNL d   1      -7.443  -1.786  -1.454  0.00  0.00     0.002 A 
ATOM     18  C   UNL d   1      -6.073  -1.516  -1.546  0.00  0.00     0.008 A 
ENDBRANCH  11  12
ENDBRANCH  10  11
ENDBRANCH   1  10
TORSDOF 3
