REMARK  5 active torsions:
REMARK  status: ('A' for Active; 'I' for Inactive)
REMARK    1  A    between atoms: C_2  and  N_1 
REMARK       I    between atoms: C_3  and  N_1 
REMARK    2  A    between atoms: C_5  and  N_1 
REMARK    3  A    between atoms: C_9  and  C_3 
REMARK    4  A    between atoms: C_10  and  C_4 
REMARK    5  A    between atoms: C_12  and  C_5 
ROOT
ATOM      1  N   UNL d   1       0.747  -0.151   0.250  0.00  0.00    -0.339 N 
ATOM      2  C   UNL d   1       1.999   0.504   0.181  0.00  0.00     0.254 C 
ATOM      3  O   UNL d   1       2.513   1.018   1.176  0.00  0.00    -0.267 OA
ENDROOT
BRANCH   1   4
ATOM      4  C   UNL d   1       0.054  -0.870  -0.873  0.00  0.00     0.092 C 
ATOM      5  C   UNL d   1      -1.436  -0.460  -1.167  0.00  0.00     0.012 C 
ATOM      6  C   UNL d   1      -2.095  -1.477  -2.144  0.00  0.00     0.007 C 
ATOM      7  C   UNL d   1      -1.907  -2.937  -1.764  0.00  0.00     0.005 C 
ATOM      8  C   UNL d   1      -0.425  -3.278  -1.694  0.00  0.00    -0.017 C 
ATOM      9  C   UNL d   1       0.228  -2.390  -0.645  0.00  0.00     0.030 C 
ATOM     10  C   UNL d   1      -0.230  -4.751  -1.330  0.00  0.00     0.010 C 
BRANCH   5  11
ATOM     11  C   UNL d   1      -1.591   0.974  -1.797  0.00  0.00    -0.017 C 
ATOM     12  C   UNL d   1      -3.056   1.295  -2.151  0.00  0.00     0.010 C 
ATOM     13  C   UNL d   1      -1.061   2.112  -0.925  0.00  0.00     0.010 C 
ENDBRANCH   5  11
ENDBRANCH   1   4
BRANCH   1  14
ATOM     14  C   UNL d   1       0.173  -0.240   1.611  0.00  0.00     0.165 C 
BRANCH  14  15
ATOM     15  C   UNL d   1       0.545  -1.484   2.402  0.00  0.00    -0.040 A 
ATOM     16  C   UNL d   1       1.829  -2.048   2.362  0.00  0.00     0.009 A 
ATOM     17  C   UNL d   1       2.115  -3.234   3.044  0.00  0.00     0.001 A 
ATOM     18  C   UNL d   1       1.132  -3.856   3.809  0.00  0.00     0.000 A 
ATOM     19  C   UNL d   1      -0.130  -3.278   3.910  0.00  0.00     0.001 A 
ATOM     20  C   UNL d   1      -0.420  -2.099   3.217  0.00  0.00     0.009 A 
ENDBRANCH  14  15
ENDBRANCH   1  14
BRANCH   2  21
ATOM     21  C   UNL d   1       2.755   0.687  -1.089  0.00  0.00     0.032 A 
ATOM     22  C   UNL d   1       3.399   1.922  -1.276  0.00  0.00     0.017 A 
ATOM     23  C   UNL d   1       4.096   2.193  -2.454  0.00  0.00     0.001 A 
ATOM     24  C   UNL d   1       4.154   1.232  -3.460  0.00  0.00     0.000 A 
ATOM     25  C   UNL d   1       3.574  -0.019  -3.257  0.00  0.00     0.001 A 
ATOM     26  C   UNL d   1       2.921  -0.304  -2.056  0.00  0.00     0.017 A 
ENDBRANCH   2  21
TORSDOF 5
