REMARK  4 active torsions:
REMARK  status: ('A' for Active; 'I' for Inactive)
REMARK    1  A    between atoms: C_6  and  C_1 
REMARK    2  A    between atoms: C_14  and  C_3 
REMARK    3  A    between atoms: S_15  and  C_5 
REMARK    4  A    between atoms: S_16  and  C_10 
ROOT
ATOM      1  C   UNL d   1       1.289  -1.243  -0.044  0.00  0.00     0.045 A 
ATOM      2  C   UNL d   1      -0.748  -0.070   0.090  0.00  0.00     0.080 A 
ATOM      3  C   UNL d   1      -0.101  -1.375   0.032  0.00  0.00     0.016 A 
ATOM      4  S   UNL d   1       1.752   0.422  -0.043  0.00  0.00    -0.079 SA
ATOM      5  C   UNL d   1       0.149   0.981   0.025  0.00  0.00     0.063 A 
ATOM      6  C   UNL d   1      -2.163   0.139   0.175  0.00  0.00     0.102 C 
ATOM      7  N   UNL d   1      -3.311   0.312   0.233  0.00  0.00    -0.191 NA
ENDROOT
BRANCH   3   8
ATOM      8  C   UNL d   1      -0.795  -2.680   0.011  0.00  0.00    -0.023 A 
ATOM      9  C   UNL d   1      -1.946  -2.859  -0.774  0.00  0.00     0.012 A 
ATOM     10  C   UNL d   1      -2.587  -4.099  -0.845  0.00  0.00     0.001 A 
ATOM     11  C   UNL d   1      -2.060  -5.195  -0.170  0.00  0.00     0.000 A 
ATOM     12  C   UNL d   1      -0.924  -5.038   0.618  0.00  0.00     0.001 A 
ATOM     13  C   UNL d   1      -0.321  -3.781   0.741  0.00  0.00     0.012 A 
ENDBRANCH   3   8
BRANCH   5  14
ATOM     14  S   UNL d   1      -0.173   2.714  -0.087  0.00  0.00    -0.126 SA
ATOM     15  C   UNL d   1      -0.995   3.066   1.482  0.00  0.00     0.096 C 
ENDBRANCH   5  14
BRANCH   1  16
ATOM     16  C   UNL d   1       2.385  -2.231  -0.145  0.00  0.00     0.053 A 
ATOM     17  N   UNL d   1       3.470  -1.944   0.612  0.00  0.00    -0.336 N 
ATOM     18  C   UNL d   1       4.490  -2.812   0.577  0.00  0.00     0.144 A 
ATOM     19  HN  UNL d   1       3.509  -1.101   1.186  1.00  0.00     0.168 HD
ATOM     20  N   UNL d   1       4.480  -3.966  -0.107  0.00  0.00    -0.347 N 
ATOM     21  C   UNL d   1       3.384  -4.220  -0.840  0.00  0.00     0.092 A 
ATOM     22  HN  UNL d   1       5.265  -4.616  -0.073  1.00  0.00     0.167 HD
ATOM     23  C   UNL d   1       2.313  -3.365  -0.922  0.00  0.00     0.048 A 
BRANCH  18  24
ATOM     24  S   UNL d   1       5.980  -2.430   1.465  0.00  0.00    -0.098 SA
ATOM     25  C   UNL d   1       5.573  -0.780   2.087  0.00  0.00     0.099 C 
ENDBRANCH  18  24
ENDBRANCH   1  16
TORSDOF 4
