REMARK  2 active torsions:
REMARK  status: ('A' for Active; 'I' for Inactive)
REMARK    1  A    between atoms: N_11  and  C_2 
REMARK    2  A    between atoms: S_12  and  C_5 
ROOT
ATOM      1  C   UNL d   1      -0.749   1.331   0.087  0.00  0.00     0.121 A 
ATOM      2  C   UNL d   1      -1.471   0.136   0.098  0.00  0.00     0.127 A 
ATOM      3  N   UNL d   1      -0.818  -1.048   0.018  0.00  0.00    -0.331 N 
ATOM      4  HN  UNL d   1      -1.338  -1.926   0.028  1.00  0.00     0.168 HD
ATOM      5  C   UNL d   1       0.632   1.230  -0.033  0.00  0.00     0.095 A 
ATOM      6  N   UNL d   1       1.274   0.050  -0.120  0.00  0.00    -0.339 N 
ATOM      7  HN  UNL d   1       2.288  -0.001  -0.219  1.00  0.00     0.167 HD
ATOM      8  C   UNL d   1       0.519  -1.051  -0.072  0.00  0.00     0.079 A 
ATOM      9  C   UNL d   1      -1.377   2.599   0.266  0.00  0.00     0.106 C 
ATOM     10  N   UNL d   1      -1.900   3.632   0.384  0.00  0.00    -0.191 NA
ATOM     11  C   UNL d   1       1.217  -2.375  -0.065  0.00  0.00     0.089 C 
ENDROOT
BRANCH   2  12
ATOM     12  N   UNL d   1      -2.853   0.083   0.300  0.00  0.00    -0.375 N 
ATOM     13  C   UNL d   1      -3.402  -1.218   0.690  0.00  0.00     0.150 C 
ATOM     14  C   UNL d   1      -3.739   0.865  -0.566  0.00  0.00     0.150 C 
ENDBRANCH   2  12
BRANCH   5  15
ATOM     15  S   UNL d   1       1.691   2.687  -0.053  0.00  0.00    -0.115 SA
ATOM     16  C   UNL d   1       3.337   1.925  -0.051  0.00  0.00     0.097 C 
ENDBRANCH   5  15
TORSDOF 2
