REMARK  2 active torsions:
REMARK  status: ('A' for Active; 'I' for Inactive)
REMARK    1  A    between atoms: N_14  and  C_5 
REMARK    2  A    between atoms: C_15  and  C_8 
ROOT
ATOM      1  N   UNL d   1      -0.209  -0.588   0.072  0.00  0.00    -0.227 N 
ATOM      2  C   UNL d   1      -0.159   0.803  -0.023  0.00  0.00     0.130 A 
ATOM      3  N   UNL d   1      -1.496  -1.043   0.091  0.00  0.00    -0.290 N 
ATOM      4  HN  UNL d   1      -1.808  -2.012   0.151  1.00  0.00     0.187 HD
ATOM      5  C   UNL d   1       0.980  -1.371   0.102  0.00  0.00     0.124 A 
ATOM      6  C   UNL d   1      -1.465   1.226  -0.044  0.00  0.00     0.082 A 
ATOM      7  C   UNL d   1       2.161  -0.721   0.022  0.00  0.00     0.100 A 
ATOM      8  C   UNL d   1      -2.264   0.056   0.015  0.00  0.00     0.062 A 
ATOM      9  N   UNL d   1       1.017   1.493  -0.079  0.00  0.00    -0.349 N 
ATOM     10  HN  UNL d   1       1.049   2.511  -0.134  1.00  0.00     0.167 HD
ATOM     11  C   UNL d   1       2.093   0.766  -0.058  0.00  0.00     0.116 A 
ATOM     12  C   UNL d   1       3.428  -1.354   0.016  0.00  0.00     0.104 C 
ATOM     13  N   UNL d   1       4.471  -1.863  -0.010  0.00  0.00    -0.191 NA
ENDROOT
BRANCH   5  14
ATOM     14  N   UNL d   1       0.818  -2.755   0.200  0.00  0.00    -0.286 NA
ATOM     15  H   UNL d   1      -0.132  -3.046  -0.051  0.00  0.00     0.125 HD
ATOM     16  H   UNL d   1       1.546  -3.325  -0.225  0.00  0.00     0.125 HD
ENDBRANCH   5  14
BRANCH   8  17
ATOM     17  C   UNL d   1      -3.730  -0.013   0.003  0.00  0.00    -0.008 A 
ATOM     18  C   UNL d   1      -4.406  -1.078   0.615  0.00  0.00     0.014 A 
ATOM     19  C   UNL d   1      -5.805  -1.118   0.635  0.00  0.00     0.001 A 
ATOM     20  C   UNL d   1      -6.543  -0.100   0.035  0.00  0.00     0.000 A 
ATOM     21  C   UNL d   1      -5.885   0.955  -0.592  0.00  0.00     0.001 A 
ATOM     22  C   UNL d   1      -4.488   0.999  -0.608  0.00  0.00     0.014 A 
ENDBRANCH   8  17
TORSDOF 2
