REMARK  10 active torsions:
REMARK  status: ('A' for Active; 'I' for Inactive)
REMARK    1  A    between atoms: C_8  and  N_1 
REMARK    2  A    between atoms: C_2  and  C_3 
REMARK    3  A    between atoms: C_5  and  N_15 
REMARK    4  A    between atoms: C_16  and  C_8 
REMARK    5  A    between atoms: N_15  and  C_24 
REMARK    6  A    between atoms: O_19  and  C_16 
REMARK    7  A    between atoms: C_22  and  C_16 
REMARK    8  A    between atoms: N_17  and  C_22 
REMARK    9  A    between atoms: C_25  and  N_17 
REMARK   10  A    between atoms: C_24  and  C_25 
ROOT
ATOM      1  N   UNL d   1      -0.430  -5.923  -0.114  0.00  0.00     0.087 N 
ATOM      2  H   UNL d   1       0.118  -5.896   0.750  0.00  0.00     0.316 HD
ENDROOT
BRANCH   1   3
ATOM      3  C   UNL d   1      -1.492  -4.919  -0.036  0.00  0.00     0.302 C 
BRANCH   3   4
ATOM      4  C   UNL d   1      -0.943  -3.485   0.086  0.00  0.00     0.164 C 
BRANCH   4   5
ATOM      5  C   UNL d   1      -0.088  -3.115  -1.134  0.00  0.00     0.162 C 
BRANCH   5   6
ATOM      6  N   UNL d   1       0.462  -1.770  -1.049  0.00  0.00    -0.354 N 
ATOM      7  C   UNL d   1      -0.166  -0.660  -1.559  0.00  0.00     0.092 A 
ATOM      8  C   UNL d   1       0.633   0.430  -1.305  0.00  0.00     0.031 A 
ATOM      9  C   UNL d   1       1.800  -0.034  -0.641  0.00  0.00    -0.008 A 
ATOM     10  C   UNL d   1       1.679  -1.419  -0.497  0.00  0.00     0.044 A 
ATOM     11  C   UNL d   1       2.955   0.608  -0.154  0.00  0.00     0.014 A 
ATOM     12  C   UNL d   1       2.682  -2.189   0.115  0.00  0.00     0.030 A 
ATOM     13  C   UNL d   1       3.824  -1.529   0.583  0.00  0.00     0.002 A 
ATOM     14  C   UNL d   1       3.960  -0.150   0.454  0.00  0.00     0.001 A 
ENDBRANCH   5   6
ENDBRANCH   4   5
BRANCH   4  15
ATOM     15  O   UNL d   1      -2.067  -2.607   0.246  0.00  0.00    -0.392 OA
ATOM     16  H   UNL d   1      -2.445  -2.422  -0.630  0.00  0.00     0.210 HD
ENDBRANCH   4  15
ENDBRANCH   3   4
ENDBRANCH   1   3
BRANCH   1  17
ATOM     17  C   UNL d   1      -0.966  -7.283  -0.289  0.00  0.00     0.284 C 
BRANCH  17  18
ATOM     18  C   UNL d   1      -1.763  -7.816   0.918  0.00  0.00     0.123 C 
BRANCH  18  19
ATOM     19  N   UNL d   1      -2.151  -9.209   0.705  0.00  0.00    -0.277 NA
ATOM     20  H   UNL d   1      -1.368  -9.797   0.432  0.00  0.00     0.129 HD
BRANCH  19  21
ATOM     21  C   UNL d   1      -2.858  -9.784   1.768  0.00  0.00     0.095 A 
ATOM     22  C   UNL d   1      -3.322 -11.095   1.695  0.00  0.00     0.086 A 
ATOM     23  C   UNL d   1      -4.077 -11.596   2.774  0.00  0.00     0.021 A 
ATOM     24  C   UNL d   1      -4.337 -10.801   3.880  0.00  0.00     0.018 A 
ATOM     25  C   UNL d   1      -3.839  -9.519   3.870  0.00  0.00     0.089 A 
ATOM     26  N   UNL d   1      -3.123  -9.008   2.847  0.00  0.00    -0.356 N 
ATOM     27  HN  UNL d   1      -2.784  -8.047   2.885  1.00  0.00     0.166 HD
BRANCH  22  28
ATOM     28  C   UNL d   1      -3.072 -11.997   0.525  0.00  0.00     0.420 C 
ATOM     29  F   UNL d   1      -2.263 -11.498  -0.454  0.00  0.00    -0.166 F 
ATOM     30  F   UNL d   1      -2.471 -13.162   0.909  0.00  0.00    -0.166 F 
ATOM     31  F   UNL d   1      -4.223 -12.377  -0.100  0.00  0.00    -0.166 F 
ENDBRANCH  22  28
ENDBRANCH  19  21
ENDBRANCH  18  19
ENDBRANCH  17  18
ENDBRANCH   1  17
TORSDOF 10
