REMARK  3 active torsions:
REMARK  status: ('A' for Active; 'I' for Inactive)
REMARK    1  A    between atoms: O_18  and  C_5 
REMARK    2  A    between atoms: C_16  and  N_11 
REMARK    3  A    between atoms: C_17  and  C_13 
ROOT
ATOM      1  N   UNL d   1       1.312  -0.697   0.021  0.00  0.00    -0.216 N 
ATOM      2  C   UNL d   1      -1.059  -0.781   0.000  0.00  0.00     0.045 A 
ATOM      3  C   UNL d   1       1.272   0.707   0.048  0.00  0.00     0.132 A 
ATOM      4  C   UNL d   1      -0.960   0.693   0.034  0.00  0.00     0.114 A 
ATOM      5  C   UNL d   1       0.106  -1.449   0.001  0.00  0.00     0.173 A 
ATOM      6  N   UNL d   1       0.106   1.421   0.060  0.00  0.00    -0.336 N 
ATOM      7  HN  UNL d   1       0.081   2.440   0.089  1.00  0.00     0.168 HD
ATOM      8  N   UNL d   1       2.596  -1.148   0.014  0.00  0.00    -0.290 N 
ATOM      9  HN  UNL d   1       2.908  -2.119   0.016  1.00  0.00     0.188 HD
ATOM     10  C   UNL d   1      -2.371   1.222   0.043  0.00  0.00     0.271 C 
ATOM     11  N   UNL d   1      -3.212   0.121   0.198  0.00  0.00    -0.338 N 
ATOM     12  C   UNL d   1       2.578   1.124   0.050  0.00  0.00     0.082 A 
ATOM     13  C   UNL d   1       3.366  -0.048   0.003  0.00  0.00     0.062 A 
ATOM     14  C   UNL d   1      -2.498  -1.139  -0.009  0.00  0.00     0.172 C 
ATOM     15  O   UNL d   1      -2.640   2.395  -0.100  0.00  0.00    -0.266 OA
ENDROOT
BRANCH  11  16
ATOM     16  C   UNL d   1      -4.676   0.224   0.028  0.00  0.00     0.088 C 
ATOM     17  C   UNL d   1      -5.310   1.410   0.784  0.00  0.00     0.025 C 
ATOM     18  C   UNL d   1      -5.200   1.242   2.297  0.00  0.00     0.002 C 
ATOM     19  C   UNL d   1      -5.855  -0.054   2.763  0.00  0.00     0.000 C 
ATOM     20  C   UNL d   1      -5.390  -1.274   1.971  0.00  0.00     0.002 C 
ATOM     21  C   UNL d   1      -5.431  -1.050   0.457  0.00  0.00     0.025 C 
ENDBRANCH  11  16
BRANCH   5  22
ATOM     22  O   UNL d   1       0.180  -2.832  -0.023  0.00  0.00    -0.344 OA
ATOM     23  H   UNL d   1      -0.706  -3.225  -0.035  0.00  0.00     0.219 HD
ENDBRANCH   5  22
BRANCH  13  24
ATOM     24  C   UNL d   1       4.828  -0.118  -0.046  0.00  0.00    -0.008 A 
ATOM     25  C   UNL d   1       5.575   0.957  -0.554  0.00  0.00     0.014 A 
ATOM     26  C   UNL d   1       6.971   0.906  -0.586  0.00  0.00     0.001 A 
ATOM     27  C   UNL d   1       7.634  -0.222  -0.113  0.00  0.00     0.000 A 
ATOM     28  C   UNL d   1       6.909  -1.299   0.389  0.00  0.00     0.001 A 
ATOM     29  C   UNL d   1       5.511  -1.251   0.419  0.00  0.00     0.014 A 
ENDBRANCH  13  24
TORSDOF 3
