REMARK  4 active torsions:
REMARK  status: ('A' for Active; 'I' for Inactive)
REMARK    1  A    between atoms: C_3  and  C_1 
REMARK    2  A    between atoms: O_7  and  C_3 
REMARK    3  A    between atoms: C_8  and  O_7 
REMARK    4  A    between atoms: C_16  and  C_11 
ROOT
ATOM      1  N   UNL d   1       0.217   9.856   1.782  0.00  0.00    -0.197 NA
ATOM      2  C   UNL d   1      -0.475   9.360   0.991  0.00  0.00     0.063 C 
ATOM      3  C   UNL d   1      -1.372   8.762  -0.012  0.00  0.00     0.162 C 
ENDROOT
BRANCH   3   4
ATOM      4  C   UNL d   1      -1.361   7.251   0.018  0.00  0.00    -0.045 A 
ATOM      5  C   UNL d   1      -2.250   6.565   0.854  0.00  0.00     0.011 A 
ATOM      6  C   UNL d   1      -2.214   5.171   0.937  0.00  0.00     0.037 A 
ATOM      7  C   UNL d   1      -1.268   4.447   0.212  0.00  0.00     0.069 A 
ATOM      8  C   UNL d   1      -0.412   5.119  -0.659  0.00  0.00     0.037 A 
ATOM      9  C   UNL d   1      -0.450   6.515  -0.753  0.00  0.00     0.011 A 
BRANCH   7  10
ATOM     10  O   UNL d   1      -1.093   3.090   0.295  0.00  0.00    -0.347 OA
BRANCH  10  11
ATOM     11  C   UNL d   1      -1.578   2.495   1.501  0.00  0.00     0.219 C 
BRANCH  11  12
ATOM     12  C   UNL d   1      -0.886   1.182   1.733  0.00  0.00     0.026 A 
ATOM     13  C   UNL d   1      -1.524  -0.005   1.361  0.00  0.00     0.126 A 
ATOM     14  F   UNL d   1      -2.739   0.038   0.795  0.00  0.00    -0.205 F 
ATOM     15  C   UNL d   1      -0.940  -1.250   1.579  0.00  0.00     0.043 A 
ATOM     16  C   UNL d   1       0.312  -1.329   2.180  0.00  0.00     0.005 A 
ATOM     17  C   UNL d   1       0.974  -0.159   2.550  0.00  0.00     0.024 A 
ATOM     18  C   UNL d   1       0.382   1.089   2.322  0.00  0.00     0.045 A 
ATOM     19 CL   UNL d   1       1.266   2.491   2.816  0.00  0.00    -0.084 Cl
ENDBRANCH  11  12
ENDBRANCH  10  11
ENDBRANCH   7  10
ENDBRANCH   3   4
TORSDOF 4
