REMARK  7 active torsions:
REMARK  status: ('A' for Active; 'I' for Inactive)
REMARK    1  A    between atoms: C_2  and  C_1 
REMARK    2  A    between atoms: C_3  and  C_1 
REMARK    3  A    between atoms: C_6  and  C_1 
REMARK       I    between atoms: N_5  and  C_2 
REMARK    4  A    between atoms: N_4  and  C_3 
REMARK    5  A    between atoms: C_10  and  N_4 
REMARK    6  A    between atoms: N_7  and  C_6 
REMARK    7  A    between atoms: O_15  and  C_13 
ROOT
ATOM      1  C   UNL d   1       1.071   0.070   0.008  0.00  0.00     0.227 C 
ENDROOT
BRANCH   1   2
ATOM      2  C   UNL d   1       0.663  -0.651  -1.289  0.00  0.00     0.243 C 
ATOM      3  N   UNL d   1      -0.409  -0.182  -2.033  0.00  0.00    -0.347 N 
ATOM      4  C   UNL d   1      -1.477   0.714  -1.572  0.00  0.00     0.152 C 
ATOM      5  C   UNL d   1      -0.671  -0.764  -3.358  0.00  0.00     0.152 C 
ATOM      6  C   UNL d   1      -2.850   0.031  -1.709  0.00  0.00     0.187 C 
ATOM      7  O   UNL d   1      -3.068  -0.430  -3.050  0.00  0.00    -0.388 OA
ATOM      8  C   UNL d   1      -2.066  -1.391  -3.423  0.00  0.00     0.187 C 
ATOM      9  O   UNL d   1       1.305  -1.635  -1.676  0.00  0.00    -0.271 OA
ENDBRANCH   1   2
BRANCH   1  10
ATOM     10  C   UNL d   1       0.640  -0.689   1.304  0.00  0.00     0.103 C 
ATOM     11  S   UNL d   1      -0.740  -1.651   1.375  0.00  0.00    -0.063 SA
BRANCH  10  12
ATOM     12  N   UNL d   1       1.399  -0.648   2.461  0.00  0.00    -0.347 N 
ATOM     13  H   UNL d   1       1.240  -1.417   3.113  0.00  0.00     0.167 HD
BRANCH  12  14
ATOM     14  C   UNL d   1       2.094   0.435   3.046  0.00  0.00     0.066 A 
ATOM     15  C   UNL d   1       3.089   0.214   4.025  0.00  0.00     0.094 A 
ATOM     16  C   UNL d   1       3.636   1.300   4.712  0.00  0.00     0.039 A 
ATOM     17  C   UNL d   1       3.194   2.599   4.472  0.00  0.00     0.003 A 
ATOM     18  C   UNL d   1       2.204   2.819   3.521  0.00  0.00     0.002 A 
ATOM     19  C   UNL d   1       1.663   1.746   2.804  0.00  0.00     0.032 A 
BRANCH  15  20
ATOM     20  O   UNL d   1       3.531  -1.008   4.460  0.00  0.00    -0.354 OA
ATOM     21  C   UNL d   1       3.928  -1.933   3.453  0.00  0.00     0.210 C 
ENDBRANCH  15  20
ENDBRANCH  12  14
ENDBRANCH  10  12
ENDBRANCH   1  10
BRANCH   1  22
ATOM     22  C   UNL d   1       2.591   0.070   0.008  0.00  0.00    -0.056 C 
BRANCH  22  23
ATOM     23  N   UNL d   1       3.852   0.070   0.008  0.00  0.00    -0.369 N 
ATOM     24  HN2 UNL d   1       2.832   0.070   0.008  1.00  0.00     0.165 HD
ATOM     25  HN1 UNL d   1       4.872   0.070   0.008  1.00  0.00     0.165 HD
ENDBRANCH  22  23
ENDBRANCH   1  22
TORSDOF 7
