REMARK  7 active torsions:
REMARK  status: ('A' for Active; 'I' for Inactive)
REMARK    1  A    between atoms: C_4  and  N_1 
REMARK    2  A    between atoms: C_2  and  C_3 
REMARK    3  A    between atoms: C_6  and  C_5 
REMARK    4  A    between atoms: S_10  and  C_7 
REMARK    5  A    between atoms: C_14  and  S_10 
REMARK    6  A    between atoms: C_11  and  C_13 
REMARK       I    between atoms: N_18  and  C_11 
REMARK    7  A    between atoms: C_27  and  N_18 
ROOT
ATOM      1  C   UNL d   1       0.193  -0.910   0.531  0.00  0.00     0.103 A 
ATOM      2  C   UNL d   1      -0.030  -2.182   2.596  0.00  0.00    -0.017 A 
ATOM      3  C   UNL d   1      -1.351  -2.529   2.227  0.00  0.00     0.017 A 
ATOM      4  C   UNL d   1       0.724  -1.340   1.756  0.00  0.00     0.048 A 
ATOM      5  C   UNL d   1      -1.087  -1.303   0.133  0.00  0.00     0.037 A 
ATOM      6  C   UNL d   1      -1.856  -2.096   0.988  0.00  0.00     0.022 A 
ENDROOT
BRANCH   2   7
ATOM      7  C   UNL d   1       0.671  -2.905   3.670  0.00  0.00     0.018 C 
ATOM      8  C   UNL d   1       1.520  -2.421   4.590  0.00  0.00     0.075 C 
BRANCH   8   9
ATOM      9  C   UNL d   1       2.279  -3.457   5.333  0.00  0.00     0.245 C 
ATOM     10  N   UNL d   1       2.580  -3.115   6.638  0.00  0.00    -0.324 N 
ATOM     11  H   UNL d   1       2.185  -2.260   7.000  0.00  0.00     0.169 HD
ATOM     12  O   UNL d   1       2.562  -4.511   4.777  0.00  0.00    -0.268 OA
BRANCH  10  13
ATOM     13  C   UNL d   1       3.288  -3.932   7.555  0.00  0.00     0.035 A 
ATOM     14  C   UNL d   1       3.952  -5.107   7.187  0.00  0.00     0.029 A 
ATOM     15  C   UNL d   1       4.614  -5.889   8.137  0.00  0.00     0.002 A 
ATOM     16  C   UNL d   1       4.626  -5.501   9.471  0.00  0.00     0.000 A 
ATOM     17  C   UNL d   1       3.985  -4.324   9.852  0.00  0.00     0.002 A 
ATOM     18  C   UNL d   1       3.324  -3.538   8.898  0.00  0.00     0.029 A 
ENDBRANCH  10  13
ENDBRANCH   8   9
ENDBRANCH   2   7
BRANCH   3  19
ATOM     19  S   UNL d   1      -2.366  -3.684   3.143  0.00  0.00    -0.072 SA
BRANCH  19  20
ATOM     20  C   UNL d   1      -3.011  -2.767   4.537  0.00  0.00     0.074 A 
ATOM     21  N   UNL d   1      -2.500  -1.563   4.881  0.00  0.00    -0.359 N 
ATOM     22  C   UNL d   1      -3.042  -0.943   5.965  0.00  0.00     0.105 A 
ATOM     23  HN  UNL d   1      -1.740  -1.137   4.351  1.00  0.00     0.166 HD
ATOM     24  C   UNL d   1      -4.078  -1.459   6.731  0.00  0.00     0.063 A 
ATOM     25  C   UNL d   1      -4.582  -2.707   6.359  0.00  0.00     0.020 A 
ATOM     26  C   UNL d   1      -4.044  -3.365   5.256  0.00  0.00     0.038 A 
BRANCH  24  27
ATOM     27  C   UNL d   1      -4.639  -0.721   7.909  0.00  0.00     0.418 C 
ATOM     28  F   UNL d   1      -4.084   0.508   8.101  0.00  0.00    -0.166 F 
ATOM     29  F   UNL d   1      -5.981  -0.509   7.800  0.00  0.00    -0.166 F 
ATOM     30  F   UNL d   1      -4.465  -1.396   9.078  0.00  0.00    -0.166 F 
ENDBRANCH  24  27
ENDBRANCH  19  20
ENDBRANCH   3  19
BRANCH   1  31
ATOM     31  N   UNL d   1       1.014  -0.095  -0.375  0.00  0.00    -0.116 N 
ATOM     32  O   UNL d   1       2.083   0.353   0.063  0.00  0.00    -0.532 OA
ATOM     33  O   UNL d   1       0.586   0.101  -1.522  0.00  0.00    -0.532 OA
ENDBRANCH   1  31
TORSDOF 7
