REMARK  3 active torsions:
REMARK  status: ('A' for Active; 'I' for Inactive)
REMARK    1  A    between atoms: N_5  and  C_1 
REMARK    2  A    between atoms: C_9  and  C_4 
REMARK       I    between atoms: C_6  and  N_5 
REMARK       I    between atoms: N_12  and  C_6 
REMARK    3  A    between atoms: C_19  and  N_12 
ROOT
ATOM      1  C   UNL d   1      -0.023  -0.969  -0.404  0.00  0.00     0.152 A 
ATOM      2  N   UNL d   1       1.083  -0.276  -0.271  0.00  0.00    -0.335 N 
ATOM      3  HN  UNL d   1       2.023  -0.665  -0.194  1.00  0.00     0.168 HD
ATOM      4  C   UNL d   1       0.759   1.083  -0.253  0.00  0.00     0.051 A 
ATOM      5  S   UNL d   1      -1.479  -0.092  -0.547  0.00  0.00    -0.063 SA
ATOM      6  C   UNL d   1      -0.589   1.361  -0.402  0.00  0.00     0.083 A 
ENDROOT
BRANCH   1   7
ATOM      7  N   UNL d   1      -0.215  -2.313  -0.432  0.00  0.00    -0.288 N 
ATOM      8  C   UNL d   1       0.708  -3.309  -0.382  0.00  0.00     0.326 C 
ATOM      9  N   UNL d   1       2.028  -2.959  -0.405  0.00  0.00    -0.309 N 
ATOM     10  O   UNL d   1       0.263  -4.458  -0.355  0.00  0.00    -0.247 OA
ATOM     11  H   UNL d   1       2.216  -1.965  -0.485  0.00  0.00     0.170 HD
ATOM     12  H   UNL d   1      -1.168  -2.640  -0.476  0.00  0.00     0.172 HD
BRANCH   9  13
ATOM     13  C   UNL d   1       3.138  -3.836  -0.419  0.00  0.00     0.036 A 
ATOM     14  C   UNL d   1       3.039  -5.222  -0.258  0.00  0.00     0.029 A 
ATOM     15  C   UNL d   1       4.178  -6.033  -0.300  0.00  0.00     0.002 A 
ATOM     16  C   UNL d   1       5.431  -5.467  -0.506  0.00  0.00     0.000 A 
ATOM     17  C   UNL d   1       5.546  -4.088  -0.663  0.00  0.00     0.002 A 
ATOM     18  C   UNL d   1       4.406  -3.276  -0.614  0.00  0.00     0.029 A 
ENDBRANCH   9  13
ENDBRANCH   1   7
BRANCH   4  19
ATOM     19  C   UNL d   1       1.761   2.122  -0.026  0.00  0.00    -0.006 A 
ATOM     20  C   UNL d   1       1.575   3.434  -0.494  0.00  0.00     0.059 A 
ATOM     21  C   UNL d   1       2.514   4.421  -0.201  0.00  0.00     0.155 A 
ATOM     22  F   UNL d   1       2.307   5.670  -0.640  0.00  0.00    -0.203 F 
ATOM     23  C   UNL d   1       3.643   4.121   0.547  0.00  0.00     0.154 A 
ATOM     24  C   UNL d   1       3.856   2.826   1.003  0.00  0.00     0.046 A 
ATOM     25  F   UNL d   1       4.535   5.078   0.838  0.00  0.00    -0.203 F 
ATOM     26  C   UNL d   1       2.917   1.827   0.713  0.00  0.00     0.017 A 
ENDBRANCH   4  19
TORSDOF 3
