REMARK  2 active torsions:
REMARK  status: ('A' for Active; 'I' for Inactive)
REMARK    1  A    between atoms: C_9  and  C_2 
REMARK    2  A    between atoms: C_16  and  C_10 
ROOT
ATOM      1  N   UNL d   1      -0.270  -0.650   0.020  0.00  0.00    -0.235 N 
ATOM      2  C   UNL d   1       0.912  -1.386   0.016  0.00  0.00     0.143 A 
ATOM      3  C   UNL d   1      -0.225   0.753   0.024  0.00  0.00     0.129 A 
ATOM      4  N   UNL d   1      -1.554  -1.087   0.014  0.00  0.00    -0.296 N 
ATOM      5  HN  UNL d   1      -1.874  -2.055   0.019  1.00  0.00     0.187 HD
ATOM      6  C   UNL d   1      -1.529   1.183   0.019  0.00  0.00     0.077 A 
ATOM      7  N   UNL d   1       0.947   1.454   0.026  0.00  0.00    -0.345 N 
ATOM      8  HN  UNL d   1       0.961   2.474   0.033  1.00  0.00     0.167 HD
ATOM      9  C   UNL d   1      -2.312   0.015   0.001  0.00  0.00     0.033 A 
ATOM     10  C   UNL d   1       2.094  -0.738   0.011  0.00  0.00     0.061 A 
ATOM     11  C   UNL d   1       2.043   0.755   0.017  0.00  0.00     0.009 A 
ATOM     12  C   UNL d   1       3.364   1.480   0.016  0.00  0.00     0.068 C 
ENDROOT
BRANCH   2  13
ATOM     13  C   UNL d   1       0.846  -2.867   0.017  0.00  0.00     0.434 C 
ATOM     14  F   UNL d   1      -0.382  -3.430  -0.025  0.00  0.00    -0.165 F 
ATOM     15  F   UNL d   1       1.535  -3.375  -1.043  0.00  0.00    -0.165 F 
ATOM     16  F   UNL d   1       1.460  -3.369   1.125  0.00  0.00    -0.165 F 
ENDBRANCH   2  13
BRANCH   9  17
ATOM     17  C   UNL d   1      -3.813  -0.072  -0.041  0.00  0.00     0.029 C 
ATOM     18  C   UNL d   1      -4.308  -0.800  -1.293  0.00  0.00     0.016 C 
ATOM     19  C   UNL d   1      -4.388  -0.720   1.219  0.00  0.00     0.016 C 
ENDBRANCH   9  17
TORSDOF 2
