REMARK  8 active torsions:
REMARK  status: ('A' for Active; 'I' for Inactive)
REMARK    1  A    between atoms: N_4  and  C_1 
REMARK    2  A    between atoms: N_5  and  C_2 
REMARK    3  A    between atoms: N_14  and  C_3 
REMARK    4  A    between atoms: C_6  and  C_7 
REMARK    5  A    between atoms: C_20  and  N_14 
REMARK    6  A    between atoms: C_18  and  S_19 
REMARK    7  A    between atoms: S_19  and  C_24 
REMARK    8  A    between atoms: C_24  and  C_20 
ROOT
ATOM      1  C   UNL d   1      -1.020  -2.142   1.139  0.00  0.00     0.132 A 
ATOM      2  C   UNL d   1       0.996  -1.042   1.778  0.00  0.00     0.132 A 
ATOM      3  C   UNL d   1       0.370  -1.958   0.901  0.00  0.00     0.095 A 
ATOM      4  C   UNL d   1      -1.005  -0.670   3.106  0.00  0.00     0.052 A 
ATOM      5  C   UNL d   1       0.343  -0.421   2.861  0.00  0.00     0.054 A 
ATOM      6  C   UNL d   1      -1.689  -1.512   2.221  0.00  0.00     0.054 A 
ENDROOT
BRANCH   3   7
ATOM      7  N   UNL d   1       1.036  -2.738  -0.029  0.00  0.00    -0.385 N 
ATOM      8  H   UNL d   1       0.487  -3.147  -0.799  0.00  0.00     0.159 HD
BRANCH   7   9
ATOM      9  C   UNL d   1       2.450  -3.093  -0.048  0.00  0.00     0.130 C 
BRANCH   9  10
ATOM     10  C   UNL d   1       2.650  -4.577  -0.361  0.00  0.00     0.094 C 
BRANCH  10  11
ATOM     11  S   UNL d   1       2.135  -4.993  -2.058  0.00  0.00    -0.159 SA
BRANCH  11  12
ATOM     12  C   UNL d   1       2.555  -6.792  -2.128  0.00  0.00    -0.003 C 
ATOM     13  C   UNL d   1       1.696  -7.581  -1.133  0.00  0.00     0.026 C 
ATOM     14  C   UNL d   1       2.233  -7.252  -3.557  0.00  0.00     0.026 C 
ATOM     15  C   UNL d   1       4.046  -7.022  -1.849  0.00  0.00     0.026 C 
ENDBRANCH  11  12
ENDBRANCH  10  11
ENDBRANCH   9  10
ENDBRANCH   7   9
ENDBRANCH   3   7
BRANCH   2  16
ATOM     16  N   UNL d   1       2.364  -0.601   1.569  0.00  0.00    -0.113 N 
ATOM     17  O   UNL d   1       2.604   0.054   0.547  0.00  0.00    -0.532 OA
ATOM     18  O   UNL d   1       3.180  -0.877   2.460  0.00  0.00    -0.532 OA
ENDBRANCH   2  16
BRANCH   1  19
ATOM     19  N   UNL d   1      -1.846  -3.019   0.282  0.00  0.00    -0.113 N 
ATOM     20  O   UNL d   1      -1.396  -3.361  -0.823  0.00  0.00    -0.532 OA
ATOM     21  O   UNL d   1      -2.962  -3.350   0.708  0.00  0.00    -0.532 OA
ENDBRANCH   1  19
BRANCH   4  22
ATOM     22  C   UNL d   1      -1.715  -0.051   4.286  0.00  0.00     0.417 C 
ATOM     23  F   UNL d   1      -0.906   0.741   5.042  0.00  0.00    -0.166 F 
ATOM     24  F   UNL d   1      -2.761   0.729   3.908  0.00  0.00    -0.166 F 
ATOM     25  F   UNL d   1      -2.220  -0.989   5.130  0.00  0.00    -0.166 F 
ENDBRANCH   4  22
TORSDOF 8
