REMARK  4 active torsions:
REMARK  status: ('A' for Active; 'I' for Inactive)
REMARK    1  A    between atoms: C_8  and  C_1 
REMARK    2  A    between atoms: C_7  and  N_3 
REMARK    3  A    between atoms: C_9  and  C_8 
REMARK    4  A    between atoms: N_17  and  C_12 
ROOT
ATOM      1  C   UNL d   1      -0.203  -1.005  -0.055  0.00  0.00     0.120 A 
ATOM      2  N   UNL d   1       0.984   0.802  -0.352  0.00  0.00    -0.014 NA
ATOM      3  N   UNL d   1      -0.294   1.187  -0.109  0.00  0.00    -0.242 N 
ATOM      4  N   UNL d   1       1.058  -0.514  -0.258  0.00  0.00    -0.278 N 
ATOM      5  HN  UNL d   1       1.911  -1.069  -0.326  1.00  0.00     0.184 HD
ATOM      6  C   UNL d   1      -1.097   0.061  -0.004  0.00  0.00     0.060 A 
ATOM      7  C   UNL d   1      -2.581   0.033   0.027  0.00  0.00     0.072 C 
ENDROOT
BRANCH   3   8
ATOM      8  C   UNL d   1      -0.604   2.572  -0.024  0.00  0.00     0.056 A 
ATOM      9  C   UNL d   1      -1.699   3.039   0.716  0.00  0.00     0.058 A 
ATOM     10  C   UNL d   1      -1.978   4.410   0.751  0.00  0.00     0.074 A 
ATOM     11 CL   UNL d   1      -3.324   4.972   1.667  0.00  0.00    -0.081 Cl
ATOM     12  C   UNL d   1      -1.171   5.309   0.057  0.00  0.00     0.138 A 
ATOM     13  C   UNL d   1      -0.065   4.859  -0.654  0.00  0.00     0.046 A 
ATOM     14  F   UNL d   1      -1.439   6.623   0.067  0.00  0.00    -0.204 F 
ATOM     15  C   UNL d   1       0.230   3.494  -0.682  0.00  0.00     0.034 A 
ENDBRANCH   3   8
BRANCH   1  16
ATOM     16  C   UNL d   1      -0.518  -2.428   0.032  0.00  0.00     0.202 C 
ATOM     17  O   UNL d   1      -1.656  -2.854   0.211  0.00  0.00    -0.286 OA
BRANCH  16  18
ATOM     18  C   UNL d   1       0.661  -3.329  -0.114  0.00  0.00     0.074 C 
ATOM     19  C   UNL d   1       0.498  -4.658  -0.074  0.00  0.00     0.088 C 
BRANCH  19  20
ATOM     20  N   UNL d   1       1.432  -5.681  -0.184  0.00  0.00    -0.398 N 
ATOM     21  C   UNL d   1       2.868  -5.483  -0.377  0.00  0.00     0.148 C 
ATOM     22  C   UNL d   1       1.034  -7.088  -0.112  0.00  0.00     0.148 C 
ENDBRANCH  19  20
ENDBRANCH  16  18
ENDBRANCH   1  16
TORSDOF 4
