REMARK  7 active torsions:
REMARK  status: ('A' for Active; 'I' for Inactive)
REMARK    1  A    between atoms: C_11  and  C_1 
REMARK    2  A    between atoms: C_10  and  C_2 
REMARK    3  A    between atoms: S_16  and  C_9 
REMARK    4  A    between atoms: C_12  and  C_22 
REMARK       I    between atoms: N_15  and  C_12 
REMARK    5  A    between atoms: C_23  and  N_15 
REMARK    6  A    between atoms: C_22  and  S_16 
REMARK    7  A    between atoms: C_27  and  C_18 
ROOT
ATOM      1  N   UNL d   1       1.087   7.640  -1.468  0.00  0.00    -0.334 N 
ATOM      2  HN  UNL d   1       1.537   6.930  -2.047  1.00  0.00     0.168 HD
ATOM      3  C   UNL d   1      -0.127   7.450  -0.936  0.00  0.00     0.145 A 
ATOM      4  C   UNL d   1       1.683   8.819  -1.197  0.00  0.00     0.071 A 
ATOM      5  N   UNL d   1      -0.780   8.328  -0.167  0.00  0.00    -0.347 N 
ATOM      6  HN  UNL d   1      -1.703   8.126   0.218  1.00  0.00     0.167 HD
ATOM      7  C   UNL d   1       1.090   9.797  -0.431  0.00  0.00     0.049 A 
ATOM      8  C   UNL d   1      -0.150   9.493   0.070  0.00  0.00     0.092 A 
ENDROOT
BRANCH   3   9
ATOM      9  S   UNL d   1      -0.969   5.982  -1.459  0.00  0.00    -0.085 SA
BRANCH   9  10
ATOM     10  C   UNL d   1      -2.556   6.726  -1.917  0.00  0.00     0.185 C 
BRANCH  10  11
ATOM     11  C   UNL d   1      -2.524   7.740  -3.057  0.00  0.00     0.231 C 
ATOM     12  N   UNL d   1      -1.338   7.868  -3.757  0.00  0.00    -0.327 N 
ATOM     13  H   UNL d   1      -0.609   7.192  -3.549  0.00  0.00     0.169 HD
ATOM     14  O   UNL d   1      -3.557   8.363  -3.306  0.00  0.00    -0.272 OA
BRANCH  12  15
ATOM     15  C   UNL d   1      -1.002   8.878  -4.687  0.00  0.00     0.034 A 
ATOM     16  C   UNL d   1      -1.837   9.954  -4.987  0.00  0.00     0.030 A 
ATOM     17  C   UNL d   1      -1.421  10.963  -5.861  0.00  0.00     0.010 A 
ATOM     18  C   UNL d   1      -0.157  10.924  -6.459  0.00  0.00    -0.055 A 
ATOM     19  C   UNL d   1       0.674   9.831  -6.177  0.00  0.00     0.010 A 
ATOM     20  C   UNL d   1       0.257   8.821  -5.296  0.00  0.00     0.030 A 
BRANCH  18  21
ATOM     21  C   UNL d   1       0.323  12.056  -7.351  0.00  0.00     0.010 C 
ATOM     22  C   UNL d   1      -0.586  12.263  -8.566  0.00  0.00     0.015 C 
ATOM     23  C   UNL d   1       0.454  13.356  -6.550  0.00  0.00     0.015 C 
ENDBRANCH  18  21
ENDBRANCH  12  15
ENDBRANCH  10  11
ENDBRANCH   9  10
ENDBRANCH   3   9
BRANCH   4  24
ATOM     24  C   UNL d   1       3.001   8.956  -1.785  0.00  0.00     0.127 A 
ATOM     25  C   UNL d   1       3.821   8.113  -2.496  0.00  0.00     0.074 A 
ATOM     26  C   UNL d   1       4.986   8.873  -2.776  0.00  0.00     0.069 A 
ATOM     27  N   UNL d   1       4.875  10.098  -2.236  0.00  0.00    -0.260 N 
ATOM     28  O   UNL d   1       3.635  10.148  -1.629  0.00  0.00    -0.235 OA
ATOM     29  HN  UNL d   1       5.570  10.844  -2.267  1.00  0.00     0.195 HD
BRANCH  26  30
ATOM     30  C   UNL d   1       6.203   8.453  -3.474  0.00  0.00     0.014 A 
ATOM     31  C   UNL d   1       6.204   7.630  -4.613  0.00  0.00     0.046 A 
ATOM     32 CL   UNL d   1       4.759   7.114  -5.418  0.00  0.00    -0.083 Cl
ATOM     33  C   UNL d   1       7.415   7.217  -5.188  0.00  0.00     0.025 A 
ATOM     34  C   UNL d   1       8.632   7.635  -4.652  0.00  0.00     0.002 A 
ATOM     35  C   UNL d   1       8.647   8.476  -3.545  0.00  0.00     0.001 A 
ATOM     36  C   UNL d   1       7.444   8.881  -2.961  0.00  0.00     0.015 A 
ENDBRANCH  26  30
ENDBRANCH   4  24
TORSDOF 7
