REMARK  2 active torsions:
REMARK  status: ('A' for Active; 'I' for Inactive)
REMARK    1  A    between atoms: N_4  and  C_1 
REMARK       I    between atoms: C_8  and  N_4 
REMARK    2  A    between atoms: C_10  and  C_8 
ROOT
ATOM      1  N   UNL d   1       4.601  -3.923   0.319  0.00  0.00    -0.197 NA
ATOM      2  C   UNL d   1       4.767  -2.784   0.182  0.00  0.00     0.068 C 
ATOM      3  C   UNL d   1       4.770  -1.343  -0.002  0.00  0.00     0.226 C 
ENDROOT
BRANCH   3   4
ATOM      4  C   UNL d   1       3.367  -0.810  -0.156  0.00  0.00     0.236 C 
ATOM      5  N   UNL d   1       2.255  -1.738  -0.080  0.00  0.00    -0.311 N 
ATOM      6  H   UNL d   1       2.432  -2.734   0.025  0.00  0.00     0.170 HD
ATOM      7  O   UNL d   1       3.159   0.383  -0.336  0.00  0.00    -0.272 OA
BRANCH   5   8
ATOM      8  C   UNL d   1       0.919  -1.352  -0.116  0.00  0.00     0.123 A 
ATOM      9  C   UNL d   1       0.364  -0.096  -0.207  0.00  0.00     0.068 A 
ATOM     10  C   UNL d   1      -1.029  -0.306  -0.156  0.00  0.00     0.111 A 
ATOM     11  N   UNL d   1      -1.342  -1.598  -0.055  0.00  0.00    -0.310 N 
ATOM     12  N   UNL d   1      -0.150  -2.213  -0.043  0.00  0.00    -0.286 N 
ATOM     13  HN  UNL d   1      -2.270  -2.019  -0.001  1.00  0.00     0.186 HD
ATOM     14  H   UNL d   1      -0.143  -3.224   0.024  0.00  0.00     0.188 HD
ENDBRANCH   5   8
ENDBRANCH   3   4
TORSDOF 2
