REMARK  6 active torsions:
REMARK  status: ('A' for Active; 'I' for Inactive)
REMARK    1  A    between atoms: C_8  and  C_1 
REMARK    2  A    between atoms: N_6  and  C_2 
REMARK    3  A    between atoms: C_9  and  C_4 
REMARK       I    between atoms: C_7  and  N_6 
REMARK    4  A    between atoms: C_13  and  C_7 
REMARK    5  A    between atoms: O_19  and  C_8 
REMARK    6  A    between atoms: C_10  and  C_11 
ROOT
ATOM      1  C   UNL d   1       0.091   1.383  -0.015  0.00  0.00     0.107 A 
ATOM      2  C   UNL d   1       1.387   0.919  -0.180  0.00  0.00     0.059 A 
ATOM      3  S   UNL d   1      -1.023   0.081   0.057  0.00  0.00    -0.081 SA
ATOM      4  C   UNL d   1       0.190  -1.122  -0.057  0.00  0.00     0.018 A 
ATOM      5  C   UNL d   1       1.427  -0.521  -0.206  0.00  0.00     0.051 A 
ENDROOT
BRANCH   2   6
ATOM      6  N   UNL d   1       2.511   1.744  -0.306  0.00  0.00    -0.321 N 
ATOM      7  C   UNL d   1       3.555   1.413  -1.147  0.00  0.00     0.256 C 
ATOM      8  O   UNL d   1       3.574   0.448  -1.914  0.00  0.00    -0.267 OA
ATOM      9  H   UNL d   1       2.409   2.717  -0.040  0.00  0.00     0.169 HD
BRANCH   7  10
ATOM     10  C   UNL d   1       4.707   2.341  -1.190  0.00  0.00     0.032 A 
ATOM     11  C   UNL d   1       5.299   2.821  -0.020  0.00  0.00     0.017 A 
ATOM     12  C   UNL d   1       6.469   3.584  -0.098  0.00  0.00     0.001 A 
ATOM     13  C   UNL d   1       7.041   3.873  -1.341  0.00  0.00     0.000 A 
ATOM     14  C   UNL d   1       6.444   3.405  -2.509  0.00  0.00     0.001 A 
ATOM     15  C   UNL d   1       5.283   2.635  -2.437  0.00  0.00     0.017 A 
ENDBRANCH   7  10
ENDBRANCH   2   6
BRANCH   1  16
ATOM     16  C   UNL d   1      -0.482   2.717   0.011  0.00  0.00     0.302 C 
ATOM     17  O   UNL d   1      -1.679   2.983   0.062  0.00  0.00    -0.259 OA
BRANCH  16  18
ATOM     18  O   UNL d   1       0.498   3.670  -0.058  0.00  0.00    -0.322 OA
ATOM     19  C   UNL d   1       0.011   5.012  -0.155  0.00  0.00     0.213 C 
ENDBRANCH  16  18
ENDBRANCH   1  16
BRANCH   4  20
ATOM     20  C   UNL d   1      -0.176  -2.554  -0.016  0.00  0.00    -0.019 A 
ATOM     21  C   UNL d   1       0.603  -3.528  -0.650  0.00  0.00     0.013 A 
ATOM     22  C   UNL d   1       0.226  -4.885  -0.634  0.00  0.00     0.009 A 
ATOM     23  C   UNL d   1      -0.945  -5.320   0.014  0.00  0.00    -0.051 A 
ATOM     24  C   UNL d   1      -1.702  -4.341   0.669  0.00  0.00     0.009 A 
ATOM     25  C   UNL d   1      -1.324  -2.993   0.658  0.00  0.00     0.013 A 
BRANCH  23  26
ATOM     26  C   UNL d   1      -1.373  -6.798  -0.020  0.00  0.00    -0.024 C 
ATOM     27  C   UNL d   1      -2.705  -7.074   0.718  0.00  0.00     0.019 C 
ATOM     28  C   UNL d   1      -1.566  -7.249  -1.484  0.00  0.00     0.019 C 
ATOM     29  C   UNL d   1      -0.296  -7.681   0.643  0.00  0.00     0.019 C 
ENDBRANCH  23  26
ENDBRANCH   4  20
TORSDOF 6
