REMARK  2 active torsions:
REMARK  status: ('A' for Active; 'I' for Inactive)
REMARK    1  A    between atoms: C_2  and  S_1 
REMARK    2  A    between atoms: N_3  and  S_1 
ROOT
ATOM      1  C   UNL d   1       0.157   0.226   1.678  0.00  0.00     0.086 A 
ATOM      2  C   UNL d   1      -0.217  -0.990   2.287  0.00  0.00     0.034 A 
ATOM      3  C   UNL d   1      -0.041   1.441   2.354  0.00  0.00    -0.037 A 
ATOM      4  C   UNL d   1      -0.785  -1.023   3.571  0.00  0.00    -0.039 A 
ATOM      5  C   UNL d   1      -0.984   0.187   4.242  0.00  0.00     0.040 A 
ATOM      6  C   UNL d   1      -0.620   1.396   3.638  0.00  0.00     0.032 A 
ATOM      7 CL   UNL d   1      -1.660   0.244   5.829  0.00  0.00    -0.084 Cl
ATOM      8  C   UNL d   1       0.335   2.804   1.844  0.00  0.00     0.050 C 
ATOM      9  C   UNL d   1      -1.154  -2.345   4.185  0.00  0.00     0.050 C 
ENDROOT
BRANCH   1  10
ATOM     10  S   UNL d   1       0.997   0.100   0.105  0.00  0.00     0.268 S 
ATOM     11  O   UNL d   1       0.947  -1.278  -0.341  0.00  0.00    -0.200 OA
ATOM     12  O   UNL d   1       2.249   0.825   0.208  0.00  0.00    -0.200 OA
BRANCH  10  13
ATOM     13  N   UNL d   1       0.039   0.938  -1.024  0.00  0.00    -0.258 N 
ATOM     14  C   UNL d   1      -1.248   0.603  -1.351  0.00  0.00     0.108 A 
ATOM     15  C   UNL d   1      -1.651   1.465  -2.352  0.00  0.00     0.020 A 
ATOM     16  C   UNL d   1      -0.553   2.312  -2.657  0.00  0.00     0.020 A 
ATOM     17  C   UNL d   1       0.493   1.944  -1.837  0.00  0.00     0.108 A 
ENDBRANCH  10  13
ENDBRANCH   1  10
TORSDOF 2
