REMARK  3 active torsions:
REMARK  status: ('A' for Active; 'I' for Inactive)
REMARK    1  A    between atoms: C_5  and  C_1 
REMARK    2  A    between atoms: C_12  and  C_5 
REMARK    3  A    between atoms: O_17  and  N_10 
ROOT
ATOM      1  C   UNL d   1       2.604  -0.544   0.508  0.00  0.00     0.066 C 
ATOM      2  C   UNL d   1       3.570   0.407   0.976  0.00  0.00     0.101 C 
ATOM      3  N   UNL d   1       4.367   1.146   1.381  0.00  0.00    -0.191 NA
ENDROOT
BRANCH   1   4
ATOM      4  C   UNL d   1       1.363  -0.194   0.060  0.00  0.00     0.009 C 
ATOM      5  C   UNL d   1       0.867   1.193  -0.064  0.00  0.00     0.048 C 
ATOM      6  C   UNL d   1      -0.447   1.458   0.006  0.00  0.00     0.057 C 
ATOM      7 CL   UNL d   1       1.912   2.518  -0.454  0.00  0.00    -0.083 Cl
ATOM      8  C   UNL d   1      -1.456   0.358   0.109  0.00  0.00     0.077 C 
ATOM      9  C   UNL d   1      -0.930  -1.004  -0.245  0.00  0.00     0.063 C 
ATOM     10  N   UNL d   1      -2.710   0.526   0.416  0.00  0.00    -0.268 N 
ATOM     11  C   UNL d   1       0.390  -1.239  -0.297  0.00  0.00     0.041 C 
ATOM     12 CL   UNL d   1      -2.062  -2.250  -0.611  0.00  0.00    -0.082 Cl
ATOM     13  HN  UNL d   1      -3.392  -0.232   0.450  1.00  0.00     0.194 HD
BRANCH  10  14
ATOM     14  O   UNL d   1      -3.018   1.863   0.695  0.00  0.00    -0.289 OA
ATOM     15  H   UNL d   1      -3.977   1.823   0.872  0.00  0.00     0.244 HD
ENDBRANCH  10  14
ENDBRANCH   1   4
BRANCH   1  16
ATOM     16  C   UNL d   1       3.037  -1.954   0.686  0.00  0.00    -0.015 A 
ATOM     17  C   UNL d   1       3.783  -2.604  -0.306  0.00  0.00     0.013 A 
ATOM     18  C   UNL d   1       4.292  -3.888  -0.077  0.00  0.00     0.007 A 
ATOM     19  C   UNL d   1       4.061  -4.542   1.139  0.00  0.00    -0.062 A 
ATOM     20  C   UNL d   1       3.300  -3.899   2.121  0.00  0.00     0.007 A 
ATOM     21  C   UNL d   1       4.665  -5.894   1.392  0.00  0.00     0.048 C 
ATOM     22  C   UNL d   1       2.790  -2.617   1.897  0.00  0.00     0.013 A 
ENDBRANCH   1  16
TORSDOF 3
