REMARK  7 active torsions:
REMARK  status: ('A' for Active; 'I' for Inactive)
REMARK    1  A    between atoms: N_3  and  S_1 
REMARK    2  A    between atoms: C_12  and  S_1 
REMARK    3  A    between atoms: S_29  and  C_5 
REMARK    4  A    between atoms: C_6  and  C_10 
REMARK    5  A    between atoms: C_13  and  C_17 
REMARK    6  A    between atoms: C_14  and  C_18 
REMARK    7  A    between atoms: O_36  and  N_27 
ROOT
ATOM      1  N   UNL d   1       0.477  -2.623   1.173  0.00  0.00    -0.188 N 
ATOM      2  N   UNL d   1       0.476  -2.763   2.526  0.00  0.00    -0.284 N 
ATOM      3  HN  UNL d   1       1.214  -3.150   3.115  1.00  0.00     0.188 HD
ATOM      4  C   UNL d   1      -0.719  -2.273   2.915  0.00  0.00     0.068 C 
ATOM      5  C   UNL d   1      -1.405  -1.699   1.819  0.00  0.00     0.052 C 
ATOM      6  C   UNL d   1      -0.598  -1.898   0.726  0.00  0.00     0.132 C 
ENDROOT
BRANCH   1   7
ATOM      7  S   UNL d   1       1.641  -3.227   0.038  0.00  0.00     0.282 S 
ATOM      8  O   UNL d   1       2.626  -2.157  -0.088  0.00  0.00    -0.198 OA
ATOM      9  O   UNL d   1       0.859  -3.679  -1.096  0.00  0.00    -0.198 OA
BRANCH   7  10
ATOM     10  C   UNL d   1       2.456  -4.661   0.690  0.00  0.00     0.083 A 
ATOM     11  C   UNL d   1       1.805  -5.528   1.562  0.00  0.00     0.041 A 
ATOM     12  C   UNL d   1       2.404  -6.744   1.934  0.00  0.00     0.050 A 
ATOM     13  C   UNL d   1       3.681  -7.066   1.432  0.00  0.00     0.032 A 
ATOM     14  C   UNL d   1       4.349  -6.199   0.548  0.00  0.00     0.050 A 
ATOM     15  C   UNL d   1       3.725  -4.991   0.186  0.00  0.00     0.041 A 
BRANCH  12  16
ATOM     16  C   UNL d   1       1.649  -7.723   2.815  0.00  0.00     0.417 C 
ATOM     17  F   UNL d   1       0.406  -7.281   3.155  0.00  0.00    -0.166 F 
ATOM     18  F   UNL d   1       1.462  -8.920   2.197  0.00  0.00    -0.166 F 
ATOM     19  F   UNL d   1       2.293  -7.990   3.975  0.00  0.00    -0.166 F 
ENDBRANCH  12  16
BRANCH  14  20
ATOM     20  C   UNL d   1       5.689  -6.598  -0.036  0.00  0.00     0.417 C 
ATOM     21  F   UNL d   1       6.185  -5.694  -0.925  0.00  0.00    -0.166 F 
ATOM     22  F   UNL d   1       6.649  -6.757   0.915  0.00  0.00    -0.166 F 
ATOM     23  F   UNL d   1       5.628  -7.783  -0.706  0.00  0.00    -0.166 F 
ENDBRANCH  14  20
ENDBRANCH   7  10
ENDBRANCH   1   7
BRANCH   4  24
ATOM     24  C   UNL d   1      -1.216  -2.403   4.350  0.00  0.00     0.041 A 
ATOM     25  C   UNL d   1      -2.459  -2.057   4.876  0.00  0.00    -0.024 A 
ATOM     26  C   UNL d   1      -2.561  -2.433   6.299  0.00  0.00     0.020 A 
ATOM     27  C   UNL d   1      -3.652  -1.443   4.146  0.00  0.00     0.050 C 
ATOM     28  C   UNL d   1      -3.827  -2.212   7.018  0.00  0.00     0.045 C 
ATOM     29  C   UNL d   1      -1.397  -3.011   6.773  0.00  0.00     0.054 A 
ATOM     30  N   UNL d   1      -3.817  -2.063   8.304  0.00  0.00    -0.271 N 
ATOM     31  C   UNL d   1      -5.060  -2.075   6.139  0.00  0.00     0.069 C 
ATOM     32  HN  UNL d   1      -2.980  -2.143   8.882  1.00  0.00     0.194 HD
ATOM     33  C   UNL d   1      -4.809  -0.983   5.082  0.00  0.00    -0.038 C 
ATOM     34  C   UNL d   1      -6.114  -0.774   4.284  0.00  0.00     0.015 C 
ATOM     35  C   UNL d   1      -4.459   0.366   5.748  0.00  0.00     0.015 C 
ATOM     36  S   UNL d   1      -0.214  -3.120   5.542  0.00  0.00    -0.080 SA
BRANCH  30  37
ATOM     37  O   UNL d   1      -5.096  -1.779   8.809  0.00  0.00    -0.285 OA
ATOM     38  C   UNL d   1      -4.991  -1.550  10.210  0.00  0.00     0.237 C 
ENDBRANCH  30  37
BRANCH  29  39
ATOM     39  S   UNL d   1      -1.052  -3.813   8.313  0.00  0.00    -0.126 SA
ATOM     40  C   UNL d   1      -0.844  -2.466   9.496  0.00  0.00     0.096 C 
ENDBRANCH  29  39
ENDBRANCH   4  24
TORSDOF 7
