REMARK  6 active torsions:
REMARK  status: ('A' for Active; 'I' for Inactive)
REMARK    1  A    between atoms: C_9  and  S_1 
REMARK    2  A    between atoms: C_10  and  S_1 
REMARK    3  A    between atoms: C_3  and  S_13 
REMARK    4  A    between atoms: S_14  and  C_4 
REMARK    5  A    between atoms: C_17  and  C_10 
REMARK    6  A    between atoms: S_13  and  C_17 
ROOT
ATOM      1  C   UNL d   1       0.473  -1.627   0.311  0.00  0.00     0.156 C 
ENDROOT
BRANCH   1   2
ATOM      2  S   UNL d   1       1.079   0.006  -0.063  0.00  0.00     0.176 S 
ATOM      3  O   UNL d   1       2.456   0.094   0.378  0.00  0.00    -0.223 OA
ATOM      4  O   UNL d   1       0.708   0.329  -1.428  0.00  0.00    -0.223 OA
BRANCH   2   5
ATOM      5  C   UNL d   1       0.114   1.062   1.004  0.00  0.00     0.059 A 
ATOM      6  C   UNL d   1       0.600   1.402   2.270  0.00  0.00     0.025 A 
ATOM      7  C   UNL d   1      -0.156   2.239   3.096  0.00  0.00     0.025 A 
ATOM      8  C   UNL d   1      -1.380   2.739   2.647  0.00  0.00     0.034 A 
ATOM      9  C   UNL d   1      -1.850   2.421   1.372  0.00  0.00     0.025 A 
ATOM     10 CL   UNL d   1      -2.315   3.757   3.672  0.00  0.00    -0.084 Cl
ATOM     11  C   UNL d   1      -1.099   1.585   0.542  0.00  0.00     0.025 A 
ENDBRANCH   2   5
ENDBRANCH   1   2
BRANCH   1  12
ATOM     12  C   UNL d   1       1.155  -2.662  -0.570  0.00  0.00     0.097 C 
BRANCH  12  13
ATOM     13  S   UNL d   1       0.496  -4.313  -0.167  0.00  0.00    -0.103 SA
BRANCH  13  14
ATOM     14  C   UNL d   1       1.445  -5.339  -1.223  0.00  0.00     0.129 A 
ATOM     15  S   UNL d   1       1.248  -7.042  -1.268  0.00  0.00    -0.038 SA
ATOM     16  C   UNL d   1       2.495  -7.076  -2.444  0.00  0.00     0.128 A 
ATOM     17  N   UNL d   1       2.981  -5.893  -2.752  0.00  0.00    -0.287 N 
ATOM     18  N   UNL d   1       2.367  -4.877  -2.038  0.00  0.00    -0.287 N 
ATOM     19  HN  UNL d   1       3.723  -5.741  -3.435  1.00  0.00     0.188 HD
ATOM     20  HN  UNL d   1       2.602  -3.889  -2.134  1.00  0.00     0.188 HD
BRANCH  16  21
ATOM     21  S   UNL d   1       3.067  -8.564  -3.165  0.00  0.00    -0.108 SA
ATOM     22  C   UNL d   1       4.369  -7.943  -4.252  0.00  0.00     0.097 C 
ENDBRANCH  16  21
ENDBRANCH  13  14
ENDBRANCH  12  13
ENDBRANCH   1  12
TORSDOF 6
