REMARK  7 active torsions:
REMARK  status: ('A' for Active; 'I' for Inactive)
REMARK    1  A    between atoms: C_7  and  C_1 
REMARK       I    between atoms: C_2  and  N_3 
REMARK    2  A    between atoms: O_8  and  C_2 
REMARK       I    between atoms: C_4  and  N_6 
REMARK    3  A    between atoms: C_11  and  C_4 
REMARK    4  A    between atoms: N_5  and  C_7 
REMARK    5  A    between atoms: N_6  and  C_18 
REMARK    6  A    between atoms: C_23  and  O_8 
REMARK    7  A    between atoms: C_26  and  C_23 
ROOT
ATOM      1  C   UNL d   1      -5.473   1.395  -0.984  0.00  0.00     0.222 C 
ATOM      2  N   UNL d   1      -4.735   2.007   0.001  0.00  0.00    -0.356 N 
ATOM      3  O   UNL d   1      -5.614   0.179  -1.052  0.00  0.00    -0.273 OA
ATOM      4  H   UNL d   1      -4.768   3.018   0.043  0.00  0.00     0.162 HD
ENDROOT
BRANCH   1   5
ATOM      5  C   UNL d   1      -6.194   2.340  -1.964  0.00  0.00     0.081 C 
ATOM      6  C   UNL d   1      -7.067   1.553  -2.953  0.00  0.00     0.034 C 
ATOM      7  C   UNL d   1      -6.229   0.784  -3.975  0.00  0.00     0.129 C 
ATOM      8  N   UNL d   1      -5.286   1.643  -4.685  0.00  0.00    -0.328 N 
ATOM      9  C   UNL d   1      -4.694   1.198  -5.871  0.00  0.00     0.363 C 
ATOM     10  C   UNL d   1      -4.511   2.586  -3.887  0.00  0.00     0.129 C 
ATOM     11  O   UNL d   1      -3.756   1.783  -6.414  0.00  0.00    -0.238 OA
ATOM     12  C   UNL d   1      -5.292   3.282  -2.770  0.00  0.00     0.034 C 
BRANCH   9  13
ATOM     13  O   UNL d   1      -5.244   0.051  -6.354  0.00  0.00    -0.299 OA
BRANCH  13  14
ATOM     14  C   UNL d   1      -4.666  -0.507  -7.551  0.00  0.00     0.219 C 
BRANCH  14  15
ATOM     15  C   UNL d   1      -4.298  -1.971  -7.394  0.00  0.00    -0.034 A 
ATOM     16  C   UNL d   1      -4.505  -2.677  -6.200  0.00  0.00     0.009 A 
ATOM     17  C   UNL d   1      -4.129  -4.019  -6.087  0.00  0.00     0.001 A 
ATOM     18  C   UNL d   1      -3.544  -4.678  -7.166  0.00  0.00     0.000 A 
ATOM     19  C   UNL d   1      -3.340  -3.997  -8.364  0.00  0.00     0.001 A 
ATOM     20  C   UNL d   1      -3.716  -2.655  -8.477  0.00  0.00     0.009 A 
ENDBRANCH  14  15
ENDBRANCH  13  14
ENDBRANCH   9  13
ENDBRANCH   1   5
BRANCH   2  21
ATOM     21  C   UNL d   1      -3.954   1.348   1.067  0.00  0.00     0.087 C 
ATOM     22  C   UNL d   1      -4.752   0.588   2.129  0.00  0.00     0.055 C 
ATOM     23  C   UNL d   1      -5.016  -0.881   1.801  0.00  0.00     0.275 C 
ATOM     24  N   UNL d   1      -3.842  -1.639   1.330  0.00  0.00     0.092 N 
ATOM     25  C   UNL d   1      -3.107  -0.941   0.266  0.00  0.00     0.275 C 
ATOM     26  C   UNL d   1      -2.771   0.516   0.580  0.00  0.00     0.055 C 
BRANCH  24  27
ATOM     27  C   UNL d   1      -4.321  -2.959   0.838  0.00  0.00     0.315 C 
BRANCH  27  28
ATOM     28  C   UNL d   1      -3.236  -3.946   0.473  0.00  0.00     0.030 A 
ATOM     29  C   UNL d   1      -2.377  -4.524   1.418  0.00  0.00     0.045 A 
ATOM     30 CL   UNL d   1      -2.485  -4.155   3.103  0.00  0.00    -0.084 Cl
ATOM     31  C   UNL d   1      -1.403  -5.453   1.026  0.00  0.00     0.024 A 
ATOM     32  C   UNL d   1      -1.275  -5.826  -0.311  0.00  0.00     0.005 A 
ATOM     33  C   UNL d   1      -2.124  -5.269  -1.260  0.00  0.00     0.043 A 
ATOM     34  C   UNL d   1      -3.088  -4.343  -0.864  0.00  0.00     0.126 A 
ATOM     35  F   UNL d   1      -3.896  -3.838  -1.809  0.00  0.00    -0.205 F 
ENDBRANCH  27  28
ENDBRANCH  24  27
ENDBRANCH   2  21
TORSDOF 7
