REMARK  5 active torsions:
REMARK  status: ('A' for Active; 'I' for Inactive)
REMARK    1  A    between atoms: C_5  and  C_1 
REMARK    2  A    between atoms: C_12  and  N_2 
REMARK       I    between atoms: N_11  and  C_5 
REMARK    3  A    between atoms: C_7  and  C_10 
REMARK    4  A    between atoms: C_8  and  N_13 
REMARK    5  A    between atoms: N_13  and  N_11 
ROOT
ATOM      1  C   UNL d   1      -0.691  -2.753   0.170  0.00  0.00     0.284 C 
ATOM      2  N   UNL d   1      -1.950  -3.015   0.723  0.00  0.00    -0.281 N 
ATOM      3  O   UNL d   1       0.001  -3.683  -0.236  0.00  0.00    -0.265 OA
ATOM      4  H   UNL d   1      -2.329  -2.358   1.395  0.00  0.00     0.184 HD
ENDROOT
BRANCH   2   5
ATOM      5  N   UNL d   1      -2.314  -4.368   0.935  0.00  0.00    -0.201 NA
ATOM      6  H   UNL d   1      -1.627  -5.009   0.510  0.00  0.00     0.153 HD
BRANCH   5   7
ATOM      7  C   UNL d   1      -3.637  -4.706   0.521  0.00  0.00     0.050 A 
ATOM      8  C   UNL d   1      -4.692  -3.780   0.582  0.00  0.00     0.043 A 
ATOM      9  C   UNL d   1      -6.019  -4.139   0.277  0.00  0.00     0.049 A 
ATOM     10  C   UNL d   1      -6.300  -5.462  -0.078  0.00  0.00     0.018 A 
ATOM     11  C   UNL d   1      -5.280  -6.415  -0.110  0.00  0.00     0.026 A 
ATOM     12  C   UNL d   1      -3.964  -6.040   0.199  0.00  0.00     0.056 A 
ATOM     13 CL   UNL d   1      -2.751  -7.272   0.170  0.00  0.00    -0.082 Cl
BRANCH   9  14
ATOM     14  C   UNL d   1      -7.132  -3.119   0.341  0.00  0.00     0.417 C 
ATOM     15  F   UNL d   1      -6.713  -1.885   0.736  0.00  0.00    -0.166 F 
ATOM     16  F   UNL d   1      -7.743  -2.939  -0.862  0.00  0.00    -0.166 F 
ATOM     17  F   UNL d   1      -8.115  -3.476   1.213  0.00  0.00    -0.166 F 
ENDBRANCH   9  14
ENDBRANCH   5   7
ENDBRANCH   2   5
BRANCH   1  18
ATOM     18  C   UNL d   1      -0.346  -1.338   0.112  0.00  0.00     0.122 A 
ATOM     19  N   UNL d   1       0.876  -0.709  -0.118  0.00  0.00    -0.278 N 
ATOM     20  N   UNL d   1       0.749   0.649  -0.112  0.00  0.00    -0.302 N 
ATOM     21  C   UNL d   1      -0.541   0.901   0.060  0.00  0.00     0.024 A 
ATOM     22  HN  UNL d   1       1.497   1.335  -0.219  1.00  0.00     0.186 HD
ATOM     23  C   UNL d   1      -1.259  -0.287   0.220  0.00  0.00     0.063 A 
ATOM     24  C   UNL d   1      -1.028   2.299   0.052  0.00  0.00     0.070 C 
BRANCH  19  25
ATOM     25  C   UNL d   1       2.267  -1.165  -0.351  0.00  0.00     0.043 C 
ATOM     26  C   UNL d   1       2.538  -2.672  -0.278  0.00  0.00     0.039 C 
ATOM     27  C   UNL d   1       2.715  -0.692  -1.758  0.00  0.00     0.039 C 
ATOM     28  C   UNL d   1       3.194  -0.500   0.703  0.00  0.00     0.039 C 
ENDBRANCH  19  25
ENDBRANCH   1  18
TORSDOF 5
