REMARK  4 active torsions:
REMARK  status: ('A' for Active; 'I' for Inactive)
REMARK    1  A    between atoms: C_11  and  C_5 
REMARK    2  A    between atoms: C_16  and  C_11 
REMARK    3  A    between atoms: O_12  and  C_15 
REMARK    4  A    between atoms: C_15  and  C_16 
ROOT
ATOM      1  N   UNL d   1      -2.138   1.122   0.036  0.00  0.00    -0.344 N 
ATOM      2  HN  UNL d   1      -2.460   2.090   0.039  1.00  0.00     0.167 HD
ATOM      3  N   UNL d   1      -2.100  -1.095   0.021  0.00  0.00    -0.344 N 
ATOM      4  C   UNL d   1      -0.838   0.678   0.023  0.00  0.00     0.061 A 
ATOM      5  C   UNL d   1      -2.882   0.036   0.042  0.00  0.00     0.082 A 
ATOM      6  C   UNL d   1      -0.785  -0.706   0.012  0.00  0.00     0.061 A 
ATOM      7  C   UNL d   1       0.361   1.401   0.021  0.00  0.00     0.039 A 
ATOM      8  C   UNL d   1       0.412  -1.422  -0.005  0.00  0.00     0.039 A 
ATOM      9  C   UNL d   1       1.625  -0.691  -0.007  0.00  0.00    -0.054 A 
ATOM     10  C   UNL d   1       1.602   0.721   0.012  0.00  0.00    -0.054 A 
ATOM     11  C   UNL d   1       2.828   1.595   0.023  0.00  0.00     0.049 C 
ATOM     12  C   UNL d   1       2.886  -1.517  -0.033  0.00  0.00     0.049 C 
ATOM     13  H   UNL d   1      -2.440  -2.044   0.008  0.00  0.00     0.167 HD
ENDROOT
BRANCH   5  14
ATOM     14  C   UNL d   1      -4.371  -0.029   0.046  0.00  0.00     0.078 C 
BRANCH  14  15
ATOM     15  C   UNL d   1      -4.987   0.656  -1.175  0.00  0.00     0.033 C 
BRANCH  15  16
ATOM     16  C   UNL d   1      -4.591   0.005  -2.495  0.00  0.00     0.164 C 
BRANCH  16  17
ATOM     17  O   UNL d   1      -4.963  -1.368  -2.486  0.00  0.00    -0.401 OA
ATOM     18  H   UNL d   1      -4.743  -1.720  -3.367  0.00  0.00     0.209 HD
ENDBRANCH  16  17
ENDBRANCH  15  16
ENDBRANCH  14  15
ENDBRANCH   5  14
TORSDOF 4
