REMARK  4 active torsions:
REMARK  status: ('A' for Active; 'I' for Inactive)
REMARK    1  A    between atoms: C_7  and  C_10 
REMARK    2  A    between atoms: O_15  and  C_7 
REMARK    3  A    between atoms: O_9  and  C_12 
REMARK    4  A    between atoms: C_10  and  O_9 
ROOT
ATOM      1  C   UNL d   1       0.060   1.243   0.269  0.00  0.00     0.198 A 
ATOM      2  C   UNL d   1      -1.197   0.487   0.190  0.00  0.00     0.051 A 
ATOM      3  C   UNL d   1       1.304   0.471   0.177  0.00  0.00     0.049 A 
ATOM      4  O   UNL d   1       0.039  -1.616   0.104  0.00  0.00    -0.309 OA
ATOM      5  C   UNL d   1      -1.133  -0.902   0.117  0.00  0.00     0.090 A 
ATOM      6  C   UNL d   1       1.221  -0.918   0.095  0.00  0.00     0.090 A 
ATOM      7  C   UNL d   1      -2.426   1.157   0.158  0.00  0.00     0.055 A 
ATOM      8  O   UNL d   1       0.065   2.461   0.398  0.00  0.00    -0.286 OA
ATOM      9  C   UNL d   1      -3.603   0.423   0.031  0.00  0.00     0.071 A 
ATOM     10  C   UNL d   1      -2.315  -1.637   0.045  0.00  0.00     0.041 A 
ATOM     11  C   UNL d   1      -3.546  -0.975   0.007  0.00  0.00     0.039 A 
ATOM     12  C   UNL d   1       2.545   1.114   0.163  0.00  0.00     0.018 A 
ATOM     13  C   UNL d   1       2.392  -1.673  -0.001  0.00  0.00     0.038 A 
ATOM     14  C   UNL d   1       3.712   0.356   0.066  0.00  0.00     0.001 A 
ATOM     15  C   UNL d   1       3.635  -1.035  -0.016  0.00  0.00     0.003 A 
ENDROOT
BRANCH   9  16
ATOM     16  O   UNL d   1      -4.860   0.943  -0.134  0.00  0.00    -0.336 OA
BRANCH  16  17
ATOM     17  C   UNL d   1      -4.969   2.319  -0.519  0.00  0.00     0.222 C 
ATOM     18  C   UNL d   1      -6.452   2.673  -0.511  0.00  0.00     0.051 C 
BRANCH  17  19
ATOM     19  C   UNL d   1      -4.443   2.596  -1.933  0.00  0.00     0.170 C 
ATOM     20  O   UNL d   1      -4.090   3.697  -2.330  0.00  0.00    -0.648 OA
BRANCH  19  21
ATOM     21  O   UNL d   1      -4.457   1.503  -2.737  0.00  0.00    -0.775 OA
ATOM     22  H   UNL d   1      -4.756   0.710  -2.245  0.00  0.00     0.167 HD
ENDBRANCH  19  21
ENDBRANCH  17  19
ENDBRANCH  16  17
ENDBRANCH   9  16
TORSDOF 4
