REMARK  2 active torsions:
REMARK  status: ('A' for Active; 'I' for Inactive)
REMARK    1  A    between atoms: C_11  and  C_2 
REMARK    2  A    between atoms: C_12  and  C_3 
ROOT
ATOM      1  S   UNL d   1       1.209   0.654   0.451  0.00  0.00     0.214 S 
ATOM      2  C   UNL d   1       0.085   1.839  -0.141  0.00  0.00     0.111 A 
ATOM      3  C   UNL d   1       0.733   0.921   2.129  0.00  0.00     0.111 A 
ATOM      4  C   UNL d   1      -0.150   1.927   2.149  0.00  0.00     0.139 A 
ATOM      5  C   UNL d   1      -0.501   2.431   0.897  0.00  0.00     0.139 A 
ATOM      6  O   UNL d   1      -1.515   3.314   0.993  0.00  0.00    -0.251 OA
ATOM      7  O   UNL d   1      -0.933   2.459   3.110  0.00  0.00    -0.251 OA
ATOM      8  C   UNL d   1      -1.754   3.306   2.365  0.00  0.00     0.417 A 
ATOM      9  O   UNL d   1       2.561   1.139   0.255  0.00  0.00    -0.217 OA
ATOM     10  O   UNL d   1       0.803  -0.674   0.029  0.00  0.00    -0.217 OA
ATOM     11  O   UNL d   1      -2.633   3.987   2.881  0.00  0.00    -0.229 OA
ENDROOT
BRANCH   2  12
ATOM     12  C   UNL d   1      -0.193   1.918  -1.552  0.00  0.00    -0.011 A 
ATOM     13  C   UNL d   1       0.525   2.800  -2.365  0.00  0.00     0.013 A 
ATOM     14  C   UNL d   1       0.074   3.081  -3.656  0.00  0.00     0.001 A 
ATOM     15  C   UNL d   1      -1.089   2.481  -4.140  0.00  0.00     0.000 A 
ATOM     16  C   UNL d   1      -1.783   1.567  -3.350  0.00  0.00     0.001 A 
ATOM     17  C   UNL d   1      -1.335   1.284  -2.060  0.00  0.00     0.013 A 
ENDBRANCH   2  12
BRANCH   3  18
ATOM     18  C   UNL d   1       1.162  -0.063   3.111  0.00  0.00    -0.011 A 
ATOM     19  C   UNL d   1       0.235  -0.517   4.067  0.00  0.00     0.013 A 
ATOM     20  C   UNL d   1       0.569  -1.528   4.970  0.00  0.00     0.001 A 
ATOM     21  C   UNL d   1       1.839  -2.093   4.940  0.00  0.00     0.000 A 
ATOM     22  C   UNL d   1       2.781  -1.632   4.024  0.00  0.00     0.001 A 
ATOM     23  C   UNL d   1       2.448  -0.619   3.119  0.00  0.00     0.013 A 
ENDBRANCH   3  18
TORSDOF 2
