REMARK  4 active torsions:
REMARK  status: ('A' for Active; 'I' for Inactive)
REMARK    1  A    between atoms: C_2  and  C_1 
REMARK    2  A    between atoms: C_20  and  C_7 
REMARK    3  A    between atoms: C_11  and  C_19 
REMARK    4  A    between atoms: N_14  and  N_16 
ROOT
ATOM      1  C   UNL d   1       0.344  -2.741  -0.040  0.00  0.00     0.056 A 
ATOM      2  N   UNL d   1       1.074  -3.223   1.020  0.00  0.00    -0.334 N 
ATOM      3  HN  UNL d   1       1.316  -2.678   1.848  1.00  0.00     0.168 HD
ATOM      4  C   UNL d   1       1.421  -4.476   0.828  0.00  0.00     0.163 A 
ATOM      5  C   UNL d   1       0.051  -3.673  -1.011  0.00  0.00     0.083 A 
ATOM      6  S   UNL d   1       0.814  -5.164  -0.631  0.00  0.00    -0.062 SA
ATOM      7  N   UNL d   1       2.189  -5.216   1.677  0.00  0.00    -0.280 N 
ATOM      8  H   UNL d   1       2.369  -6.180   1.413  0.00  0.00     0.189 HD
ENDROOT
BRANCH   1   9
ATOM      9  C   UNL d   1      -0.020  -1.327  -0.037  0.00  0.00     0.052 A 
ATOM     10  C   UNL d   1       0.769  -0.228   0.439  0.00  0.00     0.080 A 
ATOM     11  N   UNL d   1       0.074   0.918   0.296  0.00  0.00    -0.259 N 
ATOM     12  O   UNL d   1      -1.130   0.585  -0.281  0.00  0.00    -0.241 OA
ATOM     13  HN  UNL d   1       0.382   1.852   0.565  1.00  0.00     0.195 HD
ATOM     14  C   UNL d   1      -1.186  -0.754  -0.490  0.00  0.00     0.087 A 
ATOM     15  C   UNL d   1      -2.427  -1.262  -1.104  0.00  0.00     0.080 C 
BRANCH  10  16
ATOM     16  C   UNL d   1       2.135  -0.191   0.982  0.00  0.00    -0.007 A 
ATOM     17  C   UNL d   1       2.485   0.755   1.959  0.00  0.00     0.014 A 
ATOM     18  C   UNL d   1       3.777   0.788   2.494  0.00  0.00     0.001 A 
ATOM     19  C   UNL d   1       4.737  -0.124   2.062  0.00  0.00     0.000 A 
ATOM     20  C   UNL d   1       4.412  -1.054   1.079  0.00  0.00     0.001 A 
ATOM     21  C   UNL d   1       3.127  -1.072   0.530  0.00  0.00     0.014 A 
ENDBRANCH  10  16
ENDBRANCH   1   9
BRANCH   7  22
ATOM     22  N   UNL d   1       2.362  -4.824   2.964  0.00  0.00    -0.309 N 
ATOM     23  C   UNL d   1       2.998  -5.624   3.753  0.00  0.00     0.122 C 
ATOM     24  HN  UNL d   1       2.004  -3.928   3.297  1.00  0.00     0.186 HD
BRANCH  23  25
ATOM     25  C   UNL d   1       3.158  -5.288   5.183  0.00  0.00     0.024 A 
ATOM     26  C   UNL d   1       2.130  -4.664   5.913  0.00  0.00     0.047 A 
ATOM     27 CL   UNL d   1       0.536  -4.390   5.294  0.00  0.00    -0.083 Cl
ATOM     28  C   UNL d   1       2.337  -4.300   7.249  0.00  0.00     0.025 A 
ATOM     29  C   UNL d   1       3.552  -4.569   7.874  0.00  0.00     0.003 A 
ATOM     30  C   UNL d   1       4.561  -5.221   7.168  0.00  0.00     0.025 A 
ATOM     31  C   UNL d   1       4.368  -5.582   5.829  0.00  0.00     0.047 A 
ATOM     32 CL   UNL d   1       5.686  -6.371   5.032  0.00  0.00    -0.083 Cl
ENDBRANCH  23  25
ENDBRANCH   7  22
TORSDOF 4
