REMARK  5 active torsions:
REMARK  status: ('A' for Active; 'I' for Inactive)
REMARK    1  A    between atoms: C_16  and  N_2 
REMARK       I    between atoms: C_3  and  N_11 
REMARK       I    between atoms: N_5  and  C_3 
REMARK    2  A    between atoms: C_4  and  N_5 
REMARK    3  A    between atoms: O_20  and  C_8 
REMARK    4  A    between atoms: N_11  and  C_19 
REMARK    5  A    between atoms: C_19  and  C_16 
ROOT
ATOM      1  C   UNL d   1      -3.570  -3.965  -1.582  0.00  0.00     0.320 C 
ATOM      2  N   UNL d   1      -4.382  -2.858  -1.633  0.00  0.00    -0.306 N 
ATOM      3  O   UNL d   1      -3.923  -5.132  -1.744  0.00  0.00    -0.247 OA
ATOM      4  N   UNL d   1      -2.276  -3.633  -1.256  0.00  0.00    -0.341 N 
ATOM      5  H   UNL d   1      -3.996  -2.012  -1.242  0.00  0.00     0.171 HD
ATOM      6  H   UNL d   1      -1.948  -2.712  -1.510  0.00  0.00     0.164 HD
ENDROOT
BRANCH   4   7
ATOM      7  C   UNL d   1      -1.252  -4.662  -1.108  0.00  0.00     0.144 C 
BRANCH   7   8
ATOM      8  C   UNL d   1      -0.840  -5.335  -2.429  0.00  0.00     0.147 C 
BRANCH   8   9
ATOM      9  N   UNL d   1      -0.387  -4.376  -3.422  0.00  0.00    -0.331 N 
ATOM     10  C   UNL d   1       0.711  -3.537  -3.272  0.00  0.00     0.318 C 
ATOM     11  N   UNL d   1       0.876  -2.857  -4.471  0.00  0.00    -0.341 N 
ATOM     12  O   UNL d   1       1.393  -3.376  -2.276  0.00  0.00    -0.247 OA
ATOM     13  C   UNL d   1      -0.237  -3.116  -5.345  0.00  0.00     0.144 C 
ATOM     14  H   UNL d   1       1.484  -2.048  -4.499  0.00  0.00     0.164 HD
ATOM     15  C   UNL d   1      -0.791  -4.428  -4.810  0.00  0.00     0.147 C 
ENDBRANCH   8   9
ENDBRANCH   7   8
ENDBRANCH   4   7
BRANCH   2  16
ATOM     16  C   UNL d   1      -5.761  -2.839  -1.948  0.00  0.00     0.071 A 
ATOM     17  C   UNL d   1      -6.325  -3.846  -2.744  0.00  0.00     0.056 A 
ATOM     18  C   UNL d   1      -7.655  -3.766  -3.161  0.00  0.00     0.036 A 
ATOM     19 CL   UNL d   1      -8.293  -4.970  -4.215  0.00  0.00    -0.084 Cl
ATOM     20  C   UNL d   1      -8.455  -2.699  -2.769  0.00  0.00     0.026 A 
ATOM     21  C   UNL d   1      -7.914  -1.699  -1.961  0.00  0.00     0.041 A 
ATOM     22  C   UNL d   1      -6.575  -1.760  -1.546  0.00  0.00     0.095 A 
BRANCH  22  23
ATOM     23  O   UNL d   1      -6.147  -0.663  -0.840  0.00  0.00    -0.354 OA
ATOM     24  C   UNL d   1      -5.516  -0.933   0.411  0.00  0.00     0.210 C 
ENDBRANCH  22  23
ENDBRANCH   2  16
TORSDOF 5
