REMARK  6 active torsions:
REMARK  status: ('A' for Active; 'I' for Inactive)
REMARK    1  A    between atoms: O_7  and  C_1 
REMARK    2  A    between atoms: C_14  and  N_2 
REMARK    3  A    between atoms: C_6  and  O_7 
REMARK    4  A    between atoms: C_8  and  C_6 
REMARK    5  A    between atoms: O_11  and  C_9 
REMARK    6  A    between atoms: C_16  and  O_11 
ROOT
ATOM      1  C   UNL d   1      -2.129  -2.788  -0.485  0.00  0.00     0.304 C 
ATOM      2  O   UNL d   1      -2.294  -3.972  -0.723  0.00  0.00    -0.259 OA
ENDROOT
BRANCH   1   3
ATOM      3  O   UNL d   1      -0.951  -2.140  -0.318  0.00  0.00    -0.255 OA
BRANCH   3   4
ATOM      4  C   UNL d   1      -0.032  -2.677   0.482  0.00  0.00     0.175 C 
ATOM      5  N   UNL d   1       1.236  -2.104   0.646  0.00  0.00    -0.234 N 
ATOM      6  N   UNL d   1       1.873  -2.641   1.727  0.00  0.00    -0.296 N 
ATOM      7  C   UNL d   1       1.069  -3.603   2.178  0.00  0.00     0.026 C 
ATOM      8  HN  UNL d   1       2.777  -2.363   2.110  1.00  0.00     0.187 HD
ATOM      9  C   UNL d   1      -0.090  -3.718   1.391  0.00  0.00     0.084 C 
ATOM     10  C   UNL d   1       1.427  -4.346   3.411  0.00  0.00     0.070 C 
BRANCH   5  11
ATOM     11  C   UNL d   1       1.879  -1.058  -0.090  0.00  0.00     0.059 A 
ATOM     12  C   UNL d   1       1.306  -0.485  -1.231  0.00  0.00     0.031 A 
ATOM     13  C   UNL d   1       1.970   0.540  -1.916  0.00  0.00     0.002 A 
ATOM     14  C   UNL d   1       3.211   0.994  -1.476  0.00  0.00     0.000 A 
ATOM     15  C   UNL d   1       3.798   0.423  -0.351  0.00  0.00     0.002 A 
ATOM     16  C   UNL d   1       3.138  -0.597   0.338  0.00  0.00     0.031 A 
ENDBRANCH   5  11
ENDBRANCH   3   4
ENDBRANCH   1   3
BRANCH   1  17
ATOM     17  C   UNL d   1      -3.217  -1.818  -0.249  0.00  0.00     0.091 A 
ATOM     18  C   UNL d   1      -4.379  -1.772  -1.007  0.00  0.00     0.164 A 
ATOM     19  N   UNL d   1      -5.377  -0.878  -0.752  0.00  0.00    -0.346 N 
ATOM     20  C   UNL d   1      -5.263  -0.084   0.331  0.00  0.00     0.090 A 
ATOM     21  HN  UNL d   1      -6.189  -0.812  -1.366  1.00  0.00     0.167 HD
ATOM     22  C   UNL d   1      -4.170  -0.098   1.170  0.00  0.00     0.018 A 
ATOM     23  C   UNL d   1      -3.127  -0.967   0.867  0.00  0.00     0.023 A 
BRANCH  18  24
ATOM     24  O   UNL d   1      -4.551  -2.637  -2.080  0.00  0.00    -0.293 OA
BRANCH  24  25
ATOM     25  C   UNL d   1      -5.857  -2.931  -2.427  0.00  0.00     0.077 A 
ATOM     26  C   UNL d   1      -6.215  -2.865  -3.776  0.00  0.00     0.037 A 
ATOM     27  C   UNL d   1      -7.532  -3.128  -4.160  0.00  0.00     0.003 A 
ATOM     28  C   UNL d   1      -8.492  -3.469  -3.202  0.00  0.00     0.000 A 
ATOM     29  C   UNL d   1      -8.127  -3.571  -1.862  0.00  0.00     0.003 A 
ATOM     30  C   UNL d   1      -6.809  -3.324  -1.477  0.00  0.00     0.037 A 
ENDBRANCH  24  25
ENDBRANCH  18  24
ENDBRANCH   1  17
TORSDOF 6
