REMARK  4 active torsions:
REMARK  status: ('A' for Active; 'I' for Inactive)
REMARK       I    between atoms: N_2  and  C_1 
REMARK       I    between atoms: N_4  and  C_1 
REMARK    1  A    between atoms: C_5  and  N_3 
REMARK    2  A    between atoms: C_12  and  N_4 
REMARK    3  A    between atoms: O_18  and  C_11 
REMARK    4  A    between atoms: O_19  and  C_13 
ROOT
ATOM      1  C   UNL d   1       1.182   0.252  -0.090  0.00  0.00     0.323 C 
ATOM      2  N   UNL d   1       0.684  -0.482  -1.175  0.00  0.00    -0.331 N 
ATOM      3  N   UNL d   1      -0.548  -2.423  -2.915  0.00  0.00    -0.376 N 
ATOM      4  N   UNL d   1       0.598   1.486   0.102  0.00  0.00    -0.309 N 
ATOM      5  O   UNL d   1       2.078  -0.210   0.617  0.00  0.00    -0.247 OA
ATOM      6  C   UNL d   1       1.189  -1.868  -1.257  0.00  0.00     0.147 C 
ATOM      7  C   UNL d   1      -0.666  -0.281  -1.731  0.00  0.00     0.147 C 
ATOM      8  C   UNL d   1       0.876  -2.608  -2.575  0.00  0.00     0.143 C 
ATOM      9  C   UNL d   1      -0.888  -1.002  -3.070  0.00  0.00     0.143 C 
ATOM     10  H   UNL d   1       0.005   1.827  -0.630  0.00  0.00     0.170 HD
ENDROOT
BRANCH   4  11
ATOM     11  C   UNL d   1       0.849   2.405   1.146  0.00  0.00     0.036 A 
ATOM     12  C   UNL d   1       1.734   2.172   2.197  0.00  0.00     0.032 A 
ATOM     13  C   UNL d   1       1.935   3.138   3.195  0.00  0.00     0.039 A 
ATOM     14  C   UNL d   1       1.243   4.344   3.160  0.00  0.00     0.068 A 
ATOM     15  C   UNL d   1       0.350   4.582   2.114  0.00  0.00     0.039 A 
ATOM     16  C   UNL d   1       0.154   3.621   1.113  0.00  0.00     0.032 A 
BRANCH  14  17
ATOM     17  O   UNL d   1       1.339   5.353   4.077  0.00  0.00    -0.356 OA
ATOM     18  C   UNL d   1       2.206   5.124   5.183  0.00  0.00     0.210 C 
ENDBRANCH  14  17
ENDBRANCH   4  11
BRANCH   3  19
ATOM     19  C   UNL d   1      -1.132  -3.358  -3.776  0.00  0.00     0.064 A 
ATOM     20  C   UNL d   1      -1.283  -4.721  -3.426  0.00  0.00     0.094 A 
ATOM     21  C   UNL d   1      -1.960  -5.619  -4.264  0.00  0.00     0.039 A 
ATOM     22  C   UNL d   1      -2.513  -5.188  -5.465  0.00  0.00     0.003 A 
ATOM     23  C   UNL d   1      -2.352  -3.865  -5.853  0.00  0.00     0.002 A 
ATOM     24  C   UNL d   1      -1.668  -2.971  -5.021  0.00  0.00     0.032 A 
BRANCH  20  25
ATOM     25  O   UNL d   1      -0.761  -5.300  -2.294  0.00  0.00    -0.354 OA
ATOM     26  C   UNL d   1      -1.249  -4.739  -1.080  0.00  0.00     0.210 C 
ENDBRANCH  20  25
ENDBRANCH   3  19
TORSDOF 4
