REMARK  4 active torsions:
REMARK  status: ('A' for Active; 'I' for Inactive)
REMARK    1  A    between atoms: C_3  and  C_1 
REMARK    2  A    between atoms: C_2  and  C_3 
REMARK    3  A    between atoms: O_25  and  C_21 
REMARK    4  A    between atoms: O_26  and  C_22 
ROOT
ATOM      1  C   UNL d   1      -2.905  -2.296  -0.291  0.00  0.00     0.204 C 
ATOM      2  O   UNL d   1      -4.063  -1.913  -0.431  0.00  0.00    -0.286 OA
ENDROOT
BRANCH   1   3
ATOM      3  C   UNL d   1      -2.624  -3.770  -0.214  0.00  0.00     0.091 C 
ATOM      4  C   UNL d   1      -3.476  -4.717  -0.987  0.00  0.00     0.302 C 
ATOM      5  O   UNL d   1      -3.292  -6.077  -0.736  0.00  0.00    -0.274 OA
ATOM      6  O   UNL d   1      -4.295  -4.353  -1.822  0.00  0.00    -0.259 OA
ATOM      7  C   UNL d   1      -2.174  -6.546  -0.025  0.00  0.00     0.092 A 
ATOM      8  C   UNL d   1      -1.314  -5.653   0.596  0.00  0.00    -0.001 A 
ATOM      9  C   UNL d   1      -1.944  -7.922  -0.014  0.00  0.00     0.075 A 
ATOM     10  C   UNL d   1      -1.651  -4.241   0.583  0.00  0.00     0.036 C 
ATOM     11  C   UNL d   1      -0.155  -6.138   1.196  0.00  0.00     0.017 A 
ATOM     12  C   UNL d   1       0.102  -7.513   1.196  0.00  0.00     0.038 A 
ATOM     13  C   UNL d   1      -0.799  -8.411   0.614  0.00  0.00     0.070 A 
BRANCH  13  14
ATOM     14  O   UNL d   1      -0.438  -9.726   0.715  0.00  0.00    -0.356 OA
ATOM     15  C   UNL d   1      -1.380 -10.686   0.249  0.00  0.00     0.210 C 
ENDBRANCH  13  14
ENDBRANCH   1   3
BRANCH   1  16
ATOM     16  C   UNL d   1      -1.781  -1.297  -0.196  0.00  0.00     0.091 C 
ATOM     17  C   UNL d   1      -2.085   0.105   0.214  0.00  0.00     0.302 C 
ATOM     18  O   UNL d   1      -1.053   1.038   0.082  0.00  0.00    -0.274 OA
ATOM     19  O   UNL d   1      -3.170   0.461   0.657  0.00  0.00    -0.259 OA
ATOM     20  C   UNL d   1       0.279   0.637  -0.106  0.00  0.00     0.092 A 
ATOM     21  C   UNL d   1       0.578  -0.696  -0.338  0.00  0.00    -0.001 A 
ATOM     22  C   UNL d   1       1.271   1.611  -0.005  0.00  0.00     0.075 A 
ATOM     23  C   UNL d   1      -0.514  -1.637  -0.506  0.00  0.00     0.036 C 
ATOM     24  C   UNL d   1       1.915  -1.085  -0.407  0.00  0.00     0.017 A 
ATOM     25  C   UNL d   1       2.922  -0.124  -0.284  0.00  0.00     0.038 A 
ATOM     26  C   UNL d   1       2.607   1.229  -0.108  0.00  0.00     0.070 A 
BRANCH  26  27
ATOM     27  O   UNL d   1       3.689   2.062  -0.042  0.00  0.00    -0.356 OA
ATOM     28  C   UNL d   1       3.419   3.458   0.002  0.00  0.00     0.210 C 
ENDBRANCH  26  27
ENDBRANCH   1  16
TORSDOF 4
