REMARK  3 active torsions:
REMARK  status: ('A' for Active; 'I' for Inactive)
REMARK    1  A    between atoms: C_2  and  S_1 
REMARK    2  A    between atoms: O_7  and  S_1 
REMARK    3  A    between atoms: C_4  and  O_7 
ROOT
ATOM      1  S   UNL d   1      -1.189  -1.151  -0.718  0.00  0.00     0.305 S 
ATOM      2  O   UNL d   1      -1.873   0.108  -0.924  0.00  0.00    -0.193 OA
ATOM      3  O   UNL d   1      -1.719  -2.446  -1.069  0.00  0.00    -0.193 OA
ENDROOT
BRANCH   1   4
ATOM      4  C   UNL d   1      -0.982  -1.180   1.007  0.00  0.00     0.117 A 
ATOM      5  C   UNL d   1      -1.276  -2.211   1.869  0.00  0.00     0.100 A 
ATOM      6  S   UNL d   1      -0.965  -1.817   3.499  0.00  0.00    -0.064 SA
ATOM      7 CL   UNL d   1      -1.893  -3.787   1.566  0.00  0.00    -0.074 Cl
ATOM      8  C   UNL d   1      -0.443  -0.269   3.070  0.00  0.00     0.077 A 
ATOM      9  C   UNL d   1      -0.484  -0.034   1.721  0.00  0.00     0.059 A 
ATOM     10 CL   UNL d   1       0.063   0.829   4.288  0.00  0.00    -0.076 Cl
ENDBRANCH   1   4
BRANCH   1  11
ATOM     11  O   UNL d   1       0.373  -1.029  -1.181  0.00  0.00    -0.225 OA
BRANCH  11  12
ATOM     12  C   UNL d   1       0.742  -0.984  -2.498  0.00  0.00     0.137 A 
ATOM     13  C   UNL d   1       1.991  -0.872  -2.970  0.00  0.00    -0.045 A 
ATOM     14  C   UNL d   1       2.074  -0.834  -4.468  0.00  0.00     0.044 A 
ATOM     15  C   UNL d   1       3.245  -0.775  -2.170  0.00  0.00     0.046 C 
ATOM     16  C   UNL d   1       0.646  -1.044  -4.955  0.00  0.00     0.090 A 
ATOM     17  C   UNL d   1      -0.147  -1.033  -3.681  0.00  0.00     0.184 A 
ATOM     18  O   UNL d   1      -1.365  -1.067  -3.633  0.00  0.00    -0.290 OA
ENDBRANCH  11  12
ENDBRANCH   1  11
TORSDOF 3
