REMARK  6 active torsions:
REMARK  status: ('A' for Active; 'I' for Inactive)
REMARK    1  A    between atoms: S_2  and  C_1 
REMARK    2  A    between atoms: N_9  and  S_2 
REMARK    3  A    between atoms: C_14  and  N_9 
REMARK    4  A    between atoms: N_12  and  C_15 
REMARK    5  A    between atoms: C_13  and  C_14 
REMARK    6  A    between atoms: C_15  and  C_13 
ROOT
ATOM      1  S   UNL d   1       1.615  -3.047   0.015  0.00  0.00     0.261 S 
ATOM      2  O   UNL d   1       1.327  -3.667  -1.260  0.00  0.00    -0.200 OA
ATOM      3  O   UNL d   1       0.963  -1.837   0.454  0.00  0.00    -0.200 OA
ENDROOT
BRANCH   1   4
ATOM      4  C   UNL d   1       1.142  -4.231   1.181  0.00  0.00     0.110 A 
ATOM      5  C   UNL d   1       1.351  -4.125   2.534  0.00  0.00     0.099 A 
ATOM      6  S   UNL d   1       0.803  -5.486   3.396  0.00  0.00    -0.064 SA
ATOM      7 CL   UNL d   1       2.107  -2.856   3.415  0.00  0.00    -0.075 Cl
ATOM      8  C   UNL d   1       0.294  -6.232   1.964  0.00  0.00     0.077 A 
ATOM      9  C   UNL d   1       0.521  -5.479   0.843  0.00  0.00     0.059 A 
ATOM     10 CL   UNL d   1      -0.414  -7.795   2.021  0.00  0.00    -0.076 Cl
ENDBRANCH   1   4
BRANCH   1  11
ATOM     11  N   UNL d   1       3.276  -2.819   0.144  0.00  0.00    -0.315 N 
ATOM     12  H   UNL d   1       3.508  -2.184   0.908  0.00  0.00     0.172 HD
BRANCH  11  13
ATOM     13  C   UNL d   1       4.121  -4.017   0.002  0.00  0.00     0.134 C 
BRANCH  13  14
ATOM     14  C   UNL d   1       5.590  -3.611   0.007  0.00  0.00     0.050 C 
BRANCH  14  15
ATOM     15  C   UNL d   1       6.520  -4.830  -0.073  0.00  0.00     0.273 C 
BRANCH  15  16
ATOM     16  N   UNL d   1       6.305  -5.680  -1.255  0.00  0.00     0.080 N 
ATOM     17  C   UNL d   1       6.577  -4.966  -2.506  0.00  0.00     0.309 C 
ATOM     18  C   UNL d   1       7.152  -6.874  -1.179  0.00  0.00     0.309 C 
ENDBRANCH  15  16
ENDBRANCH  14  15
ENDBRANCH  13  14
ENDBRANCH  11  13
ENDBRANCH   1  11
TORSDOF 6
