REMARK  8 active torsions:
REMARK  status: ('A' for Active; 'I' for Inactive)
REMARK    1  A    between atoms: C_2  and  S_1 
REMARK    2  A    between atoms: C_4  and  S_1 
REMARK    3  A    between atoms: C_6  and  C_2 
REMARK    4  A    between atoms: C_3  and  C_5 
REMARK       I    between atoms: N_18  and  C_6 
REMARK    5  A    between atoms: C_23  and  N_18 
REMARK    6  A    between atoms: S_21  and  C_24 
REMARK    7  A    between atoms: C_22  and  S_21 
REMARK    8  A    between atoms: C_24  and  C_23 
ROOT
ATOM      1  C   UNL d   1       0.477   1.540   0.963  0.00  0.00     0.143 C 
ATOM      2  C   UNL d   1      -1.060   1.544   0.932  0.00  0.00     0.042 C 
ATOM      3  C   UNL d   1       0.934   1.413   2.428  0.00  0.00     0.042 C 
ENDROOT
BRANCH   1   4
ATOM      4  S   UNL d   1       1.078   0.140   0.013  0.00  0.00     0.207 S 
ATOM      5  O   UNL d   1       0.712   0.326  -1.387  0.00  0.00    -0.220 OA
ATOM      6  O   UNL d   1       0.663  -1.073   0.695  0.00  0.00    -0.220 OA
BRANCH   4   7
ATOM      7  C   UNL d   1       2.861   0.192   0.091  0.00  0.00     0.129 A 
ATOM      8  N   UNL d   1       3.409   1.325  -0.410  0.00  0.00    -0.356 N 
ATOM      9  C   UNL d   1       4.759   1.392  -0.408  0.00  0.00     0.105 A 
ATOM     10  HN  UNL d   1       2.833   2.087  -0.769  1.00  0.00     0.166 HD
ATOM     11  C   UNL d   1       5.583   0.380   0.070  0.00  0.00     0.063 A 
ATOM     12  C   UNL d   1       4.972  -0.776   0.575  0.00  0.00     0.020 A 
ATOM     13  C   UNL d   1       3.583  -0.881   0.585  0.00  0.00     0.043 A 
BRANCH  11  14
ATOM     14  C   UNL d   1       7.075   0.529   0.044  0.00  0.00     0.418 C 
ATOM     15  F   UNL d   1       7.496   1.707  -0.493  0.00  0.00    -0.166 F 
ATOM     16  F   UNL d   1       7.622   0.468   1.288  0.00  0.00    -0.166 F 
ATOM     17  F   UNL d   1       7.682  -0.450  -0.681  0.00  0.00    -0.166 F 
ENDBRANCH  11  14
ENDBRANCH   4   7
ENDBRANCH   1   4
BRANCH   1  18
ATOM     18  C   UNL d   1       0.987   2.861   0.388  0.00  0.00     0.241 C 
ATOM     19  O   UNL d   1       1.308   3.789   1.135  0.00  0.00    -0.272 OA
ATOM     20  N   UNL d   1       0.968   3.042  -0.980  0.00  0.00    -0.359 N 
ATOM     21  H   UNL d   1       0.798   2.241  -1.589  0.00  0.00     0.162 HD
BRANCH  20  22
ATOM     22  C   UNL d   1       1.587   4.229  -1.555  0.00  0.00     0.133 C 
BRANCH  22  23
ATOM     23  C   UNL d   1       1.879   4.095  -3.050  0.00  0.00     0.099 C 
BRANCH  23  24
ATOM     24  S   UNL d   1       2.558   5.673  -3.679  0.00  0.00    -0.128 SA
BRANCH  24  25
ATOM     25  C   UNL d   1       2.694   5.374  -5.436  0.00  0.00     0.000 A 
ATOM     26  C   UNL d   1       2.551   6.473  -6.296  0.00  0.00     0.018 A 
ATOM     27  C   UNL d   1       2.687   6.318  -7.679  0.00  0.00     0.001 A 
ATOM     28  C   UNL d   1       2.974   5.066  -8.216  0.00  0.00     0.000 A 
ATOM     29  C   UNL d   1       3.127   3.970  -7.369  0.00  0.00     0.001 A 
ATOM     30  C   UNL d   1       2.992   4.124  -5.987  0.00  0.00     0.018 A 
ENDBRANCH  24  25
ENDBRANCH  23  24
ENDBRANCH  22  23
ENDBRANCH  20  22
ENDBRANCH   1  18
TORSDOF 8
