REMARK  2 active torsions:
REMARK  status: ('A' for Active; 'I' for Inactive)
REMARK       I    between atoms: C_4  and  N_1 
REMARK       I    between atoms: N_12  and  C_4 
REMARK    1  A    between atoms: C_17  and  C_9 
REMARK    2  A    between atoms: C_16  and  N_12 
ROOT
ATOM      1  N   UNL d   1       0.950  -0.843  -0.262  0.00  0.00    -0.203 N 
ATOM      2  C   UNL d   1      -0.323  -1.196   0.177  0.00  0.00     0.098 C 
ATOM      3  C   UNL d   1      -0.739  -2.501   0.601  0.00  0.00     0.130 A 
ATOM      4  C   UNL d   1       2.171  -1.553  -0.156  0.00  0.00     0.346 C 
ATOM      5  C   UNL d   1      -0.157  -3.419   1.445  0.00  0.00     0.074 A 
ATOM      6  N   UNL d   1      -2.015  -4.367   0.582  0.00  0.00    -0.260 N 
ATOM      7  HN  UNL d   1      -2.771  -5.020   0.377  1.00  0.00     0.195 HD
ATOM      8  O   UNL d   1      -1.894  -3.069   0.129  0.00  0.00    -0.235 OA
ATOM      9  C   UNL d   1      -0.938  -4.596   1.345  0.00  0.00     0.068 A 
ATOM     10  N   UNL d   1       0.933   0.364  -0.925  0.00  0.00    -0.301 N 
ATOM     11  HN  UNL d   1       1.686   0.799  -1.458  1.00  0.00     0.186 HD
ATOM     12  N   UNL d   1       3.034  -1.212  -1.176  0.00  0.00    -0.307 N 
ATOM     13  C   UNL d   1      -1.124  -0.097  -0.059  0.00  0.00     0.053 C 
ATOM     14  C   UNL d   1      -0.297   0.832  -0.709  0.00  0.00     0.110 C 
ATOM     15  O   UNL d   1       2.325  -2.376   0.734  0.00  0.00    -0.245 OA
ATOM     16  H   UNL d   1       2.683  -0.518  -1.834  0.00  0.00     0.170 HD
ENDROOT
BRANCH  12  17
ATOM     17  C   UNL d   1       4.261  -1.851  -1.451  0.00  0.00     0.038 A 
ATOM     18  C   UNL d   1       4.871  -2.752  -0.571  0.00  0.00     0.053 A 
ATOM     19  C   UNL d   1       6.077  -3.365  -0.911  0.00  0.00     0.036 A 
ATOM     20 CL   UNL d   1       6.815  -4.465   0.190  0.00  0.00    -0.084 Cl
ATOM     21  C   UNL d   1       6.687  -3.095  -2.131  0.00  0.00     0.024 A 
ATOM     22  C   UNL d   1       6.086  -2.202  -3.015  0.00  0.00     0.004 A 
ATOM     23  C   UNL d   1       4.881  -1.578  -2.675  0.00  0.00     0.029 A 
ENDBRANCH  12  17
BRANCH   9  24
ATOM     24  C   UNL d   1      -0.664  -5.894   1.954  0.00  0.00    -0.007 A 
ATOM     25  C   UNL d   1      -1.714  -6.705   2.403  0.00  0.00     0.014 A 
ATOM     26  C   UNL d   1      -1.446  -7.934   3.010  0.00  0.00     0.001 A 
ATOM     27  C   UNL d   1      -0.130  -8.369   3.162  0.00  0.00     0.000 A 
ATOM     28  C   UNL d   1       0.922  -7.578   2.706  0.00  0.00     0.001 A 
ATOM     29  C   UNL d   1       0.657  -6.344   2.105  0.00  0.00     0.014 A 
ENDBRANCH   9  24
TORSDOF 2
