REMARK  4 active torsions:
REMARK  status: ('A' for Active; 'I' for Inactive)
REMARK    1  A    between atoms: C_2  and  C_1 
REMARK       I    between atoms: C_5  and  N_11 
REMARK       I    between atoms: N_10  and  C_5 
REMARK    2  A    between atoms: C_12  and  C_6 
REMARK    3  A    between atoms: C_17  and  N_10 
REMARK    4  A    between atoms: N_11  and  C_12 
ROOT
ATOM      1  C   UNL d   1      -1.507   1.353  -7.342  0.00  0.00     0.321 C 
ATOM      2  N   UNL d   1      -1.838   2.578  -7.872  0.00  0.00    -0.309 N 
ATOM      3  N   UNL d   1      -0.914   1.452  -6.104  0.00  0.00    -0.337 N 
ATOM      4  O   UNL d   1      -1.698   0.259  -7.865  0.00  0.00    -0.247 OA
ATOM      5  H   UNL d   1      -1.454   3.384  -7.402  0.00  0.00     0.170 HD
ATOM      6  H   UNL d   1      -1.033   2.284  -5.543  0.00  0.00     0.164 HD
ENDROOT
BRANCH   3   7
ATOM      7  C   UNL d   1      -0.669   0.224  -5.367  0.00  0.00     0.183 C 
BRANCH   7   8
ATOM      8  C   UNL d   1      -0.117   0.436  -3.976  0.00  0.00     0.049 A 
ATOM      9  N   UNL d   1      -0.122   1.713  -3.485  0.00  0.00    -0.366 N 
ATOM     10  C   UNL d   1       0.369   1.904  -2.237  0.00  0.00     0.104 A 
ATOM     11  HN  UNL d   1      -0.482   2.491  -4.038  1.00  0.00     0.165 HD
ATOM     12  C   UNL d   1       0.866   0.888  -1.432  0.00  0.00     0.064 A 
ATOM     13  C   UNL d   1       0.842  -0.413  -1.943  0.00  0.00     0.043 A 
ATOM     14  C   UNL d   1       0.343  -0.647  -3.224  0.00  0.00     0.059 A 
ATOM     15 CL   UNL d   1       0.314  -2.270  -3.802  0.00  0.00    -0.082 Cl
BRANCH  12  16
ATOM     16  C   UNL d   1       1.404   1.212  -0.074  0.00  0.00     0.418 C 
ATOM     17  F   UNL d   1       1.853   0.122   0.606  0.00  0.00    -0.166 F 
ATOM     18  F   UNL d   1       0.474   1.796   0.730  0.00  0.00    -0.166 F 
ATOM     19  F   UNL d   1       2.452   2.078  -0.125  0.00  0.00    -0.166 F 
ENDBRANCH  12  16
ENDBRANCH   7   8
ENDBRANCH   3   7
BRANCH   2  20
ATOM     20  C   UNL d   1      -2.607   2.813  -9.036  0.00  0.00     0.036 A 
ATOM     21  C   UNL d   1      -3.237   1.795  -9.762  0.00  0.00     0.031 A 
ATOM     22  C   UNL d   1      -4.059   2.094 -10.855  0.00  0.00     0.026 A 
ATOM     23  C   UNL d   1      -4.253   3.416 -11.235  0.00  0.00     0.034 A 
ATOM     24  C   UNL d   1      -3.608   4.441 -10.544  0.00  0.00     0.026 A 
ATOM     25 CL   UNL d   1      -5.306   3.786 -12.543  0.00  0.00    -0.084 Cl
ATOM     26  C   UNL d   1      -2.787   4.139  -9.450  0.00  0.00     0.031 A 
ENDBRANCH   2  20
TORSDOF 4
