REMARK  16 active torsions:
REMARK  status: ('A' for Active; 'I' for Inactive)
REMARK    1  A    between atoms: N_3  and  C_1 
REMARK    2  A    between atoms: C_1  and  C_4 
REMARK    3  A    between atoms: C_9  and  C_1 
REMARK       I    between atoms: C_2  and  N_3 
REMARK    4  A    between atoms: O_6  and  C_2 
REMARK    5  A    between atoms: O_7  and  C_4 
REMARK    6  A    between atoms: C_5  and  C_14 
REMARK    7  A    between atoms: O_19  and  C_5 
REMARK    8  A    between atoms: C_13  and  O_6 
REMARK    9  A    between atoms: C_15  and  O_7 
REMARK   10  A    between atoms: O_11  and  C_9 
REMARK   11  A    between atoms: C_17  and  O_11 
REMARK   12  A    between atoms: C_14  and  C_16 
REMARK   13  A    between atoms: C_18  and  C_15 
REMARK   14  A    between atoms: C_24  and  C_17 
REMARK   15  A    between atoms: C_37  and  N_36 
REMARK   16  A    between atoms: C_38  and  N_36 
ROOT
ATOM      1  N   UNL d   2       1.819   0.924  -0.544  0.00  0.00     0.092 N 
ATOM      2  H   UNL d   2       1.662   1.391   0.348  0.00  0.00     0.316 HD
ENDROOT
BRANCH   1   3
ATOM      3  C   UNL d   2       1.289   1.755  -1.639  0.00  0.00     0.221 C 
ATOM      4  C   UNL d   2       1.857   3.187  -1.483  0.00  0.00     0.035 C 
ATOM      5  C   UNL d   2       1.199   3.981  -0.350  0.00  0.00     0.002 C 
ATOM      6  C   UNL d   2      -0.308   4.089  -0.549  0.00  0.00     0.000 C 
ATOM      7  C   UNL d   2      -0.955   2.722  -0.752  0.00  0.00     0.002 C 
ATOM      8  C   UNL d   2      -0.242   1.872  -1.806  0.00  0.00     0.035 C 
ENDBRANCH   1   3
BRANCH   1   9
ATOM      9  C   UNL d   2       1.379  -0.474  -0.421  0.00  0.00     0.221 C 
ATOM     10  C   UNL d   2       2.191  -1.153   0.716  0.00  0.00     0.035 C 
ATOM     11  C   UNL d   2       3.604  -1.594   0.314  0.00  0.00     0.002 C 
ATOM     12  C   UNL d   2       3.575  -2.488  -0.919  0.00  0.00     0.000 C 
ATOM     13  C   UNL d   2       2.881  -1.773  -2.072  0.00  0.00     0.002 C 
ATOM     14  C   UNL d   2       1.463  -1.351  -1.687  0.00  0.00     0.035 C 
ENDBRANCH   1   9
TORSDOF 16
