REMARK  6 active torsions:
REMARK  status: ('A' for Active; 'I' for Inactive)
REMARK    1  A    between atoms: S_2  and  C_1 
REMARK    2  A    between atoms: C_15  and  S_2 
REMARK    3  A    between atoms: S_10  and  C_3 
REMARK    4  A    between atoms: N_5  and  C_4 
REMARK    5  A    between atoms: N_6  and  C_13 
REMARK    6  A    between atoms: C_11  and  S_10 
ROOT
ATOM      1  C   UNL d   1       2.027   0.571   0.129  0.00  0.00     0.158 A 
ATOM      2  C   UNL d   1       0.840   0.774   0.826  0.00  0.00     0.086 A 
ATOM      3  N   UNL d   1       2.277  -0.763  -0.230  0.00  0.00    -0.349 N 
ATOM      4  HN  UNL d   1       3.119  -1.098  -0.696  1.00  0.00     0.166 HD
ATOM      5  S   UNL d   1       0.006  -0.728   0.980  0.00  0.00    -0.074 SA
ATOM      6  C   UNL d   1       1.260  -1.512   0.127  0.00  0.00     0.140 A 
ENDROOT
BRANCH   2   7
ATOM      7  S   UNL d   1       0.103   2.260   1.407  0.00  0.00    -0.077 SA
BRANCH   7   8
ATOM      8  C   UNL d   1       0.094   2.018   3.185  0.00  0.00     0.039 A 
ATOM      9  C   UNL d   1      -0.956   2.489   3.996  0.00  0.00     0.122 A 
ATOM     10  C   UNL d   1      -0.915   2.441   5.400  0.00  0.00     0.073 A 
ATOM     11  C   UNL d   1       0.207   1.888   6.016  0.00  0.00     0.105 A 
ATOM     12  C   UNL d   1       1.261   1.382   5.244  0.00  0.00     0.037 A 
ATOM     13  C   UNL d   1       1.206   1.463   3.843  0.00  0.00     0.024 A 
BRANCH   9  14
ATOM     14  N   UNL d   1      -2.154   3.051   3.403  0.00  0.00    -0.114 N 
ATOM     15  O   UNL d   1      -2.391   4.241   3.646  0.00  0.00    -0.532 OA
ATOM     16  O   UNL d   1      -2.879   2.279   2.763  0.00  0.00    -0.532 OA
ENDBRANCH   9  14
BRANCH  11  17
ATOM     17  N   UNL d   1       0.294   1.856   7.482  0.00  0.00    -0.116 N 
ATOM     18  O   UNL d   1      -0.585   2.449   8.120  0.00  0.00    -0.532 OA
ATOM     19  O   UNL d   1       1.243   1.240   7.988  0.00  0.00    -0.532 OA
ENDBRANCH  11  17
ENDBRANCH   7   8
ENDBRANCH   2   7
BRANCH   1  20
ATOM     20  S   UNL d   1       3.125   1.818  -0.416  0.00  0.00     0.224 S 
ATOM     21  O   UNL d   1       2.963   1.846  -1.855  0.00  0.00    -0.216 OA
ATOM     22  O   UNL d   1       2.854   2.983   0.409  0.00  0.00    -0.216 OA
BRANCH  20  23
ATOM     23  C   UNL d   1       4.782   1.296  -0.045  0.00  0.00     0.065 A 
ATOM     24  C   UNL d   1       5.412   0.337  -0.843  0.00  0.00     0.024 A 
ATOM     25  C   UNL d   1       6.775   0.077  -0.659  0.00  0.00     0.008 A 
ATOM     26  C   UNL d   1       7.513   0.777   0.306  0.00  0.00    -0.062 A 
ATOM     27  C   UNL d   1       6.866   1.721   1.111  0.00  0.00     0.008 A 
ATOM     28  C   UNL d   1       8.997   0.570   0.420  0.00  0.00     0.048 C 
ATOM     29  C   UNL d   1       5.506   1.982   0.937  0.00  0.00     0.024 A 
ENDBRANCH  20  23
ENDBRANCH   1  20
TORSDOF 6
