REMARK  3 active torsions:
REMARK  status: ('A' for Active; 'I' for Inactive)
REMARK    1  A    between atoms: C_2  and  S_1 
REMARK    2  A    between atoms: C_3  and  S_1 
REMARK    3  A    between atoms: C_4  and  C_2 
ROOT
ATOM      1  S   UNL d   1       1.118   0.094  -0.003  0.00  0.00     0.158 S 
ATOM      2  O   UNL d   1       0.790  -1.131   0.708  0.00  0.00    -0.227 OA
ATOM      3  O   UNL d   1       0.692   0.268  -1.381  0.00  0.00    -0.227 OA
ENDROOT
BRANCH   1   4
ATOM      4  C   UNL d   1       2.892   0.262   0.048  0.00  0.00     0.210 C 
BRANCH   4   5
ATOM      5  C   UNL d   1       3.567  -0.837  -0.727  0.00  0.00     0.085 C 
ATOM      6  S   UNL d   1       4.581  -0.528  -2.016  0.00  0.00    -0.065 SA
ATOM      7  N   UNL d   1       3.440  -2.114  -0.265  0.00  0.00    -0.393 N 
ATOM      8  H   UNL d   1       2.676  -2.381   0.356  0.00  0.00     0.156 HD
ATOM      9  H   UNL d   1       3.857  -2.865  -0.805  0.00  0.00     0.156 HD
ENDBRANCH   4   5
ENDBRANCH   1   4
BRANCH   1  10
ATOM     10  C   UNL d   1       0.462   1.503   0.969  0.00  0.00     0.053 C 
ATOM     11  C   UNL d   1       0.906   2.834   0.346  0.00  0.00     0.031 C 
ATOM     12  C   UNL d   1      -1.075   1.434   0.951  0.00  0.00     0.031 C 
ATOM     13  C   UNL d   1       0.945   1.417   2.424  0.00  0.00     0.031 C 
ENDBRANCH   1  10
TORSDOF 3
