REMARK  2 active torsions:
REMARK  status: ('A' for Active; 'I' for Inactive)
REMARK       I    between atoms: N_2  and  C_1 
REMARK       I    between atoms: N_3  and  C_1 
REMARK    1  A    between atoms: C_6  and  N_3 
REMARK    2  A    between atoms: O_18  and  C_15 
ROOT
ATOM      1  C   UNL d   1       0.812   0.017  -0.183  0.00  0.00     0.322 C 
ATOM      2  N   UNL d   1       0.144   1.191  -0.539  0.00  0.00    -0.334 N 
ATOM      3  N   UNL d   1       0.515  -0.475   1.068  0.00  0.00    -0.309 N 
ATOM      4  O   UNL d   1       1.617  -0.504  -0.944  0.00  0.00    -0.247 OA
ATOM      5  C   UNL d   1      -0.958   1.856   0.158  0.00  0.00     0.130 C 
ATOM      6  C   UNL d   1       0.558   1.856  -1.774  0.00  0.00     0.130 C 
ATOM      7  C   UNL d   1      -2.171   2.060  -0.754  0.00  0.00     0.051 C 
ATOM      8  C   UNL d   1      -0.599   1.925  -2.759  0.00  0.00     0.051 C 
ATOM      9  C   UNL d   1      -1.823   2.598  -2.144  0.00  0.00     0.121 C 
ATOM     10  H   UNL d   1       0.054   0.152   1.702  0.00  0.00     0.170 HD
ENDROOT
BRANCH   3  11
ATOM     11  C   UNL d   1       0.960  -1.697   1.628  0.00  0.00     0.038 A 
ATOM     12  C   UNL d   1       1.594  -2.709   0.902  0.00  0.00     0.055 A 
ATOM     13  C   UNL d   1       1.918  -3.932   1.507  0.00  0.00     0.058 A 
ATOM     14 CL   UNL d   1       2.671  -5.143   0.529  0.00  0.00    -0.082 Cl
ATOM     15  C   UNL d   1       1.614  -4.146   2.854  0.00  0.00     0.055 A 
ATOM     16  C   UNL d   1       1.024  -3.124   3.598  0.00  0.00     0.028 A 
ATOM     17 CL   UNL d   1       1.912  -5.651   3.648  0.00  0.00    -0.083 Cl
ATOM     18  C   UNL d   1       0.697  -1.909   2.988  0.00  0.00     0.031 A 
ENDBRANCH   3  11
BRANCH   9  19
ATOM     19  O   UNL d   1      -1.645   4.011  -2.096  0.00  0.00    -0.395 OA
ATOM     20  H   UNL d   1      -0.945   4.229  -1.461  0.00  0.00     0.210 HD
ENDBRANCH   9  19
TORSDOF 2
