REMARK  2 active torsions:
REMARK  status: ('A' for Active; 'I' for Inactive)
REMARK    1  A    between atoms: C_13  and  C_5 
REMARK    2  A    between atoms: O_20  and  C_16 
ROOT
ATOM      1  S   UNL d   1      -1.170   1.232   0.374  0.00  0.00     0.203 S 
ATOM      2  C   UNL d   1      -1.523  -0.425   0.042  0.00  0.00     0.142 C 
ATOM      3  C   UNL d   1       0.526   1.499  -0.007  0.00  0.00     0.229 C 
ATOM      4  C   UNL d   1      -0.565  -1.363  -0.071  0.00  0.00    -0.051 C 
ATOM      5  C   UNL d   1       1.470   0.301   0.113  0.00  0.00     0.055 C 
ATOM      6  C   UNL d   1       0.918  -1.119  -0.090  0.00  0.00     0.047 C 
ATOM      7  C   UNL d   1      -2.909  -0.720   0.032  0.00  0.00     0.112 C 
ATOM      8  C   UNL d   1       0.606   2.110  -1.331  0.00  0.00     0.080 C 
ATOM      9  O   UNL d   1      -1.297   1.411   1.811  0.00  0.00    -0.220 OA
ATOM     10  O   UNL d   1      -1.983   2.060  -0.500  0.00  0.00    -0.220 OA
ATOM     11  N   UNL d   1      -4.032  -1.019   0.021  0.00  0.00    -0.191 NA
ATOM     12  N   UNL d   1       0.771   2.612  -2.366  0.00  0.00    -0.196 NA
ATOM     13  C   UNL d   1      -0.895  -2.844  -0.180  0.00  0.00     0.046 C 
ENDROOT
BRANCH   5  14
ATOM     14  C   UNL d   1       2.275   0.390   1.402  0.00  0.00    -0.051 A 
ATOM     15  C   UNL d   1       1.671   0.266   2.658  0.00  0.00     0.010 A 
ATOM     16  C   UNL d   1       2.419   0.441   3.825  0.00  0.00     0.037 A 
ATOM     17  C   UNL d   1       3.783   0.720   3.751  0.00  0.00     0.068 A 
ATOM     18  C   UNL d   1       4.395   0.811   2.503  0.00  0.00     0.037 A 
ATOM     19  C   UNL d   1       3.652   0.649   1.335  0.00  0.00     0.010 A 
BRANCH  17  20
ATOM     20  O   UNL d   1       4.618   0.923   4.814  0.00  0.00    -0.356 OA
ATOM     21  C   UNL d   1       4.029   0.853   6.106  0.00  0.00     0.210 C 
ENDBRANCH  17  20
ENDBRANCH   5  14
TORSDOF 2
