REMARK  4 active torsions:
REMARK  status: ('A' for Active; 'I' for Inactive)
REMARK    1  A    between atoms: C_3  and  S_1 
REMARK    2  A    between atoms: N_4  and  S_1 
REMARK    3  A    between atoms: S_2  and  C_3 
REMARK    4  A    between atoms: N_5  and  S_2 
ROOT
ATOM      1  C   UNL d   1       0.797   0.711  -1.488  0.00  0.00     0.314 C 
ENDROOT
BRANCH   1   2
ATOM      2  S   UNL d   1       1.570   2.262  -1.779  0.00  0.00     0.226 S 
ATOM      3  O   UNL d   1       1.008   3.258  -0.896  0.00  0.00    -0.210 OA
ATOM      4  O   UNL d   1       2.998   2.092  -1.915  0.00  0.00    -0.210 OA
BRANCH   2   5
ATOM      5  N   UNL d   1       0.975   2.632  -3.354  0.00  0.00    -0.206 NA
ATOM      6  C   UNL d   1       1.413   1.760  -4.495  0.00  0.00     0.133 C 
ATOM      7  C   UNL d   1       2.807   2.134  -5.011  0.00  0.00     0.183 C 
ATOM      8  O   UNL d   1       2.871   3.518  -5.378  0.00  0.00    -0.389 OA
ATOM      9  C   UNL d   1       2.551   4.356  -4.256  0.00  0.00     0.183 C 
ATOM     10  C   UNL d   1       1.130   4.074  -3.755  0.00  0.00     0.133 C 
ENDBRANCH   2   5
ENDBRANCH   1   2
BRANCH   1  11
ATOM     11  S   UNL d   1       1.266   0.051   0.074  0.00  0.00     0.226 S 
ATOM     12  O   UNL d   1       0.594   0.784   1.126  0.00  0.00    -0.210 OA
ATOM     13  O   UNL d   1       2.685  -0.216   0.118  0.00  0.00    -0.210 OA
BRANCH  11  14
ATOM     14  N   UNL d   1       0.500  -1.482  -0.020  0.00  0.00    -0.206 NA
ATOM     15  C   UNL d   1       1.129  -2.506  -0.920  0.00  0.00     0.133 C 
ATOM     16  C   UNL d   1       2.204  -3.329  -0.201  0.00  0.00     0.183 C 
ATOM     17  O   UNL d   1       1.682  -3.933   0.988  0.00  0.00    -0.389 OA
ATOM     18  C   UNL d   1       1.230  -2.920   1.899  0.00  0.00     0.183 C 
ATOM     19  C   UNL d   1       0.092  -2.103   1.282  0.00  0.00     0.133 C 
ENDBRANCH  11  14
ENDBRANCH   1  11
TORSDOF 4
