REMARK  5 active torsions:
REMARK  status: ('A' for Active; 'I' for Inactive)
REMARK    1  A    between atoms: C_7  and  N_1 
REMARK    2  A    between atoms: C_6  and  O_13 
REMARK       I    between atoms: N_12  and  C_6 
REMARK    3  A    between atoms: C_11  and  C_7 
REMARK    4  A    between atoms: O_13  and  N_8 
REMARK    5  A    between atoms: C_15  and  N_12 
ROOT
ATOM      1  N   UNL d   1       4.361  -1.219  -0.403  0.00  0.00    -0.263 N 
ATOM      2  HN  UNL d   1       5.350  -1.229  -0.651  1.00  0.00     0.194 HD
ATOM      3  C   UNL d   1       3.655  -2.282  -0.134  0.00  0.00     0.025 C 
ATOM      4  C   UNL d   1       2.150  -2.307   0.044  0.00  0.00     0.067 C 
ENDROOT
BRANCH   1   5
ATOM      5  O   UNL d   1       3.570  -0.052  -0.306  0.00  0.00    -0.181 OA
BRANCH   5   6
ATOM      6  C   UNL d   1       3.812   0.877  -1.302  0.00  0.00     0.387 C 
ATOM      7  N   UNL d   1       4.727   0.455  -2.235  0.00  0.00    -0.301 N 
ATOM      8  H   UNL d   1       5.178  -0.412  -1.965  0.00  0.00     0.171 HD
ATOM      9  O   UNL d   1       3.183   1.929  -1.315  0.00  0.00    -0.236 OA
BRANCH   7  10
ATOM     10  C   UNL d   1       4.952   0.975  -3.521  0.00  0.00     0.036 A 
ATOM     11  C   UNL d   1       4.283   2.090  -4.031  0.00  0.00     0.029 A 
ATOM     12  C   UNL d   1       4.464   2.479  -5.362  0.00  0.00     0.002 A 
ATOM     13  C   UNL d   1       5.320   1.760  -6.191  0.00  0.00     0.000 A 
ATOM     14  C   UNL d   1       6.018   0.668  -5.683  0.00  0.00     0.002 A 
ATOM     15  C   UNL d   1       5.842   0.283  -4.350  0.00  0.00     0.029 A 
ENDBRANCH   7  10
ENDBRANCH   5   6
ENDBRANCH   1   5
BRANCH   3  16
ATOM     16  C   UNL d   1       4.367  -3.621   0.019  0.00  0.00     0.188 C 
BRANCH  16  17
ATOM     17  N   UNL d   1       4.900  -4.319  -1.117  0.00  0.00    -0.285 N 
ATOM     18  C   UNL d   1       5.670  -5.462  -0.957  0.00  0.00     0.373 A 
ATOM     19  O   UNL d   1       6.152  -5.930  -2.180  0.00  0.00    -0.259 OA
ATOM     20  O   UNL d   1       5.913  -6.011   0.111  0.00  0.00    -0.237 OA
ATOM     21  C   UNL d   1       5.632  -5.007  -3.071  0.00  0.00     0.107 A 
ATOM     22  C   UNL d   1       4.856  -4.035  -2.463  0.00  0.00     0.073 A 
ATOM     23  C   UNL d   1       5.863  -5.029  -4.431  0.00  0.00     0.040 A 
ATOM     24  C   UNL d   1       4.241  -3.051  -3.206  0.00  0.00     0.033 A 
ATOM     25  C   UNL d   1       4.461  -3.050  -4.592  0.00  0.00     0.002 A 
ATOM     26  C   UNL d   1       5.274  -4.026  -5.198  0.00  0.00     0.003 A 
ENDBRANCH  16  17
ENDBRANCH   3  16
TORSDOF 5
