REMARK  6 active torsions:
REMARK  status: ('A' for Active; 'I' for Inactive)
REMARK    1  A    between atoms: S_15  and  C_2 
REMARK    2  A    between atoms: C_6  and  C_4 
REMARK    3  A    between atoms: S_14  and  C_9 
REMARK    4  A    between atoms: C_13  and  C_17 
REMARK    5  A    between atoms: C_16  and  C_13 
REMARK    6  A    between atoms: C_17  and  S_14 
ROOT
ATOM      1  C   UNL d   1       1.304  -3.037  -0.087  0.00  0.00     0.053 A 
ATOM      2  N   UNL d   1       1.986  -3.625   0.915  0.00  0.00    -0.336 N 
ATOM      3  HN  UNL d   1       2.477  -3.071   1.617  1.00  0.00     0.168 HD
ATOM      4  C   UNL d   1       1.993  -4.965   0.956  0.00  0.00     0.144 A 
ATOM      5  N   UNL d   1       1.361  -5.758   0.074  0.00  0.00    -0.347 N 
ATOM      6  HN  UNL d   1       1.383  -6.775   0.151  1.00  0.00     0.167 HD
ATOM      7  C   UNL d   1       0.637  -3.766  -1.050  0.00  0.00     0.048 A 
ATOM      8  C   UNL d   1       0.699  -5.132  -0.916  0.00  0.00     0.092 A 
ENDROOT
BRANCH   1   9
ATOM      9  C   UNL d   1       1.268  -1.565  -0.020  0.00  0.00     0.040 A 
ATOM     10  C   UNL d   1       1.269  -0.739   1.097  0.00  0.00    -0.023 A 
ATOM     11  C   UNL d   1       1.183   0.668   0.755  0.00  0.00     0.041 A 
ATOM     12  C   UNL d   1       1.323  -1.194   2.533  0.00  0.00     0.041 C 
ATOM     13  C   UNL d   1       1.127   0.853  -0.613  0.00  0.00     0.056 A 
ATOM     14  C   UNL d   1       1.138   1.706   1.795  0.00  0.00     0.162 C 
ATOM     15  S   UNL d   1       1.225  -0.632  -1.457  0.00  0.00    -0.080 SA
ATOM     16  O   UNL d   1       1.002   2.905   1.556  0.00  0.00    -0.292 OA
ATOM     17  C   UNL d   1       1.368   1.236   3.225  0.00  0.00     0.084 C 
ATOM     18  C   UNL d   1       0.751  -0.136   3.479  0.00  0.00     0.012 C 
BRANCH  13  19
ATOM     19  S   UNL d   1       0.926   2.348  -1.526  0.00  0.00    -0.126 SA
ATOM     20  C   UNL d   1       2.646   2.881  -1.680  0.00  0.00     0.096 C 
ENDBRANCH  13  19
ENDBRANCH   1   9
BRANCH   4  21
ATOM     21  S   UNL d   1       2.892  -5.693   2.301  0.00  0.00    -0.086 SA
BRANCH  21  22
ATOM     22  C   UNL d   1       2.627  -7.460   1.964  0.00  0.00     0.166 C 
BRANCH  22  23
ATOM     23  C   UNL d   1       3.392  -8.348   2.937  0.00  0.00     0.169 C 
ATOM     24  O   UNL d   1       4.079  -7.926   3.863  0.00  0.00    -0.291 OA
BRANCH  23  25
ATOM     25  C   UNL d   1       3.320  -9.833   2.735  0.00  0.00     0.011 A 
ATOM     26  C   UNL d   1       2.476 -10.422   1.784  0.00  0.00     0.017 A 
ATOM     27  C   UNL d   1       2.487 -11.809   1.595  0.00  0.00     0.025 A 
ATOM     28  C   UNL d   1       3.337 -12.611   2.355  0.00  0.00     0.034 A 
ATOM     29  C   UNL d   1       4.160 -12.042   3.323  0.00  0.00     0.025 A 
ATOM     30 CL   UNL d   1       3.377 -14.309   2.085  0.00  0.00    -0.084 Cl
ATOM     31  C   UNL d   1       4.149 -10.656   3.515  0.00  0.00     0.017 A 
ENDBRANCH  23  25
ENDBRANCH  22  23
ENDBRANCH  21  22
ENDBRANCH   4  21
TORSDOF 6
