REMARK  6 active torsions:
REMARK  status: ('A' for Active; 'I' for Inactive)
REMARK       I    between atoms: C_7  and  N_1 
REMARK    1  A    between atoms: S_12  and  C_4 
REMARK    2  A    between atoms: C_8  and  C_6 
REMARK    3  A    between atoms: C_9  and  C_7 
REMARK    4  A    between atoms: C_15  and  C_9 
REMARK    5  A    between atoms: O_23  and  C_10 
REMARK    6  A    between atoms: O_25  and  C_13 
ROOT
ATOM      1  N   UNL d   1       0.785  -0.913  -0.245  0.00  0.00    -0.217 N 
ATOM      2  N   UNL d   1       0.606   0.325   0.309  0.00  0.00    -0.290 N 
ATOM      3  HN  UNL d   1       1.329   0.958   0.650  1.00  0.00     0.187 HD
ATOM      4  C   UNL d   1      -0.411  -1.391  -0.755  0.00  0.00     0.098 C 
ATOM      5  C   UNL d   1      -1.386  -0.496  -0.399  0.00  0.00     0.070 C 
ATOM      6  C   UNL d   1      -0.721   0.533   0.310  0.00  0.00     0.061 C 
ATOM      7  C   UNL d   1       2.051  -1.532  -0.198  0.00  0.00     0.247 C 
ATOM      8  O   UNL d   1       2.151  -2.755  -0.247  0.00  0.00    -0.271 OA
ENDROOT
BRANCH   4   9
ATOM      9  S   UNL d   1      -0.557  -2.803  -1.757  0.00  0.00    -0.115 SA
ATOM     10  C   UNL d   1      -0.973  -4.045  -0.514  0.00  0.00     0.097 C 
ENDBRANCH   4   9
BRANCH   7  11
ATOM     11  C   UNL d   1       3.225  -0.591  -0.150  0.00  0.00     0.143 C 
BRANCH  11  12
ATOM     12  C   UNL d   1       3.672  -0.170   1.226  0.00  0.00    -0.047 A 
ATOM     13  C   UNL d   1       3.428   1.139   1.668  0.00  0.00     0.047 A 
ATOM     14  C   UNL d   1       3.865   1.586   2.923  0.00  0.00     0.102 A 
ATOM     15  C   UNL d   1       4.514   0.686   3.780  0.00  0.00     0.101 A 
ATOM     16  C   UNL d   1       4.778  -0.616   3.329  0.00  0.00     0.040 A 
ATOM     17  C   UNL d   1       4.361  -1.045   2.067  0.00  0.00     0.010 A 
BRANCH  14  18
ATOM     18  O   UNL d   1       3.646   2.874   3.337  0.00  0.00    -0.353 OA
ATOM     19  C   UNL d   1       3.717   3.867   2.316  0.00  0.00     0.210 C 
ENDBRANCH  14  18
BRANCH  15  20
ATOM     20  O   UNL d   1       4.991   0.919   5.043  0.00  0.00    -0.353 OA
ATOM     21  C   UNL d   1       4.444   2.017   5.761  0.00  0.00     0.210 C 
ENDBRANCH  15  20
ENDBRANCH  11  12
ENDBRANCH   7  11
BRANCH   6  22
ATOM     22  C   UNL d   1      -1.329   1.686   0.983  0.00  0.00    -0.008 A 
ATOM     23  C   UNL d   1      -2.601   2.154   0.610  0.00  0.00     0.017 A 
ATOM     24  C   UNL d   1      -3.208   3.201   1.308  0.00  0.00     0.043 A 
ATOM     25  C   UNL d   1      -2.547   3.787   2.381  0.00  0.00     0.116 A 
ATOM     26  C   UNL d   1      -1.284   3.351   2.760  0.00  0.00     0.043 A 
ATOM     27  F   UNL d   1      -3.139   4.776   3.060  0.00  0.00    -0.206 F 
ATOM     28  C   UNL d   1      -0.673   2.305   2.062  0.00  0.00     0.017 A 
ENDBRANCH   6  22
TORSDOF 6
