REMARK  4 active torsions:
REMARK  status: ('A' for Active; 'I' for Inactive)
REMARK    1  A    between atoms: C_7  and  C_1 
REMARK    2  A    between atoms: C_6  and  C_4 
REMARK    3  A    between atoms: O_18  and  C_7 
REMARK    4  A    between atoms: C_20  and  O_18 
ROOT
ATOM      1  C   UNL d   1       1.340   0.671  -0.247  0.00  0.00     0.116 A 
ATOM      2  N   UNL d   1       1.412  -0.706  -0.037  0.00  0.00    -0.345 N 
ATOM      3  HN  UNL d   1       2.265  -1.208   0.210  1.00  0.00     0.167 HD
ATOM      4  C   UNL d   1       0.236  -1.274  -0.199  0.00  0.00     0.085 A 
ATOM      5  S   UNL d   1      -1.017  -0.193  -0.668  0.00  0.00    -0.081 SA
ATOM      6  C   UNL d   1       0.091   1.117  -0.629  0.00  0.00     0.087 A 
ENDROOT
BRANCH   1   7
ATOM      7  C   UNL d   1       2.493   1.536   0.006  0.00  0.00     0.316 C 
ATOM      8  O   UNL d   1       2.503   2.747  -0.172  0.00  0.00    -0.257 OA
BRANCH   7   9
ATOM      9  O   UNL d   1       3.552   0.795   0.535  0.00  0.00    -0.272 OA
BRANCH   9  10
ATOM     10  C   UNL d   1       4.362   1.451   1.474  0.00  0.00     0.101 A 
ATOM     11  C   UNL d   1       3.849   1.963   2.676  0.00  0.00     0.069 A 
ATOM     12  C   UNL d   1       4.724   2.485   3.630  0.00  0.00     0.050 A 
ATOM     13 CL   UNL d   1       2.171   1.897   3.080  0.00  0.00    -0.081 Cl
ATOM     14  C   UNL d   1       6.096   2.455   3.396  0.00  0.00     0.035 A 
ATOM     15  C   UNL d   1       6.608   1.913   2.216  0.00  0.00     0.026 A 
ATOM     16 CL   UNL d   1       7.171   3.061   4.595  0.00  0.00    -0.084 Cl
ATOM     17  C   UNL d   1       5.738   1.407   1.249  0.00  0.00     0.041 A 
ENDBRANCH   9  10
ENDBRANCH   7   9
ENDBRANCH   1   7
BRANCH   4  18
ATOM     18  C   UNL d   1       0.017  -2.727  -0.072  0.00  0.00     0.000 A 
ATOM     19  C   UNL d   1       1.099  -3.572  -0.423  0.00  0.00     0.048 A 
ATOM     20  C   UNL d   1       0.851  -4.952  -0.325  0.00  0.00     0.086 A 
ATOM     21  N   UNL d   1       1.657  -5.981  -0.610  0.00  0.00    -0.240 N 
ATOM     22  C   UNL d   1      -0.424  -5.482   0.132  0.00  0.00     0.085 A 
ATOM     23  O   UNL d   1       0.915  -7.122  -0.351  0.00  0.00    -0.156 OA
ATOM     24  HN  UNL d   1       2.618  -5.935  -0.949  1.00  0.00     0.197 HD
ATOM     25  N   UNL d   1      -0.356  -6.818   0.107  0.00  0.00    -0.240 N 
ATOM     26  HN  UNL d   1      -1.090  -7.476   0.371  1.00  0.00     0.197 HD
ATOM     27  C   UNL d   1      -1.488  -4.648   0.515  0.00  0.00     0.035 A 
ATOM     28  C   UNL d   1      -1.223  -3.265   0.399  0.00  0.00     0.017 A 
ENDBRANCH   4  18
TORSDOF 4
