REMARK  6 active torsions:
REMARK  status: ('A' for Active; 'I' for Inactive)
REMARK    1  A    between atoms: C_6  and  C_1 
REMARK    2  A    between atoms: N_16  and  C_4 
REMARK    3  A    between atoms: C_5  and  C_7 
REMARK       I    between atoms: C_7  and  N_17 
REMARK    4  A    between atoms: C_20  and  N_16 
REMARK    5  A    between atoms: N_17  and  C_21 
REMARK    6  A    between atoms: C_21  and  C_20 
ROOT
ATOM      1  N   UNL d   1       0.096   1.604   3.328  0.00  0.00    -0.329 N 
ATOM      2  HN  UNL d   1      -0.811   1.924   2.987  1.00  0.00     0.168 HD
ATOM      3  C   UNL d   1       0.186   0.592   4.200  0.00  0.00     0.157 A 
ATOM      4  C   UNL d   1       1.249   2.193   2.909  0.00  0.00     0.120 A 
ATOM      5  N   UNL d   1       1.346   0.154   4.702  0.00  0.00    -0.343 N 
ATOM      6  HN  UNL d   1       1.375  -0.598   5.391  1.00  0.00     0.167 HD
ATOM      7  C   UNL d   1       2.486   1.772   3.361  0.00  0.00     0.051 A 
ATOM      8  C   UNL d   1       2.473   0.741   4.264  0.00  0.00     0.093 A 
ENDROOT
BRANCH   3   9
ATOM      9  N   UNL d   1      -1.000  -0.020   4.540  0.00  0.00    -0.263 NA
ATOM     10  H   UNL d   1      -1.772   0.556   4.225  0.00  0.00     0.130 HD
BRANCH   9  11
ATOM     11  C   UNL d   1      -1.127  -0.608   5.867  0.00  0.00     0.115 C 
BRANCH  11  12
ATOM     12  C   UNL d   1      -1.594   0.427   6.902  0.00  0.00     0.137 C 
BRANCH  12  13
ATOM     13  N   UNL d   1      -1.691  -0.104   8.253  0.00  0.00    -0.360 N 
ATOM     14  C   UNL d   1      -2.819  -0.730   8.720  0.00  0.00     0.221 C 
ATOM     15  O   UNL d   1      -3.826  -0.941   8.055  0.00  0.00    -0.273 OA
ATOM     16  H   UNL d   1      -0.907   0.037   8.878  0.00  0.00     0.162 HD
BRANCH  14  17
ATOM     17  C   UNL d   1      -2.740  -1.100  10.165  0.00  0.00     0.078 A 
ATOM     18  C   UNL d   1      -3.830  -1.893  10.848  0.00  0.00     0.015 A 
ATOM     19  C   UNL d   1      -3.679  -0.430  11.144  0.00  0.00     0.015 A 
ENDBRANCH  14  17
ENDBRANCH  12  13
ENDBRANCH  11  12
ENDBRANCH   9  11
ENDBRANCH   3   9
BRANCH   4  20
ATOM     20  C   UNL d   1       1.193   3.340   1.914  0.00  0.00     0.432 C 
ATOM     21  F   UNL d   1      -0.064   3.707   1.540  0.00  0.00    -0.165 F 
ATOM     22  F   UNL d   1       1.862   3.059   0.757  0.00  0.00    -0.165 F 
ATOM     23  F   UNL d   1       1.780   4.474   2.402  0.00  0.00    -0.165 F 
ENDBRANCH   4  20
TORSDOF 6
