REMARK  7 active torsions:
REMARK  status: ('A' for Active; 'I' for Inactive)
REMARK    1  A    between atoms: N_2  and  C_1 
REMARK    2  A    between atoms: C_3  and  C_1 
REMARK    3  A    between atoms: C_4  and  C_1 
REMARK    4  A    between atoms: N_6  and  C_1 
REMARK       I    between atoms: C_5  and  N_2 
REMARK    5  A    between atoms: C_7  and  C_5 
REMARK    6  A    between atoms: C_8  and  N_6 
REMARK    7  A    between atoms: O_21  and  C_12 
ROOT
ATOM      1  C   UNL d   1       0.968  -0.068   0.189  0.00  0.00     0.291 C 
ENDROOT
BRANCH   1   2
ATOM      2  N   UNL d   1       0.581   0.785  -0.969  0.00  0.00    -0.320 N 
ATOM      3  C   UNL d   1       0.367   0.342  -2.243  0.00  0.00     0.256 C 
ATOM      4  O   UNL d   1       0.591  -0.826  -2.555  0.00  0.00    -0.268 OA
ATOM      5  H   UNL d   1       0.487   1.768  -0.745  0.00  0.00     0.165 HD
BRANCH   3   6
ATOM      6  C   UNL d   1      -0.155   1.342  -3.218  0.00  0.00     0.065 A 
ATOM      7  C   UNL d   1      -0.984   0.950  -4.282  0.00  0.00     0.084 A 
ATOM      8  C   UNL d   1      -1.399   1.885  -5.237  0.00  0.00     0.038 A 
ATOM      9  C   UNL d   1      -1.058   3.229  -5.104  0.00  0.00     0.003 A 
ATOM     10  C   UNL d   1      -0.281   3.640  -4.025  0.00  0.00     0.001 A 
ATOM     11  C   UNL d   1       0.181   2.702  -3.096  0.00  0.00     0.020 A 
BRANCH   7  12
ATOM     12  O   UNL d   1      -1.430  -0.330  -4.481  0.00  0.00    -0.355 OA
ATOM     13  C   UNL d   1      -2.410  -0.700  -3.507  0.00  0.00     0.210 C 
ENDBRANCH   7  12
ENDBRANCH   3   6
ENDBRANCH   1   2
BRANCH   1  14
ATOM     14  C   UNL d   1      -0.005  -1.281   0.396  0.00  0.00     0.435 C 
ATOM     15  F   UNL d   1      -1.298  -0.935   0.179  0.00  0.00    -0.167 F 
ATOM     16  F   UNL d   1       0.278  -2.300  -0.460  0.00  0.00    -0.167 F 
ATOM     17  F   UNL d   1       0.072  -1.829   1.632  0.00  0.00    -0.167 F 
ENDBRANCH   1  14
BRANCH   1  18
ATOM     18  C   UNL d   1       0.829   0.763   1.509  0.00  0.00     0.435 C 
ATOM     19  F   UNL d   1       0.541   2.068   1.204  0.00  0.00    -0.167 F 
ATOM     20  F   UNL d   1      -0.190   0.368   2.310  0.00  0.00    -0.167 F 
ATOM     21  F   UNL d   1       1.943   0.786   2.274  0.00  0.00    -0.167 F 
ENDBRANCH   1  18
BRANCH   1  22
ATOM     22  N   UNL d   1       2.325  -0.614  -0.096  0.00  0.00    -0.237 NA
ATOM     23  H   UNL d   1       2.223  -1.300  -0.851  0.00  0.00     0.132 HD
BRANCH  22  24
ATOM     24  C   UNL d   1       3.415   0.194  -0.404  0.00  0.00     0.082 A 
ATOM     25  N   UNL d   1       3.361   1.535  -0.285  0.00  0.00    -0.351 N 
ATOM     26  C   UNL d   1       4.474   2.241  -0.637  0.00  0.00     0.006 A 
ATOM     27  HN  UNL d   1       2.522   2.004   0.054  1.00  0.00     0.167 HD
ATOM     28  C   UNL d   1       4.432   3.735  -0.506  0.00  0.00     0.068 C 
ATOM     29  C   UNL d   1       5.640   1.647  -1.117  0.00  0.00     0.024 A 
ATOM     30  C   UNL d   1       5.695   0.268  -1.197  0.00  0.00     0.005 A 
ATOM     31  C   UNL d   1       4.578  -0.463  -0.818  0.00  0.00     0.042 A 
ENDBRANCH  22  24
ENDBRANCH   1  22
TORSDOF 7
