REMARK  4 active torsions:
REMARK  status: ('A' for Active; 'I' for Inactive)
REMARK    1  A    between atoms: N_4  and  C_3 
REMARK       I    between atoms: C_5  and  N_4 
REMARK    2  A    between atoms: C_13  and  C_5 
REMARK    3  A    between atoms: S_8  and  C_13 
REMARK    4  A    between atoms: C_14  and  S_8 
ROOT
ATOM      1  N   UNL d   1      -3.749  -0.179   0.285  0.00  0.00    -0.324 N 
ATOM      2  C   UNL d   1      -3.791  -1.426  -0.313  0.00  0.00     0.231 C 
ATOM      3  O   UNL d   1      -2.818  -2.036  -0.750  0.00  0.00    -0.272 OA
ATOM      4  H   UNL d   1      -4.593   0.083   0.785  0.00  0.00     0.169 HD
ENDROOT
BRANCH   1   5
ATOM      5  C   UNL d   1      -2.655   0.711   0.362  0.00  0.00     0.077 A 
ATOM      6  C   UNL d   1      -1.521   0.679  -0.465  0.00  0.00     0.184 A 
ATOM      7  C   UNL d   1      -0.490   1.599  -0.286  0.00  0.00     0.195 A 
ATOM      8  F   UNL d   1      -1.430  -0.161  -1.503  0.00  0.00    -0.200 F 
ATOM      9  C   UNL d   1      -0.581   2.566   0.704  0.00  0.00     0.158 A 
ATOM     10  F   UNL d   1       0.584   1.568  -1.090  0.00  0.00    -0.199 F 
ATOM     11  F   UNL d   1       0.410   3.451   0.879  0.00  0.00    -0.203 F 
ATOM     12  C   UNL d   1      -1.707   2.640   1.513  0.00  0.00     0.048 A 
ATOM     13  C   UNL d   1      -2.746   1.721   1.335  0.00  0.00     0.036 A 
ENDBRANCH   1   5
BRANCH   2  14
ATOM     14  C   UNL d   1      -5.151  -2.122  -0.255  0.00  0.00     0.182 C 
BRANCH  14  15
ATOM     15  S   UNL d   1      -6.545  -0.941  -0.251  0.00  0.00    -0.121 SA
BRANCH  15  16
ATOM     16  C   UNL d   1      -7.955  -2.003   0.027  0.00  0.00     0.001 A 
ATOM     17  C   UNL d   1      -9.031  -1.467   0.744  0.00  0.00     0.019 A 
ATOM     18  C   UNL d   1     -10.193  -2.213   0.961  0.00  0.00     0.008 A 
ATOM     19  C   UNL d   1     -10.304  -3.513   0.456  0.00  0.00    -0.062 A 
ATOM     20  C   UNL d   1      -9.233  -4.051  -0.263  0.00  0.00     0.008 A 
ATOM     21  C   UNL d   1     -11.568  -4.291   0.673  0.00  0.00     0.048 C 
ATOM     22  C   UNL d   1      -8.069  -3.301  -0.479  0.00  0.00     0.019 A 
ENDBRANCH  15  16
ENDBRANCH  14  15
ENDBRANCH   2  14
TORSDOF 4
