REMARK  1 active torsions:
REMARK  status: ('A' for Active; 'I' for Inactive)
REMARK    1  A    between atoms: S_13  and  C_3 
ROOT
ATOM      1  C   UNL d   1       0.275  -0.752   0.004  0.00  0.00     0.098 A 
ATOM      2  C   UNL d   1       0.248   0.624   0.003  0.00  0.00     0.085 A 
ATOM      3  C   UNL d   1       1.637  -1.091   0.004  0.00  0.00     0.102 A 
ATOM      4  N   UNL d   1       2.423  -0.002   0.005  0.00  0.00    -0.291 N 
ATOM      5  HN  UNL d   1       3.442   0.038   0.006  1.00  0.00     0.188 HD
ATOM      6  N   UNL d   1       1.545   1.034   0.006  0.00  0.00    -0.293 N 
ATOM      7  C   UNL d   1      -0.957  -1.503   0.003  0.00  0.00     0.277 A 
ATOM      8  N   UNL d   1      -2.119   0.716   0.000  0.00  0.00    -0.305 N 
ATOM      9  HN  UNL d   1      -2.999   1.232  -0.001  1.00  0.00     0.186 HD
ATOM     10  C   UNL d   1      -0.981   1.343   0.000  0.00  0.00     0.139 A 
ATOM     11  N   UNL d   1      -2.112  -0.689   0.002  0.00  0.00    -0.262 N 
ATOM     12  O   UNL d   1      -1.001  -2.728   0.004  0.00  0.00    -0.266 OA
ATOM     13  C   UNL d   1       2.050   2.386   0.013  0.00  0.00     0.178 C 
ATOM     14  C   UNL d   1      -3.401  -1.346   0.002  0.00  0.00     0.181 C 
ENDROOT
BRANCH   3  15
ATOM     15  S   UNL d   1       2.250  -2.725   0.001  0.00  0.00    -0.114 SA
ATOM     16  C   UNL d   1       4.034  -2.518   0.003  0.00  0.00     0.097 C 
ENDBRANCH   3  15
TORSDOF 1
