REMARK  3 active torsions:
REMARK  status: ('A' for Active; 'I' for Inactive)
REMARK    1  A    between atoms: C_2  and  C_1 
REMARK       I    between atoms: N_6  and  C_1 
REMARK    2  A    between atoms: N_3  and  N_6 
REMARK    3  A    between atoms: N_10  and  C_5 
ROOT
ATOM      1  C   UNL d   1       0.859  -0.035   0.015  0.00  0.00     0.271 C 
ATOM      2  N   UNL d   1       0.116  -0.847   0.861  0.00  0.00    -0.265 N 
ATOM      3  O   UNL d   1       0.401   0.708  -0.848  0.00  0.00    -0.266 OA
ATOM      4  H   UNL d   1       0.552  -1.532   1.465  0.00  0.00     0.190 HD
ENDROOT
BRANCH   1   5
ATOM      5  C   UNL d   1       2.327  -0.108   0.179  0.00  0.00     0.049 A 
ATOM      6  C   UNL d   1       3.135   0.138  -0.924  0.00  0.00     0.104 A 
ATOM      7  N   UNL d   1       4.491   0.102  -0.890  0.00  0.00    -0.374 N 
ATOM      8  C   UNL d   1       5.061  -0.165   0.304  0.00  0.00     0.087 A 
ATOM      9  HN  UNL d   1       5.052   0.270  -1.725  1.00  0.00     0.164 HD
ATOM     10  C   UNL d   1       4.341  -0.400   1.466  0.00  0.00     0.018 A 
ATOM     11  C   UNL d   1       2.949  -0.369   1.402  0.00  0.00     0.020 A 
ENDBRANCH   1   5
BRANCH   2  12
ATOM     12  N   UNL d   1      -1.242  -0.796   0.794  0.00  0.00    -0.294 N 
ATOM     13  C   UNL d   1      -1.899  -1.566   1.598  0.00  0.00     0.194 C 
ATOM     14  HN  UNL d   1      -1.720  -0.177   0.139  1.00  0.00     0.187 HD
BRANCH  13  15
ATOM     15  N   UNL d   1      -3.268  -1.647   1.677  0.00  0.00    -0.385 N 
ATOM     16  C   UNL d   1      -4.117  -0.836   0.814  0.00  0.00     0.149 C 
ATOM     17  C   UNL d   1      -3.958  -2.496   2.628  0.00  0.00     0.149 C 
ENDBRANCH  13  15
ENDBRANCH   2  12
TORSDOF 3
