REMARK  4 active torsions:
REMARK  status: ('A' for Active; 'I' for Inactive)
REMARK    1  A    between atoms: S_4  and  C_1 
REMARK    2  A    between atoms: C_2  and  C_10 
REMARK       I    between atoms: N_9  and  C_2 
REMARK    3  A    between atoms: C_10  and  S_4 
REMARK    4  A    between atoms: N_11  and  N_9 
ROOT
ATOM      1  C   UNL d   1       0.959   5.421  -0.049  0.00  0.00     0.241 C 
ATOM      2  O   UNL d   1       1.477   6.171  -0.876  0.00  0.00    -0.271 OA
ATOM      3  N   UNL d   1       0.192   5.889   1.014  0.00  0.00    -0.293 N 
ATOM      4  H   UNL d   1      -0.411   5.225   1.502  0.00  0.00     0.183 HD
ENDROOT
BRANCH   1   5
ATOM      5  C   UNL d   1       1.192   3.921  -0.048  0.00  0.00     0.184 C 
BRANCH   5   6
ATOM      6  S   UNL d   1      -0.385   3.026  -0.079  0.00  0.00    -0.113 SA
BRANCH   6   7
ATOM      7  C   UNL d   1       0.134   1.352   0.061  0.00  0.00     0.041 A 
ATOM      8  S   UNL d   1      -0.846   0.203   0.872  0.00  0.00    -0.095 SA
ATOM      9  C   UNL d   1       0.256  -1.065   0.553  0.00  0.00     0.051 A 
ATOM     10  C   UNL d   1       1.350  -0.628  -0.158  0.00  0.00     0.009 A 
ATOM     11  C   UNL d   1       1.277   0.769  -0.446  0.00  0.00     0.026 A 
ENDBRANCH   6   7
ENDBRANCH   5   6
ENDBRANCH   1   5
BRANCH   3  12
ATOM     12  N   UNL d   1      -0.152   7.261   1.059  0.00  0.00    -0.247 NA
ATOM     13  H   UNL d   1       0.065   7.655   0.133  0.00  0.00     0.143 HD
ATOM     14  H   UNL d   1       0.511   7.729   1.683  0.00  0.00     0.143 HD
ENDBRANCH   3  12
TORSDOF 4
