REMARK  7 active torsions:
REMARK  status: ('A' for Active; 'I' for Inactive)
REMARK    1  A    between atoms: C_8  and  N_1 
REMARK    2  A    between atoms: S_7  and  C_2 
REMARK    3  A    between atoms: C_13  and  S_7 
REMARK    4  A    between atoms: C_9  and  C_13 
REMARK       I    between atoms: N_10  and  C_9 
REMARK    5  A    between atoms: C_18  and  N_10 
REMARK    6  A    between atoms: C_20  and  C_11 
REMARK    7  A    between atoms: O_25  and  C_19 
ROOT
ATOM      1  S   UNL d   1       2.466  -1.464   0.317  0.00  0.00    -0.082 SA
ENDROOT
BRANCH   1   2
ATOM      2  C   UNL d   1       0.750  -1.151   0.272  0.00  0.00     0.177 C 
ATOM      3  N   UNL d   1       0.141   0.088   0.407  0.00  0.00    -0.219 N 
ATOM      4  N   UNL d   1      -1.176  -0.141   0.655  0.00  0.00     0.001 NA
ATOM      5  N   UNL d   1      -1.362  -1.443   0.498  0.00  0.00    -0.006 NA
ATOM      6  N   UNL d   1      -0.176  -2.084   0.273  0.00  0.00    -0.264 N 
ATOM      7  HN  UNL d   1      -0.037  -3.085   0.135  1.00  0.00     0.186 HD
BRANCH   3   8
ATOM      8  C   UNL d   1       0.619   1.413   0.256  0.00  0.00     0.057 A 
ATOM      9  C   UNL d   1       1.748   1.694  -0.524  0.00  0.00     0.034 A 
ATOM     10  C   UNL d   1       2.139   3.019  -0.731  0.00  0.00     0.039 A 
ATOM     11  C   UNL d   1       1.409   4.055  -0.163  0.00  0.00     0.065 A 
ATOM     12  C   UNL d   1       0.298   3.794   0.627  0.00  0.00     0.039 A 
ATOM     13  C   UNL d   1      -0.107   2.472   0.829  0.00  0.00     0.034 A 
BRANCH  11  14
ATOM     14  O   UNL d   1       1.810   5.329  -0.432  0.00  0.00    -0.361 OA
ATOM     15  H   UNL d   1       1.133   5.943  -0.103  0.00  0.00     0.217 HD
ENDBRANCH  11  14
ENDBRANCH   3   8
ENDBRANCH   1   2
BRANCH   1  16
ATOM     16  C   UNL d   1       2.449  -3.220  -0.106  0.00  0.00     0.185 C 
BRANCH  16  17
ATOM     17  C   UNL d   1       3.790  -3.929  -0.114  0.00  0.00     0.231 C 
ATOM     18  N   UNL d   1       4.927  -3.186   0.135  0.00  0.00    -0.327 N 
ATOM     19  H   UNL d   1       4.795  -2.245   0.491  0.00  0.00     0.169 HD
ATOM     20  O   UNL d   1       3.778  -5.141  -0.357  0.00  0.00    -0.272 OA
BRANCH  18  21
ATOM     21  C   UNL d   1       6.264  -3.633  -0.028  0.00  0.00     0.034 A 
ATOM     22  C   UNL d   1       6.589  -4.835  -0.656  0.00  0.00     0.030 A 
ATOM     23  C   UNL d   1       7.917  -5.208  -0.867  0.00  0.00     0.010 A 
ATOM     24  C   UNL d   1       8.971  -4.386  -0.457  0.00  0.00    -0.055 A 
ATOM     25  C   UNL d   1       8.653  -3.192   0.205  0.00  0.00     0.010 A 
ATOM     26  C   UNL d   1       7.312  -2.816   0.412  0.00  0.00     0.030 A 
BRANCH  24  27
ATOM     27  C   UNL d   1      10.409  -4.760  -0.774  0.00  0.00     0.010 C 
ATOM     28  C   UNL d   1      10.813  -6.098  -0.147  0.00  0.00     0.015 C 
ATOM     29  C   UNL d   1      10.636  -4.796  -2.291  0.00  0.00     0.015 C 
ENDBRANCH  24  27
ENDBRANCH  18  21
ENDBRANCH  16  17
ENDBRANCH   1  16
TORSDOF 7
