REMARK  2 active torsions:
REMARK  status: ('A' for Active; 'I' for Inactive)
REMARK    1  A    between atoms: C_9  and  N_1 
REMARK    2  A    between atoms: C_8  and  C_5 
ROOT
ATOM      1  N   UNL d   1       2.336  -0.651  -0.019  0.00  0.00    -0.220 N 
ATOM      2  N   UNL d   1       2.313   0.726   0.083  0.00  0.00    -0.289 N 
ATOM      3  HN  UNL d   1       3.190   1.242   0.158  1.00  0.00     0.188 HD
ATOM      4  C   UNL d   1       1.182  -1.438   0.037  0.00  0.00     0.278 C 
ATOM      5  C   UNL d   1       1.182   1.371   0.084  0.00  0.00     0.070 C 
ATOM      6  C   UNL d   1      -0.102  -0.717   0.023  0.00  0.00     0.046 A 
ATOM      7  C   UNL d   1      -0.124   0.671  -0.042  0.00  0.00     0.009 A 
ATOM      8  O   UNL d   1       1.135  -2.666   0.092  0.00  0.00    -0.265 OA
ATOM      9  C   UNL d   1      -1.301  -1.453   0.010  0.00  0.00     0.018 A 
ATOM     10  C   UNL d   1      -1.359   1.310  -0.234  0.00  0.00     0.015 A 
ATOM     11  C   UNL d   1      -2.553   0.581  -0.232  0.00  0.00     0.001 A 
ATOM     12  C   UNL d   1      -2.526  -0.801  -0.093  0.00  0.00     0.001 A 
ENDROOT
BRANCH   5  13
ATOM     13  C   UNL d   1       1.271   2.869   0.199  0.00  0.00    -0.007 A 
ATOM     14  C   UNL d   1       2.345   3.526  -0.425  0.00  0.00     0.017 A 
ATOM     15  C   UNL d   1       2.435   4.921  -0.399  0.00  0.00     0.043 A 
ATOM     16  C   UNL d   1       1.450   5.659   0.245  0.00  0.00     0.116 A 
ATOM     17  C   UNL d   1       0.407   5.027   0.909  0.00  0.00     0.043 A 
ATOM     18  F   UNL d   1       1.511   6.997   0.234  0.00  0.00    -0.206 F 
ATOM     19  C   UNL d   1       0.339   3.631   0.919  0.00  0.00     0.017 A 
ENDBRANCH   5  13
BRANCH   1  20
ATOM     20  C   UNL d   1       3.652  -1.212  -0.161  0.00  0.00     0.060 A 
ATOM     21  C   UNL d   1       3.857  -2.482  -0.734  0.00  0.00     0.031 A 
ATOM     22  C   UNL d   1       5.142  -3.020  -0.876  0.00  0.00     0.002 A 
ATOM     23  C   UNL d   1       6.248  -2.302  -0.439  0.00  0.00     0.000 A 
ATOM     24  C   UNL d   1       6.072  -1.040   0.124  0.00  0.00     0.002 A 
ATOM     25  C   UNL d   1       4.786  -0.495   0.247  0.00  0.00     0.031 A 
ENDBRANCH   1  20
TORSDOF 2
