REMARK  3 active torsions:
REMARK  status: ('A' for Active; 'I' for Inactive)
REMARK    1  A    between atoms: C_2  and  C_1 
REMARK    2  A    between atoms: O_8  and  C_2 
REMARK    3  A    between atoms: N_4  and  O_8 
ROOT
ATOM      1  O   UNL d   1       2.368   2.600   0.227  0.00  0.00    -0.195 OA
ENDROOT
BRANCH   1   2
ATOM      2  N   UNL d   1       1.526   3.700  -0.033  0.00  0.00    -0.264 N 
ATOM      3  C   UNL d   1       2.149   4.827  -0.214  0.00  0.00     0.029 C 
ATOM      4  C   UNL d   1       3.647   5.031  -0.182  0.00  0.00     0.130 C 
ATOM      5  C   UNL d   1       1.286   6.005  -0.616  0.00  0.00     0.130 C 
ATOM      6  S   UNL d   1       4.139   6.269   1.051  0.00  0.00    -0.148 SA
ATOM      7  C   UNL d   1       3.167   7.709   0.508  0.00  0.00     0.105 C 
ATOM      8  S   UNL d   1       1.388   7.354   0.581  0.00  0.00    -0.148 SA
ATOM      9  C   UNL d   1       3.606   8.255  -0.848  0.00  0.00     0.033 C 
ATOM     10  HN  UNL d   1       0.510   3.618  -0.076  1.00  0.00     0.194 HD
ENDBRANCH   1   2
BRANCH   1  11
ATOM     11  C   UNL d   1       1.633   1.451   0.110  0.00  0.00     0.316 C 
ATOM     12  O   UNL d   1       0.451   1.394  -0.217  0.00  0.00    -0.257 OA
BRANCH  11  13
ATOM     13  C   UNL d   1       2.391   0.197   0.401  0.00  0.00     0.063 A 
ATOM     14  C   UNL d   1       3.762   0.072   0.660  0.00  0.00     0.050 A 
ATOM     15 CL   UNL d   1       4.886   1.381   0.691  0.00  0.00    -0.083 Cl
ATOM     16  C   UNL d   1       4.319  -1.197   0.904  0.00  0.00     0.025 A 
ATOM     17  C   UNL d   1       3.530  -2.347   0.888  0.00  0.00     0.002 A 
ATOM     18  C   UNL d   1       2.171  -2.240   0.629  0.00  0.00     0.001 A 
ATOM     19  C   UNL d   1       1.611  -0.984   0.389  0.00  0.00     0.019 A 
ENDBRANCH  11  13
ENDBRANCH   1  11
TORSDOF 3
