REMARK  1 active torsions:
REMARK  status: ('A' for Active; 'I' for Inactive)
REMARK    1  A    between atoms: N_4  and  C_6 
ROOT
ATOM      1  C   UNL d   1       0.094  -0.653   0.107  0.00  0.00     0.136 A 
ATOM      2  N   UNL d   1      -0.996  -1.448   0.151  0.00  0.00    -0.325 N 
ATOM      3  HN  UNL d   1      -0.939  -2.464   0.206  1.00  0.00     0.169 HD
ATOM      4  C   UNL d   1       0.140   0.740   0.048  0.00  0.00     0.039 A 
ATOM      5  C   UNL d   1      -2.170  -0.779   0.115  0.00  0.00     0.129 A 
ATOM      6  N   UNL d   1       1.393  -1.075   0.099  0.00  0.00    -0.280 N 
ATOM      7  N   UNL d   1       2.292  -0.074   0.070  0.00  0.00    -0.301 N 
ATOM      8  HN  UNL d   1       3.309  -0.144   0.072  1.00  0.00     0.187 HD
ATOM      9  C   UNL d   1       1.540   1.036   0.038  0.00  0.00     0.036 A 
ATOM     10  C   UNL d   1      -1.095   1.424   0.016  0.00  0.00    -0.042 A 
ATOM     11  C   UNL d   1      -2.252   0.616   0.041  0.00  0.00     0.058 A 
ATOM     12  C   UNL d   1       1.864  -2.437   0.094  0.00  0.00     0.179 C 
ATOM     13  C   UNL d   1       2.257   2.336  -0.005  0.00  0.00     0.070 C 
ATOM     14  C   UNL d   1      -1.307   2.910  -0.051  0.00  0.00     0.049 C 
ENDROOT
BRANCH   5  15
ATOM     15  N   UNL d   1      -3.407  -1.520   0.131  0.00  0.00    -0.244 N 
ATOM     16  N   UNL d   1      -4.586  -0.862  -0.102  0.00  0.00    -0.297 N 
ATOM     17  C   UNL d   1      -5.526  -1.805  -0.131  0.00  0.00     0.024 A 
ATOM     18  HN  UNL d   1      -4.717   0.142  -0.228  1.00  0.00     0.187 HD
ATOM     19  C   UNL d   1      -6.937  -1.450  -0.413  0.00  0.00     0.070 C 
ATOM     20  C   UNL d   1      -4.993  -3.072   0.145  0.00  0.00     0.052 A 
ATOM     21  C   UNL d   1      -3.638  -2.878   0.342  0.00  0.00     0.034 A 
ATOM     22  C   UNL d   1      -2.639  -3.904   0.736  0.00  0.00     0.070 C 
ENDBRANCH   5  15
TORSDOF 1
