REMARK  5 active torsions:
REMARK  status: ('A' for Active; 'I' for Inactive)
REMARK    1  A    between atoms: C_19  and  C_27 
REMARK    2  A    between atoms: C_28  and  C_20 
REMARK    3  A    between atoms: C_27  and  C_31 
REMARK    4  A    between atoms: C_32  and  C_28 
REMARK    5  A    between atoms: C_31  and  C_32 
ROOT
ATOM      1  C   UNL d   1       9.224  -6.744   1.346  0.00  0.00    -0.013 A 
ATOM      2  C   UNL d   1       9.593  -7.379   0.127  0.00  0.00    -0.004 A 
ATOM      3  C   UNL d   1       9.243  -6.779  -1.111  0.00  0.00     0.056 A 
ATOM      4  C   UNL d   1       9.573  -7.346   2.609  0.00  0.00    -0.015 A 
ATOM      5  N   UNL d   1       9.860  -7.852  -3.396  0.00  0.00    -0.191 NA
ATOM      6  C   UNL d   1       9.587  -7.378  -2.372  0.00  0.00     0.100 C 
ATOM      7  C   UNL d   1      10.303  -8.593   0.194  0.00  0.00     0.014 A 
ATOM      8  C   UNL d   1       8.522  -5.519   1.251  0.00  0.00     0.020 A 
ATOM      9  C   UNL d   1       8.549  -5.565  -1.152  0.00  0.00     0.030 A 
ATOM     10  C   UNL d   1       8.195  -4.921   0.029  0.00  0.00    -0.056 A 
ATOM     11  C   UNL d   1      10.290  -8.567   2.618  0.00  0.00    -0.025 A 
ATOM     12  C   UNL d   1      10.645  -9.173   1.414  0.00  0.00     0.013 A 
ATOM     13  C   UNL d   1       9.248  -6.796   3.878  0.00  0.00     0.013 A 
ATOM     14  C   UNL d   1      10.651  -9.179   3.830  0.00  0.00     0.012 A 
ATOM     15  C   UNL d   1       9.612  -7.414   5.078  0.00  0.00     0.001 A 
ATOM     16  C   UNL d   1      10.315  -8.607   5.054  0.00  0.00     0.001 A 
ENDROOT
BRANCH  10  17
ATOM     17  C   UNL d   1       7.469  -3.604  -0.004  0.00  0.00     0.038 C 
BRANCH  17  18
ATOM     18  C   UNL d   1       5.950  -3.784  -0.034  0.00  0.00     0.005 C 
BRANCH  18  19
ATOM     19  C   UNL d   1       5.201  -2.449  -0.050  0.00  0.00     0.005 C 
BRANCH  19  20
ATOM     20  C   UNL d   1       5.521  -1.613  -1.291  0.00  0.00     0.038 C 
BRANCH  20  21
ATOM     21  C   UNL d   1       4.766  -0.312  -1.306  0.00  0.00    -0.056 A 
ATOM     22  C   UNL d   1       5.304   0.826  -0.713  0.00  0.00     0.030 A 
ATOM     23  C   UNL d   1       4.605   2.036  -0.751  0.00  0.00     0.056 A 
ATOM     24  C   UNL d   1       3.337   2.129  -1.384  0.00  0.00    -0.004 A 
ATOM     25  C   UNL d   1       5.228   3.173  -0.129  0.00  0.00     0.100 C 
ATOM     26  C   UNL d   1       2.763   0.972  -1.980  0.00  0.00    -0.013 A 
ATOM     27  C   UNL d   1       2.619   3.339  -1.446  0.00  0.00     0.014 A 
ATOM     28  C   UNL d   1       1.475   1.053  -2.624  0.00  0.00    -0.015 A 
ATOM     29  C   UNL d   1       3.509  -0.230  -1.915  0.00  0.00     0.020 A 
ATOM     30  C   UNL d   1       0.798   2.297  -2.660  0.00  0.00    -0.025 A 
ATOM     31  C   UNL d   1       0.815  -0.042  -3.243  0.00  0.00     0.013 A 
ATOM     32  C   UNL d   1       1.378   3.420  -2.073  0.00  0.00     0.013 A 
ATOM     33  C   UNL d   1      -0.455   2.415  -3.284  0.00  0.00     0.012 A 
ATOM     34  C   UNL d   1      -1.067   1.317  -3.881  0.00  0.00     0.001 A 
ATOM     35  C   UNL d   1      -0.432   0.086  -3.861  0.00  0.00     0.001 A 
ATOM     36  N   UNL d   1       5.743   4.083   0.376  0.00  0.00    -0.191 NA
ENDBRANCH  20  21
ENDBRANCH  19  20
ENDBRANCH  18  19
ENDBRANCH  17  18
ENDBRANCH  10  17
TORSDOF 5
