REMARK  6 active torsions:
REMARK  status: ('A' for Active; 'I' for Inactive)
REMARK    1  A    between atoms: S_17  and  C_1 
REMARK    2  A    between atoms: N_5  and  C_2 
REMARK    3  A    between atoms: N_4  and  C_3 
REMARK    4  A    between atoms: C_6  and  S_17 
REMARK    5  A    between atoms: N_25  and  C_10 
REMARK    6  A    between atoms: C_13  and  C_14 
ROOT
ATOM      1  C   UNL d   1       1.473  -0.357   0.021  0.00  0.00     0.074 A 
ATOM      2  C   UNL d   1       0.493  -1.369   0.017  0.00  0.00     0.123 A 
ATOM      3  C   UNL d   1       0.980   0.954  -0.138  0.00  0.00     0.123 A 
ATOM      4  C   UNL d   1      -1.349   0.227  -0.205  0.00  0.00     0.052 A 
ATOM      5  C   UNL d   1      -0.891  -1.092  -0.101  0.00  0.00     0.053 A 
ATOM      6  C   UNL d   1      -0.398   1.253  -0.238  0.00  0.00     0.053 A 
ENDROOT
BRANCH   1   7
ATOM      7  S   UNL d   1       3.170  -0.662   0.530  0.00  0.00    -0.047 SA
BRANCH   7   8
ATOM      8  C   UNL d   1       3.951  -0.946  -0.976  0.00  0.00     0.179 A 
ATOM      9  N   UNL d   1       5.296  -1.166  -1.001  0.00  0.00    -0.168 N 
ATOM     10  C   UNL d   1       5.620  -1.395  -2.304  0.00  0.00     0.692 A 
ATOM     11  H   UNL d   1       5.921  -1.161  -0.213  0.00  0.00     0.186 HD
ATOM     12  N   UNL d   1       4.533  -1.295  -3.036  0.00  0.00    -0.130 N 
ATOM     13  N   UNL d   1       3.468  -1.011  -2.191  0.00  0.00    -0.265 N 
ATOM     14  HN  UNL d   1       4.481  -1.406  -4.048  1.00  0.00     0.205 HD
ATOM     15  HN  UNL d   1       2.494  -0.879  -2.465  1.00  0.00     0.189 HD
BRANCH  10  16
ATOM     16  N   UNL d   1       6.884  -1.662  -2.668  0.00  0.00    -0.233 N 
ATOM     17  H   UNL d   1       7.586  -1.980  -2.014  0.00  0.00     0.174 HD
ATOM     18  H   UNL d   1       7.029  -1.999  -3.615  0.00  0.00     0.174 HD
ENDBRANCH  10  16
ENDBRANCH   7   8
ENDBRANCH   1   7
BRANCH   2  19
ATOM     19  N   UNL d   1       0.842  -2.765   0.247  0.00  0.00    -0.114 N 
ATOM     20  O   UNL d   1       1.659  -3.292  -0.513  0.00  0.00    -0.532 OA
ATOM     21  O   UNL d   1       0.253  -3.333   1.177  0.00  0.00    -0.532 OA
ENDBRANCH   2  19
BRANCH   3  22
ATOM     22  N   UNL d   1       1.877   2.096  -0.116  0.00  0.00    -0.114 N 
ATOM     23  O   UNL d   1       2.680   2.208  -1.048  0.00  0.00    -0.532 OA
ATOM     24  O   UNL d   1       1.734   2.894   0.819  0.00  0.00    -0.532 OA
ENDBRANCH   3  22
BRANCH   4  25
ATOM     25  C   UNL d   1      -2.829   0.551  -0.230  0.00  0.00     0.417 C 
ATOM     26  F   UNL d   1      -3.622  -0.554  -0.211  0.00  0.00    -0.166 F 
ATOM     27  F   UNL d   1      -3.204   1.301   0.841  0.00  0.00    -0.166 F 
ATOM     28  F   UNL d   1      -3.185   1.258  -1.333  0.00  0.00    -0.166 F 
ENDBRANCH   4  25
TORSDOF 6
