REMARK  5 active torsions:
REMARK  status: ('A' for Active; 'I' for Inactive)
REMARK    1  A    between atoms: N_14  and  C_3 
REMARK    2  A    between atoms: C_13  and  C_6 
REMARK    3  A    between atoms: S_16  and  C_9 
REMARK    4  A    between atoms: O_17  and  C_13 
REMARK    5  A    between atoms: C_19  and  O_17 
ROOT
ATOM      1  N   UNL d   1       0.301  -0.716   0.135  0.00  0.00    -0.072 N 
ATOM      2  C   UNL d   1       0.295   0.680   0.062  0.00  0.00     0.706 A 
ATOM      3  C   UNL d   1      -0.891  -1.479   0.151  0.00  0.00     0.136 A 
ATOM      4  N   UNL d   1       1.536   1.113   0.014  0.00  0.00    -0.167 N 
ATOM      5  HN  UNL d   1       1.866   2.076  -0.037  1.00  0.00     0.186 HD
ATOM      6  C   UNL d   1      -2.064  -0.811   0.059  0.00  0.00     0.096 A 
ATOM      7  N   UNL d   1       1.580  -1.166   0.117  0.00  0.00    -0.257 N 
ATOM      8  HN  UNL d   1       1.923  -2.126   0.146  1.00  0.00     0.190 HD
ATOM      9  C   UNL d   1       2.274  -0.031   0.050  0.00  0.00     0.174 A 
ATOM     10  N   UNL d   1      -0.868   1.389   0.034  0.00  0.00    -0.199 N 
ATOM     11  HN  UNL d   1      -0.883   2.409   0.016  1.00  0.00     0.183 HD
ATOM     12  C   UNL d   1      -1.957   0.680   0.031  0.00  0.00     0.127 A 
ENDROOT
BRANCH   6  13
ATOM     13  C   UNL d   1      -3.349  -1.531  -0.085  0.00  0.00     0.298 C 
ATOM     14  O   UNL d   1      -3.453  -2.745  -0.188  0.00  0.00    -0.259 OA
BRANCH  13  15
ATOM     15  O   UNL d   1      -4.367  -0.642  -0.209  0.00  0.00    -0.318 OA
BRANCH  15  16
ATOM     16  C   UNL d   1      -5.609  -1.190  -0.682  0.00  0.00     0.174 C 
ATOM     17  C   UNL d   1      -5.606  -1.155  -2.200  0.00  0.00     0.034 C 
ENDBRANCH  15  16
ENDBRANCH  13  15
ENDBRANCH   6  13
BRANCH   3  18
ATOM     18  N   UNL d   1      -0.742  -2.860   0.230  0.00  0.00    -0.286 NA
ATOM     19  H   UNL d   1       0.167  -3.197  -0.100  0.00  0.00     0.125 HD
ATOM     20  H   UNL d   1      -1.546  -3.406  -0.092  0.00  0.00     0.125 HD
ENDBRANCH   3  18
BRANCH   9  21
ATOM     21  S   UNL d   1       4.015  -0.068  -0.011  0.00  0.00    -0.097 SA
ATOM     22  C   UNL d   1       4.387   1.696  -0.002  0.00  0.00     0.099 C 
ENDBRANCH   9  21
TORSDOF 5
