REMARK  2 active torsions:
REMARK  status: ('A' for Active; 'I' for Inactive)
REMARK    1  A    between atoms: C_2  and  S_1 
REMARK    2  A    between atoms: C_5  and  S_1 
ROOT
ATOM      1  S   UNL d   1       0.861   0.200  -0.019  0.00  0.00     0.207 S 
ATOM      2  O   UNL d   1       0.693   1.549   0.486  0.00  0.00    -0.217 OA
ATOM      3  O   UNL d   1       0.008  -0.267  -1.102  0.00  0.00    -0.217 OA
ENDROOT
BRANCH   1   4
ATOM      4  C   UNL d   1       0.651  -1.001   1.315  0.00  0.00     0.076 A 
ATOM      5  C   UNL d   1       0.192  -0.601   2.596  0.00  0.00    -0.039 A 
ATOM      6  C   UNL d   1      -0.124  -1.594   3.547  0.00  0.00     0.015 A 
ATOM      7  C   UNL d   1      -0.047   0.820   3.035  0.00  0.00     0.050 C 
ATOM      8  C   UNL d   1       0.050  -2.951   3.281  0.00  0.00    -0.061 A 
ATOM      9  C   UNL d   1       0.559  -3.329   2.041  0.00  0.00     0.015 A 
ATOM     10  C   UNL d   1      -0.330  -3.973   4.311  0.00  0.00     0.048 C 
ATOM     11  C   UNL d   1       0.858  -2.380   1.042  0.00  0.00    -0.039 A 
ATOM     12  C   UNL d   1       1.403  -2.958  -0.239  0.00  0.00     0.050 C 
ENDBRANCH   1   4
BRANCH   1  13
ATOM     13  C   UNL d   1       2.542   0.151  -0.616  0.00  0.00     0.064 A 
ATOM     14  C   UNL d   1       2.773   0.417  -1.970  0.00  0.00     0.024 A 
ATOM     15  C   UNL d   1       4.063   0.304  -2.485  0.00  0.00     0.008 A 
ATOM     16  C   UNL d   1       5.125  -0.088  -1.659  0.00  0.00    -0.062 A 
ATOM     17  C   UNL d   1       4.885  -0.319  -0.296  0.00  0.00     0.008 A 
ATOM     18  C   UNL d   1       6.504  -0.225  -2.235  0.00  0.00     0.048 C 
ATOM     19  C   UNL d   1       3.595  -0.201   0.231  0.00  0.00     0.024 A 
ENDBRANCH   1  13
TORSDOF 2
