REMARK  6 active torsions:
REMARK  status: ('A' for Active; 'I' for Inactive)
REMARK    1  A    between atoms: C_2  and  S_1 
REMARK    2  A    between atoms: N_3  and  S_1 
REMARK    3  A    between atoms: C_7  and  N_3 
REMARK    4  A    between atoms: C_5  and  C_4 
REMARK       I    between atoms: N_11  and  C_5 
REMARK    5  A    between atoms: C_18  and  N_11 
REMARK    6  A    between atoms: C_13  and  C_18 
ROOT
ATOM      1  C   UNL d   1       2.064   2.068   2.334  0.00  0.00     0.054 A 
ATOM      2  C   UNL d   1       0.774   1.975   1.781  0.00  0.00     0.038 A 
ATOM      3  C   UNL d   1       2.208   2.504   3.663  0.00  0.00     0.019 A 
ATOM      4  C   UNL d   1      -0.337   2.362   2.544  0.00  0.00     0.025 A 
ATOM      5  C   UNL d   1       1.095   2.873   4.420  0.00  0.00     0.001 A 
ATOM      6  C   UNL d   1      -0.176   2.810   3.857  0.00  0.00     0.002 A 
ENDROOT
BRANCH   2   7
ATOM      7  N   UNL d   1       0.557   1.509   0.438  0.00  0.00    -0.180 NA
ATOM      8  H   UNL d   1       0.029   2.149  -0.162  0.00  0.00     0.146 HD
BRANCH   7   9
ATOM      9  S   UNL d   1      -0.076  -0.055   0.218  0.00  0.00     0.248 S 
ATOM     10  O   UNL d   1      -1.150  -0.246   1.172  0.00  0.00    -0.205 OA
ATOM     11  O   UNL d   1      -0.347  -0.166  -1.196  0.00  0.00    -0.205 OA
BRANCH   9  12
ATOM     12  C   UNL d   1       1.230  -1.165   0.636  0.00  0.00     0.113 A 
ATOM     13  C   UNL d   1       2.175  -1.527  -0.319  0.00  0.00     0.142 A 
ATOM     14  C   UNL d   1       3.118  -2.517  -0.044  0.00  0.00     0.086 A 
ATOM     15  F   UNL d   1       2.219  -0.932  -1.518  0.00  0.00    -0.204 F 
ATOM     16  C   UNL d   1       3.098  -3.149   1.192  0.00  0.00     0.119 A 
ATOM     17  C   UNL d   1       2.161  -2.800   2.160  0.00  0.00     0.044 A 
ATOM     18  F   UNL d   1       3.980  -4.123   1.452  0.00  0.00    -0.206 F 
ATOM     19  C   UNL d   1       1.220  -1.806   1.883  0.00  0.00     0.031 A 
ENDBRANCH   9  12
ENDBRANCH   7   9
ENDBRANCH   2   7
BRANCH   1  20
ATOM     20  C   UNL d   1       3.326   1.777   1.585  0.00  0.00     0.253 C 
ATOM     21  N   UNL d   1       3.256   1.828   0.213  0.00  0.00    -0.356 N 
ATOM     22  H   UNL d   1       2.337   1.886  -0.205  0.00  0.00     0.162 HD
ATOM     23  O   UNL d   1       4.361   1.527   2.194  0.00  0.00    -0.268 OA
BRANCH  21  24
ATOM     24  C   UNL d   1       4.367   1.452  -0.622  0.00  0.00     0.127 C 
BRANCH  24  25
ATOM     25  C   UNL d   1       4.200   1.846  -2.058  0.00  0.00     0.003 A 
ATOM     26  C   UNL d   1       3.828   3.263  -2.420  0.00  0.00     0.007 A 
ATOM     27  C   UNL d   1       2.886   2.137  -2.754  0.00  0.00     0.007 A 
ENDBRANCH  24  25
ENDBRANCH  21  24
ENDBRANCH   1  20
TORSDOF 6
