REMARK  3 active torsions:
REMARK  status: ('A' for Active; 'I' for Inactive)
REMARK    1  A    between atoms: C_4  and  C_1 
REMARK    2  A    between atoms: N_2  and  C_3 
REMARK       I    between atoms: N_5  and  C_4 
REMARK    3  A    between atoms: C_6  and  N_5 
ROOT
ATOM      1  C   UNL d   1       3.823  -0.206   0.385  0.00  0.00     0.259 C 
ATOM      2  N   UNL d   1       4.531  -1.353   0.130  0.00  0.00    -0.309 N 
ATOM      3  O   UNL d   1       4.433   0.801   0.743  0.00  0.00    -0.267 OA
ATOM      4  H   UNL d   1       5.494  -1.279   0.432  0.00  0.00     0.170 HD
ENDROOT
BRANCH   1   5
ATOM      5  C   UNL d   1       2.345  -0.093   0.235  0.00  0.00     0.065 C 
ATOM      6  C   UNL d   1       1.399  -1.026   0.682  0.00  0.00     0.120 C 
ATOM      7  C   UNL d   1       0.035  -0.876   0.383  0.00  0.00     0.060 C 
ATOM      8  C   UNL d   1      -0.400   0.276  -0.262  0.00  0.00     0.036 C 
ATOM      9  C   UNL d   1       0.503   1.283  -0.591  0.00  0.00     0.025 C 
ATOM     10 CL   UNL d   1      -2.071   0.478  -0.616  0.00  0.00    -0.084 Cl
ATOM     11  C   UNL d   1       1.872   1.090  -0.359  0.00  0.00     0.021 C 
BRANCH   6  12
ATOM     12  N   UNL d   1       1.770  -2.120   1.577  0.00  0.00    -0.115 N 
ATOM     13  O   UNL d   1       2.678  -1.920   2.391  0.00  0.00    -0.532 OA
ATOM     14  O   UNL d   1       1.088  -3.158   1.523  0.00  0.00    -0.532 OA
ENDBRANCH   6  12
ENDBRANCH   1   5
BRANCH   2  15
ATOM     15  C   UNL d   1       4.145  -2.553  -0.471  0.00  0.00     0.108 A 
ATOM     16  N   UNL d   1       2.948  -2.650  -1.077  0.00  0.00    -0.346 N 
ATOM     17  C   UNL d   1       2.574  -3.858  -1.568  0.00  0.00     0.007 A 
ATOM     18  HN  UNL d   1       2.338  -1.837  -1.164  1.00  0.00     0.167 HD
ATOM     19  C   UNL d   1       1.215  -3.946  -2.195  0.00  0.00     0.068 C 
ATOM     20  C   UNL d   1       3.386  -4.983  -1.497  0.00  0.00     0.025 A 
ATOM     21  C   UNL d   1       4.631  -4.863  -0.893  0.00  0.00     0.006 A 
ATOM     22  C   UNL d   1       5.022  -3.628  -0.379  0.00  0.00     0.049 A 
ENDBRANCH   2  15
TORSDOF 3
