REMARK  3 active torsions:
REMARK  status: ('A' for Active; 'I' for Inactive)
REMARK    1  A    between atoms: S_2  and  C_1 
REMARK    2  A    between atoms: N_9  and  S_2 
REMARK    3  A    between atoms: C_11  and  N_9 
ROOT
ATOM      1  S   UNL d   1       3.527   0.060  -0.075  0.00  0.00     0.259 S 
ATOM      2  O   UNL d   1       3.898  -0.831  -1.148  0.00  0.00    -0.204 OA
ATOM      3  O   UNL d   1       3.869   1.466  -0.058  0.00  0.00    -0.204 OA
ENDROOT
BRANCH   1   4
ATOM      4  C   UNL d   1       1.781   0.066  -0.075  0.00  0.00     0.161 A 
ATOM      5  N   UNL d   1       1.030  -0.413   0.988  0.00  0.00    -0.335 N 
ATOM      6  C   UNL d   1      -0.231  -0.240   0.635  0.00  0.00     0.079 A 
ATOM      7  HN  UNL d   1       1.378  -0.815   1.859  1.00  0.00     0.168 HD
ATOM      8  C   UNL d   1      -1.423  -0.636   1.429  0.00  0.00     0.089 C 
ATOM      9  N   UNL d   1      -0.311   0.367  -0.599  0.00  0.00    -0.348 N 
ATOM     10  C   UNL d   1       0.959   0.556  -1.066  0.00  0.00     0.135 A 
ATOM     11  C   UNL d   1      -1.523   0.753  -1.282  0.00  0.00     0.156 C 
ENDBRANCH   1   4
BRANCH   1  12
ATOM     12  N   UNL d   1       4.028  -0.608   1.408  0.00  0.00    -0.209 NA
ATOM     13  H   UNL d   1       3.430  -0.223   2.143  0.00  0.00     0.140 HD
BRANCH  12  14
ATOM     14  C   UNL d   1       4.236  -2.073   1.473  0.00  0.00     0.086 C 
ATOM     15  C   UNL d   1       2.985  -2.895   1.215  0.00  0.00     0.160 C 
ATOM     16  S   UNL d   1       3.404  -4.511   1.833  0.00  0.00     0.146 S 
ATOM     17  O   UNL d   1       4.059  -5.254   0.778  0.00  0.00    -0.228 OA
ATOM     18  O   UNL d   1       2.273  -5.039   2.564  0.00  0.00    -0.228 OA
ATOM     19  C   UNL d   1       4.648  -3.969   2.993  0.00  0.00     0.142 C 
ATOM     20  C   UNL d   1       4.681  -2.447   2.895  0.00  0.00     0.036 C 
ENDBRANCH  12  14
ENDBRANCH   1  12
TORSDOF 3
