REMARK  1 active torsions:
REMARK  status: ('A' for Active; 'I' for Inactive)
REMARK    1  A    between atoms: N_12  and  C_8 
ROOT
ATOM      1  C   UNL d   1       0.264   0.781  -0.034  0.00  0.00     0.088 A 
ATOM      2  S   UNL d   1       2.567   0.061   0.033  0.00  0.00     0.068 SA
ATOM      3  N   UNL d   1       1.494   1.328  -0.032  0.00  0.00    -0.309 N 
ATOM      4  HN  UNL d   1       1.721   2.322  -0.063  1.00  0.00     0.176 HD
ATOM      5  C   UNL d   1       0.286  -0.725   0.032  0.00  0.00     0.068 A 
ATOM      6  N   UNL d   1       1.527  -1.234   0.076  0.00  0.00    -0.310 N 
ATOM      7  HN  UNL d   1       1.782  -2.221   0.127  1.00  0.00     0.176 HD
ATOM      8  C   UNL d   1      -0.971   1.496  -0.082  0.00  0.00     0.035 A 
ATOM      9  C   UNL d   1      -2.104  -0.725  -0.019  0.00  0.00     0.004 A 
ATOM     10  C   UNL d   1      -0.915  -1.472   0.042  0.00  0.00     0.032 A 
ATOM     11  C   UNL d   1      -2.129   0.691  -0.083  0.00  0.00     0.026 A 
ENDROOT
BRANCH   8  12
ATOM     12  N   UNL d   1      -1.071   2.893  -0.196  0.00  0.00    -0.301 NA
ATOM     13  H   UNL d   1      -0.148   3.326  -0.137  0.00  0.00     0.124 HD
ATOM     14  H   UNL d   1      -1.726   3.303   0.462  0.00  0.00     0.124 HD
ENDBRANCH   8  12
TORSDOF 1
