REMARK  8 active torsions:
REMARK  status: ('A' for Active; 'I' for Inactive)
REMARK    1  A    between atoms: N_5  and  S_1 
REMARK    2  A    between atoms: C_11  and  S_1 
REMARK    3  A    between atoms: C_14  and  C_4 
REMARK    4  A    between atoms: N_9  and  N_5 
REMARK    5  A    between atoms: C_6  and  C_28 
REMARK       I    between atoms: C_10  and  N_9 
REMARK    6  A    between atoms: C_23  and  C_10 
REMARK    7  A    between atoms: S_20  and  C_23 
REMARK    8  A    between atoms: C_28  and  S_20 
ROOT
ATOM      1  N   UNL d   1       0.716   0.872  -4.028  0.00  0.00    -0.260 N 
ATOM      2  C   UNL d   1       0.437   2.014  -3.304  0.00  0.00     0.245 C 
ATOM      3  O   UNL d   1      -0.117   1.985  -2.205  0.00  0.00    -0.271 OA
ATOM      4  H   UNL d   1       1.117   0.916  -4.965  0.00  0.00     0.190 HD
ENDROOT
BRANCH   2   5
ATOM      5  C   UNL d   1       0.948   3.301  -3.942  0.00  0.00     0.178 C 
BRANCH   5   6
ATOM      6  S   UNL d   1       0.249   3.503  -5.618  0.00  0.00    -0.153 SA
BRANCH   6   7
ATOM      7  C   UNL d   1       0.928   5.145  -6.042  0.00  0.00     0.139 C 
BRANCH   7   8
ATOM      8  C   UNL d   1       2.418   5.135  -6.196  0.00  0.00     0.060 A 
ATOM      9  N   UNL d   1       3.272   5.446  -5.240  0.00  0.00    -0.352 N 
ATOM     10  C   UNL d   1       4.576   5.339  -5.707  0.00  0.00     0.049 A 
ATOM     11  HN  UNL d   1       3.012   5.725  -4.294  1.00  0.00     0.166 HD
ATOM     12  C   UNL d   1       4.683   4.969  -7.034  0.00  0.00     0.081 A 
ATOM     13  S   UNL d   1       3.129   4.716  -7.707  0.00  0.00    -0.086 SA
BRANCH  10  14
ATOM     14  C   UNL d   1       5.720   5.606  -4.838  0.00  0.00    -0.009 A 
ATOM     15  C   UNL d   1       6.966   4.997  -5.056  0.00  0.00     0.015 A 
ATOM     16  C   UNL d   1       8.041   5.241  -4.195  0.00  0.00     0.024 A 
ATOM     17  C   UNL d   1       7.878   6.096  -3.109  0.00  0.00     0.034 A 
ATOM     18  C   UNL d   1       6.652   6.714  -2.879  0.00  0.00     0.024 A 
ATOM     19 CL   UNL d   1       9.197   6.378  -2.041  0.00  0.00    -0.084 Cl
ATOM     20  C   UNL d   1       5.576   6.468  -3.740  0.00  0.00     0.015 A 
ENDBRANCH  10  14
ENDBRANCH   7   8
ENDBRANCH   6   7
ENDBRANCH   5   6
ENDBRANCH   2   5
BRANCH   1  21
ATOM     21  N   UNL d   1       0.314  -0.425  -3.520  0.00  0.00    -0.220 N 
ATOM     22  H   UNL d   1      -0.159  -0.487  -2.612  0.00  0.00     0.200 HD
BRANCH  21  23
ATOM     23  S   UNL d   1       0.621  -1.786  -4.461  0.00  0.00     0.276 S 
ATOM     24  O   UNL d   1       2.061  -1.952  -4.522  0.00  0.00    -0.199 OA
ATOM     25  O   UNL d   1      -0.154  -1.659  -5.678  0.00  0.00    -0.199 OA
BRANCH  23  26
ATOM     26  C   UNL d   1      -0.049  -3.136  -3.522  0.00  0.00     0.081 A 
ATOM     27  C   UNL d   1      -1.378  -3.525  -3.726  0.00  0.00     0.027 A 
ATOM     28  C   UNL d   1      -1.861  -4.689  -3.120  0.00  0.00     0.025 A 
ATOM     29  C   UNL d   1      -1.014  -5.461  -2.324  0.00  0.00     0.034 A 
ATOM     30  C   UNL d   1       0.309  -5.071  -2.112  0.00  0.00     0.025 A 
ATOM     31 CL   UNL d   1      -1.596  -6.922  -1.625  0.00  0.00    -0.084 Cl
ATOM     32  C   UNL d   1       0.797  -3.908  -2.715  0.00  0.00     0.027 A 
ENDBRANCH  23  26
ENDBRANCH  21  23
ENDBRANCH   1  21
TORSDOF 8
