REMARK  1 active torsions:
REMARK  status: ('A' for Active; 'I' for Inactive)
REMARK    1  A    between atoms: C_13  and  C_5 
ROOT
ATOM      1  S   UNL d   1      -1.189   1.223   0.324  0.00  0.00     0.203 S 
ATOM      2  C   UNL d   1      -1.523  -0.438   0.014  0.00  0.00     0.142 C 
ATOM      3  C   UNL d   1       0.511   1.480  -0.005  0.00  0.00     0.229 C 
ATOM      4  C   UNL d   1      -0.557  -1.373  -0.065  0.00  0.00    -0.051 C 
ATOM      5  C   UNL d   1       1.465   0.289   0.113  0.00  0.00     0.055 C 
ATOM      6  C   UNL d   1       0.927  -1.141  -0.058  0.00  0.00     0.047 C 
ATOM      7  C   UNL d   1      -2.906  -0.733   0.004  0.00  0.00     0.112 C 
ATOM      8  C   UNL d   1       0.627   2.149  -1.299  0.00  0.00     0.080 C 
ATOM      9  O   UNL d   1      -1.362   1.425   1.754  0.00  0.00    -0.220 OA
ATOM     10  O   UNL d   1      -1.979   2.025  -0.590  0.00  0.00    -0.220 OA
ATOM     11  N   UNL d   1      -4.032  -1.026   0.009  0.00  0.00    -0.191 NA
ATOM     12  N   UNL d   1       0.813   2.715  -2.299  0.00  0.00    -0.196 NA
ATOM     13  C   UNL d   1      -0.895  -2.848  -0.139  0.00  0.00     0.046 C 
ENDROOT
BRANCH   5  14
ATOM     14  C   UNL d   1       2.288   0.403   1.391  0.00  0.00    -0.051 A 
ATOM     15  C   UNL d   1       1.704   0.305   2.663  0.00  0.00     0.007 A 
ATOM     16  C   UNL d   1       2.480   0.493   3.807  0.00  0.00     0.001 A 
ATOM     17  C   UNL d   1       3.841   0.764   3.697  0.00  0.00     0.000 A 
ATOM     18  C   UNL d   1       4.434   0.845   2.438  0.00  0.00     0.001 A 
ATOM     19  C   UNL d   1       3.665   0.666   1.294  0.00  0.00     0.007 A 
ENDBRANCH   5  14
TORSDOF 1
