REMARK  3 active torsions:
REMARK  status: ('A' for Active; 'I' for Inactive)
REMARK    1  A    between atoms: C_2  and  C_1 
REMARK    2  A    between atoms: C_12  and  N_3 
REMARK    3  A    between atoms: C_14  and  C_8 
ROOT
ATOM      1  C   UNL d   1      -0.056  -1.244   0.030  0.00  0.00     0.153 C 
ATOM      2  N   UNL d   1       1.190  -0.705   0.309  0.00  0.00    -0.224 N 
ATOM      3  N   UNL d   1       1.010   0.592   0.657  0.00  0.00     0.001 NA
ATOM      4  N   UNL d   1      -0.250   0.871   0.367  0.00  0.00    -0.007 NA
ATOM      5  N   UNL d   1      -0.918  -0.249  -0.050  0.00  0.00    -0.269 N 
ATOM      6  HN  UNL d   1      -1.888  -0.303  -0.360  1.00  0.00     0.185 HD
ENDROOT
BRANCH   1   7
ATOM      7  C   UNL d   1      -0.444  -2.671  -0.065  0.00  0.00     0.065 A 
ATOM      8  C   UNL d   1      -1.494  -3.199  -0.783  0.00  0.00     0.124 A 
ATOM      9  O   UNL d   1      -1.530  -4.549  -0.562  0.00  0.00    -0.236 OA
ATOM     10  N   UNL d   1      -0.503  -4.916   0.292  0.00  0.00    -0.271 N 
ATOM     11  C   UNL d   1       0.132  -3.781   0.586  0.00  0.00     0.132 A 
ATOM     12  HN  UNL d   1      -0.280  -5.854   0.626  1.00  0.00     0.194 HD
BRANCH   8  13
ATOM     13  C   UNL d   1      -2.468  -2.699  -1.744  0.00  0.00     0.001 A 
ATOM     14  C   UNL d   1      -2.126  -1.679  -2.645  0.00  0.00     0.016 A 
ATOM     15  C   UNL d   1      -3.057  -1.194  -3.567  0.00  0.00     0.024 A 
ATOM     16  C   UNL d   1      -4.340  -1.734  -3.601  0.00  0.00     0.034 A 
ATOM     17  C   UNL d   1      -4.693  -2.759  -2.727  0.00  0.00     0.024 A 
ATOM     18 CL   UNL d   1      -5.489  -1.133  -4.730  0.00  0.00    -0.084 Cl
ATOM     19  C   UNL d   1      -3.760  -3.241  -1.804  0.00  0.00     0.016 A 
ENDBRANCH   8  13
ENDBRANCH   1   7
BRANCH   2  20
ATOM     20  C   UNL d   1       2.485  -1.251   0.147  0.00  0.00     0.056 A 
ATOM     21  C   UNL d   1       2.711  -2.316  -0.735  0.00  0.00     0.032 A 
ATOM     22  C   UNL d   1       3.996  -2.836  -0.893  0.00  0.00     0.009 A 
ATOM     23  C   UNL d   1       5.072  -2.296  -0.181  0.00  0.00    -0.062 A 
ATOM     24  C   UNL d   1       4.851  -1.206   0.668  0.00  0.00     0.009 A 
ATOM     25  C   UNL d   1       6.447  -2.862  -0.374  0.00  0.00     0.048 C 
ATOM     26  C   UNL d   1       3.567  -0.676   0.826  0.00  0.00     0.032 A 
ENDBRANCH   2  20
TORSDOF 3
