REMARK  5 active torsions:
REMARK  status: ('A' for Active; 'I' for Inactive)
REMARK    1  A    between atoms: C_7  and  C_1 
REMARK    2  A    between atoms: C_8  and  C_6 
REMARK    3  A    between atoms: C_9  and  C_12 
REMARK       I    between atoms: C_12  and  N_21 
REMARK    4  A    between atoms: C_20  and  C_14 
REMARK    5  A    between atoms: N_21  and  N_16 
ROOT
ATOM      1  C   UNL d   1       2.536   1.667  -0.053  0.00  0.00     0.034 A 
ATOM      2  S   UNL d   1       2.893   2.963   1.004  0.00  0.00    -0.087 SA
ATOM      3  C   UNL d   1       3.478   1.552  -1.054  0.00  0.00     0.023 A 
ATOM      4  C   UNL d   1       4.338   3.332   0.172  0.00  0.00     0.022 A 
ATOM      5  C   UNL d   1       4.517   2.516  -0.926  0.00  0.00     0.021 A 
ENDROOT
BRANCH   4   6
ATOM      6  C   UNL d   1       5.201   4.386   0.643  0.00  0.00     0.126 C 
ATOM      7  N   UNL d   1       6.312   4.622   0.022  0.00  0.00    -0.308 N 
ATOM      8  HN  UNL d   1       6.595   4.074  -0.790  1.00  0.00     0.186 HD
BRANCH   7   9
ATOM      9  N   UNL d   1       7.087   5.634   0.500  0.00  0.00    -0.266 N 
ATOM     10  C   UNL d   1       8.302   5.897  -0.110  0.00  0.00     0.271 C 
ATOM     11  O   UNL d   1       8.771   5.254  -1.044  0.00  0.00    -0.266 OA
ATOM     12  H   UNL d   1       6.769   6.178   1.297  0.00  0.00     0.190 HD
BRANCH  10  13
ATOM     13  C   UNL d   1       9.044   7.100   0.366  0.00  0.00     0.055 A 
ATOM     14  C   UNL d   1       9.020   7.606   1.674  0.00  0.00     0.051 A 
ATOM     15  C   UNL d   1       9.717   8.781   1.986  0.00  0.00     0.048 A 
ATOM     16 CL   UNL d   1       8.187   6.838   2.981  0.00  0.00    -0.083 Cl
ATOM     17  C   UNL d   1      10.448   9.445   1.003  0.00  0.00     0.035 A 
ATOM     18  C   UNL d   1      10.508   8.940  -0.290  0.00  0.00     0.025 A 
ATOM     19 CL   UNL d   1      11.279  10.899   1.392  0.00  0.00    -0.084 Cl
ATOM     20  C   UNL d   1       9.813   7.770  -0.606  0.00  0.00     0.020 A 
ENDBRANCH  10  13
ENDBRANCH   7   9
ENDBRANCH   4   6
BRANCH   1  21
ATOM     21  C   UNL d   1       1.363   0.743   0.083  0.00  0.00     0.067 A 
ATOM     22  C   UNL d   1       0.310   0.829   1.013  0.00  0.00     0.068 A 
ATOM     23  C   UNL d   1      -0.506  -0.263   0.762  0.00  0.00     0.136 A 
ATOM     24  N   UNL d   1       0.113  -0.951  -0.246  0.00  0.00    -0.292 N 
ATOM     25  N   UNL d   1       1.216  -0.326  -0.706  0.00  0.00    -0.297 N 
ATOM     26  C   UNL d   1      -0.185  -2.235  -0.838  0.00  0.00     0.178 C 
ATOM     27  HN  UNL d   1       1.809  -0.608  -1.486  1.00  0.00     0.187 HD
BRANCH  23  28
ATOM     28  C   UNL d   1      -1.763  -0.647   1.434  0.00  0.00     0.434 C 
ATOM     29  F   UNL d   1      -2.385  -1.719   0.892  0.00  0.00    -0.165 F 
ATOM     30  F   UNL d   1      -1.550  -0.940   2.741  0.00  0.00    -0.165 F 
ATOM     31  F   UNL d   1      -2.661   0.371   1.405  0.00  0.00    -0.165 F 
ENDBRANCH  23  28
ENDBRANCH   1  21
TORSDOF 5
