REMARK  3 active torsions:
REMARK  status: ('A' for Active; 'I' for Inactive)
REMARK    1  A    between atoms: C_2  and  S_1 
REMARK    2  A    between atoms: N_4  and  S_1 
REMARK    3  A    between atoms: C_7  and  N_4 
ROOT
ATOM      1  S   UNL d   1       0.957  -0.033  -0.085  0.00  0.00     0.249 S 
ATOM      2  O   UNL d   1       0.300   0.089   1.198  0.00  0.00    -0.205 OA
ATOM      3  O   UNL d   1       2.399  -0.060  -0.208  0.00  0.00    -0.205 OA
ENDROOT
BRANCH   1   4
ATOM      4  C   UNL d   1       0.475   1.403  -0.923  0.00  0.00     0.105 A 
ATOM      5  C   UNL d   1      -0.829   1.726  -1.215  0.00  0.00     0.099 A 
ATOM      6  S   UNL d   1      -0.973   3.197  -2.053  0.00  0.00    -0.064 SA
ATOM      7 CL   UNL d   1      -2.266   0.847  -0.861  0.00  0.00    -0.075 Cl
ATOM      8  C   UNL d   1       0.706   3.414  -2.027  0.00  0.00     0.077 A 
ATOM      9  C   UNL d   1       1.381   2.401  -1.397  0.00  0.00     0.058 A 
ATOM     10 CL   UNL d   1       1.396   4.810  -2.753  0.00  0.00    -0.076 Cl
ENDBRANCH   1   4
BRANCH   1  11
ATOM     11  N   UNL d   1       0.293  -1.364  -0.884  0.00  0.00    -0.165 NA
ATOM     12  H   UNL d   1      -0.724  -1.285  -0.838  0.00  0.00     0.147 HD
BRANCH  11  13
ATOM     13  C   UNL d   1       0.727  -1.595  -2.184  0.00  0.00     0.117 A 
ATOM     14  N   UNL d   1      -0.045  -1.292  -3.226  0.00  0.00    -0.249 N 
ATOM     15  O   UNL d   1       0.673  -1.685  -4.343  0.00  0.00    -0.241 OA
ATOM     16  HN  UNL d   1      -0.970  -0.863  -3.206  1.00  0.00     0.196 HD
ATOM     17  C   UNL d   1       1.844  -2.257  -3.949  0.00  0.00     0.075 A 
ATOM     18  C   UNL d   1       1.931  -2.208  -2.579  0.00  0.00     0.079 A 
ATOM     19  C   UNL d   1       2.703  -2.793  -5.020  0.00  0.00     0.079 C 
ENDBRANCH  11  13
ENDBRANCH   1  11
TORSDOF 3
