REMARK  7 active torsions:
REMARK  status: ('A' for Active; 'I' for Inactive)
REMARK    1  A    between atoms: N_3  and  C_1 
REMARK    2  A    between atoms: S_15  and  C_8 
REMARK    3  A    between atoms: C_16  and  S_15 
REMARK    4  A    between atoms: C_17  and  C_16 
REMARK    5  A    between atoms: C_20  and  C_17 
REMARK    6  A    between atoms: C_18  and  C_19 
REMARK    7  A    between atoms: C_19  and  C_20 
ROOT
ATOM      1  C   UNL d   1      -1.686  -0.972   1.070  0.00  0.00     0.149 A 
ATOM      2  C   UNL d   1      -0.422  -0.331   1.057  0.00  0.00     0.101 A 
ATOM      3  C   UNL d   1      -0.072   0.558  -0.109  0.00  0.00     0.069 A 
ATOM      4  N   UNL d   1       0.564  -0.389   1.969  0.00  0.00    -0.308 N 
ATOM      5  HN  UNL d   1       0.547  -0.905   2.849  1.00  0.00     0.176 HD
ATOM      6  S   UNL d   1       1.815   0.537   1.393  0.00  0.00     0.068 SA
ATOM      7  C   UNL d   1      -2.594  -0.757   0.010  0.00  0.00     0.036 A 
ATOM      8  N   UNL d   1       1.153   1.094  -0.024  0.00  0.00    -0.310 N 
ATOM      9  HN  UNL d   1       1.593   1.721  -0.697  1.00  0.00     0.176 HD
ATOM     10  C   UNL d   1      -0.992   0.763  -1.167  0.00  0.00     0.034 A 
ATOM     11  C   UNL d   1      -2.230   0.090  -1.073  0.00  0.00     0.023 A 
ENDROOT
BRANCH   7  12
ATOM     12  S   UNL d   1      -4.133  -1.676  -0.131  0.00  0.00    -0.127 SA
BRANCH  12  13
ATOM     13  C   UNL d   1      -5.391  -0.340  -0.169  0.00  0.00     0.079 C 
BRANCH  13  14
ATOM     14  C   UNL d   1      -6.773  -0.995  -0.248  0.00  0.00     0.010 C 
BRANCH  14  15
ATOM     15  C   UNL d   1      -7.912   0.028  -0.294  0.00  0.00     0.001 C 
BRANCH  15  16
ATOM     16  C   UNL d   1      -9.271  -0.677  -0.375  0.00  0.00    -0.000 C 
BRANCH  16  17
ATOM     17  C   UNL d   1     -10.426   0.323  -0.425  0.00  0.00    -0.005 C 
ATOM     18  C   UNL d   1     -11.772  -0.383  -0.504  0.00  0.00     0.005 C 
ENDBRANCH  16  17
ENDBRANCH  15  16
ENDBRANCH  14  15
ENDBRANCH  13  14
ENDBRANCH  12  13
ENDBRANCH   7  12
BRANCH   1  19
ATOM     19  N   UNL d   1      -1.974  -1.820   2.189  0.00  0.00    -0.112 N 
ATOM     20  O   UNL d   1      -1.294  -2.844   2.320  0.00  0.00    -0.532 OA
ATOM     21  O   UNL d   1      -2.895  -1.461   2.939  0.00  0.00    -0.532 OA
ENDBRANCH   1  19
TORSDOF 7
