REMARK  3 active torsions:
REMARK  status: ('A' for Active; 'I' for Inactive)
REMARK    1  A    between atoms: C_4  and  C_1 
REMARK    2  A    between atoms: C_3  and  C_2 
REMARK       I    between atoms: N_13  and  C_4 
REMARK    3  A    between atoms: C_16  and  N_13 
ROOT
ATOM      1  C   UNL d   1      -0.140  -1.136   0.265  0.00  0.00     0.094 A 
ATOM      2  C   UNL d   1      -1.403  -0.593   0.458  0.00  0.00     0.145 A 
ATOM      3  O   UNL d   1      -1.344   0.752   0.212  0.00  0.00    -0.234 OA
ATOM      4  N   UNL d   1      -0.067   1.140  -0.080  0.00  0.00    -0.264 N 
ATOM      5  HN  UNL d   1       0.258   2.082  -0.298  1.00  0.00     0.194 HD
ATOM      6  C   UNL d   1       0.664   0.027  -0.020  0.00  0.00     0.047 A 
ATOM      7  C   UNL d   1       2.136   0.119  -0.210  0.00  0.00     0.071 C 
ENDROOT
BRANCH   1   8
ATOM      8  C   UNL d   1       0.418  -2.485   0.359  0.00  0.00     0.261 C 
ATOM      9  N   UNL d   1      -0.435  -3.547   0.576  0.00  0.00    -0.323 N 
ATOM     10  H   UNL d   1      -1.433  -3.367   0.592  0.00  0.00     0.169 HD
ATOM     11  O   UNL d   1       1.632  -2.621   0.209  0.00  0.00    -0.267 OA
BRANCH   9  12
ATOM     12  C   UNL d   1      -0.052  -4.890   0.837  0.00  0.00     0.035 A 
ATOM     13  C   UNL d   1       1.267  -5.294   1.059  0.00  0.00     0.030 A 
ATOM     14  C   UNL d   1       1.569  -6.616   1.398  0.00  0.00     0.009 A 
ATOM     15  C   UNL d   1       0.557  -7.570   1.511  0.00  0.00    -0.062 A 
ATOM     16  C   UNL d   1      -0.762  -7.182   1.262  0.00  0.00     0.009 A 
ATOM     17  C   UNL d   1       0.898  -8.962   1.954  0.00  0.00     0.048 C 
ATOM     18  C   UNL d   1      -1.065  -5.853   0.930  0.00  0.00     0.030 A 
ENDBRANCH   9  12
ENDBRANCH   1   8
BRANCH   2  19
ATOM     19  C   UNL d   1      -2.695  -1.180   0.911  0.00  0.00     0.094 A 
ATOM     20  N   UNL d   1      -2.903  -2.471   1.190  0.00  0.00    -0.258 N 
ATOM     21  O   UNL d   1      -4.203  -2.544   1.675  0.00  0.00    -0.242 OA
ATOM     22  HN  UNL d   1      -2.245  -3.241   1.071  1.00  0.00     0.195 HD
ATOM     23  C   UNL d   1      -4.761  -1.303   1.665  0.00  0.00     0.074 A 
ATOM     24  C   UNL d   1      -3.856  -0.410   1.153  0.00  0.00     0.068 A 
ATOM     25  C   UNL d   1      -6.125  -1.169   2.207  0.00  0.00     0.079 C 
ENDBRANCH   2  19
TORSDOF 3
