REMARK  3 active torsions:
REMARK  status: ('A' for Active; 'I' for Inactive)
REMARK    1  A    between atoms: C_5  and  C_1 
REMARK    2  A    between atoms: C_11  and  C_4 
REMARK    3  A    between atoms: C_10  and  C_5 
ROOT
ATOM      1  C   UNL d   1      -0.056  -2.641   0.002  0.00  0.00     0.218 C 
ATOM      2  C   UNL d   1      -0.609  -3.088   1.287  0.00  0.00     0.078 C 
ATOM      3  N   UNL d   1      -1.004  -3.433   2.325  0.00  0.00    -0.196 NA
ENDROOT
BRANCH   1   4
ATOM      4  C   UNL d   1       0.145  -1.152   0.013  0.00  0.00     0.076 A 
ATOM      5  N   UNL d   1       1.332  -0.579  -0.052  0.00  0.00    -0.351 N 
ATOM      6  C   UNL d   1       1.210   0.804  -0.017  0.00  0.00     0.049 A 
ATOM      7  HN  UNL d   1       2.217  -1.083  -0.119  1.00  0.00     0.166 HD
ATOM      8  C   UNL d   1      -0.090   1.262   0.064  0.00  0.00     0.081 A 
ATOM      9  S   UNL d   1      -1.184  -0.054   0.093  0.00  0.00    -0.085 SA
BRANCH   6  10
ATOM     10  C   UNL d   1       2.385   1.671  -0.029  0.00  0.00    -0.009 A 
ATOM     11  C   UNL d   1       2.333   2.979  -0.540  0.00  0.00     0.017 A 
ATOM     12  C   UNL d   1       3.468   3.795  -0.520  0.00  0.00     0.043 A 
ATOM     13  C   UNL d   1       4.657   3.306   0.006  0.00  0.00     0.116 A 
ATOM     14  C   UNL d   1       4.736   2.013   0.506  0.00  0.00     0.043 A 
ATOM     15  F   UNL d   1       5.740   4.093   0.030  0.00  0.00    -0.206 F 
ATOM     16  C   UNL d   1       3.602   1.195   0.485  0.00  0.00     0.017 A 
ENDBRANCH   6  10
ENDBRANCH   1   4
BRANCH   1  17
ATOM     17  C   UNL d   1      -0.922  -3.043  -1.175  0.00  0.00     0.147 C 
ATOM     18  O   UNL d   1      -1.989  -3.648  -1.052  0.00  0.00    -0.297 OA
ATOM     19  C   UNL d   1      -0.408  -2.736  -2.563  0.00  0.00     0.093 C 
ENDBRANCH   1  17
TORSDOF 3
