REMARK  6 active torsions:
REMARK  status: ('A' for Active; 'I' for Inactive)
REMARK    1  A    between atoms: C_4  and  C_1 
REMARK    2  A    between atoms: C_2  and  N_5 
REMARK    3  A    between atoms: N_10  and  C_3 
REMARK    4  A    between atoms: N_5  and  C_4 
REMARK    5  A    between atoms: C_18  and  N_10 
REMARK    6  A    between atoms: C_12  and  C_18 
ROOT
ATOM      1  C   UNL d   1      -1.262   4.555   0.048  0.00  0.00     0.122 C 
ATOM      2  C   UNL d   1      -2.172   5.096   0.896  0.00  0.00     0.122 C 
ATOM      3  C   UNL d   1      -0.323   5.375  -0.666  0.00  0.00     0.114 C 
ATOM      4  C   UNL d   1      -2.270   6.521   1.065  0.00  0.00     0.114 C 
ATOM      5  N   UNL d   1       0.456   5.995  -1.262  0.00  0.00    -0.190 NA
ATOM      6  N   UNL d   1      -2.375   7.665   1.240  0.00  0.00    -0.190 NA
ENDROOT
BRANCH   1   7
ATOM      7  N   UNL d   1      -1.125   3.183  -0.215  0.00  0.00    -0.278 NA
ATOM      8  H   UNL d   1      -0.138   2.939  -0.308  0.00  0.00     0.128 HD
BRANCH   7   9
ATOM      9  C   UNL d   1      -1.889   2.564  -1.313  0.00  0.00     0.136 C 
BRANCH   9  10
ATOM     10  C   UNL d   1      -0.990   1.891  -2.327  0.00  0.00     0.015 A 
ATOM     11  C   UNL d   1      -0.124   0.833  -2.009  0.00  0.00     0.044 A 
ATOM     12 CL   UNL d   1       0.013   0.219  -0.399  0.00  0.00    -0.084 Cl
ATOM     13  C   UNL d   1       0.668   0.225  -2.992  0.00  0.00     0.024 A 
ATOM     14  C   UNL d   1       0.597   0.648  -4.318  0.00  0.00     0.005 A 
ATOM     15  C   UNL d   1      -0.266   1.684  -4.657  0.00  0.00     0.043 A 
ATOM     16  C   UNL d   1      -1.044   2.291  -3.670  0.00  0.00     0.125 A 
ATOM     17  F   UNL d   1      -1.874   3.277  -4.041  0.00  0.00    -0.205 F 
ENDBRANCH   9  10
ENDBRANCH   7   9
ENDBRANCH   1   7
BRANCH   2  18
ATOM     18  N   UNL d   1      -3.077   4.369   1.695  0.00  0.00    -0.277 NA
ATOM     19  H   UNL d   1      -3.961   4.877   1.760  0.00  0.00     0.128 HD
BRANCH  18  20
ATOM     20  C   UNL d   1      -2.682   4.042   3.081  0.00  0.00     0.139 C 
BRANCH  20  21
ATOM     21  C   UNL d   1      -3.772   3.366   3.866  0.00  0.00    -0.004 A 
ATOM     22  S   UNL d   1      -4.344   4.050   5.331  0.00  0.00    -0.105 SA
ATOM     23  C   UNL d   1      -5.454   2.771   5.571  0.00  0.00     0.050 A 
ATOM     24  C   UNL d   1      -5.398   1.843   4.556  0.00  0.00     0.008 A 
ATOM     25  C   UNL d   1      -4.426   2.187   3.572  0.00  0.00     0.016 A 
ENDBRANCH  20  21
ENDBRANCH  18  20
ENDBRANCH   2  18
TORSDOF 6
