REMARK  4 active torsions:
REMARK  status: ('A' for Active; 'I' for Inactive)
REMARK    1  A    between atoms: N_2  and  C_3 
REMARK    2  A    between atoms: C_8  and  C_9 
REMARK    3  A    between atoms: C_10  and  C_8 
REMARK    4  A    between atoms: C_11  and  C_8 
ROOT
ATOM      1  C   UNL d   1      -1.271  -2.588  -0.761  0.00  0.00     0.139 C 
ATOM      2  C   UNL d   1      -0.039  -2.152  -0.435  0.00  0.00     0.119 C 
ATOM      3  C   UNL d   1      -1.616  -3.969  -0.776  0.00  0.00     0.112 C 
ATOM      4  C   UNL d   1      -2.296  -1.642  -1.037  0.00  0.00     0.112 C 
ATOM      5  N   UNL d   1      -1.897  -5.094  -0.784  0.00  0.00    -0.191 NA
ATOM      6  N   UNL d   1      -3.121  -0.862  -1.271  0.00  0.00    -0.191 NA
ENDROOT
BRANCH   2   7
ATOM      7  N   UNL d   1       1.141  -2.830  -0.149  0.00  0.00    -0.388 N 
ATOM      8  C   UNL d   1       1.569  -4.056  -0.843  0.00  0.00     0.122 C 
ATOM      9  C   UNL d   1       1.924  -5.112   0.194  0.00  0.00     0.025 C 
ATOM     10  C   UNL d   1       3.050  -4.635   1.138  0.00  0.00     0.001 C 
ATOM     11  C   UNL d   1       2.576  -3.303   1.779  0.00  0.00     0.025 C 
ATOM     12  C   UNL d   1       2.171  -2.257   0.734  0.00  0.00     0.122 C 
BRANCH  10  13
ATOM     13  C   UNL d   1       4.455  -4.490   0.447  0.00  0.00     0.056 C 
BRANCH  13  14
ATOM     14  C   UNL d   1       5.543  -4.097   1.450  0.00  0.00    -0.049 A 
ATOM     15  C   UNL d   1       5.845  -4.919   2.547  0.00  0.00     0.008 A 
ATOM     16  C   UNL d   1       6.881  -4.590   3.421  0.00  0.00     0.001 A 
ATOM     17  C   UNL d   1       7.626  -3.433   3.215  0.00  0.00     0.000 A 
ATOM     18  C   UNL d   1       7.323  -2.592   2.145  0.00  0.00     0.001 A 
ATOM     19  C   UNL d   1       6.287  -2.920   1.267  0.00  0.00     0.008 A 
ENDBRANCH  13  14
BRANCH  13  20
ATOM     20  C   UNL d   1       4.920  -5.691  -0.384  0.00  0.00    -0.049 A 
ATOM     21  C   UNL d   1       5.705  -5.473  -1.531  0.00  0.00     0.008 A 
ATOM     22  C   UNL d   1       6.131  -6.542  -2.324  0.00  0.00     0.001 A 
ATOM     23  C   UNL d   1       5.786  -7.845  -1.980  0.00  0.00     0.000 A 
ATOM     24  C   UNL d   1       5.043  -8.082  -0.827  0.00  0.00     0.001 A 
ATOM     25  C   UNL d   1       4.627  -7.016  -0.028  0.00  0.00     0.008 A 
ENDBRANCH  13  20
ENDBRANCH  10  13
ENDBRANCH   2   7
TORSDOF 4
