REMARK  1 active torsions:
REMARK  status: ('A' for Active; 'I' for Inactive)
REMARK    1  A    between atoms: C_5  and  C_3 
ROOT
ATOM      1  C   UNL d   1      -1.135  -0.836   0.043  0.00  0.00     0.045 A 
ATOM      2  C   UNL d   1       0.365  -0.970   0.001  0.00  0.00     0.257 A 
ATOM      3  C   UNL d   1      -1.911  -1.928   0.090  0.00  0.00     0.031 C 
ATOM      4  N   UNL d   1       0.832   0.325  -0.156  0.00  0.00    -0.322 N 
ATOM      5  C   UNL d   1      -1.448   0.592  -0.048  0.00  0.00     0.006 A 
ATOM      6  C   UNL d   1      -0.216   1.242  -0.185  0.00  0.00     0.046 A 
ATOM      7  O   UNL d   1       1.021  -1.991   0.071  0.00  0.00    -0.267 OA
ATOM      8  C   UNL d   1      -2.620   1.325  -0.008  0.00  0.00     0.015 A 
ATOM      9  C   UNL d   1      -0.108   2.612  -0.318  0.00  0.00     0.030 A 
ATOM     10  C   UNL d   1      -2.535   2.716  -0.132  0.00  0.00     0.001 A 
ATOM     11  C   UNL d   1      -1.292   3.354  -0.293  0.00  0.00     0.002 A 
ATOM     12  H   UNL d   1       1.812   0.545  -0.225  0.00  0.00     0.169 HD
ENDROOT
BRANCH   3  13
ATOM     13  C   UNL d   1      -3.331  -1.958   0.031  0.00  0.00    -0.007 A 
ATOM     14  C   UNL d   1      -4.042  -2.104  -1.139  0.00  0.00     0.100 A 
ATOM     15  N   UNL d   1      -5.373  -2.123  -0.816  0.00  0.00    -0.364 N 
ATOM     16  C   UNL d   1      -5.535  -1.998   0.547  0.00  0.00     0.043 A 
ATOM     17  H   UNL d   1      -6.131  -2.223  -1.476  0.00  0.00     0.165 HD
ATOM     18  C   UNL d   1      -4.260  -1.885   1.107  0.00  0.00     0.002 A 
ATOM     19  C   UNL d   1      -6.704  -1.983   1.316  0.00  0.00     0.030 A 
ATOM     20  C   UNL d   1      -4.150  -1.736   2.505  0.00  0.00     0.014 A 
ATOM     21  C   UNL d   1      -5.310  -1.714   3.287  0.00  0.00     0.001 A 
ATOM     22  C   UNL d   1      -6.567  -1.840   2.700  0.00  0.00     0.002 A 
ENDBRANCH   3  13
TORSDOF 1
