REMARK  5 active torsions:
REMARK  status: ('A' for Active; 'I' for Inactive)
REMARK    1  A    between atoms: C_6  and  C_1 
REMARK    2  A    between atoms: C_2  and  C_5 
REMARK    3  A    between atoms: N_8  and  C_3 
REMARK    4  A    between atoms: N_9  and  C_4 
REMARK       I    between atoms: C_5  and  N_7 
REMARK    5  A    between atoms: N_7  and  C_6 
ROOT
ATOM      1  C   UNL d   1       1.472  -0.243  -0.043  0.00  0.00     0.013 A 
ATOM      2  C   UNL d   1       0.589  -1.365  -0.195  0.00  0.00     0.039 A 
ATOM      3  C   UNL d   1       0.976   1.102  -0.120  0.00  0.00     0.039 A 
ATOM      4  C   UNL d   1      -0.784  -1.095  -0.330  0.00  0.00     0.030 A 
ATOM      5  C   UNL d   1      -0.412   1.282  -0.232  0.00  0.00     0.030 A 
ATOM      6  C   UNL d   1      -1.283   0.203  -0.315  0.00  0.00     0.005 A 
ENDROOT
BRANCH   1   7
ATOM      7  C   UNL d   1       2.900  -0.473   0.430  0.00  0.00     0.166 C 
BRANCH   7   8
ATOM      8  N   UNL d   1       3.887  -0.554  -0.632  0.00  0.00    -0.353 N 
ATOM      9  C   UNL d   1       5.219  -0.832  -0.351  0.00  0.00     0.272 C 
ATOM     10  O   UNL d   1       5.590  -0.998   0.810  0.00  0.00    -0.269 OA
ATOM     11  H   UNL d   1       3.578  -0.423  -1.585  0.00  0.00     0.162 HD
BRANCH   9  12
ATOM     12  C   UNL d   1       6.198  -0.891  -1.554  0.00  0.00     0.269 C 
ATOM     13 CL   UNL d   1       5.333  -0.831  -3.119  0.00  0.00    -0.073 Cl
ATOM     14 CL   UNL d   1       7.294   0.509  -1.442  0.00  0.00    -0.073 Cl
ATOM     15 CL   UNL d   1       7.118  -2.417  -1.464  0.00  0.00    -0.073 Cl
ENDBRANCH   9  12
ENDBRANCH   7   8
ENDBRANCH   1   7
BRANCH   2  16
ATOM     16  N   UNL d   1       1.046  -2.691  -0.132  0.00  0.00    -0.389 N 
ATOM     17  C   UNL d   1       0.154  -3.764   0.316  0.00  0.00     0.149 C 
ATOM     18  C   UNL d   1       2.012  -3.116  -1.145  0.00  0.00     0.149 C 
ENDBRANCH   2  16
BRANCH   3  19
ATOM     19  N   UNL d   1       1.835   2.214  -0.017  0.00  0.00    -0.389 N 
ATOM     20  C   UNL d   1       1.294   3.483   0.477  0.00  0.00     0.149 C 
ATOM     21  C   UNL d   1       2.790   2.377  -1.117  0.00  0.00     0.149 C 
ENDBRANCH   3  19
TORSDOF 5
