REMARK  3 active torsions:
REMARK  status: ('A' for Active; 'I' for Inactive)
REMARK    1  A    between atoms: C_3  and  N_1 
REMARK    2  A    between atoms: C_2  and  C_4 
REMARK    3  A    between atoms: O_11  and  C_2 
ROOT
ATOM      1  C   UNL d   1      -2.640  -0.007  -0.916  0.00  0.00     0.030 A 
ATOM      2  C   UNL d   1      -4.898  -0.088  -2.643  0.00  0.00     0.037 A 
ATOM      3  C   UNL d   1      -2.617   0.586  -2.190  0.00  0.00     0.030 A 
ATOM      4  C   UNL d   1      -3.823  -0.663  -0.547  0.00  0.00     0.030 A 
ATOM      5  C   UNL d   1      -3.725   0.549  -3.050  0.00  0.00     0.020 A 
ATOM      6  C   UNL d   1      -4.937  -0.712  -1.396  0.00  0.00     0.020 A 
ENDROOT
BRANCH   1   7
ATOM      7  N   UNL d   1      -1.554   0.105  -0.069  0.00  0.00    -0.377 N 
ATOM      8  C   UNL d   1      -1.681   0.025   1.397  0.00  0.00     0.149 C 
ATOM      9  C   UNL d   1      -1.095  -1.292   1.920  0.00  0.00     0.187 C 
ATOM     10  O   UNL d   1       0.274  -1.445   1.510  0.00  0.00    -0.388 OA
ATOM     11  C   UNL d   1       0.363  -1.461   0.075  0.00  0.00     0.187 C 
ATOM     12  C   UNL d   1      -0.188  -0.168  -0.556  0.00  0.00     0.149 C 
ENDBRANCH   1   7
BRANCH   2  13
ATOM     13  C   UNL d   1      -6.107  -0.164  -3.502  0.00  0.00     0.176 C 
ATOM     14  O   UNL d   1      -6.880  -1.104  -3.475  0.00  0.00    -0.646 OA
BRANCH  13  15
ATOM     15  O   UNL d   1      -6.296   0.926  -4.276  0.00  0.00    -0.773 OA
ATOM     16  H   UNL d   1      -5.723   1.685  -4.064  0.00  0.00     0.167 HD
ENDBRANCH  13  15
ENDBRANCH   2  13
TORSDOF 3
