REMARK  4 active torsions:
REMARK  status: ('A' for Active; 'I' for Inactive)
REMARK    1  A    between atoms: C_4  and  C_1 
REMARK    2  A    between atoms: C_3  and  S_7 
REMARK    3  A    between atoms: S_7  and  C_4 
REMARK    4  A    between atoms: C_13  and  C_6 
ROOT
ATOM      1  C   UNL d   1       0.070   5.345   0.395  0.00  0.00     0.064 C 
ATOM      2  C   UNL d   1      -1.210   4.939   0.366  0.00  0.00    -0.017 C 
ATOM      3  C   UNL d   1       0.410   6.790   0.445  0.00  0.00     0.151 C 
ATOM      4  C   UNL d   1      -1.939   7.293  -0.325  0.00  0.00     0.030 C 
ATOM      5  C   UNL d   1      -2.351   5.941   0.304  0.00  0.00     0.055 C 
ATOM      6  C   UNL d   1      -0.701   7.809   0.421  0.00  0.00     0.092 C 
ATOM      7  O   UNL d   1       1.588   7.117   0.588  0.00  0.00    -0.293 OA
ENDROOT
BRANCH   2   8
ATOM      8  S   UNL d   1      -1.657   3.253   0.214  0.00  0.00    -0.129 SA
BRANCH   8   9
ATOM      9  C   UNL d   1      -0.438   2.355   1.220  0.00  0.00     0.122 C 
BRANCH   9  10
ATOM     10  C   UNL d   1      -0.658   0.864   1.164  0.00  0.00     0.012 A 
ATOM     11  C   UNL d   1      -1.440   0.249   2.150  0.00  0.00     0.125 A 
ATOM     12  F   UNL d   1      -1.986   0.990   3.125  0.00  0.00    -0.205 F 
ATOM     13  C   UNL d   1      -1.665  -1.127   2.163  0.00  0.00     0.043 A 
ATOM     14  C   UNL d   1      -1.109  -1.928   1.171  0.00  0.00     0.005 A 
ATOM     15  C   UNL d   1      -0.341  -1.340   0.166  0.00  0.00     0.024 A 
ATOM     16  C   UNL d   1      -0.122   0.044   0.158  0.00  0.00     0.044 A 
ATOM     17 CL   UNL d   1       0.839   0.685  -1.128  0.00  0.00    -0.084 Cl
ENDBRANCH   9  10
ENDBRANCH   8   9
ENDBRANCH   2   8
BRANCH   4  18
ATOM     18  C   UNL d   1      -1.779   7.310  -1.849  0.00  0.00    -0.053 A 
ATOM     19  C   UNL d   1      -1.969   6.175  -2.654  0.00  0.00     0.007 A 
ATOM     20  C   UNL d   1      -1.863   6.244  -4.046  0.00  0.00     0.001 A 
ATOM     21  C   UNL d   1      -1.567   7.451  -4.666  0.00  0.00     0.000 A 
ATOM     22  C   UNL d   1      -1.379   8.592  -3.893  0.00  0.00     0.001 A 
ATOM     23  C   UNL d   1      -1.489   8.523  -2.500  0.00  0.00     0.007 A 
ENDBRANCH   4  18
TORSDOF 4
