REMARK  4 active torsions:
REMARK  status: ('A' for Active; 'I' for Inactive)
REMARK    1  A    between atoms: C_9  and  C_3 
REMARK    2  A    between atoms: C_5  and  C_4 
REMARK    3  A    between atoms: O_16  and  C_9 
REMARK    4  A    between atoms: C_18  and  O_16 
ROOT
ATOM      1  N   UNL d   1       1.368  -0.615  -0.020  0.00  0.00    -0.344 N 
ATOM      2  HN  UNL d   1       2.240  -1.142  -0.073  1.00  0.00     0.167 HD
ATOM      3  C   UNL d   1       1.284   0.779  -0.002  0.00  0.00     0.115 A 
ATOM      4  C   UNL d   1       0.168  -1.158   0.040  0.00  0.00     0.088 A 
ATOM      5  S   UNL d   1      -1.119  -0.029   0.232  0.00  0.00    -0.081 SA
ATOM      6  C   UNL d   1      -0.004   1.263   0.140  0.00  0.00     0.087 A 
ENDROOT
BRANCH   4   7
ATOM      7  C   UNL d   1      -0.072  -2.606   0.026  0.00  0.00     0.036 A 
ATOM      8  C   UNL d   1      -1.180  -3.193  -0.606  0.00  0.00     0.132 A 
ATOM      9  C   UNL d   1      -1.373  -4.571  -0.606  0.00  0.00     0.085 A 
ATOM     10  F   UNL d   1      -2.077  -2.441  -1.261  0.00  0.00    -0.205 F 
ATOM     11  C   UNL d   1      -0.446  -5.385   0.026  0.00  0.00     0.119 A 
ATOM     12  C   UNL d   1       0.674  -4.843   0.648  0.00  0.00     0.043 A 
ATOM     13  F   UNL d   1      -0.625  -6.711   0.031  0.00  0.00    -0.206 F 
ATOM     14  C   UNL d   1       0.862  -3.458   0.642  0.00  0.00     0.020 A 
ENDBRANCH   4   7
BRANCH   3  15
ATOM     15  C   UNL d   1       2.453   1.645  -0.165  0.00  0.00     0.310 C 
ATOM     16  O   UNL d   1       2.378   2.868  -0.224  0.00  0.00    -0.258 OA
BRANCH  15  17
ATOM     17  O   UNL d   1       3.610   0.934  -0.300  0.00  0.00    -0.317 OA
BRANCH  17  18
ATOM     18  C   UNL d   1       4.756   1.677  -0.733  0.00  0.00     0.175 C 
ATOM     19  C   UNL d   1       4.798   1.666  -2.250  0.00  0.00     0.034 C 
ENDBRANCH  17  18
ENDBRANCH  15  17
ENDBRANCH   3  15
TORSDOF 4
