REMARK  9 active torsions:
REMARK  status: ('A' for Active; 'I' for Inactive)
REMARK    1  A    between atoms: C_13  and  C_5 
REMARK    2  A    between atoms: N_7  and  C_9 
REMARK    3  A    between atoms: N_8  and  C_14 
REMARK       I    between atoms: N_23  and  C_13 
REMARK    4  A    between atoms: C_24  and  N_23 
REMARK    5  A    between atoms: C_25  and  C_24 
REMARK    6  A    between atoms: C_28  and  C_25 
REMARK    7  A    between atoms: C_26  and  C_27 
REMARK    8  A    between atoms: C_27  and  C_29 
REMARK    9  A    between atoms: C_29  and  C_28 
ROOT
ATOM      1  C   UNL d   1      -0.927   0.842   0.735  0.00  0.00     0.005 A 
ATOM      2  C   UNL d   1      -1.398  -0.485   0.594  0.00  0.00     0.029 A 
ATOM      3  C   UNL d   1       0.557  -0.544   1.917  0.00  0.00     0.028 A 
ATOM      4  C   UNL d   1       0.283   0.794   1.566  0.00  0.00    -0.010 A 
ATOM      5  C   UNL d   1      -1.647   1.855   0.087  0.00  0.00     0.046 A 
ATOM      6  C   UNL d   1      -0.496  -1.387   1.333  0.00  0.00     0.194 A 
ATOM      7  C   UNL d   1      -3.193   0.153  -0.798  0.00  0.00     0.104 A 
ATOM      8  C   UNL d   1      -2.506  -0.866  -0.144  0.00  0.00     0.052 A 
ATOM      9  C   UNL d   1      -2.776   1.498  -0.689  0.00  0.00     0.054 A 
ATOM     10  C   UNL d   1       1.648  -0.964   2.663  0.00  0.00     0.052 A 
ATOM     11  C   UNL d   1       2.533   0.030   3.083  0.00  0.00     0.103 A 
ATOM     12  C   UNL d   1       1.162   1.764   2.026  0.00  0.00     0.016 A 
ATOM     13  O   UNL d   1      -0.605  -2.588   1.434  0.00  0.00    -0.287 OA
ATOM     14  C   UNL d   1       2.292   1.389   2.773  0.00  0.00     0.037 A 
ENDROOT
BRANCH   5  15
ATOM     15  C   UNL d   1      -1.234   3.283   0.109  0.00  0.00     0.252 C 
ATOM     16  O   UNL d   1      -0.046   3.576   0.066  0.00  0.00    -0.268 OA
ATOM     17  N   UNL d   1      -2.232   4.237   0.152  0.00  0.00    -0.357 N 
ATOM     18  H   UNL d   1      -3.212   3.990   0.107  0.00  0.00     0.162 HD
BRANCH  17  19
ATOM     19  C   UNL d   1      -1.897   5.646   0.269  0.00  0.00     0.123 C 
BRANCH  19  20
ATOM     20  C   UNL d   1      -1.531   6.268  -1.077  0.00  0.00     0.020 C 
BRANCH  20  21
ATOM     21  C   UNL d   1      -1.093   7.723  -0.907  0.00  0.00     0.002 C 
BRANCH  21  22
ATOM     22  C   UNL d   1      -0.733   8.351  -2.252  0.00  0.00     0.000 C 
BRANCH  22  23
ATOM     23  C   UNL d   1      -0.295   9.807  -2.088  0.00  0.00    -0.000 C 
BRANCH  23  24
ATOM     24  C   UNL d   1       0.058  10.429  -3.437  0.00  0.00    -0.005 C 
ATOM     25  C   UNL d   1       0.492  11.878  -3.284  0.00  0.00     0.005 C 
ENDBRANCH  23  24
ENDBRANCH  22  23
ENDBRANCH  21  22
ENDBRANCH  20  21
ENDBRANCH  19  20
ENDBRANCH  17  19
ENDBRANCH   5  15
BRANCH   7  26
ATOM     26  N   UNL d   1      -4.357  -0.179  -1.633  0.00  0.00    -0.116 N 
ATOM     27  O   UNL d   1      -4.686  -1.369  -1.715  0.00  0.00    -0.532 OA
ATOM     28  O   UNL d   1      -4.939   0.757  -2.196  0.00  0.00    -0.532 OA
ENDBRANCH   7  26
BRANCH  11  29
ATOM     29  N   UNL d   1       3.733  -0.329   3.853  0.00  0.00    -0.116 N 
ATOM     30  O   UNL d   1       3.914  -1.530   4.101  0.00  0.00    -0.532 OA
ATOM     31  O   UNL d   1       4.486   0.587   4.205  0.00  0.00    -0.532 OA
ENDBRANCH  11  29
TORSDOF 9
