REMARK  4 active torsions:
REMARK  status: ('A' for Active; 'I' for Inactive)
REMARK    1  A    between atoms: C_3  and  N_1 
REMARK    2  A    between atoms: S_8  and  C_2 
REMARK    3  A    between atoms: C_4  and  C_9 
REMARK    4  A    between atoms: C_9  and  S_8 
ROOT
ATOM      1  N   UNL d   1      -0.365  -1.122  -0.031  0.00  0.00    -0.300 N 
ATOM      2  C   UNL d   1       0.950  -0.654  -0.047  0.00  0.00     0.151 A 
ATOM      3  N   UNL d   1       1.012   0.659   0.059  0.00  0.00    -0.345 N 
ATOM      4  HN  UNL d   1       1.851   1.238   0.075  1.00  0.00     0.167 HD
ATOM      5  C   UNL d   1      -1.143   0.014   0.106  0.00  0.00     0.116 A 
ATOM      6  C   UNL d   1      -0.281   1.081   0.141  0.00  0.00     0.108 A 
ENDROOT
BRANCH   2   7
ATOM      7  S   UNL d   1       2.369  -1.630  -0.349  0.00  0.00    -0.089 SA
BRANCH   7   8
ATOM      8  C   UNL d   1       3.683  -0.395  -0.092  0.00  0.00     0.124 C 
BRANCH   8   9
ATOM      9  C   UNL d   1       5.080  -0.972  -0.214  0.00  0.00    -0.005 A 
ATOM     10  C   UNL d   1       5.764  -0.987  -1.446  0.00  0.00     0.042 A 
ATOM     11 CL   UNL d   1       5.034  -0.423  -2.911  0.00  0.00    -0.084 Cl
ATOM     12  C   UNL d   1       7.082  -1.455  -1.543  0.00  0.00     0.024 A 
ATOM     13  C   UNL d   1       7.746  -1.930  -0.418  0.00  0.00     0.003 A 
ATOM     14  C   UNL d   1       7.082  -1.956   0.804  0.00  0.00     0.024 A 
ATOM     15  C   UNL d   1       5.763  -1.491   0.905  0.00  0.00     0.042 A 
ATOM     16 CL   UNL d   1       5.030  -1.581   2.470  0.00  0.00    -0.084 Cl
ENDBRANCH   8   9
ENDBRANCH   7   8
ENDBRANCH   2   7
BRANCH   1  17
ATOM     17  C   UNL d   1      -0.865  -2.462  -0.050  0.00  0.00     0.062 A 
ATOM     18  C   UNL d   1      -2.056  -2.823  -0.712  0.00  0.00     0.062 A 
ATOM     19  C   UNL d   1      -2.507  -4.152  -0.678  0.00  0.00     0.050 A 
ATOM     20 CL   UNL d   1      -2.985  -1.759  -1.715  0.00  0.00    -0.082 Cl
ATOM     21  C   UNL d   1      -1.780  -5.122   0.002  0.00  0.00     0.035 A 
ATOM     22  C   UNL d   1      -0.612  -4.778   0.673  0.00  0.00     0.026 A 
ATOM     23 CL   UNL d   1      -2.320  -6.754   0.004  0.00  0.00    -0.084 Cl
ATOM     24  C   UNL d   1      -0.162  -3.454   0.656  0.00  0.00     0.033 A 
ENDBRANCH   1  17
TORSDOF 4
