REMARK  8 active torsions:
REMARK  status: ('A' for Active; 'I' for Inactive)
REMARK    1  A    between atoms: C_7  and  C_4 
REMARK    2  A    between atoms: O_15  and  C_7 
REMARK    3  A    between atoms: O_11  and  C_8 
REMARK    4  A    between atoms: C_18  and  C_9 
REMARK    5  A    between atoms: C_16  and  O_11 
REMARK    6  A    between atoms: C_19  and  O_15 
REMARK    7  A    between atoms: C_17  and  C_16 
REMARK    8  A    between atoms: C_22  and  C_18 
ROOT
ATOM      1  C   UNL d   1       0.024   0.417  -0.138  0.00  0.00     0.082 A 
ATOM      2  C   UNL d   1       0.374  -0.940  -0.080  0.00  0.00     0.099 A 
ATOM      3  O   UNL d   1      -0.547  -1.952  -0.126  0.00  0.00    -0.303 OA
ATOM      4  C   UNL d   1      -1.889  -1.646  -0.122  0.00  0.00     0.154 A 
ATOM      5  C   UNL d   1      -1.425   0.740  -0.189  0.00  0.00     0.190 A 
ATOM      6  C   UNL d   1      -2.369  -0.398  -0.161  0.00  0.00     0.099 A 
ATOM      7  C   UNL d   1       1.041   1.390  -0.130  0.00  0.00     0.086 A 
ATOM      8  C   UNL d   1       1.716  -1.351   0.032  0.00  0.00    -0.023 A 
ATOM      9  O   UNL d   1      -1.874   1.878  -0.206  0.00  0.00    -0.287 OA
ATOM     10  C   UNL d   1       2.367   0.976   0.078  0.00  0.00     0.038 A 
ATOM     11  C   UNL d   1       2.704  -0.374   0.147  0.00  0.00     0.013 A 
ENDROOT
BRANCH   7  12
ATOM     12  O   UNL d   1       0.717   2.713  -0.342  0.00  0.00    -0.346 OA
BRANCH  12  13
ATOM     13  C   UNL d   1       1.799   3.523  -0.821  0.00  0.00     0.214 C 
BRANCH  13  14
ATOM     14  C   UNL d   1       1.393   4.804  -1.511  0.00  0.00    -0.034 A 
ATOM     15  C   UNL d   1       0.104   5.342  -1.437  0.00  0.00     0.009 A 
ATOM     16  C   UNL d   1      -0.191   6.546  -2.083  0.00  0.00     0.001 A 
ATOM     17  C   UNL d   1       0.795   7.221  -2.803  0.00  0.00     0.000 A 
ATOM     18  C   UNL d   1       2.084   6.700  -2.877  0.00  0.00     0.001 A 
ATOM     19  C   UNL d   1       2.378   5.501  -2.230  0.00  0.00     0.009 A 
ENDBRANCH  13  14
ENDBRANCH  12  13
ENDBRANCH   7  12
BRANCH   8  20
ATOM     20  C   UNL d   1       2.111  -2.808   0.056  0.00  0.00     0.041 C 
BRANCH  20  21
ATOM     21  C   UNL d   1       2.382  -3.349   1.461  0.00  0.00     0.000 C 
ATOM     22  C   UNL d   1       1.135  -3.433   2.329  0.00  0.00     0.005 C 
ENDBRANCH  20  21
ENDBRANCH   8  20
BRANCH   4  23
ATOM     23  C   UNL d   1      -2.839  -2.794  -0.017  0.00  0.00     0.317 C 
ATOM     24  O   UNL d   1      -4.056  -2.700  -0.019  0.00  0.00    -0.257 OA
BRANCH  23  25
ATOM     25  O   UNL d   1      -2.118  -3.935   0.146  0.00  0.00    -0.316 OA
BRANCH  25  26
ATOM     26  C   UNL d   1      -2.829  -5.130   0.499  0.00  0.00     0.175 C 
ATOM     27  C   UNL d   1      -2.804  -6.109  -0.659  0.00  0.00     0.034 C 
ENDBRANCH  25  26
ENDBRANCH  23  25
ENDBRANCH   4  23
TORSDOF 8
