REMARK  5 active torsions:
REMARK  status: ('A' for Active; 'I' for Inactive)
REMARK    1  A    between atoms: C_9  and  C_1 
REMARK    2  A    between atoms: N_2  and  O_8 
REMARK    3  A    between atoms: C_4  and  C_5 
REMARK    4  A    between atoms: C_6  and  C_10 
REMARK    5  A    between atoms: O_8  and  C_6 
ROOT
ATOM      1  C   UNL d   1      -0.954  -3.257   1.435  0.00  0.00     0.315 C 
ATOM      2  O   UNL d   1      -0.642  -2.083   1.284  0.00  0.00    -0.257 OA
ENDROOT
BRANCH   1   3
ATOM      3  C   UNL d   1      -0.281  -4.370   0.710  0.00  0.00     0.041 A 
ATOM      4  C   UNL d   1      -0.587  -5.720   0.929  0.00  0.00     0.018 A 
ATOM      5  C   UNL d   1       0.164  -6.722   0.301  0.00  0.00     0.017 A 
ATOM      6  C   UNL d   1       1.230  -6.394  -0.552  0.00  0.00     0.048 A 
ATOM      7  C   UNL d   1       1.516  -5.042  -0.787  0.00  0.00     0.017 A 
ATOM      8  C   UNL d   1       0.767  -4.041  -0.162  0.00  0.00     0.018 A 
BRANCH   6   9
ATOM      9  C   UNL d   1       2.061  -7.488  -1.184  0.00  0.00     0.417 C 
ATOM     10  F   UNL d   1       3.064  -7.022  -1.978  0.00  0.00    -0.166 F 
ATOM     11  F   UNL d   1       1.319  -8.319  -1.966  0.00  0.00    -0.166 F 
ATOM     12  F   UNL d   1       2.660  -8.285  -0.256  0.00  0.00    -0.166 F 
ENDBRANCH   6   9
ENDBRANCH   1   3
BRANCH   1  13
ATOM     13  O   UNL d   1      -1.884  -3.736   2.312  0.00  0.00    -0.195 OA
BRANCH  13  14
ATOM     14  N   UNL d   1      -1.733  -3.054   3.535  0.00  0.00    -0.260 N 
ATOM     15  C   UNL d   1      -2.799  -3.104   4.278  0.00  0.00     0.055 C 
ATOM     16  C   UNL d   1      -4.111  -3.693   3.821  0.00  0.00     0.072 C 
ATOM     17  HN  UNL d   1      -0.878  -2.571   3.809  1.00  0.00     0.194 HD
BRANCH  15  18
ATOM     18  C   UNL d   1      -2.667  -2.565   5.618  0.00  0.00     0.056 A 
ATOM     19  N   UNL d   1      -1.494  -1.981   6.058  0.00  0.00    -0.364 N 
ATOM     20  C   UNL d   1      -1.600  -1.629   7.375  0.00  0.00     0.088 A 
ATOM     21  H   UNL d   1      -0.676  -1.868   5.472  0.00  0.00     0.165 HD
ATOM     22  C   UNL d   1      -2.868  -1.952   7.795  0.00  0.00     0.019 A 
ATOM     23  C   UNL d   1      -3.544  -2.529   6.690  0.00  0.00     0.033 A 
ENDBRANCH  15  18
ENDBRANCH  13  14
ENDBRANCH   1  13
TORSDOF 5
