REMARK  2 active torsions:
REMARK  status: ('A' for Active; 'I' for Inactive)
REMARK    1  A    between atoms: S_8  and  C_3 
REMARK    2  A    between atoms: S_9  and  C_4 
ROOT
ATOM      1  N   UNL d   1       1.486  -0.564   0.022  0.00  0.00    -0.324 N 
ATOM      2  HN  UNL d   1       2.424  -0.963   0.031  1.00  0.00     0.169 HD
ATOM      3  C   UNL d   1       1.171   0.792   0.005  0.00  0.00     0.151 A 
ATOM      4  C   UNL d   1       0.356  -1.239   0.023  0.00  0.00     0.130 A 
ATOM      5  N   UNL d   1      -0.106   1.178  -0.009  0.00  0.00    -0.305 N 
ATOM      6  HN  UNL d   1      -0.454   2.137  -0.023  1.00  0.00     0.176 HD
ATOM      7  S   UNL d   1      -1.020  -0.215   0.000  0.00  0.00     0.013 SA
ENDROOT
BRANCH   3   8
ATOM      8  S   UNL d   1       2.407   2.038   0.002  0.00  0.00    -0.098 SA
ATOM      9  C   UNL d   1       3.913   1.054   0.016  0.00  0.00     0.099 C 
ENDBRANCH   3   8
BRANCH   4  10
ATOM     10  S   UNL d   1       0.244  -2.979   0.040  0.00  0.00    -0.108 SA
ATOM     11  C   UNL d   1       1.983  -3.452   0.044  0.00  0.00     0.097 C 
ENDBRANCH   4  10
TORSDOF 2
