REMARK  4 active torsions:
REMARK  status: ('A' for Active; 'I' for Inactive)
REMARK    1  A    between atoms: C_5  and  N_1 
REMARK       I    between atoms: N_2  and  C_3 
REMARK       I    between atoms: C_4  and  N_2 
REMARK       I    between atoms: C_3  and  N_8 
REMARK    2  A    between atoms: C_11  and  C_4 
REMARK    3  A    between atoms: N_8  and  N_10 
REMARK    4  A    between atoms: N_10  and  C_9 
ROOT
ATOM      1  N   UNL d   1      -4.926   4.703   0.682  0.00  0.00    -0.274 N 
ATOM      2  C   UNL d   1      -3.804   4.577  -0.111  0.00  0.00     0.338 C 
ATOM      3  C   UNL d   1      -6.159   5.234   0.347  0.00  0.00     0.259 C 
ATOM      4  N   UNL d   1      -3.944   4.949  -1.429  0.00  0.00    -0.265 N 
ATOM      5  O   UNL d   1      -2.773   4.143   0.402  0.00  0.00    -0.246 OA
ATOM      6  O   UNL d   1      -6.400   5.688  -0.771  0.00  0.00    -0.267 OA
ATOM      7  H   UNL d   1      -4.729   4.396   1.620  0.00  0.00     0.173 HD
ATOM      8  H   UNL d   1      -4.736   5.534  -1.700  0.00  0.00     0.186 HD
ENDROOT
BRANCH   4   9
ATOM      9  N   UNL d   1      -2.795   4.991  -2.258  0.00  0.00    -0.181 NA
ATOM     10  C   UNL d   1      -1.907   6.134  -2.046  0.00  0.00     0.144 C 
BRANCH   9  11
ATOM     11  C   UNL d   1      -3.036   4.691  -3.621  0.00  0.00     0.100 A 
ATOM     12  C   UNL d   1      -3.911   3.655  -3.972  0.00  0.00     0.046 A 
ATOM     13  C   UNL d   1      -4.128   3.337  -5.317  0.00  0.00     0.041 A 
ATOM     14  C   UNL d   1      -3.454   4.066  -6.291  0.00  0.00     0.118 A 
ATOM     15  C   UNL d   1      -2.592   5.068  -5.890  0.00  0.00     0.125 A 
ATOM     16  N   UNL d   1      -2.376   5.382  -4.588  0.00  0.00    -0.353 N 
ATOM     17  HN  UNL d   1      -1.727   6.128  -4.337  1.00  0.00     0.166 HD
BRANCH  14  18
ATOM     18  N   UNL d   1      -3.639   3.792  -7.708  0.00  0.00    -0.114 N 
ATOM     19  O   UNL d   1      -3.055   4.523  -8.520  0.00  0.00    -0.532 OA
ATOM     20  O   UNL d   1      -4.374   2.843  -8.017  0.00  0.00    -0.532 OA
ENDBRANCH  14  18
ENDBRANCH   9  11
ENDBRANCH   4   9
BRANCH   3  21
ATOM     21  C   UNL d   1      -7.226   5.269   1.404  0.00  0.00     0.034 A 
ATOM     22  C   UNL d   1      -7.068   4.758   2.702  0.00  0.00     0.044 A 
ATOM     23  C   UNL d   1      -8.123   4.845   3.622  0.00  0.00     0.073 A 
ATOM     24 CL   UNL d   1      -7.907   4.220   5.213  0.00  0.00    -0.081 Cl
ATOM     25  C   UNL d   1      -9.334   5.433   3.258  0.00  0.00     0.138 A 
ATOM     26  C   UNL d   1      -9.506   5.937   1.975  0.00  0.00     0.045 A 
ATOM     27  F   UNL d   1     -10.346   5.523   4.130  0.00  0.00    -0.204 F 
ATOM     28  C   UNL d   1      -8.457   5.855   1.054  0.00  0.00     0.020 A 
ENDBRANCH   3  21
TORSDOF 4
