REMARK  4 active torsions:
REMARK  status: ('A' for Active; 'I' for Inactive)
REMARK    1  A    between atoms: C_2  and  C_1 
REMARK       I    between atoms: N_4  and  C_2 
REMARK    2  A    between atoms: C_3  and  C_8 
REMARK    3  A    between atoms: C_5  and  N_4 
REMARK    4  A    between atoms: N_14  and  C_6 
ROOT
ATOM      1  C   UNL d   1       0.861  -0.020   0.051  0.00  0.00     0.127 C 
ATOM      2  C   UNL d   1       0.237   0.541  -1.006  0.00  0.00     0.113 C 
ATOM      3  C   UNL d   1       0.161  -0.685   1.081  0.00  0.00     0.106 C 
ATOM      4  N   UNL d   1      -0.383  -1.243   1.945  0.00  0.00    -0.191 NA
ENDROOT
BRANCH   1   5
ATOM      5  C   UNL d   1       2.364   0.075   0.080  0.00  0.00     0.268 C 
ATOM      6  N   UNL d   1       3.010  -0.710   1.022  0.00  0.00    -0.321 N 
ATOM      7  H   UNL d   1       2.484  -1.422   1.525  0.00  0.00     0.169 HD
ATOM      8  O   UNL d   1       2.942   0.810  -0.717  0.00  0.00    -0.266 OA
BRANCH   6   9
ATOM      9  C   UNL d   1       4.395  -0.669   1.350  0.00  0.00     0.057 A 
ATOM     10  C   UNL d   1       5.252   0.342   0.896  0.00  0.00     0.047 A 
ATOM     11  C   UNL d   1       6.605   0.389   1.279  0.00  0.00     0.050 A 
ATOM     12  C   UNL d   1       7.105  -0.599   2.133  0.00  0.00     0.018 A 
ATOM     13  C   UNL d   1       6.271  -1.621   2.591  0.00  0.00     0.027 A 
ATOM     14  C   UNL d   1       4.926  -1.653   2.204  0.00  0.00     0.060 A 
ATOM     15 CL   UNL d   1       3.940  -2.946   2.797  0.00  0.00    -0.082 Cl
BRANCH  11  16
ATOM     16  C   UNL d   1       7.504   1.506   0.799  0.00  0.00     0.417 C 
ATOM     17  F   UNL d   1       6.910   2.353  -0.087  0.00  0.00    -0.166 F 
ATOM     18  F   UNL d   1       7.942   2.288   1.825  0.00  0.00    -0.166 F 
ATOM     19  F   UNL d   1       8.624   1.040   0.179  0.00  0.00    -0.166 F 
ENDBRANCH  11  16
ENDBRANCH   6   9
ENDBRANCH   1   5
BRANCH   2  20
ATOM     20  N   UNL d   1      -1.111   0.665  -1.345  0.00  0.00    -0.397 N 
ATOM     21  C   UNL d   1      -2.162   1.007  -0.381  0.00  0.00     0.148 C 
ATOM     22  C   UNL d   1      -1.508   0.904  -2.738  0.00  0.00     0.148 C 
ENDBRANCH   2  20
TORSDOF 4
