REMARK  3 active torsions:
REMARK  status: ('A' for Active; 'I' for Inactive)
REMARK    1  A    between atoms: C_8  and  C_7 
REMARK    2  A    between atoms: O_18  and  C_12 
REMARK    3  A    between atoms: C_19  and  O_18 
ROOT
ATOM      1  C   UNL d   1       2.759  -1.012   0.939  0.00  0.00     0.101 A 
ATOM      2  N   UNL d   1       1.978  -3.165   1.693  0.00  0.00    -0.275 N 
ATOM      3  N   UNL d   1       4.225  -2.654   1.904  0.00  0.00    -0.275 N 
ATOM      4  C   UNL d   1       1.640  -1.973   1.123  0.00  0.00     0.265 A 
ATOM      5  C   UNL d   1       4.111  -1.375   1.429  0.00  0.00     0.265 A 
ATOM      6  C   UNL d   1       3.218  -3.547   2.098  0.00  0.00     0.329 A 
ATOM      7  C   UNL d   1       2.448   0.154   0.340  0.00  0.00     0.037 C 
ATOM      8  O   UNL d   1       5.073  -0.621   1.439  0.00  0.00    -0.267 OA
ATOM      9  O   UNL d   1       0.480  -1.730   0.807  0.00  0.00    -0.267 OA
ATOM     10  O   UNL d   1       3.414  -4.637   2.624  0.00  0.00    -0.246 OA
ATOM     11  H   UNL d   1       1.228  -3.824   1.847  0.00  0.00     0.173 HD
ATOM     12  H   UNL d   1       5.138  -2.926   2.244  0.00  0.00     0.173 HD
ENDROOT
BRANCH   7  13
ATOM     13  C   UNL d   1       3.320   1.313   0.111  0.00  0.00    -0.000 A 
ATOM     14  C   UNL d   1       4.177   1.508  -0.985  0.00  0.00     0.079 A 
ATOM     15  C   UNL d   1       4.951   2.680  -1.049  0.00  0.00     0.039 A 
ATOM     16  C   UNL d   1       4.860   3.665  -0.064  0.00  0.00     0.022 A 
ATOM     17  C   UNL d   1       4.003   3.474   1.011  0.00  0.00     0.011 A 
ATOM     18  C   UNL d   1       3.243   2.310   1.104  0.00  0.00     0.033 A 
ATOM     19 BR   UNL d   1       3.858   4.797   2.352  0.00  0.00    -0.051 Br
BRANCH  14  20
ATOM     20  O   UNL d   1       4.413   0.670  -2.042  0.00  0.00    -0.351 OA
BRANCH  20  21
ATOM     21  C   UNL d   1       3.354  -0.167  -2.493  0.00  0.00     0.171 C 
ATOM     22  C   UNL d   1       3.559  -0.431  -3.975  0.00  0.00     0.034 C 
ENDBRANCH  20  21
ENDBRANCH  14  20
ENDBRANCH   7  13
TORSDOF 3
