REMARK  2 active torsions:
REMARK  status: ('A' for Active; 'I' for Inactive)
REMARK    1  A    between atoms: C_4  and  C_1 
REMARK       I    between atoms: N_7  and  C_4 
REMARK    2  A    between atoms: C_10  and  N_7 
ROOT
ATOM      1  C   UNL d   1      -2.397  -1.414  -0.151  0.00  0.00     0.274 C 
ATOM      2  N   UNL d   1      -3.623  -0.797   0.028  0.00  0.00    -0.322 N 
ATOM      3  O   UNL d   1      -1.348  -0.861  -0.464  0.00  0.00    -0.266 OA
ATOM      4  H   UNL d   1      -4.364  -1.414   0.349  0.00  0.00     0.169 HD
ENDROOT
BRANCH   1   5
ATOM      5  C   UNL d   1      -2.439  -2.863   0.076  0.00  0.00     0.125 A 
ATOM      6  N   UNL d   1      -3.576  -3.512   0.388  0.00  0.00    -0.256 N 
ATOM      7  O   UNL d   1      -3.230  -4.851   0.485  0.00  0.00    -0.242 OA
ATOM      8  HN  UNL d   1      -4.500  -3.104   0.524  1.00  0.00     0.195 HD
ATOM      9  C   UNL d   1      -1.900  -4.997   0.243  0.00  0.00     0.075 A 
ATOM     10  C   UNL d   1      -1.350  -3.768  -0.007  0.00  0.00     0.071 A 
ATOM     11  C   UNL d   1      -1.364  -6.369   0.289  0.00  0.00     0.079 C 
ENDBRANCH   1   5
BRANCH   2  12
ATOM     12  C   UNL d   1      -3.944   0.557  -0.181  0.00  0.00     0.035 A 
ATOM     13  C   UNL d   1      -3.054   1.491  -0.722  0.00  0.00     0.032 A 
ATOM     14  C   UNL d   1      -3.449   2.818  -0.920  0.00  0.00     0.044 A 
ATOM     15  C   UNL d   1      -4.733   3.211  -0.571  0.00  0.00     0.116 A 
ATOM     16  C   UNL d   1      -5.633   2.301  -0.032  0.00  0.00     0.044 A 
ATOM     17  F   UNL d   1      -5.110   4.482  -0.761  0.00  0.00    -0.206 F 
ATOM     18  C   UNL d   1      -5.239   0.973   0.159  0.00  0.00     0.032 A 
ENDBRANCH   2  12
TORSDOF 2
