REMARK  5 active torsions:
REMARK  status: ('A' for Active; 'I' for Inactive)
REMARK    1  A    between atoms: C_2  and  C_6 
REMARK    2  A    between atoms: O_8  and  C_3 
REMARK    3  A    between atoms: C_6  and  C_10 
REMARK    4  A    between atoms: N_12  and  C_7 
REMARK    5  A    between atoms: C_15  and  O_8 
ROOT
ATOM      1  C   UNL d   1       3.152   4.498  -0.451  0.00  0.00     0.100 A 
ATOM      2  C   UNL d   1       2.516   3.246  -0.409  0.00  0.00     0.098 A 
ATOM      3  C   UNL d   1       2.668   5.613   0.316  0.00  0.00     0.104 C 
ATOM      4  N   UNL d   1       2.274   6.523   0.913  0.00  0.00    -0.191 NA
ATOM      5  C   UNL d   1       4.301   4.645  -1.244  0.00  0.00     0.057 A 
ATOM      6 CL   UNL d   1       5.075   6.178  -1.465  0.00  0.00    -0.083 Cl
ATOM      7  C   UNL d   1       3.102   2.141  -1.045  0.00  0.00     0.039 A 
ATOM      8  C   UNL d   1       4.276   2.288  -1.783  0.00  0.00     0.005 A 
ATOM      9  C   UNL d   1       4.860   3.546  -1.903  0.00  0.00     0.025 A 
ENDROOT
BRANCH   2  10
ATOM     10  O   UNL d   1       1.374   2.953   0.308  0.00  0.00    -0.309 OA
BRANCH  10  11
ATOM     11  C   UNL d   1       0.241   3.728   0.176  0.00  0.00     0.076 A 
ATOM     12  C   UNL d   1      -0.035   4.591  -0.886  0.00  0.00     0.038 A 
ATOM     13  C   UNL d   1      -1.184   5.396  -0.865  0.00  0.00     0.018 A 
ATOM     14  C   UNL d   1      -2.103   5.292   0.186  0.00  0.00     0.014 A 
ATOM     15  C   UNL d   1      -1.862   4.363   1.207  0.00  0.00     0.018 A 
ATOM     16  C   UNL d   1      -0.693   3.594   1.206  0.00  0.00     0.038 A 
BRANCH  14  17
ATOM     17  C   UNL d   1      -3.368   6.083   0.242  0.00  0.00     0.183 C 
ATOM     18  O   UNL d   1      -4.332   5.637   0.858  0.00  0.00    -0.288 OA
BRANCH  17  19
ATOM     19  C   UNL d   1      -3.415   7.404  -0.448  0.00  0.00     0.072 C 
ATOM     20  C   UNL d   1      -4.560   8.100  -0.497  0.00  0.00     0.088 C 
BRANCH  20  21
ATOM     21  N   UNL d   1      -4.835   9.321  -1.102  0.00  0.00    -0.398 N 
ATOM     22  C   UNL d   1      -3.897  10.068  -1.936  0.00  0.00     0.148 C 
ATOM     23  C   UNL d   1      -6.146   9.963  -0.967  0.00  0.00     0.148 C 
ENDBRANCH  20  21
ENDBRANCH  17  19
ENDBRANCH  14  17
ENDBRANCH  10  11
ENDBRANCH   2  10
TORSDOF 5
