REMARK  3 active torsions:
REMARK  status: ('A' for Active; 'I' for Inactive)
REMARK    1  A    between atoms: S_14  and  C_2 
REMARK    2  A    between atoms: C_8  and  C_3 
REMARK    3  A    between atoms: C_10  and  C_8 
ROOT
ATOM      1  C   UNL d   1      -0.732   1.323   0.045  0.00  0.00     0.084 A 
ATOM      2  C   UNL d   1      -1.454   0.139   0.135  0.00  0.00     0.088 A 
ATOM      3  C   UNL d   1       1.324   0.013   0.051  0.00  0.00    -0.024 A 
ATOM      4  N   UNL d   1      -0.840  -1.059   0.244  0.00  0.00    -0.353 N 
ATOM      5  HN  UNL d   1      -1.392  -1.911   0.344  1.00  0.00     0.166 HD
ATOM      6  C   UNL d   1       0.682   1.275   0.022  0.00  0.00    -0.030 A 
ATOM      7  C   UNL d   1       0.513  -1.123   0.219  0.00  0.00     0.013 A 
ATOM      8  C   UNL d   1      -1.415   2.580  -0.033  0.00  0.00     0.103 C 
ATOM      9  N   UNL d   1      -1.976   3.596  -0.095  0.00  0.00    -0.191 NA
ATOM     10  C   UNL d   1       1.457   2.574  -0.027  0.00  0.00     0.050 C 
ATOM     11  C   UNL d   1       1.054  -2.518   0.364  0.00  0.00     0.068 C 
ENDROOT
BRANCH   2  12
ATOM     12  S   UNL d   1      -3.234   0.014   0.131  0.00  0.00    -0.124 SA
ATOM     13  H   UNL d   1      -3.537   1.311  -0.014  0.00  0.00     0.108 HD
ENDBRANCH   2  12
BRANCH   3  14
ATOM     14  C   UNL d   1       2.831  -0.123  -0.088  0.00  0.00     0.081 C 
BRANCH  14  15
ATOM     15  C   UNL d   1       3.668  -0.081   1.180  0.00  0.00    -0.032 A 
ATOM     16  C   UNL d   1       5.076  -0.101   1.100  0.00  0.00     0.042 A 
ATOM     17  C   UNL d   1       5.867  -0.215   2.247  0.00  0.00     0.048 A 
ATOM     18 CL   UNL d   1       5.901  -0.008  -0.419  0.00  0.00    -0.084 Cl
ATOM     19  C   UNL d   1       5.259  -0.298   3.494  0.00  0.00     0.035 A 
ATOM     20  C   UNL d   1       3.875  -0.225   3.607  0.00  0.00     0.024 A 
ATOM     21 CL   UNL d   1       6.221  -0.517   4.903  0.00  0.00    -0.084 Cl
ATOM     22  C   UNL d   1       3.085  -0.112   2.460  0.00  0.00     0.011 A 
ENDBRANCH  14  15
ENDBRANCH   3  14
TORSDOF 3
