REMARK  6 active torsions:
REMARK  status: ('A' for Active; 'I' for Inactive)
REMARK    1  A    between atoms: N_2  and  S_1 
REMARK    2  A    between atoms: C_10  and  S_1 
REMARK    3  A    between atoms: C_3  and  N_2 
REMARK    4  A    between atoms: N_6  and  C_4 
REMARK    5  A    between atoms: O_13  and  C_7 
REMARK    6  A    between atoms: C_20  and  O_13 
ROOT
ATOM      1  C   UNL d   1       1.006  -2.422  -1.281  0.00  0.00     0.058 A 
ATOM      2  C   UNL d   1       1.558  -3.947  -3.599  0.00  0.00     0.062 A 
ATOM      3  C   UNL d   1       2.565  -3.191  -2.965  0.00  0.00     0.071 A 
ATOM      4  C   UNL d   1       2.306  -2.466  -1.794  0.00  0.00     0.100 A 
ATOM      5  C   UNL d   1      -0.021  -3.083  -1.955  0.00  0.00     0.053 A 
ATOM      6  C   UNL d   1       0.247  -3.866  -3.095  0.00  0.00     0.063 A 
ATOM      7 CL   UNL d   1      -1.099  -4.788  -3.668  0.00  0.00    -0.082 Cl
ENDROOT
BRANCH   1   8
ATOM      8  N   UNL d   1       0.716  -1.691  -0.069  0.00  0.00    -0.179 NA
ATOM      9  H   UNL d   1      -0.068  -2.115   0.430  0.00  0.00     0.146 HD
BRANCH   8  10
ATOM     10  S   UNL d   1       0.313  -0.053  -0.305  0.00  0.00     0.245 S 
ATOM     11  O   UNL d   1      -1.128  -0.018  -0.448  0.00  0.00    -0.206 OA
ATOM     12  O   UNL d   1       1.188   0.550  -1.283  0.00  0.00    -0.206 OA
BRANCH  10  13
ATOM     13  C   UNL d   1       0.715   0.642   1.289  0.00  0.00     0.074 A 
ATOM     14  C   UNL d   1       2.010   1.118   1.526  0.00  0.00     0.026 A 
ATOM     15  C   UNL d   1       2.304   1.743   2.742  0.00  0.00     0.025 A 
ATOM     16  C   UNL d   1       1.307   1.892   3.708  0.00  0.00     0.034 A 
ATOM     17  C   UNL d   1       0.016   1.416   3.472  0.00  0.00     0.025 A 
ATOM     18 CL   UNL d   1       1.666   2.686   5.191  0.00  0.00    -0.084 Cl
ATOM     19  C   UNL d   1      -0.285   0.793   2.256  0.00  0.00     0.026 A 
ENDBRANCH  10  13
ENDBRANCH   8  10
ENDBRANCH   1   8
BRANCH   4  20
ATOM     20  O   UNL d   1       3.272  -1.741  -1.135  0.00  0.00    -0.309 OA
BRANCH  20  21
ATOM     21  C   UNL d   1       4.547  -2.240  -1.006  0.00  0.00     0.076 A 
ATOM     22  C   UNL d   1       5.557  -1.280  -0.901  0.00  0.00     0.039 A 
ATOM     23  C   UNL d   1       6.886  -1.672  -0.729  0.00  0.00     0.026 A 
ATOM     24  C   UNL d   1       7.202  -3.027  -0.663  0.00  0.00     0.034 A 
ATOM     25  C   UNL d   1       6.199  -3.991  -0.752  0.00  0.00     0.026 A 
ATOM     26 CL   UNL d   1       8.838  -3.514  -0.456  0.00  0.00    -0.084 Cl
ATOM     27  C   UNL d   1       4.866  -3.598  -0.901  0.00  0.00     0.039 A 
ENDBRANCH  20  21
ENDBRANCH   4  20
BRANCH   2  28
ATOM     28  N   UNL d   1       1.956  -4.796  -4.681  0.00  0.00    -0.331 N 
ATOM     29  C   UNL d   1       1.215  -5.216  -5.765  0.00  0.00     0.096 A 
ATOM     30  C   UNL d   1       1.968  -6.077  -6.535  0.00  0.00     0.019 A 
ATOM     31  C   UNL d   1       3.236  -6.175  -5.932  0.00  0.00     0.019 A 
ATOM     32  C   UNL d   1       3.213  -5.368  -4.817  0.00  0.00     0.096 A 
ENDBRANCH   2  28
TORSDOF 6
