REMARK  1 active torsions:
REMARK  status: ('A' for Active; 'I' for Inactive)
REMARK    1  A    between atoms: C_13  and  C_7 
ROOT
ATOM      1  C   UNL d   1       1.185   0.130  -0.011  0.00  0.00     0.101 A 
ATOM      2  N   UNL d   1      -0.795  -1.246   0.006  0.00  0.00    -0.275 N 
ATOM      3  N   UNL d   1      -1.038   1.055  -0.009  0.00  0.00    -0.275 N 
ATOM      4  C   UNL d   1       0.570  -1.223   0.004  0.00  0.00     0.265 A 
ATOM      5  C   UNL d   1       0.301   1.324  -0.055  0.00  0.00     0.265 A 
ATOM      6  C   UNL d   1      -1.626  -0.170  -0.000  0.00  0.00     0.329 A 
ATOM      7  C   UNL d   1       2.532   0.182   0.023  0.00  0.00     0.034 C 
ATOM      8  O   UNL d   1       0.693   2.481  -0.137  0.00  0.00    -0.267 OA
ATOM      9  O   UNL d   1       1.219  -2.263   0.015  0.00  0.00    -0.267 OA
ATOM     10  O   UNL d   1      -2.846  -0.300  -0.005  0.00  0.00    -0.246 OA
ATOM     11  H   UNL d   1      -1.235  -2.156   0.012  0.00  0.00     0.173 HD
ATOM     12  H   UNL d   1      -1.656   1.854  -0.038  0.00  0.00     0.173 HD
ENDROOT
BRANCH   7  13
ATOM     13  C   UNL d   1       3.355   1.394   0.029  0.00  0.00    -0.033 A 
ATOM     14  C   UNL d   1       3.716   1.995   1.234  0.00  0.00     0.028 A 
ATOM     15  C   UNL d   1       4.481   3.149   1.185  0.00  0.00     0.088 A 
ATOM     16  N   UNL d   1       4.907   3.722   0.039  0.00  0.00    -0.375 N 
ATOM     17  C   UNL d   1       4.539   3.120  -1.112  0.00  0.00     0.088 A 
ATOM     18  HN  UNL d   1       5.478   4.567   0.043  1.00  0.00     0.164 HD
ATOM     19  C   UNL d   1       3.777   1.964  -1.170  0.00  0.00     0.028 A 
ENDBRANCH   7  13
TORSDOF 1
