REMARK  10 active torsions:
REMARK  status: ('A' for Active; 'I' for Inactive)
REMARK    1  A    between atoms: C_11  and  C_1 
REMARK    2  A    between atoms: C_8  and  C_3 
REMARK    3  A    between atoms: C_9  and  C_3 
REMARK    4  A    between atoms: N_10  and  C_4 
REMARK    5  A    between atoms: C_12  and  C_5 
REMARK    6  A    between atoms: C_7  and  N_10 
REMARK    7  A    between atoms: O_17  and  C_8 
REMARK    8  A    between atoms: O_16  and  C_9 
REMARK    9  A    between atoms: C_23  and  O_16 
REMARK   10  A    between atoms: C_22  and  O_17 
ROOT
ATOM      1  N   UNL d   1       2.538   1.504   0.204  0.00  0.00    -0.363 N 
ATOM      2  H   UNL d   1       3.351   0.934  -0.067  0.00  0.00     0.165 HD
ENDROOT
BRANCH   1   3
ATOM      3  C   UNL d   1       2.821   2.855   0.336  0.00  0.00     0.112 C 
ATOM      4  C   UNL d   1       3.981   3.526   0.470  0.00  0.00     0.129 C 
BRANCH   4   5
ATOM      5  C   UNL d   1       5.314   2.897   0.587  0.00  0.00     0.300 C 
ATOM      6  O   UNL d   1       6.326   3.482   0.938  0.00  0.00    -0.259 OA
BRANCH   5   7
ATOM      7  O   UNL d   1       5.264   1.601   0.174  0.00  0.00    -0.318 OA
BRANCH   7   8
ATOM      8  C   UNL d   1       6.523   1.011  -0.162  0.00  0.00     0.174 C 
ATOM      9  C   UNL d   1       6.796   1.315  -1.624  0.00  0.00     0.034 C 
ENDBRANCH   7   8
ENDBRANCH   5   7
ENDBRANCH   4   5
BRANCH   4  10
ATOM     10  C   UNL d   1       3.852   5.001   0.371  0.00  0.00     0.300 C 
ATOM     11  O   UNL d   1       2.834   5.629   0.632  0.00  0.00    -0.259 OA
BRANCH  10  12
ATOM     12  O   UNL d   1       4.945   5.502  -0.255  0.00  0.00    -0.318 OA
BRANCH  12  13
ATOM     13  C   UNL d   1       4.793   6.762  -0.920  0.00  0.00     0.174 C 
ATOM     14  C   UNL d   1       4.537   6.462  -2.386  0.00  0.00     0.034 C 
ENDBRANCH  12  13
ENDBRANCH  10  12
ENDBRANCH   4  10
ENDBRANCH   1   3
BRANCH   1  15
ATOM     15  C   UNL d   1       1.298   0.939   0.201  0.00  0.00     0.053 A 
ATOM     16  C   UNL d   1       0.950  -0.221  -0.468  0.00  0.00     0.077 A 
ATOM     17  S   UNL d   1      -0.699  -0.605  -0.205  0.00  0.00    -0.088 SA
ATOM     18  C   UNL d   1      -0.978   0.773   0.775  0.00  0.00    -0.007 A 
ATOM     19  C   UNL d   1       0.190   1.498   0.909  0.00  0.00     0.046 A 
BRANCH  16  20
ATOM     20  C   UNL d   1       1.778  -1.067  -1.320  0.00  0.00     0.164 C 
ATOM     21  O   UNL d   1       3.010  -1.002  -1.323  0.00  0.00    -0.292 OA
ATOM     22  C   UNL d   1       1.089  -2.064  -2.237  0.00  0.00     0.097 C 
ENDBRANCH  16  20
BRANCH  18  23
ATOM     23  C   UNL d   1      -2.363   1.056   1.363  0.00  0.00    -0.018 C 
ATOM     24  C   UNL d   1      -2.837  -0.132   2.223  0.00  0.00     0.020 C 
ATOM     25  C   UNL d   1      -2.339   2.307   2.267  0.00  0.00     0.020 C 
ATOM     26  C   UNL d   1      -3.374   1.315   0.229  0.00  0.00     0.020 C 
ENDBRANCH  18  23
ENDBRANCH   1  15
TORSDOF 10
