REMARK  2 active torsions:
REMARK  status: ('A' for Active; 'I' for Inactive)
REMARK    1  A    between atoms: C_2  and  C_1 
REMARK       I    between atoms: N_9  and  C_2 
REMARK    2  A    between atoms: C_13  and  N_9 
ROOT
ATOM      1  C   UNL d   1      -0.319  -2.640   0.525  0.00  0.00     0.266 C 
ATOM      2  N   UNL d   1       0.764  -3.321  -0.025  0.00  0.00    -0.322 N 
ATOM      3  O   UNL d   1      -0.200  -1.629   1.208  0.00  0.00    -0.267 OA
ATOM      4  H   UNL d   1       0.556  -4.071  -0.672  0.00  0.00     0.169 HD
ENDROOT
BRANCH   2   5
ATOM      5  C   UNL d   1       2.126  -2.954   0.093  0.00  0.00     0.037 A 
ATOM      6  C   UNL d   1       2.587  -1.999   1.003  0.00  0.00     0.069 A 
ATOM      7  C   UNL d   1       3.917  -1.588   0.985  0.00  0.00     0.104 A 
ATOM      8  O   UNL d   1       4.258  -0.590   1.863  0.00  0.00    -0.346 OA
ATOM      9  C   UNL d   1       4.824  -2.168   0.099  0.00  0.00     0.102 A 
ATOM     10  C   UNL d   1       5.439   0.081   1.421  0.00  0.00     0.202 C 
ATOM     11  C   UNL d   1       6.526  -0.931   1.095  0.00  0.00     0.202 C 
ATOM     12  O   UNL d   1       6.139  -1.791   0.015  0.00  0.00    -0.346 OA
ATOM     13  C   UNL d   1       4.391  -3.163  -0.774  0.00  0.00     0.042 A 
ATOM     14  C   UNL d   1       3.046  -3.559  -0.773  0.00  0.00     0.032 A 
ENDBRANCH   2   5
BRANCH   1  15
ATOM     15  C   UNL d   1      -1.632  -3.167   0.212  0.00  0.00     0.114 A 
ATOM     16  C   UNL d   1      -2.887  -2.621   0.471  0.00  0.00     0.046 A 
ATOM     17  N   UNL d   1      -3.954  -3.405   0.037  0.00  0.00    -0.298 N 
ATOM     18  C   UNL d   1      -3.227  -1.331   1.130  0.00  0.00     0.071 C 
ATOM     19  N   UNL d   1      -3.553  -4.522  -0.534  0.00  0.00    -0.269 N 
ATOM     20  HN  UNL d   1      -4.934  -3.144   0.149  1.00  0.00     0.187 HD
ATOM     21  S   UNL d   1      -1.891  -4.668  -0.569  0.00  0.00     0.009 SA
ATOM     22  HN  UNL d   1      -4.189  -5.222  -0.915  1.00  0.00     0.195 HD
ENDBRANCH   1  15
TORSDOF 2
