REMARK  7 active torsions:
REMARK  status: ('A' for Active; 'I' for Inactive)
REMARK    1  A    between atoms: C_13  and  N_1 
REMARK    2  A    between atoms: S_2  and  C_12 
REMARK    3  A    between atoms: N_8  and  S_2 
REMARK    4  A    between atoms: C_9  and  C_6 
REMARK    5  A    between atoms: C_10  and  N_8 
REMARK    6  A    between atoms: N_17  and  C_10 
REMARK    7  A    between atoms: C_29  and  N_17 
ROOT
ATOM      1  C   UNL d   1       4.521  -2.468   0.452  0.00  0.00     0.080 A 
ATOM      2  C   UNL d   1       2.109  -1.075   0.487  0.00  0.00     0.057 A 
ATOM      3  C   UNL d   1       3.734  -2.416  -0.699  0.00  0.00     0.027 A 
ATOM      4  C   UNL d   1       4.135  -1.775   1.608  0.00  0.00     0.027 A 
ATOM      5  C   UNL d   1       2.936  -1.053   1.620  0.00  0.00     0.033 A 
ATOM      6  C   UNL d   1       2.505  -1.764  -0.665  0.00  0.00     0.033 A 
ENDROOT
BRANCH   1   7
ATOM      7  S   UNL d   1       6.010  -3.439   0.501  0.00  0.00     0.264 S 
ATOM      8  O   UNL d   1       7.106  -2.493   0.513  0.00  0.00    -0.200 OA
ATOM      9  O   UNL d   1       5.870  -4.431   1.538  0.00  0.00    -0.200 OA
BRANCH   7  10
ATOM     10  N   UNL d   1       6.122  -4.202  -0.979  0.00  0.00    -0.256 N 
ATOM     11  H   UNL d   1       6.849  -3.779  -1.547  0.00  0.00     0.181 HD
BRANCH  10  12
ATOM     12  C   UNL d   1       5.450  -5.326  -1.475  0.00  0.00     0.186 C 
ATOM     13  S   UNL d   1       4.037  -5.985  -0.870  0.00  0.00    -0.040 SA
BRANCH  12  14
ATOM     14  N   UNL d   1       5.911  -5.867  -2.652  0.00  0.00    -0.333 N 
ATOM     15  H   UNL d   1       5.213  -6.452  -3.104  0.00  0.00     0.168 HD
BRANCH  14  16
ATOM     16  C   UNL d   1       7.240  -6.135  -3.053  0.00  0.00     0.034 A 
ATOM     17  C   UNL d   1       8.367  -5.810  -2.295  0.00  0.00     0.031 A 
ATOM     18  C   UNL d   1       9.634  -6.267  -2.675  0.00  0.00     0.026 A 
ATOM     19  C   UNL d   1       9.780  -7.062  -3.807  0.00  0.00     0.034 A 
ATOM     20  C   UNL d   1       8.673  -7.366  -4.593  0.00  0.00     0.026 A 
ATOM     21 CL   UNL d   1      11.322  -7.707  -4.205  0.00  0.00    -0.084 Cl
ATOM     22  C   UNL d   1       7.409  -6.895  -4.221  0.00  0.00     0.031 A 
ENDBRANCH  14  16
ENDBRANCH  12  14
ENDBRANCH  10  12
ENDBRANCH   7  10
ENDBRANCH   1   7
BRANCH   2  23
ATOM     23  N   UNL d   1       0.839  -0.443   0.488  0.00  0.00    -0.255 N 
ATOM     24  C   UNL d   1       0.455   0.761   1.057  0.00  0.00     0.076 C 
ATOM     25  C   UNL d   1      -0.927   0.761   1.011  0.00  0.00     0.069 C 
ATOM     26  C   UNL d   1       1.342   1.822   1.456  0.00  0.00     0.033 A 
ATOM     27  C   UNL d   1      -1.293  -0.383   0.257  0.00  0.00     0.135 C 
ATOM     28  N   UNL d   1      -0.198  -1.054  -0.143  0.00  0.00    -0.289 N 
ATOM     29  HN  UNL d   1      -0.155  -1.848  -0.781  1.00  0.00     0.187 HD
ATOM     30  S   UNL d   1       0.956   2.891   2.739  0.00  0.00    -0.100 SA
ATOM     31  C   UNL d   1       2.536   2.181   0.856  0.00  0.00     0.021 A 
ATOM     32  C   UNL d   1       2.363   3.827   2.478  0.00  0.00     0.050 A 
ATOM     33  C   UNL d   1       3.128   3.333   1.448  0.00  0.00     0.008 A 
BRANCH  27  34
ATOM     34  C   UNL d   1      -2.692  -0.789  -0.127  0.00  0.00     0.434 C 
ATOM     35  F   UNL d   1      -2.748  -1.933  -0.858  0.00  0.00    -0.165 F 
ATOM     36  F   UNL d   1      -3.472  -0.989   0.971  0.00  0.00    -0.165 F 
ATOM     37  F   UNL d   1      -3.307   0.176  -0.863  0.00  0.00    -0.165 F 
ENDBRANCH  27  34
ENDBRANCH   2  23
TORSDOF 7
