REMARK  4 active torsions:
REMARK  status: ('A' for Active; 'I' for Inactive)
REMARK    1  A    between atoms: S_4  and  C_1 
REMARK    2  A    between atoms: N_7  and  C_2 
REMARK    3  A    between atoms: C_8  and  C_3 
REMARK    4  A    between atoms: O_17  and  C_8 
ROOT
ATOM      1  C   UNL d   1       1.484  -0.670  -0.037  0.00  0.00     0.094 A 
ATOM      2  C   UNL d   1       1.479   0.784  -0.025  0.00  0.00     0.084 A 
ATOM      3  C   UNL d   1       0.170   1.276   0.021  0.00  0.00     0.108 A 
ATOM      4  S   UNL d   1      -0.992   0.008  -0.037  0.00  0.00    -0.092 SA
ATOM      5  C   UNL d   1       0.204  -1.189  -0.077  0.00  0.00     0.076 A 
ENDROOT
BRANCH   2   6
ATOM      6  N   UNL d   1       2.644   1.637  -0.015  0.00  0.00    -0.330 N 
ATOM      7  C   UNL d   1       2.767   2.856   0.629  0.00  0.00     0.097 A 
ATOM      8  C   UNL d   1       4.031   3.365   0.420  0.00  0.00     0.019 A 
ATOM      9  C   UNL d   1       4.715   2.449  -0.398  0.00  0.00     0.019 A 
ATOM     10  C   UNL d   1       3.838   1.425  -0.674  0.00  0.00     0.097 A 
ENDBRANCH   2   6
BRANCH   1  11
ATOM     11  S   UNL d   1       2.830  -1.772   0.135  0.00  0.00     0.174 S 
ATOM     12  O   UNL d   1       3.869  -1.032   0.816  0.00  0.00    -0.223 OA
ATOM     13  O   UNL d   1       2.250  -2.960   0.730  0.00  0.00    -0.223 OA
ATOM     14  C   UNL d   1       3.323  -2.171  -1.520  0.00  0.00     0.167 C 
ENDBRANCH   1  11
BRANCH   3  15
ATOM     15  C   UNL d   1      -0.336   2.642  -0.016  0.00  0.00     0.302 C 
ATOM     16  O   UNL d   1       0.159   3.568  -0.645  0.00  0.00    -0.259 OA
BRANCH  15  17
ATOM     17  O   UNL d   1      -1.450   2.761   0.766  0.00  0.00    -0.322 OA
ATOM     18  C   UNL d   1      -2.038   4.061   0.793  0.00  0.00     0.213 C 
ENDBRANCH  15  17
ENDBRANCH   3  15
TORSDOF 4
