REMARK  2 active torsions:
REMARK  status: ('A' for Active; 'I' for Inactive)
REMARK    1  A    between atoms: C_2  and  C_1 
REMARK       I    between atoms: N_7  and  C_2 
REMARK    2  A    between atoms: C_5  and  C_8 
ROOT
ATOM      1  C   UNL d   1      -1.783   0.174  -0.149  0.00  0.00     0.054 A 
ATOM      2  N   UNL d   1       0.392  -0.683   0.505  0.00  0.00    -0.355 N 
ATOM      3  HN  UNL d   1       0.976  -1.173   1.183  1.00  0.00     0.166 HD
ATOM      4  C   UNL d   1      -0.951  -0.543   0.724  0.00  0.00     0.021 A 
ATOM      5  C   UNL d   1       0.942  -0.164  -0.625  0.00  0.00     0.117 A 
ATOM      6  C   UNL d   1      -1.214   0.624  -1.347  0.00  0.00     0.021 A 
ATOM      7  C   UNL d   1       0.158   0.487  -1.573  0.00  0.00     0.035 A 
ATOM      8  C   UNL d   1      -1.421  -1.213   1.984  0.00  0.00     0.069 C 
ENDROOT
BRANCH   1   9
ATOM      9  C   UNL d   1      -3.239   0.354   0.125  0.00  0.00     0.255 C 
ATOM     10  N   UNL d   1      -3.913   1.556  -0.147  0.00  0.00    -0.348 N 
ATOM     11  C   UNL d   1      -3.321   2.843  -0.529  0.00  0.00     0.126 C 
ATOM     12  C   UNL d   1      -5.297   1.664   0.334  0.00  0.00     0.126 C 
ATOM     13  C   UNL d   1      -4.169   3.509  -1.613  0.00  0.00     0.020 C 
ATOM     14  C   UNL d   1      -5.594   3.730  -1.109  0.00  0.00     0.003 C 
ATOM     15  C   UNL d   1      -6.207   2.415  -0.637  0.00  0.00     0.020 C 
ATOM     16  O   UNL d   1      -3.838  -0.615   0.599  0.00  0.00    -0.267 OA
ENDBRANCH   1   9
BRANCH   5  17
ATOM     17  C   UNL d   1       2.442  -0.298  -0.861  0.00  0.00     0.432 C 
ATOM     18  F   UNL d   1       3.095  -1.068   0.056  0.00  0.00    -0.165 F 
ATOM     19  F   UNL d   1       2.729  -0.851  -2.078  0.00  0.00    -0.165 F 
ATOM     20  F   UNL d   1       3.079   0.909  -0.854  0.00  0.00    -0.165 F 
ENDBRANCH   5  17
TORSDOF 2
