REMARK  4 active torsions:
REMARK  status: ('A' for Active; 'I' for Inactive)
REMARK    1  A    between atoms: C_4  and  C_1 
REMARK    2  A    between atoms: N_8  and  N_2 
REMARK    3  A    between atoms: C_7  and  C_4 
REMARK    4  A    between atoms: C_10  and  N_8 
ROOT
ATOM      1  C   UNL d   1       0.969  -0.025   0.020  0.00  0.00     0.175 C 
ATOM      2  N   UNL d   1       0.316  -0.279   1.121  0.00  0.00    -0.287 N 
ATOM      3  HN  UNL d   1      -0.698  -0.390   1.098  1.00  0.00     0.188 HD
ATOM      4  C   UNL d   1       2.410   0.090   0.083  0.00  0.00     0.123 C 
ATOM      5  N   UNL d   1       3.560   0.209   0.198  0.00  0.00    -0.190 NA
ENDROOT
BRANCH   1   6
ATOM      6  C   UNL d   1       0.241   0.112  -1.295  0.00  0.00     0.195 C 
ATOM      7  O   UNL d   1       0.826  -0.322  -2.285  0.00  0.00    -0.289 OA
BRANCH   6   8
ATOM      8  C   UNL d   1      -1.129   0.812  -1.355  0.00  0.00     0.017 C 
ATOM      9  C   UNL d   1      -1.041   2.221  -0.755  0.00  0.00     0.023 C 
ATOM     10  C   UNL d   1      -1.537   0.939  -2.839  0.00  0.00     0.023 C 
ATOM     11  C   UNL d   1      -2.224   0.006  -0.645  0.00  0.00     0.023 C 
ENDBRANCH   6   8
ENDBRANCH   1   6
BRANCH   2  12
ATOM     12  N   UNL d   1       0.990  -0.397   2.306  0.00  0.00    -0.300 N 
ATOM     13  H   UNL d   1       1.830   0.158   2.489  0.00  0.00     0.187 HD
BRANCH  12  14
ATOM     14  C   UNL d   1       0.218  -0.633   3.465  0.00  0.00     0.048 A 
ATOM     15  C   UNL d   1      -1.001  -1.325   3.409  0.00  0.00     0.034 A 
ATOM     16  C   UNL d   1      -1.749  -1.556   4.565  0.00  0.00     0.044 A 
ATOM     17  C   UNL d   1      -1.278  -1.094   5.786  0.00  0.00     0.116 A 
ATOM     18  C   UNL d   1      -0.065  -0.423   5.875  0.00  0.00     0.044 A 
ATOM     19  F   UNL d   1      -2.001  -1.301   6.894  0.00  0.00    -0.206 F 
ATOM     20  C   UNL d   1       0.688  -0.205   4.717  0.00  0.00     0.034 A 
ENDBRANCH  12  14
ENDBRANCH   2  12
TORSDOF 4
