REMARK  5 active torsions:
REMARK  status: ('A' for Active; 'I' for Inactive)
REMARK    1  A    between atoms: N_4  and  C_1 
REMARK    2  A    between atoms: C_2  and  C_3 
REMARK       I    between atoms: N_7  and  C_2 
REMARK    3  A    between atoms: O_24  and  C_5 
REMARK    4  A    between atoms: C_6  and  N_9 
REMARK       I    between atoms: C_8  and  N_7 
REMARK       I    between atoms: N_9  and  C_8 
REMARK    5  A    between atoms: O_25  and  C_15 
ROOT
ATOM      1  C   UNL d   1      -2.015  -2.158   1.002  0.00  0.00     0.265 C 
ATOM      2  N   UNL d   1      -2.927  -1.282   1.568  0.00  0.00    -0.274 N 
ATOM      3  C   UNL d   1      -4.307  -1.281   1.609  0.00  0.00     0.341 C 
ATOM      4  N   UNL d   1      -4.953  -2.339   1.052  0.00  0.00    -0.141 N 
ATOM      5  O   UNL d   1      -2.376  -3.228   0.521  0.00  0.00    -0.267 OA
ATOM      6  O   UNL d   1      -4.817  -0.294   2.140  0.00  0.00    -0.246 OA
ATOM      7  H   UNL d   1      -2.573  -0.399   1.906  0.00  0.00     0.173 HD
ATOM      8  H   UNL d   1      -4.414  -3.113   0.680  0.00  0.00     0.189 HD
ENDROOT
BRANCH   1   9
ATOM      9  C   UNL d   1      -0.558  -1.721   0.997  0.00  0.00     0.101 C 
ATOM     10  C   UNL d   1      -0.153  -0.361   1.048  0.00  0.00     0.119 C 
ATOM     11  C   UNL d   1       1.189  -0.037   0.753  0.00  0.00     0.137 C 
ATOM     12  C   UNL d   1       2.160  -1.019   0.539  0.00  0.00     0.042 C 
ATOM     13  C   UNL d   1       1.789  -2.351   0.624  0.00  0.00     0.040 C 
ATOM     14  C   UNL d   1       0.453  -2.704   0.878  0.00  0.00     0.086 C 
BRANCH  10  15
ATOM     15  O   UNL d   1      -1.092   0.590   1.367  0.00  0.00    -0.352 OA
ATOM     16  C   UNL d   1      -0.722   1.452   2.456  0.00  0.00     0.210 C 
ENDBRANCH  10  15
BRANCH  11  17
ATOM     17  N   UNL d   1       1.623   1.340   0.592  0.00  0.00    -0.113 N 
ATOM     18  O   UNL d   1       1.008   2.042  -0.220  0.00  0.00    -0.532 OA
ATOM     19  O   UNL d   1       2.591   1.704   1.273  0.00  0.00    -0.532 OA
ENDBRANCH  11  17
BRANCH  14  20
ATOM     20  O   UNL d   1       0.142  -4.035   0.965  0.00  0.00    -0.355 OA
ATOM     21  C   UNL d   1       0.854  -4.729   1.994  0.00  0.00     0.210 C 
ENDBRANCH  14  20
ENDBRANCH   1   9
BRANCH   4  22
ATOM     22  C   UNL d   1      -6.340  -2.428   0.895  0.00  0.00     0.686 A 
ATOM     23  N   UNL d   1      -6.815  -3.536   0.293  0.00  0.00    -0.196 N 
ATOM     24  C   UNL d   1      -8.153  -3.598   0.083  0.00  0.00     0.024 A 
ATOM     25  HN  UNL d   1      -6.196  -4.295   0.008  1.00  0.00     0.184 HD
ATOM     26  C   UNL d   1      -8.713  -4.795  -0.631  0.00  0.00     0.068 C 
ATOM     27  C   UNL d   1      -9.014  -2.582   0.448  0.00  0.00     0.050 A 
ATOM     28  C   UNL d   1      -8.445  -1.494   1.066  0.00  0.00     0.024 A 
ATOM     29  N   UNL d   1      -7.121  -1.416   1.291  0.00  0.00    -0.196 N 
ATOM     30  C   UNL d   1      -9.278  -0.315   1.462  0.00  0.00     0.068 C 
ATOM     31  HN  UNL d   1      -6.721  -0.601   1.756  1.00  0.00     0.184 HD
ENDBRANCH   4  22
TORSDOF 5
