REMARK  4 active torsions:
REMARK  status: ('A' for Active; 'I' for Inactive)
REMARK    1  A    between atoms: C_7  and  C_1 
REMARK    2  A    between atoms: C_9  and  C_5 
REMARK    3  A    between atoms: S_8  and  C_7 
REMARK    4  A    between atoms: C_11  and  S_8 
ROOT
ATOM      1  C   UNL d   1      -0.209  -1.085   0.371  0.00  0.00     0.086 C 
ATOM      2  S   UNL d   1       1.233  -0.220   0.713  0.00  0.00    -0.065 SA
ATOM      3  N   UNL d   1      -0.795   1.162   0.032  0.00  0.00    -0.352 N 
ATOM      4  HN  UNL d   1      -1.409   1.953  -0.164  1.00  0.00     0.166 HD
ATOM      5  C   UNL d   1       0.500   1.260   0.260  0.00  0.00     0.085 C 
ATOM      6  C   UNL d   1      -1.213  -0.164   0.096  0.00  0.00     0.028 C 
ATOM      7  C   UNL d   1      -2.648  -0.451  -0.185  0.00  0.00     0.070 C 
ENDROOT
BRANCH   1   8
ATOM      8  C   UNL d   1      -0.307  -2.541   0.391  0.00  0.00     0.232 C 
ATOM      9  O   UNL d   1      -1.361  -3.146   0.223  0.00  0.00    -0.279 OA
BRANCH   8  10
ATOM     10  S   UNL d   1       1.230  -3.394   0.572  0.00  0.00    -0.047 SA
BRANCH  10  11
ATOM     11  C   UNL d   1       0.907  -5.086   0.999  0.00  0.00     0.008 A 
ATOM     12  C   UNL d   1      -0.283  -5.576   1.541  0.00  0.00     0.021 A 
ATOM     13  C   UNL d   1      -0.412  -6.931   1.869  0.00  0.00     0.025 A 
ATOM     14  C   UNL d   1       0.658  -7.801   1.682  0.00  0.00     0.034 A 
ATOM     15  C   UNL d   1       1.861  -7.328   1.170  0.00  0.00     0.025 A 
ATOM     16 CL   UNL d   1       0.498  -9.462   2.093  0.00  0.00    -0.084 Cl
ATOM     17  C   UNL d   1       1.981  -5.978   0.830  0.00  0.00     0.021 A 
ENDBRANCH  10  11
ENDBRANCH   8  10
ENDBRANCH   1   8
BRANCH   5  18
ATOM     18  C   UNL d   1       1.292   2.502   0.139  0.00  0.00    -0.002 A 
ATOM     19  C   UNL d   1       2.698   2.521   0.197  0.00  0.00     0.014 A 
ATOM     20  C   UNL d   1       3.416   3.708   0.029  0.00  0.00     0.001 A 
ATOM     21  C   UNL d   1       2.741   4.902  -0.200  0.00  0.00     0.000 A 
ATOM     22  C   UNL d   1       1.350   4.910  -0.257  0.00  0.00     0.001 A 
ATOM     23  C   UNL d   1       0.632   3.720  -0.090  0.00  0.00     0.014 A 
ENDBRANCH   5  18
TORSDOF 4
