REMARK  1 active torsions:
REMARK  status: ('A' for Active; 'I' for Inactive)
REMARK    1  A    between atoms: C_9  and  C_7 
ROOT
ATOM      1  C   UNL d   1       1.184   0.878  -0.011  0.00  0.00    -0.042 A 
ATOM      2  C   UNL d   1       0.724  -0.455  -0.021  0.00  0.00    -0.019 A 
ATOM      3  C   UNL d   1      -0.724  -0.446  -0.020  0.00  0.00    -0.019 A 
ATOM      4  C   UNL d   1      -1.169   0.894  -0.012  0.00  0.00    -0.043 A 
ATOM      5  C   UNL d   1       0.014   1.841  -0.013  0.00  0.00     0.078 A 
ATOM      6  C   UNL d   1       2.538   1.175   0.007  0.00  0.00     0.023 A 
ATOM      7  C   UNL d   1       3.453   0.112   0.006  0.00  0.00     0.010 A 
ATOM      8  C   UNL d   1       1.623  -1.509  -0.014  0.00  0.00     0.014 A 
ATOM      9  C   UNL d   1       2.995  -1.221   0.002  0.00  0.00     0.016 A 
ATOM     10  C   UNL d   1      -1.636  -1.488  -0.017  0.00  0.00     0.013 A 
ATOM     11  C   UNL d   1      -2.518   1.210   0.001  0.00  0.00     0.008 A 
ATOM     12  C   UNL d   1      -3.000  -1.178  -0.006  0.00  0.00     0.001 A 
ATOM     13  C   UNL d   1      -3.436   0.159   0.003  0.00  0.00     0.001 A 
ENDROOT
BRANCH   7  14
ATOM     14  C   UNL d   1       4.906   0.450   0.033  0.00  0.00     0.155 C 
ATOM     15  O   UNL d   1       5.264   1.517   0.530  0.00  0.00    -0.293 OA
ATOM     16  C   UNL d   1       5.910  -0.493  -0.575  0.00  0.00     0.096 C 
ENDBRANCH   7  14
TORSDOF 1
