REMARK  4 active torsions:
REMARK  status: ('A' for Active; 'I' for Inactive)
REMARK    1  A    between atoms: C_2  and  S_1 
REMARK    2  A    between atoms: C_10  and  S_1 
REMARK    3  A    between atoms: N_13  and  C_5 
REMARK    4  A    between atoms: N_14  and  C_6 
ROOT
ATOM      1  C   UNL d   1       0.426  -1.432  -0.761  0.00  0.00     0.113 A 
ATOM      2  N   UNL d   1      -1.173  -2.762  -1.902  0.00  0.00    -0.322 N 
ATOM      3  HN  UNL d   1      -2.076  -2.864  -2.367  1.00  0.00     0.169 HD
ATOM      4  C   UNL d   1      -0.777  -1.575  -1.409  0.00  0.00     0.103 A 
ATOM      5  C   UNL d   1      -0.345  -3.803  -1.764  0.00  0.00     0.155 A 
ATOM      6  N   UNL d   1       0.871  -3.736  -1.219  0.00  0.00    -0.341 N 
ATOM      7  HN  UNL d   1       1.485  -4.550  -1.173  1.00  0.00     0.167 HD
ATOM      8  C   UNL d   1       1.243  -2.537  -0.731  0.00  0.00     0.117 A 
ENDROOT
BRANCH   1   9
ATOM      9  S   UNL d   1       0.986   0.083  -0.089  0.00  0.00     0.187 S 
ATOM     10  O   UNL d   1       0.385   1.151  -0.871  0.00  0.00    -0.222 OA
ATOM     11  O   UNL d   1       2.435  -0.009  -0.027  0.00  0.00    -0.222 OA
BRANCH   9  12
ATOM     12  C   UNL d   1       0.354   0.159   1.621  0.00  0.00     0.058 C 
ATOM     13  C   UNL d   1       0.896  -1.019   2.444  0.00  0.00     0.031 C 
ATOM     14  C   UNL d   1       0.848   1.474   2.251  0.00  0.00     0.031 C 
ATOM     15  C   UNL d   1      -1.178   0.146   1.653  0.00  0.00     0.031 C 
ENDBRANCH   9  12
ENDBRANCH   1   9
BRANCH   4  16
ATOM     16  N   UNL d   1      -1.720  -0.559  -1.511  0.00  0.00    -0.287 NA
ATOM     17  H   UNL d   1      -2.481  -0.870  -2.111  0.00  0.00     0.125 HD
ATOM     18  H   UNL d   1      -1.317   0.331  -1.812  0.00  0.00     0.125 HD
ENDBRANCH   4  16
BRANCH   5  19
ATOM     19  N   UNL d   1      -0.767  -5.028  -2.228  0.00  0.00    -0.274 NA
ATOM     20  H   UNL d   1       0.025  -5.624  -2.422  0.00  0.00     0.127 HD
ATOM     21  H   UNL d   1      -1.460  -4.917  -2.953  0.00  0.00     0.127 HD
ENDBRANCH   5  19
TORSDOF 4
