REMARK  5 active torsions:
REMARK  status: ('A' for Active; 'I' for Inactive)
REMARK    1  A    between atoms: C_4  and  C_1 
REMARK       I    between atoms: C_2  and  N_5 
REMARK    2  A    between atoms: C_9  and  C_2 
REMARK    3  A    between atoms: O_11  and  C_3 
REMARK    4  A    between atoms: N_5  and  C_6 
REMARK    5  A    between atoms: C_13  and  O_11 
ROOT
ATOM      1  C   UNL d   1      -2.551   5.781  -5.871  0.00  0.00     0.074 A 
ATOM      2  C   UNL d   1      -1.325   5.655  -5.208  0.00  0.00     0.145 A 
ATOM      3  C   UNL d   1      -1.099   4.657  -4.258  0.00  0.00     0.081 A 
ATOM      4  C   UNL d   1      -2.144   3.809  -3.896  0.00  0.00     0.079 A 
ATOM      5  C   UNL d   1      -3.572   4.893  -5.538  0.00  0.00     0.035 A 
ATOM      6  F   UNL d   1      -0.327   6.507  -5.500  0.00  0.00    -0.204 F 
ATOM      7  C   UNL d   1      -3.369   3.915  -4.559  0.00  0.00     0.040 A 
ENDROOT
BRANCH   4   8
ATOM      8  O   UNL d   1      -2.091   2.828  -2.933  0.00  0.00    -0.309 OA
BRANCH   8   9
ATOM      9  C   UNL d   1      -1.216   2.920  -1.873  0.00  0.00     0.098 C 
ATOM     10  C   UNL d   1      -0.623   1.700  -1.506  0.00  0.00     0.055 C 
ATOM     11  C   UNL d   1       0.253   1.621  -0.410  0.00  0.00     0.050 C 
ATOM     12  C   UNL d   1       0.585   2.799   0.271  0.00  0.00     0.018 C 
ATOM     13  C   UNL d   1      -0.036   4.005  -0.060  0.00  0.00     0.027 C 
ATOM     14  C   UNL d   1      -0.981   4.056  -1.088  0.00  0.00     0.068 C 
ATOM     15 CL   UNL d   1      -1.880   5.526  -1.233  0.00  0.00    -0.081 Cl
BRANCH  11  16
ATOM     16  C   UNL d   1       0.796   0.300   0.083  0.00  0.00     0.417 C 
ATOM     17  F   UNL d   1       0.322  -0.778  -0.598  0.00  0.00    -0.166 F 
ATOM     18  F   UNL d   1       0.486   0.079   1.391  0.00  0.00    -0.166 F 
ATOM     19  F   UNL d   1       2.153   0.231   0.006  0.00  0.00    -0.166 F 
ENDBRANCH  11  16
ENDBRANCH   8   9
ENDBRANCH   4   8
BRANCH   1  20
ATOM     20  N   UNL d   1      -2.667   6.795  -6.859  0.00  0.00    -0.321 N 
ATOM     21  C   UNL d   1      -3.721   6.950  -7.740  0.00  0.00     0.246 C 
ATOM     22  O   UNL d   1      -4.746   6.274  -7.759  0.00  0.00    -0.268 OA
ATOM     23  H   UNL d   1      -1.860   7.395  -6.959  0.00  0.00     0.169 HD
BRANCH  21  24
ATOM     24  C   UNL d   1      -3.468   7.994  -8.775  0.00  0.00     0.076 C 
ATOM     25  C   UNL d   1      -4.440   8.601  -9.492  0.00  0.00    -0.082 C 
ATOM     26  C   UNL d   1      -5.920   8.497  -9.223  0.00  0.00     0.043 C 
ATOM     27  C   UNL d   1      -4.089   9.448 -10.684  0.00  0.00     0.043 C 
ENDBRANCH  21  24
ENDBRANCH   1  20
TORSDOF 5
