REMARK  4 active torsions:
REMARK  status: ('A' for Active; 'I' for Inactive)
REMARK    1  A    between atoms: C_7  and  C_13 
REMARK    2  A    between atoms: C_19  and  N_10 
REMARK    3  A    between atoms: C_13  and  C_17 
REMARK    4  A    between atoms: C_17  and  C_19 
ROOT
ATOM      1  N   UNL d   1       1.084  -0.122  -0.267  0.00  0.00    -0.306 N 
ATOM      2  HN  UNL d   1       2.083  -0.324  -0.308  1.00  0.00     0.186 HD
ATOM      3  C   UNL d   1       0.536   1.047  -0.108  0.00  0.00     0.044 C 
ATOM      4  C   UNL d   1       1.315   2.261  -0.020  0.00  0.00     0.030 A 
ATOM      5  S   UNL d   1       0.559   3.786   0.202  0.00  0.00    -0.076 SA
ATOM      6  C   UNL d   1       2.043   4.591   0.190  0.00  0.00     0.075 A 
ATOM      7  N   UNL d   1       0.069  -1.023  -0.369  0.00  0.00    -0.327 N 
ATOM      8  C   UNL d   1       2.691   2.398  -0.101  0.00  0.00     0.023 A 
ATOM      9  C   UNL d   1       3.115   3.756   0.021  0.00  0.00     0.033 A 
ATOM     10  C   UNL d   1      -0.963   1.029  -0.038  0.00  0.00     0.081 C 
ATOM     11  C   UNL d   1      -1.213  -0.461   0.049  0.00  0.00     0.148 C 
ATOM     12 CL   UNL d   1       2.087   6.297   0.377  0.00  0.00    -0.076 Cl
ENDROOT
BRANCH   7  13
ATOM     13  C   UNL d   1       0.334  -2.397   0.090  0.00  0.00     0.150 C 
BRANCH  13  14
ATOM     14  C   UNL d   1      -0.855  -3.341  -0.104  0.00  0.00     0.106 C 
BRANCH  14  15
ATOM     15  C   UNL d   1      -0.547  -4.775   0.305  0.00  0.00     0.168 C 
ATOM     16  O   UNL d   1       0.573  -5.090   0.704  0.00  0.00    -0.292 OA
BRANCH  15  17
ATOM     17  C   UNL d   1      -1.630  -5.759   0.216  0.00  0.00     0.052 A 
ATOM     18  S   UNL d   1      -3.214  -5.350  -0.306  0.00  0.00    -0.074 SA
ATOM     19  C   UNL d   1      -3.757  -6.937  -0.113  0.00  0.00     0.075 A 
ATOM     20 CL   UNL d   1      -5.389  -7.330  -0.476  0.00  0.00    -0.076 Cl
ATOM     21  C   UNL d   1      -2.788  -7.793   0.336  0.00  0.00     0.033 A 
ATOM     22  C   UNL d   1      -1.551  -7.107   0.530  0.00  0.00     0.025 A 
ENDBRANCH  15  17
ENDBRANCH  14  15
ENDBRANCH  13  14
ENDBRANCH   7  13
TORSDOF 4
