REMARK  6 active torsions:
REMARK  status: ('A' for Active; 'I' for Inactive)
REMARK    1  A    between atoms: C_3  and  C_1 
REMARK    2  A    between atoms: C_9  and  N_2 
REMARK       I    between atoms: C_6  and  N_11 
REMARK       I    between atoms: N_10  and  C_6 
REMARK    3  A    between atoms: C_7  and  O_13 
REMARK    4  A    between atoms: C_24  and  N_10 
REMARK    5  A    between atoms: N_11  and  C_23 
REMARK    6  A    between atoms: O_13  and  C_25 
ROOT
ATOM      1  C   UNL d   1       5.592  -4.457  -1.535  0.00  0.00     0.325 C 
ATOM      2  N   UNL d   1       6.861  -4.987  -1.717  0.00  0.00    -0.309 N 
ATOM      3  N   UNL d   1       5.530  -3.663  -0.395  0.00  0.00    -0.309 N 
ATOM      4  O   UNL d   1       4.635  -4.693  -2.266  0.00  0.00    -0.247 OA
ATOM      5  H   UNL d   1       7.606  -4.603  -1.154  0.00  0.00     0.170 HD
ATOM      6  H   UNL d   1       6.403  -3.405   0.035  0.00  0.00     0.170 HD
ENDROOT
BRANCH   3   7
ATOM      7  C   UNL d   1       4.353  -3.243   0.272  0.00  0.00     0.036 A 
ATOM      8  C   UNL d   1       3.071  -3.605  -0.138  0.00  0.00     0.032 A 
ATOM      9  C   UNL d   1       1.955  -3.292   0.643  0.00  0.00     0.034 A 
ATOM     10  C   UNL d   1       2.095  -2.579   1.840  0.00  0.00     0.057 A 
ATOM     11  C   UNL d   1       3.369  -2.160   2.233  0.00  0.00     0.034 A 
ATOM     12  C   UNL d   1       4.490  -2.496   1.451  0.00  0.00     0.032 A 
BRANCH  10  13
ATOM     13  N   UNL d   1       0.942  -2.412   2.659  0.00  0.00    -0.252 N 
ATOM     14  C   UNL d   1       0.641  -1.493   3.643  0.00  0.00     0.141 C 
ATOM     15  C   UNL d   1      -0.438  -2.006   4.341  0.00  0.00     0.055 C 
ATOM     16  C   UNL d   1      -0.819  -3.146   3.629  0.00  0.00     0.110 C 
ATOM     17  N   UNL d   1      -0.051  -3.344   2.563  0.00  0.00    -0.305 N 
ATOM     18  HN  UNL d   1      -0.177  -4.043   1.831  1.00  0.00     0.186 HD
BRANCH  14  19
ATOM     19  C   UNL d   1       1.316  -0.201   3.806  0.00  0.00     0.434 C 
ATOM     20  F   UNL d   1       1.952   0.236   2.695  0.00  0.00    -0.165 F 
ATOM     21  F   UNL d   1       0.427   0.772   4.138  0.00  0.00    -0.165 F 
ATOM     22  F   UNL d   1       2.232  -0.241   4.804  0.00  0.00    -0.165 F 
ENDBRANCH  14  19
ENDBRANCH  10  13
ENDBRANCH   3   7
BRANCH   2  23
ATOM     23  C   UNL d   1       7.221  -6.020  -2.613  0.00  0.00     0.036 A 
ATOM     24  C   UNL d   1       6.307  -6.718  -3.409  0.00  0.00     0.032 A 
ATOM     25  C   UNL d   1       6.720  -7.760  -4.256  0.00  0.00     0.039 A 
ATOM     26  C   UNL d   1       8.063  -8.110  -4.332  0.00  0.00     0.078 A 
ATOM     27  C   UNL d   1       8.979  -7.427  -3.526  0.00  0.00     0.039 A 
ATOM     28  C   UNL d   1       8.565  -6.395  -2.676  0.00  0.00     0.032 A 
BRANCH  26  29
ATOM     29  O   UNL d   1       8.613  -9.062  -5.139  0.00  0.00    -0.255 OA
BRANCH  29  30
ATOM     30  C   UNL d   1       7.768  -9.756  -6.042  0.00  0.00     0.530 C 
ATOM     31  F   UNL d   1       6.997  -8.916  -6.766  0.00  0.00    -0.144 F 
ATOM     32  F   UNL d   1       8.543 -10.450  -6.907  0.00  0.00    -0.144 F 
ATOM     33  F   UNL d   1       6.983 -10.634  -5.382  0.00  0.00    -0.144 F 
ENDBRANCH  29  30
ENDBRANCH  26  29
ENDBRANCH   2  23
TORSDOF 6
