REMARK  4 active torsions:
REMARK  status: ('A' for Active; 'I' for Inactive)
REMARK    1  A    between atoms: C_7  and  C_1 
REMARK    2  A    between atoms: C_9  and  C_4 
REMARK    3  A    between atoms: C_8  and  C_7 
REMARK    4  A    between atoms: O_12  and  C_7 
ROOT
ATOM      1  C   UNL d   1      -0.011  -1.274   0.023  0.00  0.00     0.036 A 
ATOM      2  N   UNL d   1      -1.362   0.567   0.131  0.00  0.00    -0.260 N 
ATOM      3  HN  UNL d   1      -2.181   1.173   0.168  1.00  0.00     0.195 HD
ATOM      4  C   UNL d   1      -1.359  -0.776   0.135  0.00  0.00     0.076 A 
ATOM      5  O   UNL d   1      -0.052   0.965   0.066  0.00  0.00    -0.242 OA
ATOM      6  C   UNL d   1       0.755  -0.120   0.009  0.00  0.00     0.084 A 
ATOM      7  C   UNL d   1       2.202   0.163  -0.051  0.00  0.00     0.079 C 
ENDROOT
BRANCH   1   8
ATOM      8  C   UNL d   1       0.468  -2.687  -0.047  0.00  0.00     0.189 C 
BRANCH   8   9
ATOM      9  C   UNL d   1       0.627  -3.119  -1.506  0.00  0.00    -0.025 A 
ATOM     10  C   UNL d   1       1.514  -4.179  -1.805  0.00  0.00     0.013 A 
ATOM     11  C   UNL d   1       1.651  -4.670  -3.106  0.00  0.00     0.043 A 
ATOM     12  C   UNL d   1       0.879  -4.132  -4.121  0.00  0.00     0.116 A 
ATOM     13  C   UNL d   1      -0.026  -3.112  -3.863  0.00  0.00     0.043 A 
ATOM     14  F   UNL d   1       0.997  -4.608  -5.369  0.00  0.00    -0.206 F 
ATOM     15  C   UNL d   1      -0.159  -2.616  -2.562  0.00  0.00     0.013 A 
ENDBRANCH   8   9
BRANCH   8  16
ATOM     16  O   UNL d   1       1.698  -2.833   0.669  0.00  0.00    -0.386 OA
ATOM     17  H   UNL d   1       2.409  -2.579   0.061  0.00  0.00     0.210 HD
ENDBRANCH   8  16
ENDBRANCH   1   8
BRANCH   4  18
ATOM     18  C   UNL d   1      -2.634  -1.500   0.181  0.00  0.00    -0.007 A 
ATOM     19  C   UNL d   1      -3.739  -1.005  -0.531  0.00  0.00     0.014 A 
ATOM     20  C   UNL d   1      -4.961  -1.683  -0.521  0.00  0.00     0.001 A 
ATOM     21  C   UNL d   1      -5.091  -2.869   0.197  0.00  0.00     0.000 A 
ATOM     22  C   UNL d   1      -4.010  -3.361   0.925  0.00  0.00     0.001 A 
ATOM     23  C   UNL d   1      -2.794  -2.671   0.931  0.00  0.00     0.014 A 
ENDBRANCH   4  18
TORSDOF 4
