REMARK  2 active torsions:
REMARK  status: ('A' for Active; 'I' for Inactive)
REMARK    1  A    between atoms: N_5  and  C_3 
REMARK    2  A    between atoms: N_10  and  C_9 
ROOT
ATOM      1  N   UNL d   1      -0.239  -1.409  -0.615  0.00  0.00    -0.245 N 
ATOM      2  HN  UNL d   1      -0.202  -2.309  -1.093  1.00  0.00     0.196 HD
ATOM      3  C   UNL d   1      -1.291  -0.858  -0.005  0.00  0.00     0.129 A 
ATOM      4  C   UNL d   1      -0.999   0.410   0.522  0.00  0.00     0.084 A 
ATOM      5  O   UNL d   1       0.790  -0.494  -0.458  0.00  0.00    -0.241 OA
ATOM      6  C   UNL d   1       0.328   0.594   0.218  0.00  0.00     0.076 A 
ATOM      7  C   UNL d   1       1.296   1.679   0.459  0.00  0.00     0.079 C 
ENDROOT
BRANCH   3   8
ATOM      8  N   UNL d   1      -2.570  -1.421   0.053  0.00  0.00    -0.337 N 
ATOM      9  C   UNL d   1      -2.565  -2.713   0.053  0.00  0.00     0.179 C 
ATOM     10  HN  UNL d   1      -3.424  -0.865   0.091  1.00  0.00     0.168 HD
BRANCH   9  11
ATOM     11  N   UNL d   1      -3.676  -3.530   0.090  0.00  0.00    -0.386 N 
ATOM     12  C   UNL d   1      -5.026  -2.992   0.065  0.00  0.00     0.149 C 
ATOM     13  C   UNL d   1      -3.565  -4.978   0.074  0.00  0.00     0.149 C 
ENDBRANCH   9  11
ENDBRANCH   3   8
TORSDOF 2
