REMARK  3 active torsions:
REMARK  status: ('A' for Active; 'I' for Inactive)
REMARK    1  A    between atoms: C_12  and  C_2 
REMARK    2  A    between atoms: C_13  and  C_10 
REMARK    3  A    between atoms: C_14  and  C_11 
ROOT
ATOM      1  N   UNL d   1       0.333   0.644   0.025  0.00  0.00    -0.235 N 
ATOM      2  C   UNL d   1      -0.791   1.464   0.025  0.00  0.00     0.144 A 
ATOM      3  C   UNL d   1       0.181  -0.748   0.009  0.00  0.00     0.130 A 
ATOM      4  N   UNL d   1       1.643   0.982   0.043  0.00  0.00    -0.291 N 
ATOM      5  HN  UNL d   1       2.032   1.924   0.083  1.00  0.00     0.187 HD
ATOM      6  N   UNL d   1      -1.037  -1.364   0.031  0.00  0.00    -0.337 N 
ATOM      7  HN  UNL d   1      -1.117  -2.381   0.033  1.00  0.00     0.167 HD
ATOM      8  C   UNL d   1      -2.019   0.904   0.026  0.00  0.00     0.071 A 
ATOM      9  C   UNL d   1       1.447  -1.273  -0.024  0.00  0.00     0.082 A 
ATOM     10  C   UNL d   1      -2.095  -0.598   0.049  0.00  0.00     0.120 A 
ATOM     11  C   UNL d   1       2.326  -0.169  -0.003  0.00  0.00     0.062 A 
ENDROOT
BRANCH  11  12
ATOM     12  C   UNL d   1       3.790  -0.201  -0.005  0.00  0.00    -0.008 A 
ATOM     13  C   UNL d   1       4.527   0.818   0.615  0.00  0.00     0.015 A 
ATOM     14  C   UNL d   1       5.925   0.765   0.651  0.00  0.00     0.024 A 
ATOM     15  C   UNL d   1       6.592  -0.302   0.056  0.00  0.00     0.034 A 
ATOM     16  C   UNL d   1       5.876  -1.314  -0.580  0.00  0.00     0.024 A 
ATOM     17 CL   UNL d   1       8.310  -0.377   0.109  0.00  0.00    -0.084 Cl
ATOM     18  C   UNL d   1       4.479  -1.263  -0.610  0.00  0.00     0.015 A 
ENDBRANCH  11  12
BRANCH   2  19
ATOM     19  C   UNL d   1      -0.617   2.939   0.019  0.00  0.00     0.434 C 
ATOM     20  F   UNL d   1       0.650   3.407  -0.017  0.00  0.00    -0.165 F 
ATOM     21  F   UNL d   1      -1.258   3.487  -1.051  0.00  0.00    -0.165 F 
ATOM     22  F   UNL d   1      -1.201   3.489   1.119  0.00  0.00    -0.165 F 
ENDBRANCH   2  19
BRANCH  10  23
ATOM     23  C   UNL d   1      -3.491  -1.228   0.110  0.00  0.00     0.432 C 
ATOM     24  F   UNL d   1      -4.485  -0.296   0.114  0.00  0.00    -0.165 F 
ATOM     25  F   UNL d   1      -3.738  -2.043  -0.950  0.00  0.00    -0.165 F 
ATOM     26  F   UNL d   1      -3.668  -1.976   1.232  0.00  0.00    -0.165 F 
ENDBRANCH  10  23
TORSDOF 3
