REMARK  4 active torsions:
REMARK  status: ('A' for Active; 'I' for Inactive)
REMARK    1  A    between atoms: N_6  and  C_1 
REMARK    2  A    between atoms: O_5  and  C_4 
REMARK    3  A    between atoms: C_7  and  O_5 
REMARK    4  A    between atoms: C_8  and  C_7 
ROOT
ATOM      1  C   UNL d   1       0.897  -0.111  -0.652  0.00  0.00     0.111 A 
ATOM      2  N   UNL d   1       0.308   1.103  -0.677  0.00  0.00    -0.355 N 
ATOM      3  HN  UNL d   1       0.773   1.908  -1.096  1.00  0.00     0.166 HD
ATOM      4  C   UNL d   1       0.304  -1.231  -0.059  0.00  0.00     0.107 A 
ATOM      5  C   UNL d   1      -0.920   1.215  -0.126  0.00  0.00     0.089 A 
ATOM      6  C   UNL d   1      -0.967  -1.075   0.497  0.00  0.00     0.041 A 
ATOM      7  C   UNL d   1      -1.594   0.166   0.469  0.00  0.00     0.020 A 
ENDROOT
BRANCH   4   8
ATOM      8  O   UNL d   1       0.785  -2.512  -0.028  0.00  0.00    -0.343 OA
BRANCH   8   9
ATOM      9  C   UNL d   1       2.191  -2.662   0.183  0.00  0.00     0.214 C 
BRANCH   9  10
ATOM     10  C   UNL d   1       2.482  -4.131   0.400  0.00  0.00    -0.034 A 
ATOM     11  C   UNL d   1       2.132  -5.068  -0.589  0.00  0.00     0.009 A 
ATOM     12  C   UNL d   1       2.438  -6.419  -0.428  0.00  0.00     0.001 A 
ATOM     13  C   UNL d   1       3.096  -6.852   0.720  0.00  0.00     0.000 A 
ATOM     14  C   UNL d   1       3.446  -5.934   1.710  0.00  0.00     0.001 A 
ATOM     15  C   UNL d   1       3.142  -4.579   1.550  0.00  0.00     0.009 A 
ENDBRANCH   9  10
ENDBRANCH   8   9
ENDBRANCH   4   8
BRANCH   1  16
ATOM     16  N   UNL d   1       2.123  -0.148  -1.315  0.00  0.00    -0.286 NA
ATOM     17  H   UNL d   1       2.269   0.794  -1.672  0.00  0.00     0.125 HD
ATOM     18  H   UNL d   1       2.078  -0.817  -2.077  0.00  0.00     0.125 HD
ENDBRANCH   1  16
TORSDOF 4
