REMARK  12 active torsions:
REMARK  status: ('A' for Active; 'I' for Inactive)
REMARK    1  A    between atoms: N_2  and  C_1 
REMARK    2  A    between atoms: C_4  and  C_1 
REMARK    3  A    between atoms: C_6  and  C_1 
REMARK    4  A    between atoms: N_7  and  C_1 
REMARK       I    between atoms: C_3  and  N_2 
REMARK    5  A    between atoms: C_5  and  C_3 
REMARK    6  A    between atoms: O_18  and  C_6 
REMARK    7  A    between atoms: C_24  and  N_7 
REMARK    8  A    between atoms: O_22  and  C_8 
REMARK    9  A    between atoms: O_25  and  C_11 
REMARK   10  A    between atoms: C_28  and  O_18 
REMARK   11  A    between atoms: C_19  and  C_26 
REMARK   12  A    between atoms: C_26  and  C_24 
ROOT
ATOM      1  C   UNL d   1       1.020  -0.021   0.012  0.00  0.00     0.416 C 
ENDROOT
BRANCH   1   2
ATOM      2  N   UNL d   1       0.761  -1.298  -0.661  0.00  0.00    -0.306 N 
ATOM      3  C   UNL d   1      -0.497  -1.800  -0.882  0.00  0.00     0.256 C 
ATOM      4  O   UNL d   1      -1.513  -1.193  -0.571  0.00  0.00    -0.268 OA
ATOM      5  H   UNL d   1       1.568  -1.752  -1.052  0.00  0.00     0.166 HD
BRANCH   3   6
ATOM      6  C   UNL d   1      -0.576  -3.093  -1.625  0.00  0.00     0.053 A 
ATOM      7  C   UNL d   1       0.322  -4.160  -1.467  0.00  0.00     0.049 A 
ATOM      8 CL   UNL d   1       1.547  -4.210  -0.256  0.00  0.00    -0.083 Cl
ATOM      9  C   UNL d   1       0.213  -5.298  -2.275  0.00  0.00     0.025 A 
ATOM     10  C   UNL d   1      -0.811  -5.408  -3.214  0.00  0.00     0.002 A 
ATOM     11  C   UNL d   1      -1.740  -4.381  -3.336  0.00  0.00     0.001 A 
ATOM     12  C   UNL d   1      -1.626  -3.228  -2.553  0.00  0.00     0.019 A 
ENDBRANCH   3   6
ENDBRANCH   1   2
BRANCH   1  13
ATOM     13  C   UNL d   1       0.188   0.269   1.326  0.00  0.00     0.452 C 
ATOM     14  F   UNL d   1      -0.305  -0.866   1.884  0.00  0.00    -0.166 F 
ATOM     15  F   UNL d   1       0.991   0.825   2.280  0.00  0.00    -0.166 F 
ATOM     16  F   UNL d   1      -0.845   1.123   1.157  0.00  0.00    -0.166 F 
ENDBRANCH   1  13
BRANCH   1  17
ATOM     17  C   UNL d   1       0.692   1.210  -0.889  0.00  0.00     0.329 C 
ATOM     18  O   UNL d   1       1.002   2.360  -0.599  0.00  0.00    -0.260 OA
BRANCH  17  19
ATOM     19  O   UNL d   1       0.043   0.854  -2.036  0.00  0.00    -0.318 OA
BRANCH  19  20
ATOM     20  C   UNL d   1      -0.452   1.920  -2.856  0.00  0.00     0.174 C 
ATOM     21  C   UNL d   1      -1.799   2.389  -2.337  0.00  0.00     0.034 C 
ENDBRANCH  19  20
ENDBRANCH  17  19
ENDBRANCH   1  17
BRANCH   1  22
ATOM     22  N   UNL d   1       2.529  -0.028   0.138  0.00  0.00     0.133 N 
ATOM     23  H   UNL d   1       2.784   0.908   0.479  0.00  0.00     0.320 HD
BRANCH  22  24
ATOM     24  C   UNL d   1       3.032  -1.008   1.109  0.00  0.00     0.278 C 
BRANCH  24  25
ATOM     25  C   UNL d   1       4.563  -0.936   1.258  0.00  0.00     0.068 C 
BRANCH  25  26
ATOM     26  C   UNL d   1       5.036  -2.091   2.113  0.00  0.00    -0.054 A 
ATOM     27  C   UNL d   1       5.355  -3.326   1.521  0.00  0.00     0.046 A 
ATOM     28  C   UNL d   1       5.633  -4.461   2.300  0.00  0.00     0.102 A 
ATOM     29  C   UNL d   1       5.621  -4.338   3.700  0.00  0.00     0.101 A 
ATOM     30  C   UNL d   1       5.319  -3.100   4.286  0.00  0.00     0.040 A 
ATOM     31  C   UNL d   1       5.031  -1.984   3.504  0.00  0.00     0.010 A 
BRANCH  28  32
ATOM     32  O   UNL d   1       5.865  -5.701   1.766  0.00  0.00    -0.353 OA
ATOM     33  C   UNL d   1       5.833  -5.844   0.353  0.00  0.00     0.210 C 
ENDBRANCH  28  32
BRANCH  29  34
ATOM     34  O   UNL d   1       5.809  -5.330   4.628  0.00  0.00    -0.353 OA
ATOM     35  C   UNL d   1       6.663  -6.406   4.267  0.00  0.00     0.210 C 
ENDBRANCH  29  34
ENDBRANCH  25  26
ENDBRANCH  24  25
ENDBRANCH  22  24
ENDBRANCH   1  22
TORSDOF 12
