REMARK  6 active torsions:
REMARK  status: ('A' for Active; 'I' for Inactive)
REMARK    1  A    between atoms: C_3  and  C_7 
REMARK       I    between atoms: N_9  and  C_3 
REMARK    2  A    between atoms: N_4  and  N_9 
REMARK    3  A    between atoms: O_16  and  C_6 
REMARK    4  A    between atoms: O_17  and  C_8 
REMARK    5  A    between atoms: C_14  and  C_13 
REMARK    6  A    between atoms: C_18  and  O_16 
ROOT
ATOM      1  N   UNL d   1       6.217  -2.819   3.646  0.00  0.00    -0.197 NA
ATOM      2  C   UNL d   1       5.700  -2.578   4.654  0.00  0.00     0.068 C 
ATOM      3  C   UNL d   1       4.976  -2.268   5.883  0.00  0.00     0.228 C 
ENDROOT
BRANCH   3   4
ATOM      4  C   UNL d   1       3.489  -2.046   5.688  0.00  0.00     0.249 C 
ATOM      5  N   UNL d   1       2.977  -2.159   4.398  0.00  0.00    -0.270 N 
ATOM      6  H   UNL d   1       3.561  -2.370   3.593  0.00  0.00     0.190 HD
ATOM      7  O   UNL d   1       2.798  -1.779   6.677  0.00  0.00    -0.271 OA
BRANCH   5   8
ATOM      8  N   UNL d   1       1.634  -1.988   4.200  0.00  0.00    -0.308 N 
ATOM      9  C   UNL d   1       1.194  -2.096   2.985  0.00  0.00     0.118 C 
ATOM     10  HN  UNL d   1       1.005  -1.783   4.977  1.00  0.00     0.186 HD
BRANCH   9  11
ATOM     11  C   UNL d   1      -0.250  -1.931   2.673  0.00  0.00    -0.017 A 
ATOM     12  C   UNL d   1      -0.708  -2.051   1.349  0.00  0.00     0.052 A 
ATOM     13  C   UNL d   1      -2.072  -1.887   1.063  0.00  0.00     0.102 A 
ATOM     14  C   UNL d   1      -2.959  -1.611   2.116  0.00  0.00     0.099 A 
ATOM     15  C   UNL d   1      -2.509  -1.496   3.429  0.00  0.00     0.040 A 
ATOM     16  C   UNL d   1      -1.152  -1.655   3.707  0.00  0.00     0.016 A 
BRANCH  13  17
ATOM     17  O   UNL d   1      -2.644  -1.969  -0.181  0.00  0.00    -0.349 OA
BRANCH  17  18
ATOM     18  C   UNL d   1      -1.809  -2.257  -1.296  0.00  0.00     0.171 C 
ATOM     19  C   UNL d   1      -2.671  -2.256  -2.550  0.00  0.00     0.034 C 
ENDBRANCH  17  18
ENDBRANCH  13  17
BRANCH  14  20
ATOM     20  O   UNL d   1      -4.293  -1.452   1.843  0.00  0.00    -0.358 OA
ATOM     21  H   UNL d   1      -4.767  -1.260   2.667  0.00  0.00     0.217 HD
ENDBRANCH  14  20
ENDBRANCH   9  11
ENDBRANCH   5   8
ENDBRANCH   3   4
TORSDOF 6
