REMARK  8 active torsions:
REMARK  status: ('A' for Active; 'I' for Inactive)
REMARK    1  A    between atoms: C_8  and  C_1 
REMARK    2  A    between atoms: C_2  and  S_3 
REMARK    3  A    between atoms: C_5  and  C_2 
REMARK    4  A    between atoms: S_3  and  C_22 
REMARK    5  A    between atoms: C_4  and  C_9 
REMARK    6  A    between atoms: N_10  and  O_23 
REMARK    7  A    between atoms: O_23  and  C_31 
REMARK    8  A    between atoms: C_31  and  C_26 
ROOT
ATOM      1  C   UNL d   1       6.444  -0.247   5.867  0.00  0.00     0.022 A 
ATOM      2  C   UNL d   1       5.419  -0.897   5.159  0.00  0.00     0.025 A 
ATOM      3  C   UNL d   1       5.722  -1.818   4.139  0.00  0.00    -0.031 A 
ATOM      4  C   UNL d   1       7.778  -0.507   5.520  0.00  0.00     0.016 A 
ATOM      5  C   UNL d   1       8.086  -1.383   4.481  0.00  0.00     0.002 A 
ATOM      6  C   UNL d   1       7.062  -2.033   3.792  0.00  0.00     0.009 A 
ENDROOT
BRANCH   3   7
ATOM      7  C   UNL d   1       4.622  -2.587   3.447  0.00  0.00     0.239 C 
BRANCH   7   8
ATOM      8  O   UNL d   1       4.178  -1.871   2.296  0.00  0.00    -0.276 OA
BRANCH   8   9
ATOM      9  N   UNL d   1       3.171  -2.624   1.663  0.00  0.00    -0.270 N 
ATOM     10  C   UNL d   1       2.744  -2.032   0.584  0.00  0.00     0.038 C 
ATOM     11  C   UNL d   1       3.275  -0.686   0.129  0.00  0.00     0.071 C 
ATOM     12  HN  UNL d   1       2.820  -3.518   2.005  1.00  0.00     0.194 HD
BRANCH  10  13
ATOM     13  C   UNL d   1       1.683  -2.696  -0.231  0.00  0.00    -0.010 A 
ATOM     14  C   UNL d   1       0.749  -3.521   0.406  0.00  0.00     0.039 A 
ATOM     15  C   UNL d   1      -0.259  -4.151  -0.333  0.00  0.00     0.056 A 
ATOM     16 CL   UNL d   1      -1.388  -5.140   0.525  0.00  0.00    -0.083 Cl
ATOM     17  C   UNL d   1      -0.332  -3.965  -1.718  0.00  0.00     0.055 A 
ATOM     18  C   UNL d   1       0.611  -3.156  -2.357  0.00  0.00     0.026 A 
ATOM     19 CL   UNL d   1      -1.550  -4.704  -2.693  0.00  0.00    -0.083 Cl
ATOM     20  C   UNL d   1       1.618  -2.526  -1.618  0.00  0.00     0.015 A 
ENDBRANCH  10  13
ENDBRANCH   8   9
ENDBRANCH   7   8
ENDBRANCH   3   7
BRANCH   1  21
ATOM     21  C   UNL d   1       6.204   0.662   7.027  0.00  0.00     0.224 C 
ATOM     22  O   UNL d   1       7.096   0.849   7.849  0.00  0.00    -0.279 OA
BRANCH  21  23
ATOM     23  S   UNL d   1       4.606   1.365   7.208  0.00  0.00    -0.048 SA
BRANCH  23  24
ATOM     24  C   UNL d   1       4.849   3.083   7.621  0.00  0.00     0.008 A 
ATOM     25  C   UNL d   1       3.818   3.963   7.263  0.00  0.00     0.020 A 
ATOM     26  C   UNL d   1       3.852   5.311   7.633  0.00  0.00     0.017 A 
ATOM     27  C   UNL d   1       4.926   5.817   8.376  0.00  0.00     0.048 A 
ATOM     28  C   UNL d   1       5.973   4.950   8.710  0.00  0.00     0.017 A 
ATOM     29  C   UNL d   1       5.932   3.598   8.340  0.00  0.00     0.020 A 
BRANCH  27  30
ATOM     30  C   UNL d   1       4.916   7.257   8.826  0.00  0.00     0.417 C 
ATOM     31  F   UNL d   1       6.006   7.609   9.562  0.00  0.00    -0.166 F 
ATOM     32  F   UNL d   1       3.834   7.547   9.603  0.00  0.00    -0.166 F 
ATOM     33  F   UNL d   1       4.870   8.132   7.784  0.00  0.00    -0.166 F 
ENDBRANCH  27  30
ENDBRANCH  23  24
ENDBRANCH  21  23
ENDBRANCH   1  21
TORSDOF 8
