REMARK  1 active torsions:
REMARK  status: ('A' for Active; 'I' for Inactive)
REMARK    1  A    between atoms: S_13  and  C_6 
ROOT
ATOM      1  C   UNL d   1       0.394  -0.620   0.001  0.00  0.00     0.136 A 
ATOM      2  C   UNL d   1       0.185   0.747  -0.001  0.00  0.00     0.110 A 
ATOM      3  S   UNL d   1       1.689   1.549   0.000  0.00  0.00    -0.045 SA
ATOM      4  N   UNL d   1       1.716  -1.037   0.003  0.00  0.00    -0.338 N 
ATOM      5  HN  UNL d   1       2.035  -2.005   0.005  1.00  0.00     0.167 HD
ATOM      6  C   UNL d   1       2.490   0.027   0.003  0.00  0.00     0.114 A 
ATOM      7  N   UNL d   1      -1.009   1.399  -0.003  0.00  0.00    -0.345 N 
ATOM      8  HN  UNL d   1      -1.090   2.416  -0.004  1.00  0.00     0.167 HD
ATOM      9  C   UNL d   1      -0.781  -1.474   0.001  0.00  0.00     0.276 A 
ATOM     10  N   UNL d   1      -1.970  -0.767  -0.002  0.00  0.00    -0.318 N 
ATOM     11  C   UNL d   1      -2.034   0.608  -0.004  0.00  0.00     0.184 A 
ATOM     12  O   UNL d   1      -0.764  -2.702   0.003  0.00  0.00    -0.266 OA
ATOM     13  H   UNL d   1      -2.812  -1.325  -0.003  0.00  0.00     0.169 HD
ENDROOT
BRANCH   6  14
ATOM     14  S   UNL d   1       4.239  -0.078   0.004  0.00  0.00    -0.109 SA
ATOM     15  C   UNL d   1       4.489  -1.865   0.004  0.00  0.00     0.097 C 
ENDBRANCH   6  14
TORSDOF 1
