REMARK  3 active torsions:
REMARK  status: ('A' for Active; 'I' for Inactive)
REMARK    1  A    between atoms: N_3  and  N_1 
REMARK    2  A    between atoms: N_2  and  C_4 
REMARK    3  A    between atoms: C_7  and  N_3 
ROOT
ATOM      1  C   UNL d   1       5.904   0.068   0.403  0.00  0.00     0.118 A 
ATOM      2  C   UNL d   1       3.360  -1.050   0.242  0.00  0.00     0.122 A 
ATOM      3  N   UNL d   1       3.506   0.270   0.515  0.00  0.00    -0.349 N 
ATOM      4  HN  UNL d   1       2.685   0.856   0.667  1.00  0.00     0.167 HD
ATOM      5  C   UNL d   1       4.753   0.809   0.586  0.00  0.00     0.125 A 
ATOM      6  C   UNL d   1       5.783  -1.294   0.161  0.00  0.00     0.041 A 
ATOM      7  C   UNL d   1       4.502  -1.850   0.090  0.00  0.00     0.052 A 
ENDROOT
BRANCH   2   8
ATOM      8  N   UNL d   1       2.067  -1.567   0.071  0.00  0.00    -0.274 N 
ATOM      9  C   UNL d   1       1.885  -2.928  -0.413  0.00  0.00     0.180 C 
BRANCH   8  10
ATOM     10  N   UNL d   1       0.948  -0.758  -0.153  0.00  0.00    -0.262 N 
ATOM     11  C   UNL d   1      -0.224  -0.829   0.583  0.00  0.00     0.030 A 
ATOM     12  C   UNL d   1      -1.187  -0.081  -0.063  0.00  0.00     0.029 A 
ATOM     13  C   UNL d   1      -0.353  -1.639   1.823  0.00  0.00     0.070 C 
ATOM     14  C   UNL d   1      -0.584   0.501  -1.195  0.00  0.00     0.029 A 
ATOM     15  C   UNL d   1       0.735   0.088  -1.230  0.00  0.00     0.030 A 
ATOM     16  C   UNL d   1       1.786   0.482  -2.205  0.00  0.00     0.070 C 
ENDBRANCH   8  10
ENDBRANCH   2   8
BRANCH   1  17
ATOM     17  N   UNL d   1       7.209   0.709   0.446  0.00  0.00    -0.114 N 
ATOM     18  O   UNL d   1       7.248   1.925   0.685  0.00  0.00    -0.532 OA
ATOM     19  O   UNL d   1       8.204   0.001   0.236  0.00  0.00    -0.532 OA
ENDBRANCH   1  17
TORSDOF 3
