REMARK  3 active torsions:
REMARK  status: ('A' for Active; 'I' for Inactive)
REMARK    1  A    between atoms: C_12  and  C_1 
REMARK    2  A    between atoms: C_6  and  C_14 
REMARK    3  A    between atoms: C_14  and  C_11 
ROOT
ATOM      1  C   UNL d   1      -0.192  -1.078  -0.091  0.00  0.00     0.176 A 
ATOM      2  N   UNL d   1       1.043  -0.669   0.131  0.00  0.00    -0.277 N 
ATOM      3  HN  UNL d   1       1.866  -1.260   0.252  1.00  0.00     0.189 HD
ATOM      4  O   UNL d   1      -1.079  -0.033  -0.162  0.00  0.00    -0.277 OA
ATOM      5  N   UNL d   1       1.007   0.710   0.166  0.00  0.00    -0.281 N 
ATOM      6  HN  UNL d   1       1.798   1.339   0.302  1.00  0.00     0.189 HD
ATOM      7  C   UNL d   1      -0.251   1.050  -0.013  0.00  0.00     0.144 A 
ENDROOT
BRANCH   7   8
ATOM      8  C   UNL d   1      -0.875   2.397   0.016  0.00  0.00     0.126 C 
BRANCH   8   9
ATOM      9  C   UNL d   1      -0.909   3.066  -1.332  0.00  0.00    -0.024 A 
ATOM     10  C   UNL d   1      -1.931   3.016  -2.261  0.00  0.00     0.059 A 
ATOM     11  S   UNL d   1      -1.635   3.932  -3.662  0.00  0.00    -0.075 SA
ATOM     12 BR   UNL d   1      -3.535   2.060  -2.048  0.00  0.00    -0.042 Br
ATOM     13  C   UNL d   1      -0.134   4.430  -3.064  0.00  0.00     0.053 A 
ATOM     14  C   UNL d   1       0.155   3.907  -1.828  0.00  0.00     0.036 A 
ATOM     15 BR   UNL d   1       1.007   5.590  -3.992  0.00  0.00    -0.043 Br
ENDBRANCH   8   9
ENDBRANCH   7   8
BRANCH   1  16
ATOM     16  C   UNL d   1      -0.718  -2.436  -0.146  0.00  0.00     0.038 A 
ATOM     17  C   UNL d   1      -1.796  -2.838  -0.951  0.00  0.00     0.048 A 
ATOM     18 CL   UNL d   1      -2.626  -1.767  -2.027  0.00  0.00    -0.083 Cl
ATOM     19  C   UNL d   1      -2.226  -4.173  -0.949  0.00  0.00     0.025 A 
ATOM     20  C   UNL d   1      -1.586  -5.124  -0.154  0.00  0.00     0.002 A 
ATOM     21  C   UNL d   1      -0.512  -4.745   0.643  0.00  0.00     0.001 A 
ATOM     22  C   UNL d   1      -0.082  -3.416   0.644  0.00  0.00     0.017 A 
ENDBRANCH   1  16
TORSDOF 3
