REMARK  4 active torsions:
REMARK  status: ('A' for Active; 'I' for Inactive)
REMARK    1  A    between atoms: C_4  and  C_1 
REMARK    2  A    between atoms: O_7  and  C_8 
REMARK    3  A    between atoms: C_11  and  O_7 
REMARK    4  A    between atoms: C_10  and  C_11 
ROOT
ATOM      1  C   UNL d   1      -0.065  -2.299   0.933  0.00  0.00    -0.035 A 
ATOM      2  C   UNL d   1      -0.113  -1.974   2.299  0.00  0.00     0.012 A 
ATOM      3  C   UNL d   1      -0.112  -3.656   0.574  0.00  0.00     0.012 A 
ATOM      4  C   UNL d   1      -0.165  -4.321   2.899  0.00  0.00     0.069 A 
ATOM      5  C   UNL d   1      -0.170  -4.657   1.546  0.00  0.00     0.037 A 
ATOM      6  C   UNL d   1      -0.166  -2.977   3.271  0.00  0.00     0.037 A 
ENDROOT
BRANCH   4   7
ATOM      7  O   UNL d   1      -0.162  -5.218   3.932  0.00  0.00    -0.347 OA
BRANCH   7   8
ATOM      8  C   UNL d   1       0.322  -6.521   3.607  0.00  0.00     0.214 C 
BRANCH   8   9
ATOM      9  C   UNL d   1       0.746  -7.209   4.880  0.00  0.00    -0.034 A 
ATOM     10  C   UNL d   1      -0.118  -8.095   5.540  0.00  0.00     0.012 A 
ATOM     11  C   UNL d   1       0.291  -8.731   6.711  0.00  0.00     0.043 A 
ATOM     12  C   UNL d   1       1.557  -8.476   7.225  0.00  0.00     0.116 A 
ATOM     13  C   UNL d   1       2.421  -7.591   6.597  0.00  0.00     0.043 A 
ATOM     14  F   UNL d   1       1.948  -9.093   8.349  0.00  0.00    -0.206 F 
ATOM     15  C   UNL d   1       2.015  -6.951   5.425  0.00  0.00     0.012 A 
ENDBRANCH   8   9
ENDBRANCH   7   8
ENDBRANCH   4   7
BRANCH   1  16
ATOM     16  C   UNL d   1       0.026  -1.246  -0.152  0.00  0.00     0.141 C 
ATOM     17  S   UNL d   1       1.508  -0.197   0.015  0.00  0.00    -0.148 SA
ATOM     18  C   UNL d   1       0.701   1.363  -0.411  0.00  0.00     0.085 C 
ATOM     19  C   UNL d   1      -0.679   1.348   0.213  0.00  0.00     0.085 C 
ATOM     20  S   UNL d   1      -1.473  -0.213  -0.240  0.00  0.00    -0.148 SA
ENDBRANCH   1  16
TORSDOF 4
