REMARK  4 active torsions:
REMARK  status: ('A' for Active; 'I' for Inactive)
REMARK    1  A    between atoms: C_2  and  C_1 
REMARK    2  A    between atoms: C_6  and  C_3 
REMARK    3  A    between atoms: C_20  and  C_7 
REMARK    4  A    between atoms: C_16  and  C_21 
ROOT
ATOM      1  C   UNL d   1       0.459  -2.681  -0.013  0.00  0.00     0.187 C 
ATOM      2  N   UNL d   1       1.450  -3.155   0.718  0.00  0.00    -0.318 N 
ATOM      3  HN  UNL d   1       2.104  -2.646   1.312  1.00  0.00     0.169 HD
ATOM      4  C   UNL d   1       1.380  -4.512   0.474  0.00  0.00     0.138 C 
ATOM      5  N   UNL d   1       0.510  -4.844  -0.490  0.00  0.00    -0.242 N 
ATOM      6  HN  UNL d   1       0.348  -5.762  -0.905  1.00  0.00     0.196 HD
ATOM      7  O   UNL d   1      -0.115  -3.649  -0.790  0.00  0.00    -0.217 OA
ENDROOT
BRANCH   1   8
ATOM      8  C   UNL d   1       0.009  -1.269  -0.023  0.00  0.00     0.080 A 
ATOM      9  C   UNL d   1      -1.276  -0.814  -0.240  0.00  0.00     0.143 A 
ATOM     10  O   UNL d   1      -1.239   0.553  -0.269  0.00  0.00    -0.234 OA
ATOM     11  N   UNL d   1       0.042   0.999  -0.000  0.00  0.00    -0.264 N 
ATOM     12  C   UNL d   1       0.786  -0.102   0.167  0.00  0.00     0.046 A 
ATOM     13  HN  UNL d   1       0.356   1.968   0.059  1.00  0.00     0.194 HD
ATOM     14  C   UNL d   1       2.243   0.016   0.412  0.00  0.00     0.071 C 
BRANCH   9  15
ATOM     15  C   UNL d   1      -2.542  -1.596  -0.343  0.00  0.00     0.094 A 
ATOM     16  N   UNL d   1      -2.612  -2.903  -0.069  0.00  0.00    -0.258 N 
ATOM     17  O   UNL d   1      -3.927  -3.267  -0.253  0.00  0.00    -0.242 OA
ATOM     18  HN  UNL d   1      -1.844  -3.509   0.220  1.00  0.00     0.195 HD
ATOM     19  C   UNL d   1      -4.649  -2.176  -0.621  0.00  0.00     0.074 A 
ATOM     20  C   UNL d   1      -3.817  -1.083  -0.674  0.00  0.00     0.068 A 
ATOM     21  C   UNL d   1      -6.081  -2.411  -0.861  0.00  0.00     0.079 C 
ENDBRANCH   9  15
ENDBRANCH   1   8
BRANCH   4  22
ATOM     22  C   UNL d   1       2.099  -5.515   1.256  0.00  0.00     0.011 A 
ATOM     23  C   UNL d   1       2.848  -5.151   2.384  0.00  0.00     0.031 A 
ATOM     24  C   UNL d   1       3.453  -6.131   3.192  0.00  0.00     0.048 A 
ATOM     25  C   UNL d   1       3.309  -7.486   2.850  0.00  0.00     0.016 A 
ATOM     26  C   UNL d   1       2.580  -7.857   1.724  0.00  0.00     0.002 A 
ATOM     27  C   UNL d   1       1.978  -6.878   0.935  0.00  0.00     0.015 A 
BRANCH  24  28
ATOM     28  C   UNL d   1       4.228  -5.758   4.433  0.00  0.00     0.417 C 
ATOM     29  F   UNL d   1       4.302  -4.416   4.649  0.00  0.00    -0.166 F 
ATOM     30  F   UNL d   1       3.684  -6.289   5.563  0.00  0.00    -0.166 F 
ATOM     31  F   UNL d   1       5.515  -6.202   4.394  0.00  0.00    -0.166 F 
ENDBRANCH  24  28
ENDBRANCH   4  22
TORSDOF 4
