REMARK  6 active torsions:
REMARK  status: ('A' for Active; 'I' for Inactive)
REMARK    1  A    between atoms: C_11  and  C_2 
REMARK    2  A    between atoms: S_15  and  C_3 
REMARK    3  A    between atoms: C_12  and  C_11 
REMARK    4  A    between atoms: C_20  and  S_15 
REMARK    5  A    between atoms: C_16  and  C_20 
REMARK       I    between atoms: N_17  and  C_16 
REMARK    6  A    between atoms: C_22  and  N_17 
ROOT
ATOM      1  N   UNL d   1       0.537  -0.245   0.166  0.00  0.00    -0.319 N 
ATOM      2  C   UNL d   1      -0.129   0.956   0.261  0.00  0.00     0.101 C 
ATOM      3  C   UNL d   1      -0.402  -1.119  -0.304  0.00  0.00     0.162 C 
ATOM      4  N   UNL d   1      -1.426   0.701   0.250  0.00  0.00    -0.287 N 
ATOM      5  HN  UNL d   1      -2.169   1.359   0.484  1.00  0.00     0.188 HD
ATOM      6  N   UNL d   1      -1.597  -0.610  -0.131  0.00  0.00    -0.278 N 
ATOM      7  HN  UNL d   1      -2.486  -1.094  -0.256  1.00  0.00     0.189 HD
ATOM      8  C   UNL d   1       1.922  -0.507   0.460  0.00  0.00     0.159 C 
ENDROOT
BRANCH   2   9
ATOM      9  C   UNL d   1       0.489   2.270  -0.083  0.00  0.00     0.103 C 
BRANCH   9  10
ATOM     10  C   UNL d   1       0.201   3.471   0.819  0.00  0.00     0.151 C 
ATOM     11  C   UNL d   1      -1.194   3.534   1.425  0.00  0.00     0.236 C 
ATOM     12  N   UNL d   1      -2.250   3.840   0.610  0.00  0.00    -0.325 N 
ATOM     13  O   UNL d   1      -1.391   3.247   2.609  0.00  0.00    -0.272 OA
ATOM     14  C   UNL d   1      -2.150   4.282  -0.716  0.00  0.00     0.051 A 
ATOM     15  H   UNL d   1      -3.161   3.666   1.012  0.00  0.00     0.169 HD
ATOM     16  C   UNL d   1      -0.950   4.797  -1.236  0.00  0.00     0.028 A 
ATOM     17  C   UNL d   1      -3.273   4.182  -1.534  0.00  0.00     0.031 A 
ATOM     18  S   UNL d   1       0.489   4.986  -0.184  0.00  0.00    -0.113 SA
ATOM     19  C   UNL d   1      -0.872   5.149  -2.584  0.00  0.00     0.021 A 
ATOM     20  C   UNL d   1      -1.983   4.988  -3.414  0.00  0.00     0.002 A 
ATOM     21  C   UNL d   1      -3.185   4.518  -2.885  0.00  0.00     0.002 A 
ENDBRANCH   9  10
ENDBRANCH   2   9
BRANCH   3  22
ATOM     22  S   UNL d   1      -0.027  -2.471  -1.310  0.00  0.00    -0.083 SA
BRANCH  22  23
ATOM     23  C   UNL d   1      -1.157  -3.721  -0.693  0.00  0.00     0.185 C 
BRANCH  23  24
ATOM     24  C   UNL d   1      -2.522  -3.796  -1.350  0.00  0.00     0.231 C 
ATOM     25  N   UNL d   1      -3.143  -2.609  -1.678  0.00  0.00    -0.327 N 
ATOM     26  H   UNL d   1      -2.563  -1.776  -1.740  0.00  0.00     0.169 HD
ATOM     27  O   UNL d   1      -3.043  -4.909  -1.490  0.00  0.00    -0.272 OA
BRANCH  25  28
ATOM     28  C   UNL d   1      -4.522  -2.450  -1.936  0.00  0.00     0.034 A 
ATOM     29  C   UNL d   1      -5.478  -3.373  -1.496  0.00  0.00     0.031 A 
ATOM     30  C   UNL d   1      -6.842  -3.141  -1.698  0.00  0.00     0.026 A 
ATOM     31  C   UNL d   1      -7.255  -1.993  -2.363  0.00  0.00     0.034 A 
ATOM     32  C   UNL d   1      -6.315  -1.071  -2.821  0.00  0.00     0.026 A 
ATOM     33 CL   UNL d   1      -8.934  -1.704  -2.604  0.00  0.00    -0.084 Cl
ATOM     34  C   UNL d   1      -4.951  -1.291  -2.592  0.00  0.00     0.031 A 
ENDBRANCH  25  28
ENDBRANCH  23  24
ENDBRANCH  22  23
ENDBRANCH   3  22
TORSDOF 6
