REMARK  4 active torsions:
REMARK  status: ('A' for Active; 'I' for Inactive)
REMARK    1  A    between atoms: C_2  and  C_1 
REMARK       I    between atoms: C_3  and  N_6 
REMARK       I    between atoms: N_5  and  C_3 
REMARK    2  A    between atoms: C_4  and  N_5 
REMARK    3  A    between atoms: N_6  and  C_11 
REMARK    4  A    between atoms: O_23  and  C_10 
ROOT
ATOM      1  C   UNL d   1       5.036  -1.091   0.549  0.00  0.00     0.325 C 
ATOM      2  N   UNL d   1       4.589  -2.267   0.012  0.00  0.00    -0.306 N 
ATOM      3  N   UNL d   1       4.223  -0.003   0.434  0.00  0.00    -0.309 N 
ATOM      4  O   UNL d   1       6.160  -0.898   1.014  0.00  0.00    -0.247 OA
ATOM      5  H   UNL d   1       3.864  -2.125  -0.661  0.00  0.00     0.171 HD
ATOM      6  H   UNL d   1       4.765   0.838   0.597  0.00  0.00     0.170 HD
ENDROOT
BRANCH   3   7
ATOM      7  C   UNL d   1       2.853   0.183   0.193  0.00  0.00     0.037 A 
ATOM      8  C   UNL d   1       1.875  -0.801   0.344  0.00  0.00     0.047 A 
ATOM      9  C   UNL d   1       0.498  -0.514   0.143  0.00  0.00     0.067 A 
ATOM     10  C   UNL d   1       0.131   0.797  -0.193  0.00  0.00     0.026 A 
ATOM     11  C   UNL d   1       1.111   1.782  -0.345  0.00  0.00     0.022 A 
ATOM     12 BR   UNL d   1      -1.663   1.371  -0.423  0.00  0.00    -0.050 Br
ATOM     13  C   UNL d   1       2.458   1.477  -0.145  0.00  0.00     0.031 A 
BRANCH   9  14
ATOM     14  C   UNL d   1      -0.485  -1.636   0.376  0.00  0.00     0.418 C 
ATOM     15  F   UNL d   1      -1.708  -1.487  -0.195  0.00  0.00    -0.166 F 
ATOM     16  F   UNL d   1      -0.013  -2.820  -0.114  0.00  0.00    -0.166 F 
ATOM     17  F   UNL d   1      -0.708  -1.852   1.702  0.00  0.00    -0.166 F 
ENDBRANCH   9  14
ENDBRANCH   3   7
BRANCH   2  18
ATOM     18  C   UNL d   1       5.380  -3.442  -0.106  0.00  0.00     0.071 A 
ATOM     19  C   UNL d   1       6.315  -3.730   0.912  0.00  0.00     0.056 A 
ATOM     20  C   UNL d   1       7.186  -4.816   0.819  0.00  0.00     0.036 A 
ATOM     21 CL   UNL d   1       8.332  -5.111   2.067  0.00  0.00    -0.084 Cl
ATOM     22  C   UNL d   1       7.137  -5.654  -0.281  0.00  0.00     0.026 A 
ATOM     23  C   UNL d   1       6.191  -5.410  -1.275  0.00  0.00     0.041 A 
ATOM     24  C   UNL d   1       5.295  -4.323  -1.204  0.00  0.00     0.095 A 
BRANCH  24  25
ATOM     25  O   UNL d   1       4.512  -4.295  -2.323  0.00  0.00    -0.354 OA
ATOM     26  C   UNL d   1       3.404  -3.432  -2.457  0.00  0.00     0.210 C 
ENDBRANCH  24  25
ENDBRANCH   2  18
TORSDOF 4
