REMARK  8 active torsions:
REMARK  status: ('A' for Active; 'I' for Inactive)
REMARK    1  A    between atoms: C_10  and  C_1 
REMARK    2  A    between atoms: C_13  and  C_6 
REMARK    3  A    between atoms: C_17  and  C_9 
REMARK    4  A    between atoms: C_14  and  C_10 
REMARK    5  A    between atoms: C_12  and  C_15 
REMARK    6  A    between atoms: O_24  and  C_13 
REMARK    7  A    between atoms: O_25  and  C_17 
REMARK    8  A    between atoms: O_26  and  C_17 
ROOT
ATOM      1  C   UNL d   1      -2.084  -0.118   0.051  0.00  0.00     0.085 A 
ATOM      2  C   UNL d   1       0.348  -0.507   0.125  0.00  0.00     0.088 A 
ATOM      3  C   UNL d   1       0.065   0.845   0.036  0.00  0.00     0.026 A 
ATOM      4  S   UNL d   1      -1.044  -1.479   0.079  0.00  0.00    -0.065 SA
ATOM      5  C   UNL d   1      -1.351   1.057   0.032  0.00  0.00     0.060 A 
ATOM      6  C   UNL d   1       2.472   1.162  -0.074  0.00  0.00     0.068 A 
ATOM      7  N   UNL d   1       1.565  -1.070   0.190  0.00  0.00    -0.348 N 
ATOM      8  HN  UNL d   1       1.688  -2.074   0.316  1.00  0.00     0.166 HD
ATOM      9  C   UNL d   1       2.627  -0.220   0.080  0.00  0.00     0.082 A 
ATOM     10  C   UNL d   1       1.175   1.707  -0.053  0.00  0.00     0.036 A 
ATOM     11  N   UNL d   1      -1.922   2.282  -0.004  0.00  0.00    -0.397 N 
ATOM     12  H   UNL d   1      -1.400   3.139  -0.152  0.00  0.00     0.156 HD
ATOM     13  H   UNL d   1      -2.920   2.374  -0.216  0.00  0.00     0.156 HD
ENDROOT
BRANCH   1  14
ATOM     14  C   UNL d   1      -3.534  -0.243  -0.049  0.00  0.00     0.201 C 
ATOM     15  O   UNL d   1      -4.222   0.628  -0.589  0.00  0.00    -0.286 OA
BRANCH  14  16
ATOM     16  C   UNL d   1      -4.283  -1.407   0.517  0.00  0.00     0.016 A 
ATOM     17  C   UNL d   1      -3.865  -2.088   1.669  0.00  0.00     0.031 A 
ATOM     18  C   UNL d   1      -4.621  -3.154   2.187  0.00  0.00     0.048 A 
ATOM     19  C   UNL d   1      -5.827  -3.503   1.562  0.00  0.00     0.016 A 
ATOM     20  C   UNL d   1      -6.267  -2.808   0.435  0.00  0.00     0.002 A 
ATOM     21  C   UNL d   1      -5.496  -1.768  -0.086  0.00  0.00     0.015 A 
BRANCH  18  22
ATOM     22  C   UNL d   1      -4.160  -3.913   3.408  0.00  0.00     0.417 C 
ATOM     23  F   UNL d   1      -2.960  -3.488   3.890  0.00  0.00    -0.166 F 
ATOM     24  F   UNL d   1      -5.037  -3.810   4.443  0.00  0.00    -0.166 F 
ATOM     25  F   UNL d   1      -4.017  -5.246   3.168  0.00  0.00    -0.166 F 
ENDBRANCH  18  22
ENDBRANCH  14  16
ENDBRANCH   1  14
BRANCH   9  26
ATOM     26  C   UNL d   1       4.003  -0.900   0.104  0.00  0.00     0.310 C 
BRANCH  26  27
ATOM     27  O   UNL d   1       4.374  -1.040   1.483  0.00  0.00    -0.360 OA
ATOM     28  C   UNL d   1       5.657  -1.629   1.641  0.00  0.00     0.205 C 
ENDBRANCH  26  27
BRANCH  26  29
ATOM     29  O   UNL d   1       3.981  -2.198  -0.520  0.00  0.00    -0.360 OA
ATOM     30  C   UNL d   1       3.645  -2.161  -1.898  0.00  0.00     0.205 C 
ENDBRANCH  26  29
ENDBRANCH   9  26
BRANCH   6  31
ATOM     31  C   UNL d   1       3.617   2.076  -0.319  0.00  0.00     0.295 C 
ATOM     32  O   UNL d   1       4.740   1.936   0.120  0.00  0.00    -0.259 OA
BRANCH  31  33
ATOM     33  O   UNL d   1       3.208   3.047  -1.181  0.00  0.00    -0.322 OA
ATOM     34  C   UNL d   1       4.210   3.981  -1.589  0.00  0.00     0.213 C 
ENDBRANCH  31  33
ENDBRANCH   6  31
TORSDOF 8
