REMARK  5 active torsions:
REMARK  status: ('A' for Active; 'I' for Inactive)
REMARK    1  A    between atoms: C_2  and  C_1 
REMARK    2  A    between atoms: C_14  and  C_3 
REMARK    3  A    between atoms: O_18  and  C_14 
REMARK    4  A    between atoms: N_15  and  O_18 
REMARK    5  A    between atoms: C_20  and  C_19 
ROOT
ATOM      1  C   UNL d   1      -1.240  -0.980  -0.034  0.00  0.00     0.137 A 
ATOM      2  C   UNL d   1       0.088  -1.399  -0.069  0.00  0.00     0.102 A 
ATOM      3  O   UNL d   1      -1.236   0.390  -0.007  0.00  0.00    -0.235 OA
ATOM      4  N   UNL d   1       0.048   0.874   0.017  0.00  0.00    -0.264 N 
ATOM      5  HN  UNL d   1       0.334   1.852   0.048  1.00  0.00     0.194 HD
ATOM      6  C   UNL d   1       0.847  -0.197  -0.010  0.00  0.00     0.048 A 
ATOM      7  C   UNL d   1       2.314   0.025  -0.022  0.00  0.00     0.071 C 
ENDROOT
BRANCH   2   8
ATOM      8  C   UNL d   1       0.532  -2.770  -0.193  0.00  0.00     0.320 C 
ATOM      9  O   UNL d   1      -0.102  -3.600  -0.836  0.00  0.00    -0.257 OA
BRANCH   8  10
ATOM     10  O   UNL d   1       1.702  -3.025   0.495  0.00  0.00    -0.195 OA
BRANCH  10  11
ATOM     11  N   UNL d   1       1.985  -4.400   0.408  0.00  0.00    -0.268 N 
ATOM     12  C   UNL d   1       3.094  -4.698   1.000  0.00  0.00     0.126 C 
ATOM     13  HN  UNL d   1       1.387  -5.079  -0.063  1.00  0.00     0.194 HD
BRANCH  12  14
ATOM     14  C   UNL d   1       3.572  -6.095   1.027  0.00  0.00    -0.019 A 
ATOM     15  C   UNL d   1       2.801  -7.115   0.452  0.00  0.00     0.014 A 
ATOM     16  C   UNL d   1       3.265  -8.433   0.464  0.00  0.00     0.024 A 
ATOM     17  C   UNL d   1       4.494  -8.725   1.050  0.00  0.00     0.034 A 
ATOM     18  C   UNL d   1       5.261  -7.714   1.629  0.00  0.00     0.024 A 
ATOM     19 CL   UNL d   1       5.072 -10.346   1.053  0.00  0.00    -0.084 Cl
ATOM     20  C   UNL d   1       4.801  -6.392   1.622  0.00  0.00     0.014 A 
ENDBRANCH  12  14
ENDBRANCH  10  11
ENDBRANCH   8  10
ENDBRANCH   2   8
BRANCH   1  21
ATOM     21  C   UNL d   1      -2.479  -1.708   0.006  0.00  0.00     0.083 A 
ATOM     22  C   UNL d   1      -3.726  -1.376  -0.518  0.00  0.00     0.043 A 
ATOM     23  N   UNL d   1      -4.734  -2.303  -0.256  0.00  0.00    -0.298 N 
ATOM     24  C   UNL d   1      -4.117  -0.180  -1.305  0.00  0.00     0.071 C 
ATOM     25  N   UNL d   1      -4.302  -3.314   0.472  0.00  0.00    -0.269 N 
ATOM     26  HN  UNL d   1      -5.693  -2.210  -0.590  1.00  0.00     0.187 HD
ATOM     27  S   UNL d   1      -2.692  -3.179   0.874  0.00  0.00     0.006 SA
ATOM     28  HN  UNL d   1      -4.892  -4.096   0.759  1.00  0.00     0.195 HD
ENDBRANCH   1  21
TORSDOF 5
