REMARK  10 active torsions:
REMARK  status: ('A' for Active; 'I' for Inactive)
REMARK    1  A    between atoms: C_9  and  C_1 
REMARK    2  A    between atoms: C_20  and  N_2 
REMARK    3  A    between atoms: C_29  and  C_3 
REMARK    4  A    between atoms: C_7  and  C_10 
REMARK    5  A    between atoms: C_8  and  C_11 
REMARK    6  A    between atoms: O_19  and  C_9 
REMARK    7  A    between atoms: C_12  and  C_13 
REMARK    8  A    between atoms: N_28  and  C_13 
REMARK    9  A    between atoms: N_14  and  O_19 
REMARK   10  A    between atoms: C_32  and  C_29 
ROOT
ATOM      1  C   UNL d   1       2.764  -1.990  -0.288  0.00  0.00     0.109 C 
ATOM      2  N   UNL d   1       2.324  -0.835  -0.700  0.00  0.00    -0.246 N 
ATOM      3  HN  UNL d   1       2.640  -0.364  -1.547  1.00  0.00     0.196 HD
ENDROOT
BRANCH   2   4
ATOM      4  O   UNL d   1       1.344  -0.322   0.188  0.00  0.00    -0.193 OA
BRANCH   4   5
ATOM      5  C   UNL d   1       1.056   1.000  -0.102  0.00  0.00     0.318 C 
ATOM      6  O   UNL d   1       1.891   1.852  -0.378  0.00  0.00    -0.257 OA
BRANCH   5   7
ATOM      7  C   UNL d   1      -0.380   1.252  -0.032  0.00  0.00     0.082 A 
ATOM      8  C   UNL d   1      -1.085   2.461  -0.020  0.00  0.00     0.052 A 
ATOM      9  N   UNL d   1      -2.443   2.116  -0.047  0.00  0.00    -0.260 N 
ATOM     10  N   UNL d   1      -2.600   0.771  -0.160  0.00  0.00    -0.304 N 
ATOM     11  C   UNL d   1      -1.379   0.267  -0.076  0.00  0.00     0.127 A 
ATOM     12  HN  UNL d   1      -3.474   0.258  -0.283  1.00  0.00     0.186 HD
BRANCH   8  13
ATOM     13  C   UNL d   1      -0.563   3.865  -0.151  0.00  0.00     0.060 C 
BRANCH  13  14
ATOM     14  C   UNL d   1      -0.090   4.474   1.171  0.00  0.00     0.002 C 
ATOM     15  C   UNL d   1       0.373   5.915   0.984  0.00  0.00     0.005 C 
ENDBRANCH  13  14
ENDBRANCH   8  13
BRANCH   9  16
ATOM     16  C   UNL d   1      -3.633   2.896   0.066  0.00  0.00     0.056 A 
ATOM     17  C   UNL d   1      -4.809   2.409  -0.534  0.00  0.00     0.031 A 
ATOM     18  C   UNL d   1      -6.034   3.047  -0.331  0.00  0.00     0.002 A 
ATOM     19  C   UNL d   1      -6.103   4.165   0.494  0.00  0.00     0.000 A 
ATOM     20  C   UNL d   1      -4.941   4.667   1.080  0.00  0.00     0.002 A 
ATOM     21  C   UNL d   1      -3.706   4.049   0.854  0.00  0.00     0.031 A 
ENDBRANCH   9  16
ENDBRANCH   5   7
ENDBRANCH   4   5
ENDBRANCH   2   4
BRANCH   1  22
ATOM     22  C   UNL d   1       3.677  -2.787  -1.177  0.00  0.00     0.005 A 
ATOM     23  C   UNL d   1       4.384  -2.161  -2.208  0.00  0.00     0.031 A 
ATOM     24  C   UNL d   1       5.255  -2.897  -3.033  0.00  0.00     0.049 A 
ATOM     25  C   UNL d   1       5.395  -4.279  -2.818  0.00  0.00     0.032 A 
ATOM     26  C   UNL d   1       4.689  -4.928  -1.794  0.00  0.00     0.049 A 
ATOM     27  C   UNL d   1       3.820  -4.172  -0.987  0.00  0.00     0.031 A 
BRANCH  24  28
ATOM     28  C   UNL d   1       6.047  -2.197  -4.114  0.00  0.00     0.417 C 
ATOM     29  F   UNL d   1       6.872  -3.035  -4.803  0.00  0.00    -0.166 F 
ATOM     30  F   UNL d   1       5.255  -1.603  -5.046  0.00  0.00    -0.166 F 
ATOM     31  F   UNL d   1       6.849  -1.218  -3.613  0.00  0.00    -0.166 F 
ENDBRANCH  24  28
BRANCH  26  32
ATOM     32  C   UNL d   1       4.865  -6.408  -1.541  0.00  0.00     0.417 C 
ATOM     33  F   UNL d   1       5.844  -6.976  -2.295  0.00  0.00    -0.166 F 
ATOM     34  F   UNL d   1       5.194  -6.669  -0.245  0.00  0.00    -0.166 F 
ATOM     35  F   UNL d   1       3.733  -7.121  -1.791  0.00  0.00    -0.166 F 
ENDBRANCH  26  32
ENDBRANCH   1  22
BRANCH   1  36
ATOM     36  N   UNL d   1       2.442  -2.517   0.949  0.00  0.00    -0.286 NA
ATOM     37  H   UNL d   1       3.181  -3.043   1.405  0.00  0.00     0.125 HD
ATOM     38  H   UNL d   1       2.061  -1.815   1.577  0.00  0.00     0.125 HD
ENDBRANCH   1  36
TORSDOF 10
