REMARK  4 active torsions:
REMARK  status: ('A' for Active; 'I' for Inactive)
REMARK    1  A    between atoms: C_8  and  C_1 
REMARK    2  A    between atoms: C_9  and  C_2 
REMARK    3  A    between atoms: C_10  and  O_13 
REMARK    4  A    between atoms: O_13  and  C_12 
ROOT
ATOM      1  C   UNL d   1      -0.051   1.086   0.258  0.00  0.00     0.176 A 
ATOM      2  C   UNL d   1      -0.032  -1.044   0.273  0.00  0.00     0.177 A 
ATOM      3  O   UNL d   1      -0.905   0.013   0.266  0.00  0.00    -0.272 OA
ATOM      4  N   UNL d   1       1.225  -0.664   0.279  0.00  0.00    -0.277 N 
ATOM      5  HN  UNL d   1       2.046  -1.269   0.282  1.00  0.00     0.189 HD
ATOM      6  N   UNL d   1       1.214   0.716   0.282  0.00  0.00    -0.277 N 
ATOM      7  HN  UNL d   1       2.027   1.331   0.298  1.00  0.00     0.189 HD
ENDROOT
BRANCH   2   8
ATOM      8  C   UNL d   1      -0.624  -2.368   0.163  0.00  0.00     0.050 A 
ATOM      9  C   UNL d   1      -0.061  -3.397  -0.617  0.00  0.00     0.092 A 
ATOM     10  C   UNL d   1      -0.651  -4.670  -0.612  0.00  0.00     0.038 A 
ATOM     11  C   UNL d   1      -1.799  -4.926   0.141  0.00  0.00     0.003 A 
ATOM     12  C   UNL d   1      -2.368  -3.912   0.902  0.00  0.00     0.001 A 
ATOM     13  C   UNL d   1      -1.789  -2.642   0.904  0.00  0.00     0.018 A 
BRANCH   9  14
ATOM     14  O   UNL d   1       1.135  -3.324  -1.276  0.00  0.00    -0.254 OA
BRANCH  14  15
ATOM     15  C   UNL d   1       1.260  -2.373  -2.330  0.00  0.00     0.530 C 
ATOM     16  F   UNL d   1       0.253  -1.476  -2.378  0.00  0.00    -0.144 F 
ATOM     17  F   UNL d   1       2.432  -1.719  -2.200  0.00  0.00    -0.144 F 
ATOM     18  F   UNL d   1       1.283  -3.031  -3.513  0.00  0.00    -0.144 F 
ENDBRANCH  14  15
ENDBRANCH   9  14
ENDBRANCH   2   8
BRANCH   1  19
ATOM     19  C   UNL d   1      -0.665   2.408   0.176  0.00  0.00     0.038 A 
ATOM     20  C   UNL d   1      -0.033   3.573   0.647  0.00  0.00     0.050 A 
ATOM     21  C   UNL d   1      -0.642   4.828   0.503  0.00  0.00     0.048 A 
ATOM     22 CL   UNL d   1       1.494   3.551   1.461  0.00  0.00    -0.083 Cl
ATOM     23  C   UNL d   1      -1.883   4.934  -0.112  0.00  0.00     0.035 A 
ATOM     24  C   UNL d   1      -2.537   3.795  -0.577  0.00  0.00     0.025 A 
ATOM     25 CL   UNL d   1      -2.623   6.475  -0.297  0.00  0.00    -0.084 Cl
ATOM     26  C   UNL d   1      -1.930   2.543  -0.433  0.00  0.00     0.019 A 
ENDBRANCH   1  19
TORSDOF 4
