REMARK  6 active torsions:
REMARK  status: ('A' for Active; 'I' for Inactive)
REMARK    1  A    between atoms: S_16  and  C_1 
REMARK    2  A    between atoms: O_15  and  C_4 
REMARK    3  A    between atoms: C_8  and  C_7 
REMARK    4  A    between atoms: C_25  and  O_15 
REMARK    5  A    between atoms: C_23  and  S_16 
REMARK    6  A    between atoms: C_22  and  C_23 
ROOT
ATOM      1  C   UNL d   1      -8.777  -4.183  -0.035  0.00  0.00     0.084 A 
ATOM      2  N   UNL d   1     -10.252  -1.821   0.094  0.00  0.00    -0.352 N 
ATOM      3  HN  UNL d   1     -10.789  -0.957   0.174  1.00  0.00     0.166 HD
ATOM      4  C   UNL d   1     -10.884  -3.027   0.080  0.00  0.00     0.119 A 
ATOM      5  C   UNL d   1      -8.107  -2.932  -0.105  0.00  0.00     0.025 A 
ATOM      6  C   UNL d   1      -8.918  -1.782   0.001  0.00  0.00     0.045 A 
ATOM      7  C   UNL d   1     -10.174  -4.219   0.024  0.00  0.00     0.072 A 
ATOM      8  C   UNL d   1      -6.714  -2.735  -0.284  0.00  0.00     0.024 A 
ATOM      9  C   UNL d   1      -8.316  -0.527   0.025  0.00  0.00     0.031 A 
ATOM     10  C   UNL d   1      -6.110  -1.471  -0.218  0.00  0.00    -0.047 A 
ATOM     11  C   UNL d   1      -6.931  -0.360  -0.058  0.00  0.00     0.010 A 
ENDROOT
BRANCH  10  12
ATOM     12  C   UNL d   1      -4.603  -1.338  -0.221  0.00  0.00     0.121 C 
BRANCH  12  13
ATOM     13  S   UNL d   1      -3.828  -1.980  -1.734  0.00  0.00    -0.089 SA
BRANCH  13  14
ATOM     14  C   UNL d   1      -2.167  -1.846  -1.292  0.00  0.00     0.145 A 
ATOM     15  N   UNL d   1      -1.676  -1.369  -0.175  0.00  0.00    -0.335 N 
ATOM     16  C   UNL d   1      -0.312  -1.445  -0.333  0.00  0.00     0.061 A 
ATOM     17  HN  UNL d   1      -2.191  -1.019   0.633  1.00  0.00     0.168 HD
ATOM     18  C   UNL d   1       0.715  -1.054   0.538  0.00  0.00     0.032 A 
ATOM     19  C   UNL d   1       0.018  -1.995  -1.570  0.00  0.00     0.061 A 
ATOM     20  C   UNL d   1       2.044  -1.223   0.128  0.00  0.00     0.002 A 
ATOM     21  C   UNL d   1       2.344  -1.776  -1.120  0.00  0.00     0.002 A 
ATOM     22  C   UNL d   1       1.334  -2.179  -2.001  0.00  0.00     0.032 A 
ATOM     23  N   UNL d   1      -1.195  -2.253  -2.156  0.00  0.00    -0.335 N 
ATOM     24  H   UNL d   1      -1.355  -2.654  -3.067  0.00  0.00     0.168 HD
ENDBRANCH  13  14
ENDBRANCH  12  13
ENDBRANCH  10  12
BRANCH   1  25
ATOM     25  O   UNL d   1      -8.223  -5.438  -0.035  0.00  0.00    -0.346 OA
BRANCH  25  26
ATOM     26  C   UNL d   1      -7.025  -5.720   0.702  0.00  0.00     0.120 C 
ATOM     27  C   UNL d   1      -7.069  -5.285   2.166  0.00  0.00     0.040 C 
ATOM     28  C   UNL d   1      -6.794  -7.230   0.621  0.00  0.00     0.040 C 
ENDBRANCH  25  26
ENDBRANCH   1  25
BRANCH   4  29
ATOM     29  C   UNL d   1     -12.405  -3.071   0.144  0.00  0.00     0.432 C 
ATOM     30  F   UNL d   1     -13.004  -1.849   0.194  0.00  0.00    -0.165 F 
ATOM     31  F   UNL d   1     -12.954  -3.707  -0.933  0.00  0.00    -0.165 F 
ATOM     32  F   UNL d   1     -12.861  -3.749   1.238  0.00  0.00    -0.165 F 
ENDBRANCH   4  29
TORSDOF 6
