REMARK  5 active torsions:
REMARK  status: ('A' for Active; 'I' for Inactive)
REMARK    1  A    between atoms: C_2  and  C_1 
REMARK    2  A    between atoms: S_9  and  C_5 
REMARK    3  A    between atoms: C_6  and  C_11 
REMARK    4  A    between atoms: C_8  and  C_6 
REMARK    5  A    between atoms: C_11  and  S_9 
ROOT
ATOM      1  C   UNL d   1      -0.051   1.267  -0.234  0.00  0.00     0.063 A 
ATOM      2  N   UNL d   1      -1.490   3.207  -0.129  0.00  0.00    -0.360 N 
ATOM      3  HN  UNL d   1      -2.403   3.633  -0.289  1.00  0.00     0.166 HD
ATOM      4  C   UNL d   1      -0.463   3.926   0.373  0.00  0.00     0.069 A 
ATOM      5  C   UNL d   1      -1.268   1.902  -0.414  0.00  0.00     0.105 A 
ATOM      6  C   UNL d   1       0.998   2.028   0.290  0.00  0.00     0.020 A 
ATOM      7  C   UNL d   1       0.791   3.373   0.599  0.00  0.00     0.038 A 
ENDROOT
BRANCH   4   8
ATOM      8  S   UNL d   1      -0.739   5.651   0.729  0.00  0.00    -0.104 SA
BRANCH   8   9
ATOM      9  C   UNL d   1      -2.462   5.803   0.170  0.00  0.00     0.164 C 
BRANCH   9  10
ATOM     10  C   UNL d   1      -2.949   7.225   0.323  0.00  0.00     0.169 C 
ATOM     11  O   UNL d   1      -3.438   7.638   1.375  0.00  0.00    -0.291 OA
BRANCH  10  12
ATOM     12  C   UNL d   1      -2.889   8.146  -0.850  0.00  0.00     0.011 A 
ATOM     13  C   UNL d   1      -3.855   9.158  -0.944  0.00  0.00     0.017 A 
ATOM     14  C   UNL d   1      -3.827  10.065  -2.006  0.00  0.00     0.025 A 
ATOM     15  C   UNL d   1      -2.826   9.970  -2.969  0.00  0.00     0.034 A 
ATOM     16  C   UNL d   1      -1.861   8.966  -2.887  0.00  0.00     0.025 A 
ATOM     17 CL   UNL d   1      -2.770  11.104  -4.261  0.00  0.00    -0.084 Cl
ATOM     18  C   UNL d   1      -1.894   8.048  -1.830  0.00  0.00     0.017 A 
ENDBRANCH  10  12
ENDBRANCH   9  10
ENDBRANCH   8   9
ENDBRANCH   4   8
BRANCH   1  19
ATOM     19  C   UNL d   1       0.122  -0.175  -0.602  0.00  0.00     0.418 C 
ATOM     20  F   UNL d   1      -1.007  -0.746  -1.107  0.00  0.00    -0.166 F 
ATOM     21  F   UNL d   1       0.489  -0.945   0.458  0.00  0.00    -0.166 F 
ATOM     22  F   UNL d   1       1.084  -0.355  -1.548  0.00  0.00    -0.166 F 
ENDBRANCH   1  19
TORSDOF 5
