REMARK  8 active torsions:
REMARK  status: ('A' for Active; 'I' for Inactive)
REMARK    1  A    between atoms: S_13  and  C_2 
REMARK    2  A    between atoms: C_7  and  C_14 
REMARK    3  A    between atoms: O_9  and  C_7 
REMARK    4  A    between atoms: C_28  and  C_8 
REMARK    5  A    between atoms: C_10  and  O_9 
REMARK    6  A    between atoms: C_22  and  S_13 
REMARK    7  A    between atoms: C_23  and  C_22 
REMARK    8  A    between atoms: C_29  and  C_28 
ROOT
ATOM      1  C   UNL d   1      -5.749   6.251  -0.784  0.00  0.00     0.040 A 
ATOM      2  C   UNL d   1      -4.530   6.225  -0.092  0.00  0.00     0.018 A 
ATOM      3  C   UNL d   1      -6.271   5.051  -1.274  0.00  0.00     0.018 A 
ATOM      4  C   UNL d   1      -4.340   3.811  -0.414  0.00  0.00    -0.048 A 
ATOM      5  C   UNL d   1      -5.583   3.847  -1.072  0.00  0.00     0.009 A 
ATOM      6  C   UNL d   1      -3.834   5.020   0.089  0.00  0.00     0.009 A 
ENDROOT
BRANCH   4   7
ATOM      7  C   UNL d   1      -3.584   2.505  -0.190  0.00  0.00     0.121 C 
BRANCH   7   8
ATOM      8  S   UNL d   1      -3.590   1.443  -1.662  0.00  0.00    -0.089 SA
BRANCH   8   9
ATOM      9  C   UNL d   1      -2.858  -0.024  -1.103  0.00  0.00     0.147 A 
ATOM     10  N   UNL d   1      -3.076  -1.028  -1.993  0.00  0.00    -0.304 N 
ATOM     11  C   UNL d   1      -2.556  -2.271  -1.825  0.00  0.00     0.249 A 
ATOM     12  H   UNL d   1      -3.615  -0.846  -2.825  0.00  0.00     0.171 HD
ATOM     13  C   UNL d   1      -1.763  -2.445  -0.602  0.00  0.00     0.099 A 
ATOM     14  O   UNL d   1      -2.715  -3.183  -2.625  0.00  0.00    -0.268 OA
ATOM     15  C   UNL d   1      -1.627  -1.400   0.227  0.00  0.00     0.016 A 
ATOM     16  N   UNL d   1      -2.177  -0.148  -0.013  0.00  0.00    -0.340 N 
ATOM     17  HN  UNL d   1      -2.051   0.629   0.635  1.00  0.00     0.167 HD
BRANCH  15  18
ATOM     18  C   UNL d   1      -0.788  -1.542   1.479  0.00  0.00     0.057 C 
BRANCH  18  19
ATOM     19  C   UNL d   1      -1.567  -1.390   2.788  0.00  0.00     0.002 C 
ATOM     20  C   UNL d   1      -2.655  -2.438   2.975  0.00  0.00     0.005 C 
ENDBRANCH  18  19
ENDBRANCH  15  18
ENDBRANCH   8   9
ENDBRANCH   7   8
ENDBRANCH   4   7
BRANCH   1  21
ATOM     21  C   UNL d   1      -6.456   7.557  -0.944  0.00  0.00     0.298 C 
ATOM     22  O   UNL d   1      -6.133   8.569  -0.339  0.00  0.00    -0.259 OA
BRANCH  21  23
ATOM     23  O   UNL d   1      -7.505   7.425  -1.841  0.00  0.00    -0.272 OA
BRANCH  23  24
ATOM     24  C   UNL d   1      -8.176   8.612  -2.174  0.00  0.00     0.118 A 
ATOM     25  C   UNL d   1      -7.512   9.679  -2.784  0.00  0.00     0.153 A 
ATOM     26  C   UNL d   1      -8.209  10.823  -3.154  0.00  0.00     0.087 A 
ATOM     27  F   UNL d   1      -6.201   9.600  -3.053  0.00  0.00    -0.203 F 
ATOM     28  C   UNL d   1      -9.579  10.877  -2.934  0.00  0.00     0.119 A 
ATOM     29  C   UNL d   1     -10.262   9.804  -2.358  0.00  0.00     0.045 A 
ATOM     30  F   UNL d   1     -10.263  11.969  -3.298  0.00  0.00    -0.206 F 
ATOM     31  C   UNL d   1      -9.558   8.659  -1.978  0.00  0.00     0.043 A 
ENDBRANCH  23  24
ENDBRANCH  21  23
ENDBRANCH   1  21
TORSDOF 8
