REMARK  3 active torsions:
REMARK  status: ('A' for Active; 'I' for Inactive)
REMARK    1  A    between atoms: C_2  and  S_1 
REMARK    2  A    between atoms: C_3  and  C_2 
REMARK       I    between atoms: N_4  and  C_3 
REMARK    3  A    between atoms: C_9  and  N_4 
ROOT
ATOM      1  C   UNL d   1       2.574  -0.592   3.060  0.00  0.00     0.231 C 
ATOM      2  N   UNL d   1       1.713  -1.491   2.474  0.00  0.00    -0.356 N 
ATOM      3  O   UNL d   1       3.552  -0.132   2.471  0.00  0.00    -0.273 OA
ATOM      4  H   UNL d   1       0.904  -1.826   3.001  0.00  0.00     0.162 HD
ENDROOT
BRANCH   2   5
ATOM      5  C   UNL d   1       1.960  -2.062   1.151  0.00  0.00     0.084 C 
ATOM      6  C   UNL d   1       0.701  -2.032   0.275  0.00  0.00     0.025 C 
ATOM      7  C   UNL d   1      -0.309  -3.126   0.615  0.00  0.00     0.002 C 
ATOM      8  C   UNL d   1       0.343  -4.503   0.626  0.00  0.00     0.000 C 
ATOM      9  C   UNL d   1       1.513  -4.543   1.603  0.00  0.00     0.002 C 
ATOM     10  C   UNL d   1       2.554  -3.473   1.274  0.00  0.00     0.025 C 
ENDBRANCH   2   5
BRANCH   1  11
ATOM     11  C   UNL d   1       2.349  -0.260   4.506  0.00  0.00     0.242 C 
BRANCH  11  12
ATOM     12  S   UNL d   1       0.692   0.221   4.868  0.00  0.00     0.149 S 
ATOM     13  O   UNL d   1       0.649   0.573   6.278  0.00  0.00    -0.228 OA
ATOM     14  O   UNL d   1      -0.190  -0.815   4.358  0.00  0.00    -0.228 OA
ATOM     15  C   UNL d   1       0.424   1.714   3.932  0.00  0.00     0.161 C 
ENDBRANCH  11  12
ENDBRANCH   1  11
TORSDOF 3
