REMARK  5 active torsions:
REMARK  status: ('A' for Active; 'I' for Inactive)
REMARK    1  A    between atoms: C_15  and  C_22 
REMARK    2  A    between atoms: C_21  and  C_16 
REMARK    3  A    between atoms: C_24  and  C_21 
REMARK    4  A    between atoms: C_22  and  C_23 
REMARK    5  A    between atoms: C_23  and  C_24 
ROOT
ATOM      1  C   UNL d   1       5.337  -9.223   1.310  0.00  0.00     0.056 A 
ATOM      2  N   UNL d   1       5.595 -10.365   3.625  0.00  0.00    -0.191 NA
ATOM      3  C   UNL d   1       5.481  -9.860   2.587  0.00  0.00     0.100 C 
ATOM      4  C   UNL d   1       5.553  -9.927   0.099  0.00  0.00    -0.005 A 
ATOM      5  C   UNL d   1       5.385  -9.234  -1.125  0.00  0.00    -0.024 A 
ATOM      6  C   UNL d   1       4.975  -7.870   1.298  0.00  0.00     0.030 A 
ATOM      7  C   UNL d   1       5.020  -7.880  -1.113  0.00  0.00     0.019 A 
ATOM      8  C   UNL d   1       4.825  -7.191   0.089  0.00  0.00    -0.056 A 
ATOM      9  C   UNL d   1       5.588  -9.900  -2.343  0.00  0.00     0.012 A 
ATOM     10  C   UNL d   1       5.929 -11.289   0.040  0.00  0.00     0.014 A 
ATOM     11  C   UNL d   1       5.959 -11.243  -2.371  0.00  0.00     0.001 A 
ATOM     12  C   UNL d   1       6.130 -11.937  -1.180  0.00  0.00     0.001 A 
ENDROOT
BRANCH   8  13
ATOM     13  C   UNL d   1       4.445  -5.738   0.077  0.00  0.00     0.038 C 
BRANCH  13  14
ATOM     14  C   UNL d   1       2.928  -5.549   0.032  0.00  0.00     0.005 C 
BRANCH  14  15
ATOM     15  C   UNL d   1       2.532  -4.073   0.017  0.00  0.00     0.005 C 
BRANCH  15  16
ATOM     16  C   UNL d   1       3.070  -3.345  -1.216  0.00  0.00     0.038 C 
BRANCH  16  17
ATOM     17  C   UNL d   1       2.677  -1.896  -1.223  0.00  0.00    -0.056 A 
ATOM     18  C   UNL d   1       3.492  -0.940  -0.605  0.00  0.00     0.019 A 
ATOM     19  C   UNL d   1       3.150   0.420  -0.610  0.00  0.00    -0.024 A 
ATOM     20  C   UNL d   1       1.956   0.842  -1.242  0.00  0.00    -0.005 A 
ATOM     21  C   UNL d   1       3.991   1.361   0.005  0.00  0.00     0.012 A 
ATOM     22  C   UNL d   1       1.130  -0.136  -1.850  0.00  0.00     0.056 A 
ATOM     23  C   UNL d   1       1.655   2.224  -1.230  0.00  0.00     0.014 A 
ATOM     24  C   UNL d   1      -0.097   0.215  -2.503  0.00  0.00     0.100 C 
ATOM     25  C   UNL d   1       1.493  -1.489  -1.836  0.00  0.00     0.030 A 
ATOM     26  N   UNL d   1      -1.094   0.488  -3.033  0.00  0.00    -0.191 NA
ATOM     27  C   UNL d   1       2.502   3.148  -0.617  0.00  0.00     0.001 A 
ATOM     28  C   UNL d   1       3.668   2.717   0.001  0.00  0.00     0.001 A 
ENDBRANCH  16  17
ENDBRANCH  15  16
ENDBRANCH  14  15
ENDBRANCH  13  14
ENDBRANCH   8  13
TORSDOF 5
