REMARK  2 active torsions:
REMARK  status: ('A' for Active; 'I' for Inactive)
REMARK    1  A    between atoms: C_7  and  C_1 
REMARK    2  A    between atoms: C_8  and  N_2 
ROOT
ATOM      1  C   UNL d   1      -0.206  -1.347   0.029  0.00  0.00     0.150 C 
ATOM      2  N   UNL d   1       1.033  -0.706   0.057  0.00  0.00    -0.224 N 
ATOM      3  N   UNL d   1       0.825   0.600   0.349  0.00  0.00     0.001 NA
ATOM      4  N   UNL d   1      -0.484   0.776   0.320  0.00  0.00    -0.007 NA
ATOM      5  N   UNL d   1      -1.133  -0.411   0.131  0.00  0.00    -0.269 N 
ATOM      6  HN  UNL d   1      -2.143  -0.549   0.078  1.00  0.00     0.185 HD
ENDROOT
BRANCH   1   7
ATOM      7  C   UNL d   1      -0.459  -2.792   0.071  0.00  0.00     0.032 A 
ATOM      8  C   UNL d   1      -1.454  -3.408  -0.707  0.00  0.00     0.048 A 
ATOM      9 CL   UNL d   1      -2.412  -2.538  -1.855  0.00  0.00    -0.083 Cl
ATOM     10  C   UNL d   1      -1.687  -4.786  -0.602  0.00  0.00     0.025 A 
ATOM     11  C   UNL d   1      -0.932  -5.566   0.273  0.00  0.00     0.002 A 
ATOM     12  C   UNL d   1       0.050  -4.972   1.057  0.00  0.00     0.001 A 
ATOM     13  C   UNL d   1       0.271  -3.596   0.971  0.00  0.00     0.017 A 
ENDBRANCH   1   7
BRANCH   2  14
ATOM     14  C   UNL d   1       2.345  -1.206  -0.130  0.00  0.00     0.059 A 
ATOM     15  C   UNL d   1       3.412  -0.565   0.513  0.00  0.00     0.073 A 
ATOM     16  C   UNL d   1       4.693  -1.089   0.392  0.00  0.00     0.118 A 
ATOM     17  F   UNL d   1       5.706  -0.512   1.053  0.00  0.00    -0.206 F 
ATOM     18  C   UNL d   1       4.942  -2.212  -0.389  0.00  0.00     0.042 A 
ATOM     19  C   UNL d   1       3.890  -2.823  -1.069  0.00  0.00     0.005 A 
ATOM     20  C   UNL d   1       2.590  -2.326  -0.939  0.00  0.00     0.031 A 
ENDBRANCH   2  14
TORSDOF 2
