REMARK  5 active torsions:
REMARK  status: ('A' for Active; 'I' for Inactive)
REMARK    1  A    between atoms: S_8  and  C_1 
REMARK    2  A    between atoms: C_6  and  C_3 
REMARK    3  A    between atoms: C_10  and  C_5 
REMARK    4  A    between atoms: O_14  and  C_6 
REMARK    5  A    between atoms: C_19  and  S_8 
ROOT
ATOM      1  C   UNL d   1       0.157   0.948   0.025  0.00  0.00     0.064 A 
ATOM      2  C   UNL d   1      -0.730  -0.105  -0.080  0.00  0.00     0.081 A 
ATOM      3  C   UNL d   1       1.319  -1.247  -0.056  0.00  0.00     0.092 A 
ATOM      4  S   UNL d   1       1.768   0.400   0.109  0.00  0.00    -0.074 SA
ATOM      5  C   UNL d   1      -0.068  -1.405  -0.099  0.00  0.00     0.021 A 
ATOM      6  C   UNL d   1      -2.151   0.099  -0.171  0.00  0.00     0.102 C 
ATOM      7  N   UNL d   1      -3.295   0.265  -0.248  0.00  0.00    -0.191 NA
ENDROOT
BRANCH   1   8
ATOM      8  S   UNL d   1      -0.136   2.687   0.015  0.00  0.00    -0.117 SA
BRANCH   8   9
ATOM      9  C   UNL d   1      -1.233   2.962   1.450  0.00  0.00     0.045 C 
ATOM     10  C   UNL d   1      -0.593   2.507   2.758  0.00  0.00     0.021 C 
ATOM     11  C   UNL d   1      -1.559   4.454   1.512  0.00  0.00     0.021 C 
ENDBRANCH   8   9
ENDBRANCH   1   8
BRANCH   5  12
ATOM     12  C   UNL d   1      -0.720  -2.733  -0.161  0.00  0.00    -0.023 A 
ATOM     13  C   UNL d   1      -1.861  -2.944  -0.953  0.00  0.00     0.014 A 
ATOM     14  C   UNL d   1      -2.495  -4.194  -0.994  0.00  0.00     0.024 A 
ATOM     15  C   UNL d   1      -1.970  -5.263  -0.277  0.00  0.00     0.034 A 
ATOM     16  C   UNL d   1      -0.838  -5.083   0.508  0.00  0.00     0.024 A 
ATOM     17 CL   UNL d   1      -2.720  -6.808  -0.363  0.00  0.00    -0.084 Cl
ATOM     18  C   UNL d   1      -0.237  -3.820   0.588  0.00  0.00     0.014 A 
ENDBRANCH   5  12
BRANCH   3  19
ATOM     19  C   UNL d   1       2.388  -2.231  -0.179  0.00  0.00     0.184 C 
ATOM     20  O   UNL d   1       2.336  -3.280  -0.803  0.00  0.00    -0.646 OA
BRANCH  19  21
ATOM     21  O   UNL d   1       3.498  -1.892   0.532  0.00  0.00    -0.772 OA
ATOM     22  H   UNL d   1       3.412  -1.022   0.968  0.00  0.00     0.167 HD
ENDBRANCH  19  21
ENDBRANCH   3  19
TORSDOF 5
