REMARK  4 active torsions:
REMARK  status: ('A' for Active; 'I' for Inactive)
REMARK       I    between atoms: N_2  and  C_1 
REMARK    1  A    between atoms: C_5  and  C_1 
REMARK       I    between atoms: C_6  and  N_2 
REMARK    2  A    between atoms: C_3  and  C_4 
REMARK       I    between atoms: N_8  and  C_6 
REMARK    3  A    between atoms: N_7  and  N_8 
REMARK    4  A    between atoms: C_9  and  N_7 
ROOT
ATOM      1  C   UNL d   1       0.366  -2.574  -3.881  0.00  0.00     0.261 C 
ATOM      2  N   UNL d   1       0.163  -2.064  -2.609  0.00  0.00    -0.274 N 
ATOM      3  C   UNL d   1       1.081  -1.607  -1.695  0.00  0.00     0.337 C 
ATOM      4  N   UNL d   1       2.402  -1.857  -1.972  0.00  0.00    -0.268 N 
ATOM      5  O   UNL d   1       1.446  -3.010  -4.276  0.00  0.00    -0.267 OA
ATOM      6  O   UNL d   1       0.701  -0.977  -0.711  0.00  0.00    -0.246 OA
ATOM      7  H   UNL d   1      -0.773  -1.778  -2.353  0.00  0.00     0.173 HD
ATOM      8  H   UNL d   1       2.593  -2.662  -2.564  0.00  0.00     0.185 HD
ENDROOT
BRANCH   4   9
ATOM      9  N   UNL d   1       3.320  -1.617  -0.916  0.00  0.00    -0.201 NA
ATOM     10  H   UNL d   1       2.886  -1.008  -0.205  0.00  0.00     0.153 HD
BRANCH   9  11
ATOM     11  C   UNL d   1       4.595  -1.156  -1.343  0.00  0.00     0.042 A 
ATOM     12  C   UNL d   1       5.398  -0.328  -0.530  0.00  0.00     0.070 A 
ATOM     13  C   UNL d   1       6.696   0.033  -0.963  0.00  0.00     0.018 A 
ATOM     14  C   UNL d   1       7.217  -0.446  -2.161  0.00  0.00     0.001 A 
ATOM     15  C   UNL d   1       6.454  -1.302  -2.940  0.00  0.00     0.002 A 
ATOM     16  C   UNL d   1       5.167  -1.658  -2.529  0.00  0.00     0.026 A 
BRANCH  12  17
ATOM     17  C   UNL d   1       4.962   0.213   0.808  0.00  0.00     0.419 C 
ATOM     18  F   UNL d   1       3.697  -0.130   1.181  0.00  0.00    -0.166 F 
ATOM     19  F   UNL d   1       5.773  -0.201   1.825  0.00  0.00    -0.166 F 
ATOM     20  F   UNL d   1       4.997   1.577   0.851  0.00  0.00    -0.166 F 
ENDBRANCH  12  17
ENDBRANCH   9  11
ENDBRANCH   4   9
BRANCH   1  21
ATOM     21  C   UNL d   1      -0.861  -2.725  -4.723  0.00  0.00     0.054 A 
ATOM     22  C   UNL d   1      -1.946  -1.833  -4.705  0.00  0.00     0.049 A 
ATOM     23 CL   UNL d   1      -1.942  -0.348  -3.819  0.00  0.00    -0.083 Cl
ATOM     24  C   UNL d   1      -3.098  -2.108  -5.452  0.00  0.00     0.025 A 
ATOM     25  C   UNL d   1      -3.171  -3.257  -6.238  0.00  0.00     0.002 A 
ATOM     26  C   UNL d   1      -2.083  -4.122  -6.302  0.00  0.00     0.001 A 
ATOM     27  C   UNL d   1      -0.931  -3.857  -5.554  0.00  0.00     0.019 A 
ENDBRANCH   1  21
TORSDOF 4
