REMARK  6 active torsions:
REMARK  status: ('A' for Active; 'I' for Inactive)
REMARK    1  A    between atoms: C_5  and  N_6 
REMARK       I    between atoms: N_6  and  C_11 
REMARK    2  A    between atoms: C_11  and  C_18 
REMARK    3  A    between atoms: O_17  and  C_12 
REMARK    4  A    between atoms: C_26  and  C_14 
REMARK    5  A    between atoms: C_25  and  C_15 
REMARK    6  A    between atoms: C_18  and  O_17 
ROOT
ATOM      1  C   UNL d   1      -4.825   0.575   0.728  0.00  0.00     0.278 C 
ENDROOT
BRANCH   1   2
ATOM      2  C   UNL d   1      -5.995   1.531   0.494  0.00  0.00     0.246 C 
ATOM      3  N   UNL d   1      -6.108   2.522   1.462  0.00  0.00    -0.324 N 
ATOM      4  H   UNL d   1      -5.198   2.865   1.746  0.00  0.00     0.169 HD
ATOM      5  O   UNL d   1      -6.770   1.364  -0.446  0.00  0.00    -0.271 OA
BRANCH   3   6
ATOM      6  C   UNL d   1      -7.151   3.479   1.367  0.00  0.00     0.047 A 
ATOM      7  C   UNL d   1      -8.480   3.119   1.698  0.00  0.00    -0.031 A 
ATOM      8  C   UNL d   1      -9.501   4.076   1.554  0.00  0.00     0.009 A 
ATOM      9  C   UNL d   1      -9.216   5.367   1.124  0.00  0.00     0.001 A 
ATOM     10  C   UNL d   1      -7.901   5.727   0.847  0.00  0.00     0.009 A 
ATOM     11  C   UNL d   1      -6.851   4.800   0.977  0.00  0.00    -0.031 A 
BRANCH   7  12
ATOM     12  C   UNL d   1      -8.858   1.779   2.294  0.00  0.00     0.036 C 
ATOM     13  C   UNL d   1      -9.555   0.842   1.319  0.00  0.00     0.010 C 
ENDBRANCH   7  12
BRANCH  11  14
ATOM     14  C   UNL d   1      -5.463   5.259   0.589  0.00  0.00     0.036 C 
ATOM     15  C   UNL d   1      -5.207   5.101  -0.903  0.00  0.00     0.010 C 
ENDBRANCH  11  14
ENDBRANCH   3   6
ENDBRANCH   1   2
BRANCH   1  16
ATOM     16  O   UNL d   1      -3.568   1.218   0.917  0.00  0.00    -0.342 OA
BRANCH  16  17
ATOM     17  C   UNL d   1      -2.498   0.376   1.124  0.00  0.00     0.072 A 
ATOM     18  C   UNL d   1      -1.256   0.986   1.284  0.00  0.00     0.074 A 
ATOM     19  C   UNL d   1      -0.108   0.222   1.552  0.00  0.00     0.083 A 
ATOM     20  C   UNL d   1      -0.183  -1.174   1.674  0.00  0.00     0.003 A 
ATOM     21  O   UNL d   1       1.051   0.943   1.677  0.00  0.00    -0.336 OA
ATOM     22  C   UNL d   1       1.028  -1.901   2.042  0.00  0.00     0.013 A 
ATOM     23  C   UNL d   1      -1.425  -1.806   1.466  0.00  0.00    -0.046 A 
ATOM     24  C   UNL d   1       2.160  -1.223   2.223  0.00  0.00     0.011 A 
ATOM     25  C   UNL d   1       2.274   0.266   2.025  0.00  0.00     0.078 A 
ATOM     26  C   UNL d   1       3.280   0.528   0.897  0.00  0.00     0.051 C 
ATOM     27  C   UNL d   1       2.776   0.921   3.318  0.00  0.00     0.051 C 
ATOM     28  C   UNL d   1      -1.638  -3.298   1.479  0.00  0.00     0.049 C 
ATOM     29  C   UNL d   1      -2.565  -1.018   1.191  0.00  0.00     0.044 A 
ENDBRANCH  16  17
ENDBRANCH   1  16
TORSDOF 6
