REMARK  4 active torsions:
REMARK  status: ('A' for Active; 'I' for Inactive)
REMARK    1  A    between atoms: C_7  and  C_1 
REMARK    2  A    between atoms: C_9  and  C_3 
REMARK       I    between atoms: N_15  and  C_7 
REMARK    3  A    between atoms: N_8  and  C_10 
REMARK    4  A    between atoms: N_18  and  N_15 
ROOT
ATOM      1  C   UNL d   1      -0.275  -1.058  -0.262  0.00  0.00     0.098 A 
ATOM      2  S   UNL d   1       1.146  -0.220  -0.730  0.00  0.00    -0.064 SA
ATOM      3  C   UNL d   1       0.567   1.217   0.011  0.00  0.00     0.085 A 
ATOM      4  N   UNL d   1      -0.592   1.083   0.619  0.00  0.00    -0.352 N 
ATOM      5  HN  UNL d   1      -1.058   1.824   1.144  1.00  0.00     0.166 HD
ATOM      6  C   UNL d   1      -1.096  -0.199   0.451  0.00  0.00     0.029 A 
ATOM      7  C   UNL d   1      -2.432  -0.499   1.035  0.00  0.00     0.070 C 
ENDROOT
BRANCH   3   8
ATOM      8  C   UNL d   1       1.341   2.468  -0.029  0.00  0.00    -0.000 A 
ATOM      9  C   UNL d   1       2.201   2.791  -1.095  0.00  0.00     0.044 A 
ATOM     10  C   UNL d   1       2.895   4.011  -1.134  0.00  0.00     0.039 A 
ATOM     11  C   UNL d   1       2.727   4.917  -0.077  0.00  0.00     0.030 A 
ATOM     12  C   UNL d   1       1.875   4.610   0.986  0.00  0.00     0.003 A 
ATOM     13  C   UNL d   1       1.183   3.400   1.006  0.00  0.00     0.014 A 
BRANCH  10  14
ATOM     14  N   UNL d   1       3.739   4.331  -2.246  0.00  0.00    -0.333 N 
ATOM     15  C   UNL d   1       4.499   5.476  -2.407  0.00  0.00     0.096 A 
ATOM     16  C   UNL d   1       5.154   5.430  -3.615  0.00  0.00     0.019 A 
ATOM     17  C   UNL d   1       4.801   4.216  -4.233  0.00  0.00     0.019 A 
ATOM     18  C   UNL d   1       3.944   3.559  -3.379  0.00  0.00     0.096 A 
ENDBRANCH  10  14
ENDBRANCH   3   8
BRANCH   1  19
ATOM     19  C   UNL d   1      -0.491  -2.455  -0.599  0.00  0.00     0.274 C 
ATOM     20  O   UNL d   1      -1.462  -3.110  -0.215  0.00  0.00    -0.266 OA
ATOM     21  N   UNL d   1       0.492  -3.040  -1.404  0.00  0.00    -0.289 N 
ATOM     22  H   UNL d   1       1.231  -2.456  -1.789  0.00  0.00     0.183 HD
BRANCH  21  23
ATOM     23  N   UNL d   1       0.369  -4.377  -1.842  0.00  0.00    -0.247 NA
ATOM     24  H   UNL d   1      -0.570  -4.699  -1.567  0.00  0.00     0.143 HD
ATOM     25  H   UNL d   1       1.006  -4.952  -1.285  0.00  0.00     0.143 HD
ENDBRANCH  21  23
ENDBRANCH   1  19
TORSDOF 4
