REMARK  6 active torsions:
REMARK  status: ('A' for Active; 'I' for Inactive)
REMARK    1  A    between atoms: C_8  and  N_3 
REMARK    2  A    between atoms: S_12  and  C_7 
REMARK    3  A    between atoms: C_10  and  C_14 
REMARK    4  A    between atoms: C_21  and  S_12 
REMARK    5  A    between atoms: C_14  and  C_21 
REMARK       I    between atoms: C_15  and  N_17 
REMARK    6  A    between atoms: N_17  and  C_18 
ROOT
ATOM      1  N   UNL d   1      -0.313   0.734  -0.459  0.00  0.00    -0.259 N 
ATOM      2  HN  UNL d   1      -0.491   1.696  -0.748  1.00  0.00     0.191 HD
ATOM      3  N   UNL d   1       0.852   0.040  -0.422  0.00  0.00    -0.178 N 
ATOM      4  N   UNL d   1       0.726  -1.217   0.075  0.00  0.00     0.003 NA
ATOM      5  N   UNL d   1      -0.565  -1.371   0.328  0.00  0.00    -0.261 N 
ATOM      6  HN  UNL d   1      -1.022  -2.203   0.702  1.00  0.00     0.186 HD
ATOM      7  C   UNL d   1      -1.160  -0.194  -0.011  0.00  0.00     0.174 A 
ENDROOT
BRANCH   7   8
ATOM      8  S   UNL d   1      -2.868   0.102   0.081  0.00  0.00    -0.084 SA
BRANCH   8   9
ATOM      9  C   UNL d   1      -3.482  -1.605  -0.001  0.00  0.00     0.166 C 
BRANCH   9  10
ATOM     10  C   UNL d   1      -5.000  -1.646  -0.058  0.00  0.00     0.169 C 
ATOM     11  O   UNL d   1      -5.693  -0.685  -0.390  0.00  0.00    -0.291 OA
BRANCH  10  12
ATOM     12  C   UNL d   1      -5.692  -2.914   0.325  0.00  0.00     0.013 C 
ATOM     13  C   UNL d   1      -7.094  -2.907   0.384  0.00  0.00     0.054 C 
ATOM     14  C   UNL d   1      -7.776  -3.987   0.935  0.00  0.00     0.102 C 
ATOM     15  O   UNL d   1      -9.140  -3.990   0.844  0.00  0.00    -0.348 OA
ATOM     16  C   UNL d   1      -7.059  -5.069   1.446  0.00  0.00     0.102 C 
ATOM     17  C   UNL d   1      -9.797  -3.870   2.103  0.00  0.00     0.178 C 
ATOM     18  C   UNL d   1      -9.758  -5.152   2.925  0.00  0.00     0.053 C 
ATOM     19  C   UNL d   1      -8.333  -5.517   3.303  0.00  0.00     0.178 C 
ATOM     20  O   UNL d   1      -7.639  -6.070   2.173  0.00  0.00    -0.348 OA
ATOM     21  C   UNL d   1      -5.683  -5.154   1.244  0.00  0.00     0.040 C 
ATOM     22  C   UNL d   1      -4.996  -4.079   0.677  0.00  0.00     0.018 C 
ENDBRANCH  10  12
ENDBRANCH   9  10
ENDBRANCH   8   9
ENDBRANCH   7   8
BRANCH   3  23
ATOM     23  C   UNL d   1       2.068   0.556  -0.929  0.00  0.00     0.075 A 
ATOM     24  C   UNL d   1       3.215  -0.253  -0.938  0.00  0.00     0.062 A 
ATOM     25  C   UNL d   1       4.404   0.214  -1.500  0.00  0.00     0.036 A 
ATOM     26  C   UNL d   1       4.443   1.512  -2.027  0.00  0.00     0.029 A 
ATOM     27  C   UNL d   1       3.308   2.329  -2.001  0.00  0.00     0.005 A 
ATOM     28  C   UNL d   1       2.118   1.853  -1.456  0.00  0.00     0.033 A 
BRANCH  25  29
ATOM     29  N   UNL d   1       5.578  -0.563  -1.599  0.00  0.00    -0.327 N 
ATOM     30  C   UNL d   1       5.764  -1.867  -1.170  0.00  0.00     0.218 C 
ATOM     31  O   UNL d   1       4.950  -2.565  -0.569  0.00  0.00    -0.274 OA
ATOM     32  C   UNL d   1       7.117  -2.420  -1.523  0.00  0.00     0.117 C 
ATOM     33  H   UNL d   1       6.364  -0.114  -2.052  0.00  0.00     0.169 HD
ENDBRANCH  25  29
ENDBRANCH   3  23
TORSDOF 6
