REMARK  2 active torsions:
REMARK  status: ('A' for Active; 'I' for Inactive)
REMARK    1  A    between atoms: C_10  and  C_8 
REMARK    2  A    between atoms: O_12  and  C_10 
ROOT
ATOM      1  C   UNL d   1       0.165  -0.826   0.000  0.00  0.00     0.104 A 
ATOM      2  C   UNL d   1      -0.052   0.493  -0.001  0.00  0.00     0.024 A 
ATOM      3  S   UNL d   1       1.768  -1.243  -0.001  0.00  0.00    -0.063 SA
ATOM      4  N   UNL d   1      -1.052  -1.411   0.002  0.00  0.00    -0.289 N 
ATOM      5  N   UNL d   1      -2.060  -0.491   0.001  0.00  0.00    -0.302 N 
ATOM      6  HN  UNL d   1      -3.065  -0.665   0.001  1.00  0.00     0.187 HD
ATOM      7  C   UNL d   1       1.093   1.282  -0.002  0.00  0.00     0.042 A 
ATOM      8  C   UNL d   1       2.217   0.448  -0.001  0.00  0.00     0.081 A 
ATOM      9  C   UNL d   1      -1.427   0.705  -0.001  0.00  0.00     0.035 A 
ATOM     10  C   UNL d   1      -1.367  -2.816   0.003  0.00  0.00     0.178 C 
ATOM     11  C   UNL d   1      -2.211   1.960  -0.001  0.00  0.00     0.070 C 
ENDROOT
BRANCH   8  12
ATOM     12  C   UNL d   1       3.611   0.858  -0.003  0.00  0.00     0.183 C 
ATOM     13  O   UNL d   1       4.004   2.017  -0.005  0.00  0.00    -0.646 OA
BRANCH  12  14
ATOM     14  O   UNL d   1       4.478  -0.189  -0.001  0.00  0.00    -0.772 OA
ATOM     15  H   UNL d   1       4.007  -1.045   0.001  0.00  0.00     0.167 HD
ENDBRANCH  12  14
ENDBRANCH   8  12
TORSDOF 2
