REMARK  3 active torsions:
REMARK  status: ('A' for Active; 'I' for Inactive)
REMARK    1  A    between atoms: C_3  and  C_4 
REMARK       I    between atoms: N_5  and  C_3 
REMARK    2  A    between atoms: C_8  and  N_5 
REMARK    3  A    between atoms: C_9  and  C_8 
ROOT
ATOM      1  N   UNL d   1       3.174   1.939  -2.877  0.00  0.00    -0.197 NA
ATOM      2  C   UNL d   1       2.160   1.596  -2.429  0.00  0.00     0.068 C 
ATOM      3  C   UNL d   1       0.875   1.144  -1.893  0.00  0.00     0.226 C 
ENDROOT
BRANCH   3   4
ATOM      4  C   UNL d   1       0.982  -0.170  -1.148  0.00  0.00     0.230 C 
ATOM      5  N   UNL d   1       1.831  -1.118  -1.672  0.00  0.00    -0.358 N 
ATOM      6  H   UNL d   1       2.256  -0.995  -2.584  0.00  0.00     0.162 HD
ATOM      7  O   UNL d   1       0.296  -0.386  -0.150  0.00  0.00    -0.273 OA
BRANCH   5   8
ATOM      8  C   UNL d   1       2.086  -2.387  -1.006  0.00  0.00     0.154 C 
BRANCH   8   9
ATOM      9  C   UNL d   1       1.220  -3.530  -1.538  0.00  0.00     0.139 C 
ATOM     10  O   UNL d   1       1.522  -3.790  -2.926  0.00  0.00    -0.384 OA
ATOM     11  C   UNL d   1       1.521  -5.212  -3.133  0.00  0.00     0.168 C 
ATOM     12  C   UNL d   1       1.077  -5.859  -1.837  0.00  0.00     0.029 C 
ATOM     13  C   UNL d   1       1.494  -4.838  -0.811  0.00  0.00     0.035 C 
ENDBRANCH   8   9
ENDBRANCH   5   8
ENDBRANCH   3   4
TORSDOF 3
