REMARK  3 active torsions:
REMARK  status: ('A' for Active; 'I' for Inactive)
REMARK    1  A    between atoms: C_2  and  C_1 
REMARK    2  A    between atoms: O_10  and  N_5 
REMARK    3  A    between atoms: C_8  and  O_10 
ROOT
ATOM      1  C   UNL d   1      -0.068  -2.711  -0.022  0.00  0.00     0.062 C 
ATOM      2  N   UNL d   1      -1.249  -3.261  -0.037  0.00  0.00    -0.260 N 
ATOM      3  HN  UNL d   1      -1.399  -4.270  -0.048  1.00  0.00     0.194 HD
ATOM      4  C   UNL d   1       0.134  -1.209  -0.006  0.00  0.00     0.073 C 
ENDROOT
BRANCH   1   5
ATOM      5  C   UNL d   1       1.122  -3.554  -0.019  0.00  0.00     0.098 A 
ATOM      6  N   UNL d   1       2.350  -3.071  -0.004  0.00  0.00    -0.358 N 
ATOM      7  C   UNL d   1       3.261  -4.110  -0.003  0.00  0.00     0.096 A 
ATOM      8  HN  UNL d   1       2.591  -2.080   0.005  1.00  0.00     0.166 HD
ATOM      9  C   UNL d   1       2.721  -5.377  -0.018  0.00  0.00     0.069 A 
ATOM     10  S   UNL d   1       1.012  -5.272  -0.033  0.00  0.00    -0.081 SA
ENDBRANCH   1   5
BRANCH   2  11
ATOM     11  O   UNL d   1      -2.297  -2.319  -0.035  0.00  0.00    -0.200 OA
BRANCH  11  12
ATOM     12  C   UNL d   1      -3.504  -2.979  -0.050  0.00  0.00     0.277 C 
ATOM     13  O   UNL d   1      -3.681  -4.193  -0.064  0.00  0.00    -0.264 OA
ATOM     14  C   UNL d   1      -4.639  -1.998  -0.046  0.00  0.00     0.128 C 
ENDBRANCH  11  12
ENDBRANCH   2  11
TORSDOF 3
