REMARK  9 active torsions:
REMARK  status: ('A' for Active; 'I' for Inactive)
REMARK    1  A    between atoms: C_2  and  S_1 
REMARK    2  A    between atoms: C_6  and  S_1 
REMARK    3  A    between atoms: N_5  and  C_3 
REMARK    4  A    between atoms: S_4  and  C_14 
REMARK    5  A    between atoms: C_9  and  S_4 
REMARK       I    between atoms: C_13  and  N_5 
REMARK    6  A    between atoms: C_31  and  C_13 
REMARK    7  A    between atoms: C_14  and  C_32 
REMARK    8  A    between atoms: S_28  and  C_31 
REMARK    9  A    between atoms: C_32  and  S_28 
ROOT
ATOM      1  N   UNL d   1       0.154  -2.399   1.888  0.00  0.00    -0.325 N 
ATOM      2  C   UNL d   1       1.145  -3.071   1.189  0.00  0.00     0.231 C 
ATOM      3  O   UNL d   1       2.284  -2.632   1.029  0.00  0.00    -0.272 OA
ATOM      4  H   UNL d   1      -0.819  -2.607   1.662  0.00  0.00     0.169 HD
ENDROOT
BRANCH   1   5
ATOM      5  C   UNL d   1       0.411  -1.274   2.664  0.00  0.00     0.063 A 
ATOM      6  C   UNL d   1      -0.361  -0.068   2.690  0.00  0.00     0.098 A 
ATOM      7  C   UNL d   1       0.134   0.850   3.596  0.00  0.00     0.075 A 
ATOM      8  S   UNL d   1       1.496   0.253   4.437  0.00  0.00    -0.110 SA
ATOM      9  C   UNL d   1       1.461  -1.212   3.559  0.00  0.00     0.080 A 
BRANCH   6  10
ATOM     10  S   UNL d   1      -1.691   0.292   1.637  0.00  0.00     0.209 S 
ATOM     11  O   UNL d   1      -2.481   1.256   2.374  0.00  0.00    -0.217 OA
ATOM     12  O   UNL d   1      -2.205  -0.999   1.244  0.00  0.00    -0.217 OA
BRANCH  10  13
ATOM     13  C   UNL d   1      -1.044   1.087   0.186  0.00  0.00     0.064 A 
ATOM     14  C   UNL d   1       0.181   0.697  -0.362  0.00  0.00     0.025 A 
ATOM     15  C   UNL d   1       0.667   1.353  -1.498  0.00  0.00     0.025 A 
ATOM     16  C   UNL d   1      -0.068   2.386  -2.081  0.00  0.00     0.034 A 
ATOM     17  C   UNL d   1      -1.293   2.770  -1.539  0.00  0.00     0.025 A 
ATOM     18 CL   UNL d   1       0.544   3.188  -3.473  0.00  0.00    -0.084 Cl
ATOM     19  C   UNL d   1      -1.784   2.122  -0.401  0.00  0.00     0.025 A 
ENDBRANCH  10  13
ENDBRANCH   6  10
ENDBRANCH   1   5
BRANCH   2  20
ATOM     20  C   UNL d   1       0.688  -4.344   0.482  0.00  0.00     0.177 C 
BRANCH  20  21
ATOM     21  S   UNL d   1      -0.472  -5.287   1.527  0.00  0.00    -0.159 SA
BRANCH  21  22
ATOM     22  C   UNL d   1      -0.747  -6.743   0.464  0.00  0.00     0.089 C 
BRANCH  22  23
ATOM     23  C   UNL d   1      -1.708  -7.667   1.196  0.00  0.00     0.156 C 
BRANCH  23  24
ATOM     24  S   UNL d   1      -2.050  -9.111   0.223  0.00  0.00     0.176 S 
ATOM     25  O   UNL d   1      -2.795  -8.704  -0.949  0.00  0.00    -0.223 OA
ATOM     26  O   UNL d   1      -0.817  -9.870   0.095  0.00  0.00    -0.223 OA
BRANCH  24  27
ATOM     27  C   UNL d   1      -3.150 -10.066   1.251  0.00  0.00     0.059 A 
ATOM     28  C   UNL d   1      -4.534  -9.918   1.105  0.00  0.00     0.025 A 
ATOM     29  C   UNL d   1      -5.395 -10.722   1.858  0.00  0.00     0.025 A 
ATOM     30  C   UNL d   1      -4.870 -11.669   2.740  0.00  0.00     0.034 A 
ATOM     31  C   UNL d   1      -3.490 -11.816   2.884  0.00  0.00     0.025 A 
ATOM     32 CL   UNL d   1      -5.934 -12.680   3.637  0.00  0.00    -0.084 Cl
ATOM     33  C   UNL d   1      -2.624 -11.015   2.134  0.00  0.00     0.025 A 
ENDBRANCH  24  27
ENDBRANCH  23  24
ENDBRANCH  22  23
ENDBRANCH  21  22
ENDBRANCH  20  21
ENDBRANCH   2  20
TORSDOF 9
