REMARK  4 active torsions:
REMARK  status: ('A' for Active; 'I' for Inactive)
REMARK    1  A    between atoms: C_3  and  C_1 
REMARK    2  A    between atoms: C_9  and  C_2 
REMARK       I    between atoms: N_8  and  C_3 
REMARK    3  A    between atoms: C_4  and  N_8 
REMARK    4  A    between atoms: O_18  and  C_16 
ROOT
ATOM      1  C   UNL d   1       1.719   1.055   0.149  0.00  0.00     0.121 C 
ATOM      2  C   UNL d   1       2.516  -0.091  -0.457  0.00  0.00     0.181 C 
ATOM      3  O   UNL d   1       1.532  -0.833  -1.189  0.00  0.00    -0.310 OA
ATOM      4  C   UNL d   1       0.508  -0.013  -1.547  0.00  0.00     0.260 C 
ATOM      5  C   UNL d   1       0.651   1.323  -0.888  0.00  0.00     0.128 C 
ATOM      6  O   UNL d   1      -0.421  -0.347  -2.261  0.00  0.00    -0.265 OA
ENDROOT
BRANCH   1   7
ATOM      7  C   UNL d   1       1.132   0.743   1.529  0.00  0.00     0.230 C 
ATOM      8  N   UNL d   1       0.277  -0.330   1.590  0.00  0.00    -0.311 N 
ATOM      9  H   UNL d   1      -0.036  -0.826   0.767  0.00  0.00     0.170 HD
ATOM     10  O   UNL d   1       1.450   1.444   2.487  0.00  0.00    -0.273 OA
BRANCH   8  11
ATOM     11  C   UNL d   1      -0.193  -0.901   2.753  0.00  0.00     0.130 A 
ATOM     12  N   UNL d   1      -1.063  -1.914   2.674  0.00  0.00    -0.245 N 
ATOM     13  O   UNL d   1      -1.316  -2.304   3.975  0.00  0.00    -0.241 OA
ATOM     14  HN  UNL d   1      -1.459  -2.317   1.825  1.00  0.00     0.196 HD
ATOM     15  C   UNL d   1      -0.582  -1.538   4.824  0.00  0.00     0.076 A 
ATOM     16  C   UNL d   1       0.136  -0.622   4.096  0.00  0.00     0.084 A 
ATOM     17  C   UNL d   1      -0.700  -1.855   6.257  0.00  0.00     0.079 C 
ENDBRANCH   8  11
ENDBRANCH   1   7
BRANCH   2  18
ATOM     18  C   UNL d   1       3.352  -0.888   0.531  0.00  0.00     0.005 A 
ATOM     19  C   UNL d   1       3.298  -2.282   0.667  0.00  0.00     0.077 A 
ATOM     20  C   UNL d   1       4.093  -2.946   1.611  0.00  0.00     0.037 A 
ATOM     21  C   UNL d   1       4.940  -2.225   2.449  0.00  0.00     0.003 A 
ATOM     22  C   UNL d   1       5.020  -0.844   2.325  0.00  0.00     0.001 A 
ATOM     23  C   UNL d   1       4.246  -0.185   1.368  0.00  0.00     0.012 A 
BRANCH  19  24
ATOM     24  O   UNL d   1       2.537  -3.026  -0.190  0.00  0.00    -0.355 OA
ATOM     25  C   UNL d   1       1.446  -3.672   0.464  0.00  0.00     0.210 C 
ENDBRANCH  19  24
ENDBRANCH   2  18
TORSDOF 4
