REMARK  5 active torsions:
REMARK  status: ('A' for Active; 'I' for Inactive)
REMARK    1  A    between atoms: C_8  and  C_11 
REMARK    2  A    between atoms: O_16  and  C_8 
REMARK    3  A    between atoms: O_10  and  C_12 
REMARK    4  A    between atoms: C_11  and  O_10 
REMARK    5  A    between atoms: C_19  and  O_16 
ROOT
ATOM      1  C   UNL d   1       0.351   0.720  -0.277  0.00  0.00     0.092 A 
ATOM      2  C   UNL d   1      -0.551  -1.565  -0.064  0.00  0.00    -0.043 C 
ATOM      3  O   UNL d   1      -0.960   1.230  -0.359  0.00  0.00    -0.275 OA
ATOM      4  C   UNL d   1      -2.053   0.407  -0.164  0.00  0.00     0.288 C 
ATOM      5  C   UNL d   1       0.598  -0.647  -0.116  0.00  0.00     0.004 A 
ATOM      6  C   UNL d   1      -1.782  -1.034  -0.068  0.00  0.00     0.090 C 
ATOM      7  C   UNL d   1       1.371   1.675  -0.316  0.00  0.00     0.075 A 
ATOM      8  C   UNL d   1       1.935  -1.039   0.007  0.00  0.00     0.017 A 
ATOM      9  C   UNL d   1       2.688   1.271  -0.131  0.00  0.00     0.072 A 
ATOM     10  O   UNL d   1      -3.197   0.838  -0.101  0.00  0.00    -0.260 OA
ATOM     11  C   UNL d   1       2.967  -0.089   0.001  0.00  0.00     0.038 A 
ATOM     12  C   UNL d   1      -0.396  -3.057   0.006  0.00  0.00     0.049 C 
ENDROOT
BRANCH   9  13
ATOM     13  O   UNL d   1       3.772   2.104  -0.044  0.00  0.00    -0.336 OA
BRANCH  13  14
ATOM     14  C   UNL d   1       3.521   3.426   0.440  0.00  0.00     0.224 C 
ATOM     15  C   UNL d   1       4.860   4.151   0.496  0.00  0.00     0.051 C 
BRANCH  14  16
ATOM     16  C   UNL d   1       2.873   3.488   1.833  0.00  0.00     0.288 C 
ATOM     17  O   UNL d   1       2.927   2.615   2.687  0.00  0.00    -0.262 OA
BRANCH  16  18
ATOM     18  O   UNL d   1       2.144   4.641   1.936  0.00  0.00    -0.320 OA
BRANCH  18  19
ATOM     19  C   UNL d   1       1.161   4.654   2.982  0.00  0.00     0.174 C 
ATOM     20  C   UNL d   1      -0.118   4.038   2.442  0.00  0.00     0.034 C 
ENDBRANCH  18  19
ENDBRANCH  16  18
ENDBRANCH  14  16
ENDBRANCH  13  14
ENDBRANCH   9  13
TORSDOF 5
