REMARK  5 active torsions:
REMARK  status: ('A' for Active; 'I' for Inactive)
REMARK    1  A    between atoms: C_2  and  N_1 
REMARK    2  A    between atoms: N_10  and  C_3 
REMARK    3  A    between atoms: C_12  and  N_10 
REMARK    4  A    between atoms: C_17  and  C_12 
REMARK    5  A    between atoms: C_13  and  C_17 
ROOT
ATOM      1  N   UNL d   1      -1.032   0.026  -2.013  0.00  0.00    -0.277 NA
ATOM      2  H   UNL d   1      -2.018   0.009  -2.273  0.00  0.00     0.129 HD
ENDROOT
BRANCH   1   3
ATOM      3  C   UNL d   1      -0.681  -1.055  -1.201  0.00  0.00     0.113 A 
ATOM      4  C   UNL d   1      -1.158  -2.357  -1.403  0.00  0.00     0.141 A 
ATOM      5  C   UNL d   1      -0.676  -3.410  -0.603  0.00  0.00     0.041 A 
ATOM      6  C   UNL d   1       0.274  -3.147   0.374  0.00  0.00     0.020 A 
ATOM      7  C   UNL d   1       0.700  -1.843   0.519  0.00  0.00     0.089 A 
ATOM      8  N   UNL d   1       0.248  -0.819  -0.238  0.00  0.00    -0.355 N 
ATOM      9  HN  UNL d   1       0.602   0.126  -0.087  1.00  0.00     0.166 HD
BRANCH   4  10
ATOM     10  N   UNL d   1      -2.179  -2.665  -2.406  0.00  0.00    -0.112 N 
ATOM     11  O   UNL d   1      -2.777  -1.728  -2.959  0.00  0.00    -0.532 OA
ATOM     12  O   UNL d   1      -2.433  -3.860  -2.614  0.00  0.00    -0.532 OA
ENDBRANCH   4  10
ENDBRANCH   1   3
BRANCH   1  13
ATOM     13  C   UNL d   1      -0.525   1.340  -1.614  0.00  0.00     0.098 C 
BRANCH  13  14
ATOM     14  C   UNL d   1      -1.145   2.475  -2.441  0.00  0.00     0.053 C 
BRANCH  14  15
ATOM     15  C   UNL d   1      -0.902   2.356  -3.924  0.00  0.00    -0.054 A 
ATOM     16  C   UNL d   1      -1.844   1.737  -4.750  0.00  0.00     0.024 A 
ATOM     17  C   UNL d   1      -1.561   1.608  -6.100  0.00  0.00     0.088 A 
ATOM     18  N   UNL d   1      -0.427   2.056  -6.677  0.00  0.00    -0.375 N 
ATOM     19  C   UNL d   1       0.470   2.651  -5.862  0.00  0.00     0.088 A 
ATOM     20  HN  UNL d   1      -0.256   1.952  -7.678  1.00  0.00     0.164 HD
ATOM     21  C   UNL d   1       0.283   2.822  -4.499  0.00  0.00     0.024 A 
ENDBRANCH  14  15
ENDBRANCH  13  14
ENDBRANCH   1  13
TORSDOF 5
