REMARK  10 active torsions:
REMARK  status: ('A' for Active; 'I' for Inactive)
REMARK    1  A    between atoms: C_3  and  S_1 
REMARK    2  A    between atoms: N_4  and  S_1 
REMARK    3  A    between atoms: S_2  and  C_3 
REMARK    4  A    between atoms: N_5  and  S_2 
REMARK    5  A    between atoms: C_24  and  N_4 
REMARK    6  A    between atoms: C_25  and  N_5 
REMARK    7  A    between atoms: C_6  and  O_18 
REMARK    8  A    between atoms: C_7  and  O_19 
REMARK    9  A    between atoms: O_18  and  C_21 
REMARK   10  A    between atoms: O_19  and  C_20 
ROOT
ATOM      1  C   UNL d   1       0.665   1.622   0.432  0.00  0.00     0.314 C 
ENDROOT
BRANCH   1   2
ATOM      2  S   UNL d   1       1.146   1.911   2.098  0.00  0.00     0.228 S 
ATOM      3  O   UNL d   1       0.393   1.063   2.992  0.00  0.00    -0.210 OA
ATOM      4  O   UNL d   1       2.581   2.038   2.205  0.00  0.00    -0.210 OA
BRANCH   2   5
ATOM      5  N   UNL d   1       0.492   3.472   2.363  0.00  0.00    -0.183 NA
ATOM      6  H   UNL d   1       0.415   3.613   3.377  0.00  0.00     0.146 HD
BRANCH   5   7
ATOM      7  C   UNL d   1       1.112   4.555   1.666  0.00  0.00     0.038 A 
ATOM      8  C   UNL d   1       0.596   4.979   0.446  0.00  0.00     0.114 A 
ATOM      9  N   UNL d   1       1.148   5.944  -0.316  0.00  0.00    -0.345 N 
ATOM     10  C   UNL d   1       2.233   6.569   0.199  0.00  0.00     0.148 A 
ATOM     11  HN  UNL d   1       0.769   6.190  -1.231  1.00  0.00     0.167 HD
ATOM     12  C   UNL d   1       2.846   6.191   1.387  0.00  0.00     0.058 A 
ATOM     13  C   UNL d   1       2.276   5.157   2.130  0.00  0.00     0.030 A 
BRANCH  10  14
ATOM     14  O   UNL d   1       2.793   7.643  -0.482  0.00  0.00    -0.291 OA
BRANCH  14  15
ATOM     15  C   UNL d   1       1.965   8.345  -1.329  0.00  0.00     0.116 A 
ATOM     16  C   UNL d   1       0.679   8.774  -0.976  0.00  0.00     0.153 A 
ATOM     17  C   UNL d   1      -0.116   9.464  -1.883  0.00  0.00     0.087 A 
ATOM     18  F   UNL d   1       0.189   8.546   0.252  0.00  0.00    -0.203 F 
ATOM     19  C   UNL d   1       0.402   9.767  -3.134  0.00  0.00     0.119 A 
ATOM     20  C   UNL d   1       1.700   9.404  -3.485  0.00  0.00     0.045 A 
ATOM     21  F   UNL d   1      -0.355  10.434  -4.015  0.00  0.00    -0.206 F 
ATOM     22  C   UNL d   1       2.488   8.692  -2.578  0.00  0.00     0.043 A 
ENDBRANCH  14  15
ENDBRANCH  10  14
ENDBRANCH   5   7
ENDBRANCH   2   5
ENDBRANCH   1   2
BRANCH   1  23
ATOM     23  S   UNL d   1       1.127   0.009  -0.078  0.00  0.00     0.228 S 
ATOM     24  O   UNL d   1       0.314  -0.972   0.605  0.00  0.00    -0.210 OA
ATOM     25  O   UNL d   1       2.563  -0.117  -0.175  0.00  0.00    -0.210 OA
BRANCH  23  26
ATOM     26  N   UNL d   1       0.482   0.021  -1.666  0.00  0.00    -0.183 NA
ATOM     27  H   UNL d   1      -0.062  -0.841  -1.785  0.00  0.00     0.146 HD
BRANCH  26  28
ATOM     28  C   UNL d   1       1.393   0.297  -2.733  0.00  0.00     0.038 A 
ATOM     29  C   UNL d   1       2.176  -0.702  -3.300  0.00  0.00     0.114 A 
ATOM     30  N   UNL d   1       3.047  -0.490  -4.312  0.00  0.00    -0.345 N 
ATOM     31  C   UNL d   1       3.179   0.785  -4.745  0.00  0.00     0.148 A 
ATOM     32  HN  UNL d   1       3.579  -1.255  -4.728  1.00  0.00     0.167 HD
ATOM     33  C   UNL d   1       2.447   1.848  -4.236  0.00  0.00     0.058 A 
ATOM     34  C   UNL d   1       1.545   1.599  -3.201  0.00  0.00     0.030 A 
BRANCH  31  35
ATOM     35  O   UNL d   1       4.079   1.076  -5.763  0.00  0.00    -0.291 OA
BRANCH  35  36
ATOM     36  C   UNL d   1       5.175   0.253  -5.889  0.00  0.00     0.116 A 
ATOM     37  C   UNL d   1       5.578  -0.103  -7.178  0.00  0.00     0.153 A 
ATOM     38  C   UNL d   1       6.685  -0.919  -7.380  0.00  0.00     0.087 A 
ATOM     39  F   UNL d   1       4.898   0.342  -8.245  0.00  0.00    -0.203 F 
ATOM     40  C   UNL d   1       7.397  -1.373  -6.276  0.00  0.00     0.119 A 
ATOM     41  C   UNL d   1       7.034  -1.004  -4.985  0.00  0.00     0.045 A 
ATOM     42  F   UNL d   1       8.455  -2.173  -6.457  0.00  0.00    -0.206 F 
ATOM     43  C   UNL d   1       5.931  -0.174  -4.789  0.00  0.00     0.043 A 
ENDBRANCH  35  36
ENDBRANCH  31  35
ENDBRANCH  26  28
ENDBRANCH  23  26
ENDBRANCH   1  23
TORSDOF 10
