REMARK  3 active torsions:
REMARK  status: ('A' for Active; 'I' for Inactive)
REMARK    1  A    between atoms: N_13  and  C_1 
REMARK    2  A    between atoms: C_9  and  N_13 
REMARK    3  A    between atoms: N_15  and  C_10 
ROOT
ATOM      1  N   UNL d   1      -3.218   2.663   0.679  0.00  0.00    -0.020 N 
ATOM      2  HN  UNL d   1      -3.337   1.793   1.197  1.00  0.00     0.203 HD
ATOM      3  C   UNL d   1      -2.142   3.097   0.065  0.00  0.00     0.712 A 
ATOM      4  C   UNL d   1      -4.135   3.638   0.467  0.00  0.00     0.705 A 
ATOM      5  N   UNL d   1      -3.696   4.696  -0.208  0.00  0.00    -0.118 N 
ATOM      6  HN  UNL d   1      -4.188   5.551  -0.466  1.00  0.00     0.206 HD
ATOM      7  N   UNL d   1      -2.428   4.331  -0.458  0.00  0.00    -0.117 N 
ATOM      8  H   UNL d   1      -1.841   4.931  -1.020  0.00  0.00     0.206 HD
ENDROOT
BRANCH   3   9
ATOM      9  N   UNL d   1      -0.919   2.535  -0.105  0.00  0.00    -0.186 N 
ATOM     10  H   UNL d   1      -0.158   3.168  -0.324  0.00  0.00     0.184 HD
BRANCH   9  11
ATOM     11  C   UNL d   1      -0.584   1.220  -0.008  0.00  0.00     0.096 A 
ATOM     12  C   UNL d   1       0.721   0.757   0.011  0.00  0.00     0.053 A 
ATOM     13  N   UNL d   1       0.620  -0.611   0.048  0.00  0.00    -0.299 N 
ATOM     14  C   UNL d   1       2.029   1.460  -0.005  0.00  0.00     0.072 C 
ATOM     15  C   UNL d   1       1.677  -1.595   0.026  0.00  0.00     0.177 C 
ATOM     16  N   UNL d   1      -0.643  -1.060   0.057  0.00  0.00    -0.301 N 
ATOM     17  C   UNL d   1      -1.394   0.048   0.011  0.00  0.00     0.051 A 
ATOM     18  HN  UNL d   1      -0.961  -2.029   0.092  1.00  0.00     0.187 HD
ATOM     19  C   UNL d   1      -2.868  -0.104  -0.072  0.00  0.00     0.072 C 
ENDBRANCH   9  11
ENDBRANCH   3   9
BRANCH   4  20
ATOM     20  N   UNL d   1      -5.362   3.474   0.949  0.00  0.00    -0.233 N 
ATOM     21  H   UNL d   1      -5.477   2.787   1.683  0.00  0.00     0.174 HD
ATOM     22  H   UNL d   1      -5.947   4.294   1.027  0.00  0.00     0.174 HD
ENDBRANCH   4  20
TORSDOF 3
