REMARK  8 active torsions:
REMARK  status: ('A' for Active; 'I' for Inactive)
REMARK    1  A    between atoms: C_7  and  N_1 
REMARK    2  A    between atoms: N_5  and  C_11 
REMARK    3  A    between atoms: N_6  and  C_12 
REMARK    4  A    between atoms: C_9  and  N_6 
REMARK    5  A    between atoms: C_10  and  C_7 
REMARK    6  A    between atoms: C_11  and  C_10 
REMARK    7  A    between atoms: O_18  and  C_10 
REMARK    8  A    between atoms: O_19  and  C_13 
ROOT
ATOM      1  N   UNL d   1       0.413  -2.413   1.579  0.00  0.00     0.091 N 
ATOM      2  C   UNL d   1       0.818   0.368   0.274  0.00  0.00     0.080 C 
ATOM      3  C   UNL d   1       1.623  -0.856  -0.188  0.00  0.00     0.055 C 
ATOM      4  C   UNL d   1       0.419   0.172   1.738  0.00  0.00     0.055 C 
ATOM      5  C   UNL d   1       1.402  -2.215   0.509  0.00  0.00     0.274 C 
ATOM      6  C   UNL d   1      -0.154  -1.192   2.133  0.00  0.00     0.274 C 
ENDROOT
BRANCH   1   7
ATOM      7  C   UNL d   1      -0.606  -3.428   1.206  0.00  0.00     0.305 C 
BRANCH   7   8
ATOM      8  C   UNL d   1      -1.474  -4.147   2.283  0.00  0.00     0.164 C 
BRANCH   8   9
ATOM      9  C   UNL d   1      -2.449  -3.351   3.174  0.00  0.00     0.162 C 
BRANCH   9  10
ATOM     10  N   UNL d   1      -3.473  -2.554   2.530  0.00  0.00    -0.354 N 
ATOM     11  C   UNL d   1      -3.695  -1.231   2.849  0.00  0.00     0.092 A 
ATOM     12  C   UNL d   1      -4.744  -0.773   2.086  0.00  0.00     0.031 A 
ATOM     13  C   UNL d   1      -5.222  -1.867   1.322  0.00  0.00    -0.008 A 
ATOM     14  C   UNL d   1      -4.447  -2.977   1.657  0.00  0.00     0.044 A 
ATOM     15  C   UNL d   1      -6.280  -2.002   0.394  0.00  0.00     0.014 A 
ATOM     16  C   UNL d   1      -4.742  -4.262   1.123  0.00  0.00     0.030 A 
ATOM     17  C   UNL d   1      -5.809  -4.364   0.215  0.00  0.00     0.002 A 
ATOM     18  C   UNL d   1      -6.555  -3.254  -0.154  0.00  0.00     0.001 A 
ENDBRANCH   9  10
ENDBRANCH   8   9
BRANCH   8  19
ATOM     19  O   UNL d   1      -0.624  -4.922   3.152  0.00  0.00    -0.392 OA
ATOM     20  H   UNL d   1       0.177  -4.393   3.308  0.00  0.00     0.210 HD
ENDBRANCH   8  19
ENDBRANCH   7   8
ENDBRANCH   1   7
BRANCH   2  21
ATOM     21  N   UNL d   1      -0.272   0.610  -0.655  0.00  0.00    -0.410 N 
ATOM     22  H   UNL d   1      -0.838  -0.192  -0.913  0.00  0.00     0.154 HD
BRANCH  21  23
ATOM     23  C   UNL d   1      -0.714   1.899  -1.195  0.00  0.00     0.105 C 
ATOM     24  C   UNL d   1       0.040   3.252  -1.017  0.00  0.00     0.140 C 
ATOM     25  C   UNL d   1      -0.021   3.835   0.389  0.00  0.00     0.034 C 
ATOM     26  C   UNL d   1      -1.397   3.773   1.050  0.00  0.00     0.003 C 
ATOM     27  C   UNL d   1      -2.281   2.580   0.683  0.00  0.00     0.002 C 
ATOM     28  C   UNL d   1      -2.169   2.146  -0.773  0.00  0.00     0.027 C 
BRANCH  24  29
ATOM     29  O   UNL d   1       1.400   3.192  -1.443  0.00  0.00    -0.394 OA
ATOM     30  H   UNL d   1       1.448   2.551  -2.172  0.00  0.00     0.210 HD
ENDBRANCH  24  29
ENDBRANCH  21  23
ENDBRANCH   2  21
TORSDOF 8
