REMARK  6 active torsions:
REMARK  status: ('A' for Active; 'I' for Inactive)
REMARK    1  A    between atoms: N_3  and  C_1 
REMARK    2  A    between atoms: C_2  and  C_11 
REMARK       I    between atoms: C_4  and  N_3 
REMARK       I    between atoms: N_10  and  C_4 
REMARK    3  A    between atoms: C_23  and  N_10 
REMARK    4  A    between atoms: C_11  and  S_16 
REMARK    5  A    between atoms: S_16  and  C_24 
REMARK    6  A    between atoms: C_24  and  C_23 
ROOT
ATOM      1  N   UNL d   1      -0.204   2.121   0.254  0.00  0.00    -0.306 N 
ATOM      2  C   UNL d   1      -1.385   2.828   0.225  0.00  0.00     0.320 C 
ATOM      3  O   UNL d   1      -2.513   2.342   0.220  0.00  0.00    -0.247 OA
ATOM      4  N   UNL d   1      -1.165   4.186   0.170  0.00  0.00    -0.342 N 
ATOM      5  H   UNL d   1       0.524   2.561  -0.296  0.00  0.00     0.171 HD
ATOM      6  H   UNL d   1      -0.269   4.510  -0.172  0.00  0.00     0.164 HD
ENDROOT
BRANCH   4   7
ATOM      7  C   UNL d   1      -2.292   5.088   0.032  0.00  0.00     0.134 C 
BRANCH   7   8
ATOM      8  C   UNL d   1      -1.884   6.551  -0.142  0.00  0.00     0.094 C 
BRANCH   8   9
ATOM      9  S   UNL d   1      -0.747   6.833  -1.552  0.00  0.00    -0.163 SA
BRANCH   9  10
ATOM     10  C   UNL d   1      -1.815   6.271  -2.919  0.00  0.00     0.117 C 
BRANCH  10  11
ATOM     11  C   UNL d   1      -1.168   6.473  -4.261  0.00  0.00     0.011 A 
ATOM     12  C   UNL d   1      -1.399   7.665  -4.957  0.00  0.00     0.125 A 
ATOM     13  F   UNL d   1      -2.188   8.608  -4.420  0.00  0.00    -0.205 F 
ATOM     14  C   UNL d   1      -0.841   7.907  -6.211  0.00  0.00     0.043 A 
ATOM     15  C   UNL d   1      -0.030   6.943  -6.802  0.00  0.00     0.005 A 
ATOM     16  C   UNL d   1       0.223   5.750  -6.127  0.00  0.00     0.024 A 
ATOM     17  C   UNL d   1      -0.337   5.517  -4.864  0.00  0.00     0.044 A 
ATOM     18 CL   UNL d   1       0.032   4.012  -4.097  0.00  0.00    -0.084 Cl
ENDBRANCH  10  11
ENDBRANCH   9  10
ENDBRANCH   8   9
ENDBRANCH   7   8
ENDBRANCH   4   7
BRANCH   1  19
ATOM     19  C   UNL d   1      -0.176   0.698   0.220  0.00  0.00     0.080 A 
ATOM     20  C   UNL d   1       0.603   0.081  -0.777  0.00  0.00     0.062 A 
ATOM     21 CL   UNL d   1       1.459   1.028  -1.950  0.00  0.00    -0.082 Cl
ATOM     22  C   UNL d   1       0.684  -1.310  -0.879  0.00  0.00     0.026 A 
ATOM     23  C   UNL d   1       0.008  -2.112   0.036  0.00  0.00     0.003 A 
ATOM     24  C   UNL d   1      -0.745  -1.521   1.050  0.00  0.00     0.026 A 
ATOM     25  C   UNL d   1      -0.840  -0.123   1.149  0.00  0.00     0.062 A 
ATOM     26 CL   UNL d   1      -1.666   0.496   2.537  0.00  0.00    -0.082 Cl
ENDBRANCH   1  19
TORSDOF 6
