REMARK  5 active torsions:
REMARK  status: ('A' for Active; 'I' for Inactive)
REMARK    1  A    between atoms: C_11  and  C_3 
REMARK    2  A    between atoms: S_19  and  C_14 
REMARK    3  A    between atoms: C_18  and  C_21 
REMARK    4  A    between atoms: C_20  and  C_18 
REMARK    5  A    between atoms: C_21  and  S_19 
ROOT
ATOM      1  C   UNL d   1       3.463  -1.443  -0.001  0.00  0.00     0.049 A 
ATOM      2  N   UNL d   1       4.227  -1.494   1.110  0.00  0.00    -0.336 N 
ATOM      3  HN  UNL d   1       3.915  -1.092   1.994  1.00  0.00     0.168 HD
ATOM      4  C   UNL d   1       5.419  -2.101   0.993  0.00  0.00     0.144 A 
ATOM      5  N   UNL d   1       5.891  -2.639  -0.145  0.00  0.00    -0.347 N 
ATOM      6  HN  UNL d   1       6.809  -3.081  -0.186  1.00  0.00     0.167 HD
ATOM      7  C   UNL d   1       3.853  -1.991  -1.207  0.00  0.00     0.047 A 
ATOM      8  C   UNL d   1       5.096  -2.567  -1.224  0.00  0.00     0.092 A 
ENDROOT
BRANCH   1   9
ATOM      9  C   UNL d   1       2.157  -0.787   0.099  0.00  0.00     0.030 A 
ATOM     10  C   UNL d   1       1.008  -1.389   0.490  0.00  0.00     0.046 A 
ATOM     11  N   UNL d   1      -0.193  -0.655   0.431  0.00  0.00    -0.243 N 
ATOM     12  C   UNL d   1       0.905  -2.806   0.977  0.00  0.00     0.071 C 
ATOM     13  C   UNL d   1      -0.216   0.663  -0.035  0.00  0.00     0.129 A 
ATOM     14  N   UNL d   1      -1.449  -1.084   0.748  0.00  0.00    -0.297 N 
ATOM     15  N   UNL d   1       0.912   1.319  -0.432  0.00  0.00    -0.350 N 
ATOM     16  C   UNL d   1      -1.530   1.067   0.012  0.00  0.00     0.076 A 
ATOM     17  C   UNL d   1       2.013   0.634  -0.354  0.00  0.00     0.105 A 
ATOM     18  HN  UNL d   1       0.892   2.283  -0.766  1.00  0.00     0.166 HD
ATOM     19  C   UNL d   1      -2.246  -0.041   0.502  0.00  0.00     0.026 A 
ATOM     20  C   UNL d   1      -3.708  -0.129   0.743  0.00  0.00     0.070 C 
ATOM     21  HN  UNL d   1      -1.721  -2.003   1.096  1.00  0.00     0.187 HD
ENDBRANCH   1   9
BRANCH   4  22
ATOM     22  S   UNL d   1       6.390  -2.298   2.471  0.00  0.00    -0.086 SA
BRANCH  22  23
ATOM     23  C   UNL d   1       7.875  -3.087   1.772  0.00  0.00     0.166 C 
BRANCH  23  24
ATOM     24  C   UNL d   1       8.837  -3.477   2.876  0.00  0.00     0.169 C 
ATOM     25  O   UNL d   1       9.730  -2.708   3.238  0.00  0.00    -0.291 OA
BRANCH  24  26
ATOM     26  C   UNL d   1       8.716  -4.811   3.554  0.00  0.00     0.011 A 
ATOM     27  C   UNL d   1       7.753  -5.765   3.201  0.00  0.00     0.017 A 
ATOM     28  C   UNL d   1       7.643  -6.960   3.924  0.00  0.00     0.025 A 
ATOM     29  C   UNL d   1       8.495  -7.210   4.998  0.00  0.00     0.034 A 
ATOM     30  C   UNL d   1       9.485  -6.291   5.334  0.00  0.00     0.025 A 
ATOM     31 CL   UNL d   1       8.307  -8.647   5.922  0.00  0.00    -0.084 Cl
ATOM     32  C   UNL d   1       9.598  -5.099   4.611  0.00  0.00     0.017 A 
ENDBRANCH  24  26
ENDBRANCH  23  24
ENDBRANCH  22  23
ENDBRANCH   4  22
TORSDOF 5
