REMARK  5 active torsions:
REMARK  status: ('A' for Active; 'I' for Inactive)
REMARK    1  A    between atoms: N_2  and  S_1 
REMARK    2  A    between atoms: C_8  and  S_1 
REMARK       I    between atoms: C_4  and  N_2 
REMARK       I    between atoms: N_5  and  C_4 
REMARK       I    between atoms: C_7  and  N_5 
REMARK    3  A    between atoms: C_6  and  C_9 
REMARK    4  A    between atoms: C_13  and  C_7 
REMARK    5  A    between atoms: O_28  and  C_25 
ROOT
ATOM      1  N   UNL d   1       0.730  -0.058   1.947  0.00  0.00    -0.268 N 
ATOM      2  HN  UNL d   1      -0.275   0.117   1.939  1.00  0.00     0.180 HD
ATOM      3  C   UNL d   1       1.266  -1.133   2.647  0.00  0.00     0.312 C 
ATOM      4  N   UNL d   1       0.921  -2.352   2.154  0.00  0.00    -0.175 NA
ATOM      5  C   UNL d   1       1.939  -3.188   1.769  0.00  0.00     0.239 C 
ATOM      6  O   UNL d   1       1.901  -0.974   3.683  0.00  0.00    -0.253 OA
ATOM      7  O   UNL d   1       2.104  -3.420   0.573  0.00  0.00    -0.274 OA
ATOM      8  H   UNL d   1       0.374  -2.146   1.329  0.00  0.00     0.141 HD
ENDROOT
BRANCH   1   9
ATOM      9  S   UNL d   1       1.712   0.863   1.180  0.00  0.00     0.071 S 
ATOM     10  O   UNL d   1       2.452   0.420   0.013  0.00  0.00    -0.243 OA
ATOM     11  C   UNL d   1       2.898   1.502   2.350  0.00  0.00     0.144 C 
BRANCH   9  12
ATOM     12  C   UNL d   1       0.814   2.328   0.667  0.00  0.00     0.107 A 
ATOM     13  N   UNL d   1       1.555   3.465   0.716  0.00  0.00    -0.357 N 
ATOM     14  C   UNL d   1       0.978   4.580   0.217  0.00  0.00     0.105 A 
ATOM     15  HN  UNL d   1       2.496   3.477   1.109  1.00  0.00     0.166 HD
ATOM     16  C   UNL d   1      -0.305   4.616  -0.312  0.00  0.00     0.063 A 
ATOM     17  C   UNL d   1      -1.051   3.427  -0.302  0.00  0.00     0.020 A 
ATOM     18  C   UNL d   1      -0.483   2.252   0.191  0.00  0.00     0.041 A 
BRANCH  16  19
ATOM     19  C   UNL d   1      -0.850   5.889  -0.891  0.00  0.00     0.418 C 
ATOM     20  F   UNL d   1       0.038   6.922  -0.864  0.00  0.00    -0.166 F 
ATOM     21  F   UNL d   1      -1.218   5.750  -2.194  0.00  0.00    -0.166 F 
ATOM     22  F   UNL d   1      -1.956   6.330  -0.233  0.00  0.00    -0.166 F 
ENDBRANCH  16  19
ENDBRANCH   9  12
ENDBRANCH   1   9
BRANCH   5  23
ATOM     23  C   UNL d   1       2.813  -3.848   2.786  0.00  0.00     0.027 A 
ATOM     24  C   UNL d   1       2.543  -3.840   4.159  0.00  0.00     0.019 A 
ATOM     25  C   UNL d   1       3.398  -4.498   5.058  0.00  0.00     0.038 A 
ATOM     26  C   UNL d   1       4.515  -5.191   4.590  0.00  0.00     0.068 A 
ATOM     27  C   UNL d   1       4.763  -5.236   3.218  0.00  0.00     0.038 A 
ATOM     28  C   UNL d   1       3.927  -4.563   2.323  0.00  0.00     0.019 A 
BRANCH  26  29
ATOM     29  O   UNL d   1       5.406  -5.885   5.359  0.00  0.00    -0.356 OA
ATOM     30  C   UNL d   1       5.466  -5.527   6.734  0.00  0.00     0.210 C 
ENDBRANCH  26  29
ENDBRANCH   5  23
TORSDOF 5
