REMARK  2 active torsions:
REMARK  status: ('A' for Active; 'I' for Inactive)
REMARK    1  A    between atoms: C_4  and  C_1 
REMARK       I    between atoms: N_7  and  C_4 
REMARK    2  A    between atoms: C_10  and  N_7 
ROOT
ATOM      1  C   UNL d   1      -2.425  -1.402  -0.110  0.00  0.00     0.274 C 
ATOM      2  N   UNL d   1      -3.656  -0.789   0.046  0.00  0.00    -0.322 N 
ATOM      3  O   UNL d   1      -1.366  -0.835  -0.368  0.00  0.00    -0.266 OA
ATOM      4  H   UNL d   1      -4.404  -1.402   0.354  0.00  0.00     0.169 HD
ENDROOT
BRANCH   1   5
ATOM      5  C   UNL d   1      -2.458  -2.856   0.068  0.00  0.00     0.125 A 
ATOM      6  N   UNL d   1      -3.592  -3.535   0.318  0.00  0.00    -0.256 N 
ATOM      7  O   UNL d   1      -3.224  -4.873   0.370  0.00  0.00    -0.242 OA
ATOM      8  HN  UNL d   1      -4.527  -3.148   0.443  1.00  0.00     0.195 HD
ATOM      9  C   UNL d   1      -1.884  -4.985   0.162  0.00  0.00     0.075 A 
ATOM     10  C   UNL d   1      -1.350  -3.737  -0.017  0.00  0.00     0.071 A 
ATOM     11  C   UNL d   1      -1.318  -6.345   0.163  0.00  0.00     0.079 C 
ENDBRANCH   1   5
BRANCH   2  12
ATOM     12  C   UNL d   1      -3.964   0.567  -0.179  0.00  0.00     0.035 A 
ATOM     13  C   UNL d   1      -3.072   1.474  -0.761  0.00  0.00     0.031 A 
ATOM     14  C   UNL d   1      -3.446   2.803  -0.984  0.00  0.00     0.026 A 
ATOM     15  C   UNL d   1      -4.716   3.236  -0.619  0.00  0.00     0.034 A 
ATOM     16  C   UNL d   1      -5.616   2.348  -0.036  0.00  0.00     0.026 A 
ATOM     17 CL   UNL d   1      -5.175   4.870  -0.895  0.00  0.00    -0.084 Cl
ATOM     18  C   UNL d   1      -5.243   1.014   0.176  0.00  0.00     0.031 A 
ENDBRANCH   2  12
TORSDOF 2
