REMARK  2 active torsions:
REMARK  status: ('A' for Active; 'I' for Inactive)
REMARK    1  A    between atoms: O_14  and  C_7 
REMARK    2  A    between atoms: N_13  and  C_9 
ROOT
ATOM      1  C   UNL d   1      -0.018  -0.613  -0.069  0.00  0.00     0.119 A 
ATOM      2  N   UNL d   1      -1.141  -1.333  -0.109  0.00  0.00    -0.333 N 
ATOM      3  HN  UNL d   1      -1.095  -2.352  -0.127  1.00  0.00     0.168 HD
ATOM      4  C   UNL d   1      -0.044   0.795  -0.029  0.00  0.00     0.041 A 
ATOM      5  N   UNL d   1       1.135  -1.287  -0.080  0.00  0.00    -0.345 N 
ATOM      6  HN  UNL d   1       1.127  -2.307  -0.099  1.00  0.00     0.167 HD
ATOM      7  C   UNL d   1       1.195   1.465   0.014  0.00  0.00     0.081 A 
ATOM      8  C   UNL d   1       2.384   0.756  -0.007  0.00  0.00     0.062 A 
ATOM      9  C   UNL d   1      -2.331  -0.713  -0.124  0.00  0.00     0.079 A 
ATOM     10  C   UNL d   1      -1.304   1.427  -0.048  0.00  0.00     0.021 A 
ATOM     11  C   UNL d   1       2.313  -0.621  -0.065  0.00  0.00     0.009 A 
ATOM     12  C   UNL d   1      -2.458   0.660  -0.107  0.00  0.00     0.043 A 
ATOM     13  C   UNL d   1       3.558  -1.454  -0.125  0.00  0.00     0.068 C 
ENDROOT
BRANCH   9  14
ATOM     14  N   UNL d   1      -3.459  -1.522  -0.220  0.00  0.00    -0.289 NA
ATOM     15  H   UNL d   1      -3.139  -2.487  -0.171  0.00  0.00     0.125 HD
ATOM     16  H   UNL d   1      -4.143  -1.314   0.497  0.00  0.00     0.125 HD
ENDBRANCH   9  14
BRANCH   7  17
ATOM     17  O   UNL d   1       1.329   2.826   0.070  0.00  0.00    -0.360 OA
ATOM     18  H   UNL d   1       0.461   3.246   0.158  0.00  0.00     0.217 HD
ENDBRANCH   7  17
TORSDOF 2
