REMARK  3 active torsions:
REMARK  status: ('A' for Active; 'I' for Inactive)
REMARK    1  A    between atoms: C_10  and  C_6 
REMARK    2  A    between atoms: C_11  and  C_7 
REMARK    3  A    between atoms: N_8  and  C_9 
ROOT
ATOM      1  O   UNL d   1      -1.089   0.009  -0.028  0.00  0.00    -0.273 OA
ATOM      2  N   UNL d   1       1.033  -0.691  -0.124  0.00  0.00    -0.277 N 
ATOM      3  HN  UNL d   1       1.846  -1.305  -0.173  1.00  0.00     0.189 HD
ATOM      4  N   UNL d   1       1.042   0.687  -0.084  0.00  0.00    -0.277 N 
ATOM      5  HN  UNL d   1       1.863   1.292  -0.098  1.00  0.00     0.189 HD
ATOM      6  C   UNL d   1      -0.231  -1.059  -0.088  0.00  0.00     0.174 A 
ATOM      7  C   UNL d   1      -0.217   1.069  -0.025  0.00  0.00     0.174 A 
ENDROOT
BRANCH   6   8
ATOM      8  C   UNL d   1      -0.811  -2.396  -0.106  0.00  0.00     0.019 A 
ATOM      9  C   UNL d   1      -2.198  -2.608  -0.087  0.00  0.00     0.052 A 
ATOM     10  C   UNL d   1      -2.708  -3.916  -0.127  0.00  0.00     0.103 A 
ATOM     11  C   UNL d   1      -1.849  -5.021  -0.181  0.00  0.00     0.036 A 
ATOM     12  C   UNL d   1      -0.472  -4.814  -0.190  0.00  0.00     0.003 A 
ATOM     13  C   UNL d   1       0.040  -3.514  -0.153  0.00  0.00     0.016 A 
BRANCH  10  14
ATOM     14  N   UNL d   1      -4.162  -4.129  -0.119  0.00  0.00    -0.116 N 
ATOM     15  O   UNL d   1      -4.888  -3.128  -0.053  0.00  0.00    -0.532 OA
ATOM     16  O   UNL d   1      -4.574  -5.295  -0.179  0.00  0.00    -0.532 OA
ENDBRANCH  10  14
ENDBRANCH   6   8
BRANCH   7  17
ATOM     17  C   UNL d   1      -0.778   2.410   0.077  0.00  0.00     0.018 A 
ATOM     18  C   UNL d   1      -2.162   2.638   0.114  0.00  0.00     0.039 A 
ATOM     19  C   UNL d   1      -2.656   3.937   0.255  0.00  0.00     0.035 A 
ATOM     20 CL   UNL d   1      -4.355   4.199   0.317  0.00  0.00    -0.084 Cl
ATOM     21  C   UNL d   1      -1.788   5.022   0.354  0.00  0.00     0.024 A 
ATOM     22  C   UNL d   1      -0.412   4.811   0.303  0.00  0.00     0.003 A 
ATOM     23  C   UNL d   1       0.087   3.514   0.163  0.00  0.00     0.016 A 
ENDBRANCH   7  17
TORSDOF 3
