REMARK  3 active torsions:
REMARK  status: ('A' for Active; 'I' for Inactive)
REMARK    1  A    between atoms: C_12  and  C_1 
REMARK    2  A    between atoms: C_13  and  C_8 
REMARK    3  A    between atoms: C_15  and  C_12 
ROOT
ATOM      1  C   UNL d   1      -2.359  -0.752   0.056  0.00  0.00     0.065 A 
ATOM      2  C   UNL d   1      -0.217   0.472   0.111  0.00  0.00     0.089 A 
ATOM      3  C   UNL d   1      -1.268  -1.614  -0.050  0.00  0.00    -0.026 A 
ATOM      4  C   UNL d   1      -0.008  -0.893   0.016  0.00  0.00     0.027 A 
ATOM      5  S   UNL d   1      -1.859   0.875   0.251  0.00  0.00    -0.067 SA
ATOM      6  N   UNL d   1       0.716   1.441   0.120  0.00  0.00    -0.335 N 
ATOM      7  HN  UNL d   1       0.494   2.434   0.191  1.00  0.00     0.168 HD
ATOM      8  C   UNL d   1       1.966   0.970   0.028  0.00  0.00     0.116 A 
ATOM      9  N   UNL d   1       2.302  -0.333  -0.016  0.00  0.00    -0.345 N 
ATOM     10  HN  UNL d   1       3.285  -0.601  -0.059  1.00  0.00     0.167 HD
ATOM     11  C   UNL d   1       1.344  -1.292  -0.003  0.00  0.00     0.020 A 
ATOM     12  C   UNL d   1      -1.367  -3.099  -0.228  0.00  0.00     0.050 C 
ATOM     13  C   UNL d   1       1.841  -2.704  -0.008  0.00  0.00     0.069 C 
ENDROOT
BRANCH   1  14
ATOM     14  C   UNL d   1      -3.778  -1.107   0.115  0.00  0.00     0.199 C 
ATOM     15  O   UNL d   1      -4.168  -2.153   0.633  0.00  0.00    -0.286 OA
BRANCH  14  16
ATOM     16  C   UNL d   1      -4.829  -0.225  -0.480  0.00  0.00     0.015 A 
ATOM     17  C   UNL d   1      -6.105  -0.215   0.104  0.00  0.00     0.015 A 
ATOM     18  C   UNL d   1      -7.127   0.563  -0.447  0.00  0.00     0.001 A 
ATOM     19  C   UNL d   1      -6.882   1.329  -1.586  0.00  0.00     0.000 A 
ATOM     20  C   UNL d   1      -5.621   1.315  -2.179  0.00  0.00     0.001 A 
ATOM     21  C   UNL d   1      -4.599   0.531  -1.638  0.00  0.00     0.015 A 
ENDBRANCH  14  16
ENDBRANCH   1  14
BRANCH   8  22
ATOM     22  C   UNL d   1       3.080   1.937  -0.061  0.00  0.00     0.008 A 
ATOM     23  C   UNL d   1       2.882   3.326   0.056  0.00  0.00     0.017 A 
ATOM     24  C   UNL d   1       3.952   4.226  -0.044  0.00  0.00     0.025 A 
ATOM     25  C   UNL d   1       5.242   3.752  -0.267  0.00  0.00     0.034 A 
ATOM     26  C   UNL d   1       5.474   2.388  -0.385  0.00  0.00     0.025 A 
ATOM     27 CL   UNL d   1       6.554   4.855  -0.399  0.00  0.00    -0.084 Cl
ATOM     28  C   UNL d   1       4.403   1.494  -0.282  0.00  0.00     0.017 A 
ENDBRANCH   8  22
TORSDOF 3
