REMARK  3 active torsions:
REMARK  status: ('A' for Active; 'I' for Inactive)
REMARK    1  A    between atoms: N_4  and  N_1 
REMARK    2  A    between atoms: C_8  and  C_11 
REMARK    3  A    between atoms: O_18  and  C_10 
ROOT
ATOM      1  N   UNL d   1       3.320  -0.003  -0.246  0.00  0.00    -0.298 N 
ATOM      2  HN  UNL d   1       3.771  -0.894  -0.451  1.00  0.00     0.186 HD
ATOM      3  C   UNL d   1       4.030   1.068  -0.096  0.00  0.00     0.122 C 
ENDROOT
BRANCH   1   4
ATOM      4  N   UNL d   1       1.953   0.072  -0.127  0.00  0.00    -0.182 N 
ATOM      5  C   UNL d   1       1.187  -1.069  -0.282  0.00  0.00     0.280 A 
ATOM      6  C   UNL d   1      -0.206  -0.640  -0.156  0.00  0.00     0.050 A 
ATOM      7  O   UNL d   1       1.506  -2.226  -0.487  0.00  0.00    -0.265 OA
ATOM      8  C   UNL d   1      -1.380  -1.363  -0.252  0.00  0.00     0.018 A 
ATOM      9  C   UNL d   1      -0.213   0.723   0.065  0.00  0.00     0.050 A 
ATOM     10  C   UNL d   1      -2.582  -0.658  -0.125  0.00  0.00     0.001 A 
ATOM     11  C   UNL d   1      -2.585   0.735   0.098  0.00  0.00     0.001 A 
ATOM     12  C   UNL d   1      -1.385   1.443   0.198  0.00  0.00     0.018 A 
ATOM     13  C   UNL d   1       1.170   1.187   0.090  0.00  0.00     0.280 A 
ATOM     14  O   UNL d   1       1.437   2.363   0.265  0.00  0.00    -0.265 OA
ENDBRANCH   1   4
BRANCH   3  15
ATOM     15  C   UNL d   1       5.503   1.051  -0.239  0.00  0.00     0.017 A 
ATOM     16  C   UNL d   1       6.229   2.234  -0.062  0.00  0.00     0.099 A 
ATOM     17  C   UNL d   1       7.620   2.223  -0.195  0.00  0.00     0.069 A 
ATOM     18 CL   UNL d   1       8.526   3.674   0.030  0.00  0.00    -0.081 Cl
ATOM     19  C   UNL d   1       8.291   1.043  -0.508  0.00  0.00     0.050 A 
ATOM     20  C   UNL d   1       7.560  -0.131  -0.687  0.00  0.00     0.036 A 
ATOM     21  C   UNL d   1       6.172  -0.138  -0.552  0.00  0.00     0.039 A 
ATOM     22 CL   UNL d   1       8.388  -1.588  -1.080  0.00  0.00    -0.084 Cl
BRANCH  16  23
ATOM     23  O   UNL d   1       5.569   3.396   0.242  0.00  0.00    -0.358 OA
ATOM     24  H   UNL d   1       6.230   4.108   0.339  0.00  0.00     0.217 HD
ENDBRANCH  16  23
ENDBRANCH   3  15
TORSDOF 3
