REMARK  0 active torsions:
REMARK  status: ('A' for Active; 'I' for Inactive)
ROOT
ATOM      1  N   UNL d   1       1.215  -1.374   0.076  0.00  0.00    -0.317 N 
ATOM      2  C   UNL d   1       2.433  -0.731   0.029  0.00  0.00     0.314 A 
ATOM      3  C   UNL d   1       2.405   0.819   0.034  0.00  0.00     0.314 A 
ATOM      4  N   UNL d   1       1.164   1.418   0.055  0.00  0.00    -0.317 N 
ATOM      5  C   UNL d   1      -0.009  -0.700   0.065  0.00  0.00     0.063 A 
ATOM      6  C   UNL d   1      -0.034   0.700   0.044  0.00  0.00     0.062 A 
ATOM      7  C   UNL d   1      -1.199  -1.425   0.049  0.00  0.00     0.055 A 
ATOM      8  O   UNL d   1       3.485  -1.350  -0.019  0.00  0.00    -0.262 OA
ATOM      9  O   UNL d   1       3.435   1.478   0.014  0.00  0.00    -0.262 OA
ATOM     10  C   UNL d   1      -1.248   1.382  -0.006  0.00  0.00     0.033 A 
ATOM     11  C   UNL d   1      -2.412  -0.739  -0.021  0.00  0.00     0.036 A 
ATOM     12  C   UNL d   1      -2.441   0.657  -0.053  0.00  0.00     0.026 A 
ATOM     13 CL   UNL d   1      -3.887  -1.621  -0.084  0.00  0.00    -0.084 Cl
ATOM     14  H   UNL d   1       1.253  -2.385   0.069  0.00  0.00     0.169 HD
ATOM     15  H   UNL d   1       1.165   2.429   0.049  0.00  0.00     0.169 HD
ENDROOT
TORSDOF 0
