REMARK  5 active torsions:
REMARK  status: ('A' for Active; 'I' for Inactive)
REMARK    1  A    between atoms: C_7  and  C_1 
REMARK    2  A    between atoms: C_14  and  C_6 
REMARK       I    between atoms: N_16  and  C_7 
REMARK    3  A    between atoms: C_8  and  C_19 
REMARK    4  A    between atoms: O_21  and  C_10 
REMARK    5  A    between atoms: N_12  and  N_16 
ROOT
ATOM      1  C   UNL d   1       2.224  -1.614  -0.042  0.00  0.00     0.287 C 
ATOM      2  N   UNL d   1       3.488  -1.041  -0.046  0.00  0.00    -0.265 N 
ATOM      3  O   UNL d   1       2.005  -2.820  -0.048  0.00  0.00    -0.264 OA
ATOM      4  H   UNL d   1       3.594  -0.036  -0.026  0.00  0.00     0.190 HD
ENDROOT
BRANCH   2   5
ATOM      5  N   UNL d   1       4.607  -1.819  -0.046  0.00  0.00    -0.308 N 
ATOM      6  C   UNL d   1       5.733  -1.178  -0.044  0.00  0.00     0.121 C 
ATOM      7  HN  UNL d   1       4.562  -2.838  -0.048  1.00  0.00     0.186 HD
BRANCH   6   8
ATOM      8  C   UNL d   1       7.022  -1.897  -0.018  0.00  0.00     0.017 A 
ATOM      9  C   UNL d   1       8.229  -1.189  -0.009  0.00  0.00     0.094 A 
ATOM     10  C   UNL d   1       9.439  -1.890   0.060  0.00  0.00     0.046 A 
ATOM     11 BR   UNL d   1      11.094  -0.963   0.099  0.00  0.00    -0.048 Br
ATOM     12  C   UNL d   1       9.450  -3.284   0.115  0.00  0.00     0.041 A 
ATOM     13  C   UNL d   1       8.242  -3.979   0.094  0.00  0.00     0.013 A 
ATOM     14  C   UNL d   1       7.030  -3.296   0.026  0.00  0.00     0.034 A 
ATOM     15 BR   UNL d   1       8.248  -5.868   0.172  0.00  0.00    -0.051 Br
BRANCH   9  16
ATOM     16  O   UNL d   1       8.211   0.180  -0.061  0.00  0.00    -0.358 OA
ATOM     17  H   UNL d   1       9.137   0.491  -0.039  0.00  0.00     0.217 HD
ENDBRANCH   9  16
ENDBRANCH   6   8
ENDBRANCH   2   5
BRANCH   1  18
ATOM     18  C   UNL d   1       1.145  -0.652  -0.025  0.00  0.00     0.119 A 
ATOM     19  C   UNL d   1       1.108   0.725  -0.022  0.00  0.00     0.064 A 
ATOM     20  C   UNL d   1      -0.263   1.083   0.007  0.00  0.00     0.035 A 
ATOM     21  N   UNL d   1      -1.037  -0.011  -0.004  0.00  0.00    -0.303 N 
ATOM     22  N   UNL d   1      -0.167  -1.037  -0.009  0.00  0.00    -0.295 N 
ATOM     23  HN  UNL d   1      -2.056  -0.055  -0.008  1.00  0.00     0.186 HD
ATOM     24  H   UNL d   1      -0.525  -1.988  -0.004  0.00  0.00     0.187 HD
BRANCH  20  25
ATOM     25  C   UNL d   1      -0.865   2.481   0.016  0.00  0.00    -0.007 C 
ATOM     26  C   UNL d   1      -1.086   2.964  -1.430  0.00  0.00     0.021 C 
ATOM     27  C   UNL d   1      -2.216   2.510   0.761  0.00  0.00     0.021 C 
ATOM     28  C   UNL d   1       0.076   3.482   0.723  0.00  0.00     0.021 C 
ENDBRANCH  20  25
ENDBRANCH   1  18
TORSDOF 5
