REMARK  6 active torsions:
REMARK  status: ('A' for Active; 'I' for Inactive)
REMARK    1  A    between atoms: C_7  and  N_1 
REMARK    2  A    between atoms: S_11  and  C_2 
REMARK    3  A    between atoms: N_6  and  C_3 
REMARK    4  A    between atoms: C_5  and  S_11 
REMARK    5  A    between atoms: O_24  and  C_10 
REMARK    6  A    between atoms: C_15  and  C_12 
ROOT
ATOM      1  N   UNL d   1      -0.031  -1.374  -0.100  0.00  0.00    -0.254 N 
ATOM      2  C   UNL d   1       1.173  -0.851  -0.545  0.00  0.00     0.176 A 
ATOM      3  N   UNL d   1       1.087   0.458  -0.655  0.00  0.00    -0.276 N 
ATOM      4  HN  UNL d   1       1.841   1.088  -0.930  1.00  0.00     0.189 HD
ATOM      5  C   UNL d   1      -0.855  -0.261  -0.013  0.00  0.00     0.245 A 
ATOM      6  N   UNL d   1      -0.197   0.825  -0.334  0.00  0.00    -0.263 N 
ATOM      7  HN  UNL d   1      -0.571   1.774  -0.343  1.00  0.00     0.190 HD
ENDROOT
BRANCH   1   8
ATOM      8  C   UNL d   1      -0.432  -2.731   0.062  0.00  0.00     0.060 A 
ATOM      9  C   UNL d   1       0.267  -3.666   0.857  0.00  0.00     0.075 A 
ATOM     10  C   UNL d   1      -0.191  -5.003   0.863  0.00  0.00     0.018 A 
ATOM     11  C   UNL d   1      -1.334  -5.387   0.162  0.00  0.00     0.001 A 
ATOM     12  C   UNL d   1      -2.046  -4.445  -0.568  0.00  0.00     0.002 A 
ATOM     13  C   UNL d   1      -1.599  -3.127  -0.625  0.00  0.00     0.031 A 
BRANCH   9  14
ATOM     14  C   UNL d   1       1.417  -3.352   1.792  0.00  0.00     0.419 C 
ATOM     15  F   UNL d   1       1.557  -2.029   2.066  0.00  0.00    -0.166 F 
ATOM     16  F   UNL d   1       1.269  -3.955   3.006  0.00  0.00    -0.166 F 
ATOM     17  F   UNL d   1       2.615  -3.785   1.316  0.00  0.00    -0.166 F 
ENDBRANCH   9  14
ENDBRANCH   1   8
BRANCH   2  18
ATOM     18  S   UNL d   1       2.555  -1.805  -0.963  0.00  0.00    -0.027 SA
BRANCH  18  19
ATOM     19  C   UNL d   1       3.112  -0.898  -2.344  0.00  0.00     0.121 A 
ATOM     20  S   UNL d   1       4.638  -0.108  -2.361  0.00  0.00    -0.039 SA
ATOM     21  C   UNL d   1       4.423   0.203  -4.016  0.00  0.00     0.161 A 
ATOM     22  C   UNL d   1       3.206  -0.265  -4.452  0.00  0.00     0.133 A 
ATOM     23  N   UNL d   1       2.455  -0.914  -3.485  0.00  0.00    -0.352 N 
ATOM     24  HN  UNL d   1       1.539  -1.338  -3.634  1.00  0.00     0.166 HD
BRANCH  21  25
ATOM     25  N   UNL d   1       5.433   0.831  -4.804  0.00  0.00    -0.107 N 
ATOM     26  O   UNL d   1       5.225   0.879  -6.024  0.00  0.00    -0.531 OA
ATOM     27  O   UNL d   1       6.440   1.264  -4.231  0.00  0.00    -0.531 OA
ENDBRANCH  21  25
ENDBRANCH  18  19
ENDBRANCH   2  18
BRANCH   5  28
ATOM     28  O   UNL d   1      -2.118  -0.239   0.402  0.00  0.00    -0.331 OA
ATOM     29  H   UNL d   1      -2.335  -1.090   0.817  0.00  0.00     0.221 HD
ENDBRANCH   5  28
TORSDOF 6
