REMARK  4 active torsions:
REMARK  status: ('A' for Active; 'I' for Inactive)
REMARK    1  A    between atoms: C_3  and  S_1 
REMARK    2  A    between atoms: N_12  and  S_1 
REMARK    3  A    between atoms: C_10  and  C_2 
REMARK    4  A    between atoms: C_8  and  C_11 
ROOT
ATOM      1  C   UNL d   1       0.484  -0.287  -1.822  0.00  0.00     0.116 A 
ATOM      2  S   UNL d   1       0.305   1.127  -2.770  0.00  0.00    -0.075 SA
ATOM      3  C   UNL d   1      -0.321   0.248  -4.091  0.00  0.00     0.034 A 
ATOM      4  C   UNL d   1       0.178  -1.420  -2.553  0.00  0.00     0.034 A 
ATOM      5  C   UNL d   1      -0.309  -1.110  -3.854  0.00  0.00     0.023 A 
ENDROOT
BRANCH   3   6
ATOM      6  C   UNL d   1      -0.867   0.862  -5.343  0.00  0.00     0.067 A 
ATOM      7  C   UNL d   1      -0.832   2.223  -5.708  0.00  0.00     0.068 A 
ATOM      8  C   UNL d   1      -1.553   2.308  -6.885  0.00  0.00     0.136 A 
ATOM      9  N   UNL d   1      -1.992   1.037  -7.134  0.00  0.00    -0.292 N 
ATOM     10  N   UNL d   1      -1.526   0.134  -6.253  0.00  0.00    -0.297 N 
ATOM     11  C   UNL d   1      -2.961   0.598  -8.115  0.00  0.00     0.178 C 
ATOM     12  HN  UNL d   1      -1.647  -0.878  -6.273  1.00  0.00     0.187 HD
BRANCH   8  13
ATOM     13  C   UNL d   1      -1.873   3.478  -7.719  0.00  0.00     0.434 C 
ATOM     14  F   UNL d   1      -2.651   3.182  -8.790  0.00  0.00    -0.165 F 
ATOM     15  F   UNL d   1      -2.538   4.421  -7.005  0.00  0.00    -0.165 F 
ATOM     16  F   UNL d   1      -0.751   4.067  -8.201  0.00  0.00    -0.165 F 
ENDBRANCH   8  13
ENDBRANCH   3   6
BRANCH   1  17
ATOM     17  S   UNL d   1       0.989  -0.079  -0.115  0.00  0.00     0.250 S 
ATOM     18  O   UNL d   1       1.762   1.137  -0.057  0.00  0.00    -0.205 OA
ATOM     19  O   UNL d   1       1.570  -1.363   0.230  0.00  0.00    -0.205 OA
BRANCH  17  20
ATOM     20  N   UNL d   1      -0.438   0.121   0.829  0.00  0.00    -0.206 NA
ATOM     21  C   UNL d   1      -1.138   1.412   0.603  0.00  0.00     0.107 C 
ATOM     22  C   UNL d   1      -2.292   1.595   1.582  0.00  0.00     0.015 C 
ATOM     23  C   UNL d   1      -3.251   0.416   1.516  0.00  0.00     0.002 C 
ATOM     24  C   UNL d   1      -2.498  -0.871   1.821  0.00  0.00     0.015 C 
ATOM     25  C   UNL d   1      -1.326  -1.072   0.866  0.00  0.00     0.107 C 
ENDBRANCH  17  20
ENDBRANCH   1  17
TORSDOF 4
