REMARK  2 active torsions:
REMARK  status: ('A' for Active; 'I' for Inactive)
REMARK    1  A    between atoms: C_5  and  C_1 
REMARK    2  A    between atoms: C_8  and  C_6 
ROOT
ATOM      1  C   UNL d   1      -0.777   0.634   0.357  0.00  0.00     0.134 A 
ATOM      2  N   UNL d   1      -0.269   1.079  -0.809  0.00  0.00    -0.296 N 
ATOM      3  HN  UNL d   1      -0.643   1.808  -1.416  1.00  0.00     0.187 HD
ATOM      4  C   UNL d   1       0.041  -0.395   0.895  0.00  0.00     0.063 A 
ATOM      5  C   UNL d   1       1.083  -0.562   0.006  0.00  0.00     0.035 A 
ATOM      6  N   UNL d   1       0.840   0.346  -0.992  0.00  0.00    -0.304 N 
ATOM      7  H   UNL d   1       1.392   0.518  -1.827  0.00  0.00     0.186 HD
ENDROOT
BRANCH   1   8
ATOM      8  C   UNL d   1      -2.038   1.175   0.979  0.00  0.00     0.434 C 
ATOM      9  F   UNL d   1      -2.646   2.143   0.244  0.00  0.00    -0.165 F 
ATOM     10  F   UNL d   1      -2.962   0.192   1.168  0.00  0.00    -0.165 F 
ATOM     11  F   UNL d   1      -1.798   1.710   2.208  0.00  0.00    -0.165 F 
ENDBRANCH   1   8
BRANCH   5  12
ATOM     12  C   UNL d   1       2.285  -1.484  -0.003  0.00  0.00    -0.007 C 
ATOM     13  C   UNL d   1       2.290  -2.392   1.242  0.00  0.00     0.021 C 
ATOM     14  C   UNL d   1       2.254  -2.380  -1.255  0.00  0.00     0.021 C 
ATOM     15  C   UNL d   1       3.583  -0.655  -0.001  0.00  0.00     0.021 C 
ENDBRANCH   5  12
TORSDOF 2
