REMARK  6 active torsions:
REMARK  status: ('A' for Active; 'I' for Inactive)
REMARK    1  A    between atoms: C_6  and  N_1 
REMARK    2  A    between atoms: C_10  and  C_2 
REMARK    3  A    between atoms: C_8  and  C_3 
REMARK    4  A    between atoms: O_17  and  C_8 
REMARK    5  A    between atoms: O_18  and  C_10 
REMARK    6  A    between atoms: O_19  and  C_10 
ROOT
ATOM      1  N   UNL d   1       0.940  -0.551  -0.052  0.00  0.00    -0.252 N 
ATOM      2  C   UNL d   1       0.899   0.846  -0.086  0.00  0.00     0.107 C 
ATOM      3  C   UNL d   1      -0.424   1.181  -0.397  0.00  0.00     0.086 C 
ATOM      4  N   UNL d   1      -0.318  -1.064  -0.074  0.00  0.00    -0.303 N 
ATOM      5  HN  UNL d   1      -0.592  -2.036   0.070  1.00  0.00     0.186 HD
ATOM      6  C   UNL d   1      -1.116  -0.034  -0.322  0.00  0.00     0.127 C 
ENDROOT
BRANCH   1   7
ATOM      7  C   UNL d   1       2.031  -1.475   0.005  0.00  0.00     0.095 A 
ATOM      8  C   UNL d   1       1.889  -2.732  -0.616  0.00  0.00     0.147 A 
ATOM      9  C   UNL d   1       2.930  -3.659  -0.633  0.00  0.00     0.087 A 
ATOM     10  F   UNL d   1       0.773  -3.074  -1.277  0.00  0.00    -0.203 F 
ATOM     11  C   UNL d   1       4.131  -3.340  -0.025  0.00  0.00     0.119 A 
ATOM     12  C   UNL d   1       4.293  -2.124   0.625  0.00  0.00     0.045 A 
ATOM     13  F   UNL d   1       5.143  -4.215  -0.051  0.00  0.00    -0.206 F 
ATOM     14  C   UNL d   1       3.241  -1.199   0.656  0.00  0.00     0.038 A 
ENDBRANCH   1   7
BRANCH   2  15
ATOM     15  C   UNL d   1       2.073   1.752   0.029  0.00  0.00     0.312 C 
BRANCH  15  16
ATOM     16  O   UNL d   1       2.494   1.975  -1.311  0.00  0.00    -0.360 OA
ATOM     17  C   UNL d   1       3.698   2.722  -1.377  0.00  0.00     0.205 C 
ENDBRANCH  15  16
BRANCH  15  18
ATOM     18  O   UNL d   1       1.686   2.964   0.676  0.00  0.00    -0.360 OA
ATOM     19  C   UNL d   1       1.366   2.822   2.052  0.00  0.00     0.205 C 
ENDBRANCH  15  18
ENDBRANCH   2  15
BRANCH   3  20
ATOM     20  C   UNL d   1      -0.982   2.490  -0.716  0.00  0.00     0.296 C 
ATOM     21  O   UNL d   1      -0.330   3.458  -1.085  0.00  0.00    -0.259 OA
BRANCH  20  22
ATOM     22  O   UNL d   1      -2.338   2.510  -0.554  0.00  0.00    -0.322 OA
ATOM     23  C   UNL d   1      -2.943   3.785  -0.778  0.00  0.00     0.213 C 
ENDBRANCH  20  22
ENDBRANCH   3  20
TORSDOF 6
