REMARK  8 active torsions:
REMARK  status: ('A' for Active; 'I' for Inactive)
REMARK    1  A    between atoms: N_9  and  C_1 
REMARK    2  A    between atoms: C_13  and  N_9 
REMARK    3  A    between atoms: C_14  and  C_13 
REMARK    4  A    between atoms: C_18  and  C_14 
REMARK    5  A    between atoms: C_15  and  C_16 
REMARK    6  A    between atoms: C_16  and  C_17 
REMARK    7  A    between atoms: C_17  and  C_19 
REMARK    8  A    between atoms: C_19  and  C_18 
ROOT
ATOM      1  C   UNL d   1      -1.274  -1.599   0.509  0.00  0.00     0.105 A 
ATOM      2  C   UNL d   1      -1.709  -0.324   0.496  0.00  0.00     0.115 A 
ATOM      3  C   UNL d   1       0.024  -1.888   1.234  0.00  0.00     0.211 A 
ATOM      4  C   UNL d   1      -1.021   0.802   1.182  0.00  0.00     0.207 A 
ATOM      5  C   UNL d   1       0.714  -0.795   1.938  0.00  0.00     0.031 A 
ATOM      6  C   UNL d   1       0.223   0.498   1.907  0.00  0.00     0.030 A 
ATOM      7  O   UNL d   1       0.555  -2.994   1.246  0.00  0.00    -0.285 OA
ATOM      8  O   UNL d   1      -1.453   1.950   1.170  0.00  0.00    -0.286 OA
ATOM      9 CL   UNL d   1      -3.173   0.097  -0.348  0.00  0.00    -0.077 Cl
ATOM     10  C   UNL d   1       1.901  -1.077   2.634  0.00  0.00     0.016 A 
ATOM     11  C   UNL d   1       0.916   1.523   2.566  0.00  0.00     0.016 A 
ATOM     12  C   UNL d   1       2.100   1.244   3.252  0.00  0.00     0.001 A 
ATOM     13  C   UNL d   1       2.592  -0.058   3.286  0.00  0.00     0.001 A 
ENDROOT
BRANCH   1  14
ATOM     14  N   UNL d   1      -1.966  -2.649  -0.111  0.00  0.00    -0.385 N 
ATOM     15  H   UNL d   1      -2.696  -2.341  -0.750  0.00  0.00     0.159 HD
BRANCH  14  16
ATOM     16  C   UNL d   1      -1.511  -4.014  -0.288  0.00  0.00     0.120 C 
BRANCH  16  17
ATOM     17  C   UNL d   1      -2.693  -4.942  -0.551  0.00  0.00     0.020 C 
BRANCH  17  18
ATOM     18  C   UNL d   1      -2.199  -6.387  -0.609  0.00  0.00     0.002 C 
BRANCH  18  19
ATOM     19  C   UNL d   1      -3.346  -7.374  -0.786  0.00  0.00     0.000 C 
BRANCH  19  20
ATOM     20  C   UNL d   1      -2.817  -8.806  -0.842  0.00  0.00     0.000 C 
BRANCH  20  21
ATOM     21  C   UNL d   1      -3.958  -9.802  -1.026  0.00  0.00    -0.000 C 
BRANCH  21  22
ATOM     22  C   UNL d   1      -3.438 -11.235  -1.093  0.00  0.00    -0.005 C 
ATOM     23  C   UNL d   1      -4.579 -12.221  -1.282  0.00  0.00     0.005 C 
ENDBRANCH  21  22
ENDBRANCH  20  21
ENDBRANCH  19  20
ENDBRANCH  18  19
ENDBRANCH  17  18
ENDBRANCH  16  17
ENDBRANCH  14  16
ENDBRANCH   1  14
TORSDOF 8
