REMARK  3 active torsions:
REMARK  status: ('A' for Active; 'I' for Inactive)
REMARK    1  A    between atoms: C_2  and  C_1 
REMARK       I    between atoms: N_4  and  C_2 
REMARK    2  A    between atoms: O_10  and  C_3 
REMARK    3  A    between atoms: C_11  and  N_4 
ROOT
ATOM      1  C   UNL d   1      -2.260   0.314   0.222  0.00  0.00     0.066 A 
ATOM      2  C   UNL d   1      -1.314  -0.723   0.040  0.00  0.00     0.092 A 
ATOM      3  C   UNL d   1       0.080  -0.469   0.028  0.00  0.00     0.008 A 
ATOM      4  C   UNL d   1      -1.781   1.616   0.412  0.00  0.00     0.021 A 
ATOM      5  C   UNL d   1       0.531   0.859   0.182  0.00  0.00    -0.023 A 
ATOM      6  C   UNL d   1      -0.406   1.883   0.380  0.00  0.00     0.013 A 
ATOM      7  C   UNL d   1       1.044  -1.489  -0.131  0.00  0.00     0.015 A 
ATOM      8  C   UNL d   1       1.908   1.136   0.139  0.00  0.00     0.012 A 
ATOM      9  C   UNL d   1       2.409  -1.203  -0.153  0.00  0.00     0.001 A 
ATOM     10  C   UNL d   1       2.841   0.112  -0.028  0.00  0.00     0.001 A 
ENDROOT
BRANCH   1  11
ATOM     11  C   UNL d   1      -3.728  -0.015   0.192  0.00  0.00     0.259 C 
ATOM     12  N   UNL d   1      -4.639   1.028   0.235  0.00  0.00    -0.323 N 
ATOM     13  H   UNL d   1      -4.291   1.970   0.309  0.00  0.00     0.169 HD
ATOM     14  O   UNL d   1      -4.026  -1.204   0.113  0.00  0.00    -0.267 OA
BRANCH  12  15
ATOM     15  C   UNL d   1      -6.047   0.933   0.106  0.00  0.00     0.035 A 
ATOM     16  C   UNL d   1      -6.739  -0.265  -0.079  0.00  0.00     0.029 A 
ATOM     17  C   UNL d   1      -8.127  -0.267  -0.262  0.00  0.00     0.002 A 
ATOM     18  C   UNL d   1      -8.837   0.929  -0.253  0.00  0.00     0.000 A 
ATOM     19  C   UNL d   1      -8.162   2.128  -0.044  0.00  0.00     0.002 A 
ATOM     20  C   UNL d   1      -6.775   2.130   0.138  0.00  0.00     0.029 A 
ENDBRANCH  12  15
ENDBRANCH   1  11
BRANCH   2  21
ATOM     21  O   UNL d   1      -1.698  -2.035  -0.150  0.00  0.00    -0.359 OA
ATOM     22  H   UNL d   1      -2.680  -2.077  -0.108  0.00  0.00     0.217 HD
ENDBRANCH   2  21
TORSDOF 3
