REMARK  5 active torsions:
REMARK  status: ('A' for Active; 'I' for Inactive)
REMARK    1  A    between atoms: C_6  and  C_1 
REMARK    2  A    between atoms: N_2  and  C_3 
REMARK    3  A    between atoms: N_9  and  C_4 
REMARK    4  A    between atoms: O_15  and  C_6 
REMARK    5  A    between atoms: C_20  and  O_15 
ROOT
ATOM      1  C   UNL d   1       1.395  -0.314   0.151  0.00  0.00     0.068 A 
ATOM      2  C   UNL d   1      -0.482   1.258   0.055  0.00  0.00     0.040 A 
ATOM      3  C   UNL d   1       0.520  -1.419   0.029  0.00  0.00     0.046 A 
ATOM      4  C   UNL d   1       0.880   1.003   0.200  0.00  0.00     0.050 A 
ATOM      5  C   UNL d   1      -0.836  -1.119  -0.215  0.00  0.00     0.033 A 
ATOM      6  C   UNL d   1      -1.333   0.190  -0.213  0.00  0.00     0.032 A 
ENDROOT
BRANCH   2   7
ATOM      7  N   UNL d   1      -0.995   2.575   0.258  0.00  0.00    -0.320 N 
ATOM      8  C   UNL d   1      -0.397   3.775  -0.137  0.00  0.00     0.013 A 
ATOM      9  C   UNL d   1      -1.182   4.820   0.313  0.00  0.00     0.027 A 
ATOM     10  C   UNL d   1       0.832   3.911  -0.973  0.00  0.00     0.068 C 
ATOM     11  C   UNL d   1      -2.287   4.275   0.980  0.00  0.00     0.027 A 
ATOM     12  C   UNL d   1      -2.159   2.898   0.966  0.00  0.00     0.013 A 
ATOM     13  C   UNL d   1      -3.049   1.941   1.685  0.00  0.00     0.068 C 
ENDBRANCH   2   7
BRANCH   1  14
ATOM     14  C   UNL d   1       2.859  -0.441   0.378  0.00  0.00     0.295 C 
ATOM     15  O   UNL d   1       3.419  -1.249   1.102  0.00  0.00    -0.259 OA
BRANCH  14  16
ATOM     16  O   UNL d   1       3.470   0.570  -0.307  0.00  0.00    -0.318 OA
BRANCH  16  17
ATOM     17  C   UNL d   1       4.826   0.855   0.066  0.00  0.00     0.174 C 
ATOM     18  C   UNL d   1       4.816   1.843   1.220  0.00  0.00     0.034 C 
ENDBRANCH  16  17
ENDBRANCH  14  16
ENDBRANCH   1  14
BRANCH   3  19
ATOM     19  N   UNL d   1       0.923  -2.747   0.227  0.00  0.00    -0.380 N 
ATOM     20  C   UNL d   1      -0.059  -3.675   0.810  0.00  0.00     0.123 C 
ATOM     21  C   UNL d   1       0.661  -4.855   1.455  0.00  0.00     0.020 C 
ATOM     22  C   UNL d   1       1.581  -5.546   0.455  0.00  0.00     0.003 C 
ATOM     23  C   UNL d   1       2.542  -4.538  -0.184  0.00  0.00     0.020 C 
ATOM     24  C   UNL d   1       1.796  -3.347  -0.791  0.00  0.00     0.123 C 
ENDBRANCH   3  19
TORSDOF 5
