REMARK  5 active torsions:
REMARK  status: ('A' for Active; 'I' for Inactive)
REMARK    1  A    between atoms: N_8  and  C_3 
REMARK    2  A    between atoms: C_12  and  N_6 
REMARK    3  A    between atoms: C_11  and  N_8 
REMARK    4  A    between atoms: C_15  and  C_12 
REMARK    5  A    between atoms: N_16  and  C_14 
ROOT
ATOM      1  N   UNL d   1      -0.719   1.141  -0.080  0.00  0.00    -0.293 N 
ATOM      2  HN  UNL d   1      -1.210   2.032  -0.142  1.00  0.00     0.172 HD
ATOM      3  C   UNL d   1      -1.416   0.038  -0.039  0.00  0.00     0.132 A 
ATOM      4  C   UNL d   1       0.651   1.141  -0.044  0.00  0.00     0.328 A 
ATOM      5  C   UNL d   1      -0.743  -1.294   0.069  0.00  0.00     0.104 A 
ATOM      6  N   UNL d   1       1.300  -0.091   0.060  0.00  0.00    -0.304 N 
ATOM      7  C   UNL d   1       0.594  -1.273   0.120  0.00  0.00     0.122 A 
ATOM      8  C   UNL d   1      -1.482  -2.499   0.133  0.00  0.00     0.104 C 
ATOM      9  N   UNL d   1      -2.119  -3.469   0.188  0.00  0.00    -0.191 NA
ATOM     10  O   UNL d   1       1.281   2.192  -0.095  0.00  0.00    -0.246 OA
ENDROOT
BRANCH   3  11
ATOM     11  N   UNL d   1      -2.804   0.110  -0.120  0.00  0.00    -0.340 N 
ATOM     12  H   UNL d   1      -3.345  -0.747  -0.140  0.00  0.00     0.167 HD
BRANCH  11  13
ATOM     13  C   UNL d   1      -3.592   1.163   0.420  0.00  0.00     0.054 A 
ATOM     14  C   UNL d   1      -4.844   1.472  -0.162  0.00  0.00     0.033 A 
ATOM     15  C   UNL d   1      -5.588   2.543   0.353  0.00  0.00     0.025 A 
ATOM     16  C   UNL d   1      -5.164   3.229   1.492  0.00  0.00     0.002 A 
ATOM     17  C   UNL d   1      -3.962   2.889   2.099  0.00  0.00     0.002 A 
ATOM     18  C   UNL d   1      -3.174   1.875   1.556  0.00  0.00     0.031 A 
BRANCH  14  19
ATOM     19  N   UNL d   1      -5.251   0.894  -1.377  0.00  0.00    -0.301 NA
ATOM     20  H   UNL d   1      -4.860  -0.016  -1.576  0.00  0.00     0.124 HD
ATOM     21  H   UNL d   1      -6.244   0.966  -1.571  0.00  0.00     0.124 HD
ENDBRANCH  14  19
ENDBRANCH  11  13
ENDBRANCH   3  11
BRANCH   6  22
ATOM     22  C   UNL d   1       2.765  -0.112  -0.005  0.00  0.00     0.171 C 
BRANCH  22  23
ATOM     23  C   UNL d   1       3.243  -0.247  -1.437  0.00  0.00    -0.040 A 
ATOM     24  C   UNL d   1       3.438   0.898  -2.226  0.00  0.00     0.010 A 
ATOM     25  C   UNL d   1       3.716   0.782  -3.589  0.00  0.00     0.024 A 
ATOM     26  C   UNL d   1       3.808  -0.479  -4.170  0.00  0.00     0.034 A 
ATOM     27  C   UNL d   1       3.669  -1.626  -3.391  0.00  0.00     0.024 A 
ATOM     28 CL   UNL d   1       4.060  -0.624  -5.866  0.00  0.00    -0.084 Cl
ATOM     29  C   UNL d   1       3.390  -1.511  -2.027  0.00  0.00     0.010 A 
ENDBRANCH  22  23
ENDBRANCH   6  22
TORSDOF 5
