REMARK  3 active torsions:
REMARK  status: ('A' for Active; 'I' for Inactive)
REMARK    1  A    between atoms: C_10  and  C_6 
REMARK    2  A    between atoms: C_12  and  C_7 
REMARK    3  A    between atoms: N_8  and  C_9 
ROOT
ATOM      1  O   UNL d   1      -1.072   0.013  -0.017  0.00  0.00    -0.273 OA
ATOM      2  N   UNL d   1       1.051  -0.688  -0.047  0.00  0.00    -0.277 N 
ATOM      3  HN  UNL d   1       1.865  -1.303  -0.058  1.00  0.00     0.189 HD
ATOM      4  N   UNL d   1       1.059   0.692  -0.041  0.00  0.00    -0.277 N 
ATOM      5  HN  UNL d   1       1.880   1.297  -0.045  1.00  0.00     0.189 HD
ATOM      6  C   UNL d   1      -0.213  -1.055  -0.035  0.00  0.00     0.174 A 
ATOM      7  C   UNL d   1      -0.201   1.074  -0.029  0.00  0.00     0.174 A 
ENDROOT
BRANCH   6   8
ATOM      8  C   UNL d   1      -0.800  -2.390  -0.067  0.00  0.00     0.019 A 
ATOM      9  C   UNL d   1      -2.188  -2.595  -0.049  0.00  0.00     0.052 A 
ATOM     10  C   UNL d   1      -2.705  -3.899  -0.108  0.00  0.00     0.103 A 
ATOM     11  C   UNL d   1      -1.852  -5.006  -0.178  0.00  0.00     0.036 A 
ATOM     12  C   UNL d   1      -0.473  -4.807  -0.186  0.00  0.00     0.003 A 
ATOM     13  C   UNL d   1       0.046  -3.510  -0.131  0.00  0.00     0.016 A 
BRANCH  10  14
ATOM     14  N   UNL d   1      -4.160  -4.105  -0.105  0.00  0.00    -0.116 N 
ATOM     15  O   UNL d   1      -4.881  -3.101  -0.032  0.00  0.00    -0.532 OA
ATOM     16  O   UNL d   1      -4.578  -5.269  -0.173  0.00  0.00    -0.532 OA
ENDBRANCH  10  14
ENDBRANCH   6   8
BRANCH   7  17
ATOM     17  C   UNL d   1      -0.775   2.413  -0.067  0.00  0.00     0.017 A 
ATOM     18  C   UNL d   1       0.072   3.533  -0.090  0.00  0.00     0.017 A 
ATOM     19  C   UNL d   1      -0.452   4.827  -0.180  0.00  0.00     0.025 A 
ATOM     20  C   UNL d   1      -1.830   5.011  -0.244  0.00  0.00     0.034 A 
ATOM     21  C   UNL d   1      -2.689   3.915  -0.202  0.00  0.00     0.025 A 
ATOM     22 CL   UNL d   1      -2.476   6.598  -0.388  0.00  0.00    -0.084 Cl
ATOM     23  C   UNL d   1      -2.163   2.622  -0.111  0.00  0.00     0.017 A 
ENDBRANCH   7  17
TORSDOF 3
