REMARK  4 active torsions:
REMARK  status: ('A' for Active; 'I' for Inactive)
REMARK    1  A    between atoms: C_6  and  C_1 
REMARK    2  A    between atoms: S_11  and  C_2 
REMARK    3  A    between atoms: C_7  and  C_6 
REMARK    4  A    between atoms: N_13  and  C_10 
ROOT
ATOM      1  C   UNL d   1      -0.237  -1.150  -0.010  0.00  0.00     0.046 A 
ATOM      2  C   UNL d   1       1.099  -0.739   0.005  0.00  0.00     0.057 A 
ATOM      3  S   UNL d   1       1.270   0.932   0.328  0.00  0.00    -0.071 SA
ATOM      4  C   UNL d   1      -1.123   0.020   0.102  0.00  0.00    -0.018 A 
ATOM      5  C   UNL d   1      -0.401   1.194   0.275  0.00  0.00     0.093 A 
ATOM      6  C   UNL d   1      -0.958   2.515   0.357  0.00  0.00     0.107 C 
ATOM      7  N   UNL d   1      -1.432   3.570   0.411  0.00  0.00    -0.191 NA
ATOM      8  C   UNL d   1      -2.619   0.041  -0.049  0.00  0.00     0.051 C 
ENDROOT
BRANCH   1   9
ATOM      9  C   UNL d   1      -0.615  -2.540  -0.301  0.00  0.00     0.185 C 
ATOM     10  O   UNL d   1      -0.029  -3.220  -1.142  0.00  0.00    -0.287 OA
BRANCH   9  11
ATOM     11  C   UNL d   1      -1.751  -3.192   0.415  0.00  0.00     0.072 C 
ATOM     12  C   UNL d   1      -2.424  -2.831   1.515  0.00  0.00     0.088 C 
BRANCH  12  13
ATOM     13  N   UNL d   1      -3.509  -3.471   2.114  0.00  0.00    -0.398 N 
ATOM     14  C   UNL d   1      -4.021  -4.789   1.722  0.00  0.00     0.148 C 
ATOM     15  C   UNL d   1      -4.366  -2.788   3.089  0.00  0.00     0.148 C 
ENDBRANCH  12  13
ENDBRANCH   9  11
ENDBRANCH   1   9
BRANCH   2  16
ATOM     16  S   UNL d   1       2.592  -1.626  -0.339  0.00  0.00    -0.126 SA
ATOM     17  C   UNL d   1       2.574  -2.968   0.857  0.00  0.00     0.096 C 
ENDBRANCH   2  16
TORSDOF 4
