REMARK  5 active torsions:
REMARK  status: ('A' for Active; 'I' for Inactive)
REMARK    1  A    between atoms: C_3  and  S_1 
REMARK    2  A    between atoms: O_14  and  S_1 
REMARK    3  A    between atoms: S_2  and  C_4 
REMARK    4  A    between atoms: O_15  and  S_2 
REMARK    5  A    between atoms: O_19  and  C_17 
ROOT
ATOM      1  C   UNL d   1       0.407  -0.828   1.448  0.00  0.00     0.085 A 
ATOM      2  C   UNL d   1       0.303  -2.961   2.564  0.00  0.00     0.074 A 
ATOM      3  C   UNL d   1       0.614  -2.217   1.435  0.00  0.00     0.051 A 
ATOM      4  C   UNL d   1      -0.151  -0.165   2.579  0.00  0.00     0.000 A 
ATOM      5  C   UNL d   1      -0.441  -0.963   3.721  0.00  0.00    -0.023 A 
ATOM      6  C   UNL d   1      -0.214  -2.346   3.702  0.00  0.00     0.037 A 
ATOM      7  C   UNL d   1      -0.453   1.220   2.670  0.00  0.00     0.050 A 
ATOM      8  C   UNL d   1      -0.958  -0.378   4.888  0.00  0.00     0.015 A 
ATOM      9  C   UNL d   1      -0.964   1.776   3.842  0.00  0.00     0.066 A 
ATOM     10  C   UNL d   1      -1.210   0.989   4.952  0.00  0.00     0.037 A 
ENDROOT
BRANCH   1  11
ATOM     11  S   UNL d   1       0.981   0.039   0.001  0.00  0.00     0.130 S 
ATOM     12  O   UNL d   1       1.456   1.351   0.386  0.00  0.00    -0.598 OA
ATOM     13  O   UNL d   1       0.001  -0.161  -1.036  0.00  0.00    -0.598 OA
BRANCH  11  14
ATOM     14  O   UNL d   1       2.327  -0.758  -0.404  0.00  0.00    -0.292 OA
ATOM     15  H   UNL d   1       3.092  -0.244  -0.063  0.00  0.00     0.232 HD
ENDBRANCH  11  14
ENDBRANCH   1  11
BRANCH   2  16
ATOM     16  S   UNL d   1       0.535  -4.716   2.557  0.00  0.00     0.129 S 
ATOM     17  O   UNL d   1       0.368  -5.176   1.196  0.00  0.00    -0.598 OA
ATOM     18  O   UNL d   1       1.720  -4.993   3.334  0.00  0.00    -0.598 OA
BRANCH  16  19
ATOM     19  O   UNL d   1      -0.749  -5.285   3.352  0.00  0.00    -0.292 OA
ATOM     20  H   UNL d   1      -1.337  -5.714   2.694  0.00  0.00     0.232 HD
ENDBRANCH  16  19
ENDBRANCH   2  16
BRANCH   9  21
ATOM     21  O   UNL d   1      -1.239   3.108   3.940  0.00  0.00    -0.361 OA
ATOM     22  H   UNL d   1      -1.005   3.543   3.103  0.00  0.00     0.217 HD
ENDBRANCH   9  21
TORSDOF 5
