REMARK  5 active torsions:
REMARK  status: ('A' for Active; 'I' for Inactive)
REMARK    1  A    between atoms: C_4  and  C_1 
REMARK    2  A    between atoms: C_8  and  C_6 
REMARK    3  A    between atoms: C_12  and  C_8 
REMARK    4  A    between atoms: O_17  and  C_12 
REMARK    5  A    between atoms: C_19  and  O_17 
ROOT
ATOM      1  C   UNL d   1       0.133  -1.159   0.095  0.00  0.00     0.087 A 
ATOM      2  N   UNL d   1       1.342  -0.625   0.109  0.00  0.00    -0.352 N 
ATOM      3  HN  UNL d   1       2.209  -1.159   0.167  1.00  0.00     0.166 HD
ATOM      4  S   UNL d   1      -1.147  -0.014  -0.045  0.00  0.00    -0.081 SA
ATOM      5  C   UNL d   1       1.273   0.759   0.033  0.00  0.00     0.025 A 
ATOM      6  C   UNL d   1      -0.011   1.264  -0.034  0.00  0.00     0.077 A 
ENDROOT
BRANCH   1   7
ATOM      7  C   UNL d   1      -0.117  -2.608   0.124  0.00  0.00     0.036 A 
ATOM      8  C   UNL d   1      -1.263  -3.187   0.688  0.00  0.00     0.132 A 
ATOM      9  C   UNL d   1      -1.453  -4.568   0.704  0.00  0.00     0.085 A 
ATOM     10  F   UNL d   1      -2.211  -2.430   1.262  0.00  0.00    -0.205 F 
ATOM     11  C   UNL d   1      -0.482  -5.392   0.156  0.00  0.00     0.119 A 
ATOM     12  C   UNL d   1       0.672  -4.859  -0.402  0.00  0.00     0.043 A 
ATOM     13  F   UNL d   1      -0.657  -6.719   0.172  0.00  0.00    -0.206 F 
ATOM     14  C   UNL d   1       0.856  -3.473  -0.415  0.00  0.00     0.020 A 
ENDBRANCH   1   7
BRANCH   5  15
ATOM     15  C   UNL d   1       2.542   1.543   0.059  0.00  0.00     0.168 C 
BRANCH  15  16
ATOM     16  C   UNL d   1       2.818   2.251  -1.247  0.00  0.00     0.264 C 
ATOM     17  O   UNL d   1       2.069   2.319  -2.210  0.00  0.00    -0.265 OA
BRANCH  16  18
ATOM     18  O   UNL d   1       4.064   2.815  -1.189  0.00  0.00    -0.322 OA
BRANCH  18  19
ATOM     19  C   UNL d   1       4.556   3.362  -2.421  0.00  0.00     0.174 C 
ATOM     20  C   UNL d   1       5.298   2.273  -3.174  0.00  0.00     0.034 C 
ENDBRANCH  18  19
ENDBRANCH  16  18
ENDBRANCH  15  16
ENDBRANCH   5  15
TORSDOF 5
