REMARK  4 active torsions:
REMARK  status: ('A' for Active; 'I' for Inactive)
REMARK    1  A    between atoms: N_3  and  C_1 
REMARK    2  A    between atoms: C_7  and  C_1 
REMARK       I    between atoms: C_2  and  N_4 
REMARK    3  A    between atoms: C_13  and  C_2 
REMARK    4  A    between atoms: N_4  and  N_3 
ROOT
ATOM      1  N   UNL d   1       0.451  -1.316  -0.152  0.00  0.00    -0.281 N 
ATOM      2  H   UNL d   1      -0.562  -1.271   0.014  0.00  0.00     0.188 HD
ENDROOT
BRANCH   1   3
ATOM      3  C   UNL d   1       1.153  -0.146   0.073  0.00  0.00     0.141 C 
ATOM      4  N   UNL d   1       2.411  -0.152   0.422  0.00  0.00    -0.383 N 
ATOM      5  H   UNL d   1       2.672  -1.133   0.532  0.00  0.00     0.157 HD
ATOM      6  HN  UNL d   1       3.013   0.660   0.556  1.00  0.00     0.157 HD
BRANCH   3   7
ATOM      7  C   UNL d   1       0.448   1.170  -0.113  0.00  0.00     0.077 A 
ATOM      8  N   UNL d   1      -0.879   1.100  -0.398  0.00  0.00    -0.363 N 
ATOM      9  C   UNL d   1      -1.508   2.284  -0.587  0.00  0.00     0.088 A 
ATOM     10  HN  UNL d   1      -1.372   0.210  -0.466  1.00  0.00     0.165 HD
ATOM     11  C   UNL d   1      -0.881   3.521  -0.505  0.00  0.00     0.017 A 
ATOM     12  C   UNL d   1       0.476   3.557  -0.209  0.00  0.00     0.004 A 
ATOM     13  C   UNL d   1       1.157   2.362  -0.007  0.00  0.00     0.033 A 
ENDBRANCH   3   7
ENDBRANCH   1   3
BRANCH   1  14
ATOM     14  N   UNL d   1       1.085  -2.519   0.199  0.00  0.00    -0.264 N 
ATOM     15  C   UNL d   1       0.298  -3.521   0.742  0.00  0.00     0.270 C 
ATOM     16  O   UNL d   1      -0.890  -3.389   1.015  0.00  0.00    -0.266 OA
ATOM     17  H   UNL d   1       1.846  -2.783  -0.421  0.00  0.00     0.190 HD
BRANCH  15  18
ATOM     18  C   UNL d   1       0.989  -4.825   0.944  0.00  0.00     0.036 A 
ATOM     19  C   UNL d   1       2.356  -4.885   1.226  0.00  0.00     0.034 A 
ATOM     20  C   UNL d   1       2.926  -6.133   1.409  0.00  0.00     0.088 A 
ATOM     21  N   UNL d   1       2.235  -7.288   1.327  0.00  0.00    -0.375 N 
ATOM     22  C   UNL d   1       0.912  -7.200   1.071  0.00  0.00     0.088 A 
ATOM     23  HN  UNL d   1       2.693  -8.191   1.454  1.00  0.00     0.164 HD
ATOM     24  C   UNL d   1       0.246  -6.002   0.879  0.00  0.00     0.034 A 
ENDBRANCH  15  18
ENDBRANCH   1  14
TORSDOF 4
