REMARK  5 active torsions:
REMARK  status: ('A' for Active; 'I' for Inactive)
REMARK    1  A    between atoms: N_8  and  C_1 
REMARK    2  A    between atoms: C_19  and  N_4 
REMARK    3  A    between atoms: N_6  and  C_11 
REMARK    4  A    between atoms: C_10  and  C_7 
REMARK    5  A    between atoms: C_14  and  C_17 
ROOT
ATOM      1  N   UNL d   1      -0.549  -2.631  -0.231  0.00  0.00    -0.357 N 
ATOM      2  HN  UNL d   1      -1.446  -2.888  -0.642  1.00  0.00     0.165 HD
ATOM      3  C   UNL d   1       0.316  -3.525   0.144  0.00  0.00     0.125 C 
ENDROOT
BRANCH   1   4
ATOM      4  C   UNL d   1      -0.187  -1.317  -0.041  0.00  0.00     0.127 C 
ATOM      5  C   UNL d   1       1.188  -0.726  -0.197  0.00  0.00     0.295 C 
ATOM      6  N   UNL d   1       1.075   0.648   0.047  0.00  0.00    -0.217 N 
ATOM      7  O   UNL d   1       2.179  -1.388  -0.466  0.00  0.00    -0.264 OA
ATOM      8  N   UNL d   1      -0.288   0.955   0.346  0.00  0.00    -0.289 N 
ATOM      9  C   UNL d   1      -0.990  -0.255   0.174  0.00  0.00     0.057 C 
ATOM     10  C   UNL d   1      -0.807   2.253  -0.089  0.00  0.00     0.178 C 
ATOM     11  C   UNL d   1      -2.484  -0.359   0.175  0.00  0.00     0.072 C 
BRANCH   6  12
ATOM     12  C   UNL d   1       2.142   1.580   0.022  0.00  0.00     0.060 A 
ATOM     13  C   UNL d   1       3.264   1.329  -0.784  0.00  0.00     0.031 A 
ATOM     14  C   UNL d   1       4.325   2.236  -0.858  0.00  0.00     0.002 A 
ATOM     15  C   UNL d   1       4.283   3.412  -0.123  0.00  0.00     0.000 A 
ATOM     16  C   UNL d   1       3.192   3.671   0.702  0.00  0.00     0.002 A 
ATOM     17  C   UNL d   1       2.134   2.757   0.780  0.00  0.00     0.031 A 
ENDBRANCH   6  12
ENDBRANCH   1   4
BRANCH   3  18
ATOM     18  C   UNL d   1       0.059  -4.934  -0.017  0.00  0.00     0.091 A 
ATOM     19  O   UNL d   1       1.040  -5.823   0.342  0.00  0.00    -0.308 OA
ATOM     20  C   UNL d   1       0.578  -7.091   0.089  0.00  0.00     0.088 A 
ATOM     21  C   UNL d   1      -0.712  -7.006  -0.400  0.00  0.00     0.041 A 
ATOM     22  C   UNL d   1      -1.037  -5.629  -0.481  0.00  0.00     0.041 A 
BRANCH  20  23
ATOM     23  C   UNL d   1       1.502  -8.191   0.395  0.00  0.00     0.031 A 
ATOM     24  C   UNL d   1       1.505  -9.437  -0.258  0.00  0.00     0.115 A 
ATOM     25  C   UNL d   1       2.369 -10.487   0.107  0.00  0.00     0.037 A 
ATOM     26  C   UNL d   1       3.269 -10.299   1.150  0.00  0.00     0.002 A 
ATOM     27  C   UNL d   1       3.304  -9.076   1.812  0.00  0.00     0.001 A 
ATOM     28  C   UNL d   1       2.435  -8.037   1.439  0.00  0.00     0.017 A 
BRANCH  24  29
ATOM     29  N   UNL d   1       0.622  -9.701  -1.375  0.00  0.00    -0.115 N 
ATOM     30  O   UNL d   1       0.791  -9.040  -2.406  0.00  0.00    -0.532 OA
ATOM     31  O   UNL d   1      -0.215 -10.603  -1.224  0.00  0.00    -0.532 OA
ENDBRANCH  24  29
ENDBRANCH  20  23
ENDBRANCH   3  18
TORSDOF 5
