REMARK  2 active torsions:
REMARK  status: ('A' for Active; 'I' for Inactive)
REMARK    1  A    between atoms: N_6  and  S_1 
REMARK    2  A    between atoms: C_10  and  S_1 
ROOT
ATOM      1  C   UNL d   1       2.164   4.348  -3.358  0.00  0.00     0.147 A 
ATOM      2  N   UNL d   1       2.346   4.731  -4.604  0.00  0.00    -0.336 N 
ATOM      3  HN  UNL d   1       1.713   4.505  -5.372  1.00  0.00     0.168 HD
ATOM      4  S   UNL d   1       3.452   4.819  -2.297  0.00  0.00    -0.052 SA
ATOM      5  N   UNL d   1       0.643   1.155  -1.219  0.00  0.00    -0.205 NA
ATOM      6  N   UNL d   1       1.089   3.620  -2.937  0.00  0.00    -0.360 N 
ATOM      7  C   UNL d   1       4.264   5.609  -3.583  0.00  0.00     0.036 A 
ATOM      8  C   UNL d   1       3.502   5.479  -4.741  0.00  0.00     0.051 A 
ATOM      9  C   UNL d   1       1.080   2.507  -0.709  0.00  0.00     0.127 C 
ATOM     10  C   UNL d   1       5.486   6.304  -3.563  0.00  0.00     0.045 A 
ATOM     11  C   UNL d   1       0.580   3.675  -1.568  0.00  0.00     0.140 C 
ATOM     12  C   UNL d   1       3.958   6.100  -5.923  0.00  0.00     0.032 A 
ATOM     13  C   UNL d   1       5.915   6.901  -4.750  0.00  0.00     0.035 A 
ATOM     14  C   UNL d   1       0.406   1.369  -3.725  0.00  0.00     0.035 C 
ATOM     15  C   UNL d   1       1.253   0.852  -2.564  0.00  0.00     0.109 C 
ATOM     16  C   UNL d   1       0.278   2.885  -3.894  0.00  0.00     0.126 C 
ATOM     17  C   UNL d   1       5.162   6.813  -5.916  0.00  0.00     0.026 A 
ATOM     18 CL   UNL d   1       7.404   7.768  -4.764  0.00  0.00    -0.084 Cl
ENDROOT
BRANCH   5  19
ATOM     19  S   UNL d   1       1.002  -0.102  -0.079  0.00  0.00     0.243 S 
ATOM     20  O   UNL d   1       2.370   0.097   0.364  0.00  0.00    -0.206 OA
ATOM     21  O   UNL d   1       0.572  -1.364  -0.636  0.00  0.00    -0.206 OA
BRANCH  19  22
ATOM     22  C   UNL d   1      -0.079   0.241   1.293  0.00  0.00     0.074 A 
ATOM     23  C   UNL d   1      -1.458   0.100   1.114  0.00  0.00     0.026 A 
ATOM     24  C   UNL d   1      -2.317   0.294   2.198  0.00  0.00     0.025 A 
ATOM     25  C   UNL d   1      -1.792   0.621   3.450  0.00  0.00     0.034 A 
ATOM     26  C   UNL d   1      -0.414   0.758   3.629  0.00  0.00     0.025 A 
ATOM     27 CL   UNL d   1      -2.852   0.843   4.787  0.00  0.00    -0.084 Cl
ATOM     28  C   UNL d   1       0.450   0.565   2.549  0.00  0.00     0.026 A 
ENDBRANCH  19  22
ENDBRANCH   5  19
TORSDOF 2
