REMARK  4 active torsions:
REMARK  status: ('A' for Active; 'I' for Inactive)
REMARK    1  A    between atoms: N_2  and  S_1 
REMARK    2  A    between atoms: C_5  and  S_1 
REMARK    3  A    between atoms: C_4  and  C_3 
REMARK    4  A    between atoms: C_20  and  C_8 
ROOT
ATOM      1  N   UNL d   1       0.481   1.522  -0.356  0.00  0.00    -0.175 N 
ATOM      2  C   UNL d   1      -0.650   1.829  -1.099  0.00  0.00     0.097 C 
ATOM      3  N   UNL d   1       1.144   2.648   0.059  0.00  0.00    -0.295 N 
ATOM      4  HN  UNL d   1       1.932   2.711   0.704  1.00  0.00     0.187 HD
ATOM      5  C   UNL d   1      -0.574   3.190  -1.329  0.00  0.00     0.053 C 
ATOM      6  C   UNL d   1       0.520   3.639  -0.573  0.00  0.00     0.111 C 
ENDROOT
BRANCH   2   7
ATOM      7  C   UNL d   1      -1.759   0.976  -1.613  0.00  0.00     0.069 C 
ATOM      8  N   UNL d   1      -2.480   1.367  -2.732  0.00  0.00    -0.348 N 
ATOM      9  C   UNL d   1      -3.349   0.430  -3.073  0.00  0.00     0.084 C 
ATOM     10  HN  UNL d   1      -2.357   2.252  -3.223  1.00  0.00     0.166 HD
ATOM     11  S   UNL d   1      -3.474  -0.868  -1.943  0.00  0.00    -0.081 SA
ATOM     12  C   UNL d   1      -2.221  -0.176  -1.018  0.00  0.00     0.083 C 
BRANCH   9  13
ATOM     13  C   UNL d   1      -4.221   0.460  -4.260  0.00  0.00    -0.002 A 
ATOM     14  C   UNL d   1      -4.665  -0.717  -4.891  0.00  0.00     0.014 A 
ATOM     15  C   UNL d   1      -5.532  -0.667  -5.985  0.00  0.00     0.001 A 
ATOM     16  C   UNL d   1      -5.960   0.563  -6.475  0.00  0.00     0.000 A 
ATOM     17  C   UNL d   1      -5.508   1.741  -5.884  0.00  0.00     0.001 A 
ATOM     18  C   UNL d   1      -4.639   1.690  -4.789  0.00  0.00     0.014 A 
ENDBRANCH   9  13
ENDBRANCH   2   7
BRANCH   1  19
ATOM     19  S   UNL d   1       1.075  -0.075  -0.043  0.00  0.00     0.285 S 
ATOM     20  O   UNL d   1       2.516   0.059   0.095  0.00  0.00    -0.198 OA
ATOM     21  O   UNL d   1       0.509  -0.954  -1.047  0.00  0.00    -0.198 OA
BRANCH  19  22
ATOM     22  C   UNL d   1       0.479  -0.604   1.528  0.00  0.00     0.120 A 
ATOM     23  C   UNL d   1      -0.288   0.206   2.354  0.00  0.00     0.142 A 
ATOM     24  C   UNL d   1      -0.643  -0.225   3.630  0.00  0.00     0.086 A 
ATOM     25  F   UNL d   1      -0.730   1.402   1.954  0.00  0.00    -0.204 F 
ATOM     26  C   UNL d   1      -0.238  -1.481   4.063  0.00  0.00     0.119 A 
ATOM     27  C   UNL d   1       0.495  -2.323   3.234  0.00  0.00     0.044 A 
ATOM     28  F   UNL d   1      -0.558  -1.887   5.298  0.00  0.00    -0.206 F 
ATOM     29  C   UNL d   1       0.858  -1.885   1.959  0.00  0.00     0.031 A 
ENDBRANCH  19  22
ENDBRANCH   1  19
TORSDOF 4
