REMARK  6 active torsions:
REMARK  status: ('A' for Active; 'I' for Inactive)
REMARK    1  A    between atoms: C_13  and  C_1 
REMARK    2  A    between atoms: C_3  and  C_2 
REMARK    3  A    between atoms: O_19  and  C_13 
REMARK    4  A    between atoms: N_14  and  N_16 
REMARK    5  A    between atoms: C_20  and  C_18 
REMARK    6  A    between atoms: C_27  and  O_19 
ROOT
ATOM      1  C   UNL d   1      -1.596   2.216  -0.058  0.00  0.00     0.077 A 
ATOM      2  N   UNL d   1      -2.527   2.439   0.931  0.00  0.00    -0.333 N 
ATOM      3  HN  UNL d   1      -2.780   1.763   1.652  1.00  0.00     0.168 HD
ATOM      4  C   UNL d   1      -3.044   3.643   0.819  0.00  0.00     0.163 A 
ATOM      5  S   UNL d   1      -2.462   4.547  -0.533  0.00  0.00    -0.062 SA
ATOM      6  C   UNL d   1      -1.402   3.260  -0.935  0.00  0.00     0.085 A 
ATOM      7  N   UNL d   1      -3.941   4.195   1.679  0.00  0.00    -0.280 N 
ATOM      8  H   UNL d   1      -4.206   5.158   1.494  0.00  0.00     0.189 HD
ENDROOT
BRANCH   7   9
ATOM      9  N   UNL d   1      -4.063   3.710   2.946  0.00  0.00    -0.309 N 
ATOM     10  C   UNL d   1      -4.862   4.340   3.740  0.00  0.00     0.118 C 
ATOM     11  HN  UNL d   1      -3.547   2.885   3.253  1.00  0.00     0.186 HD
BRANCH  10  12
ATOM     12  C   UNL d   1      -4.982   3.929   5.154  0.00  0.00    -0.019 A 
ATOM     13  C   UNL d   1      -4.204   2.876   5.649  0.00  0.00     0.014 A 
ATOM     14  C   UNL d   1      -4.283   2.524   6.996  0.00  0.00     0.024 A 
ATOM     15  C   UNL d   1      -5.140   3.223   7.843  0.00  0.00     0.034 A 
ATOM     16  C   UNL d   1      -5.923   4.268   7.353  0.00  0.00     0.024 A 
ATOM     17 CL   UNL d   1      -5.226   2.800   9.509  0.00  0.00    -0.084 Cl
ATOM     18  C   UNL d   1      -5.847   4.626   6.002  0.00  0.00     0.014 A 
ENDBRANCH  10  12
ENDBRANCH   7   9
BRANCH   1  19
ATOM     19  C   UNL d   1      -0.858   0.933  -0.136  0.00  0.00     0.128 A 
ATOM     20  C   UNL d   1      -1.032  -0.143   0.700  0.00  0.00     0.079 A 
ATOM     21  C   UNL d   1      -0.087  -1.104   0.262  0.00  0.00     0.132 A 
ATOM     22  N   UNL d   1       0.598  -0.640  -0.799  0.00  0.00    -0.255 N 
ATOM     23  O   UNL d   1       0.110   0.630  -1.043  0.00  0.00    -0.235 OA
ATOM     24  HN  UNL d   1       1.329  -1.127  -1.318  1.00  0.00     0.195 HD
BRANCH  21  25
ATOM     25  C   UNL d   1       0.188  -2.399   0.877  0.00  0.00     0.311 C 
ATOM     26  O   UNL d   1      -0.423  -2.813   1.857  0.00  0.00    -0.258 OA
BRANCH  25  27
ATOM     27  O   UNL d   1       1.242  -3.047   0.298  0.00  0.00    -0.317 OA
BRANCH  27  28
ATOM     28  C   UNL d   1       1.813  -4.114   1.064  0.00  0.00     0.175 C 
ATOM     29  C   UNL d   1       2.822  -3.523   2.033  0.00  0.00     0.034 C 
ENDBRANCH  27  28
ENDBRANCH  25  27
ENDBRANCH  21  25
ENDBRANCH   1  19
TORSDOF 6
