REMARK  2 active torsions:
REMARK  status: ('A' for Active; 'I' for Inactive)
REMARK    1  A    between atoms: N_2  and  S_1 
REMARK    2  A    between atoms: C_4  and  S_1 
ROOT
ATOM      1  N   UNL d   1       0.415  -1.476   0.797  0.00  0.00    -0.297 N 
ATOM      2  C   UNL d   1      -1.348  -2.769   1.925  0.00  0.00    -0.021 A 
ATOM      3  C   UNL d   1      -1.019  -1.444   1.251  0.00  0.00     0.126 C 
ATOM      4  C   UNL d   1      -0.565  -3.900   1.791  0.00  0.00    -0.008 A 
ATOM      5  C   UNL d   1       0.798  -2.742   0.086  0.00  0.00     0.141 C 
ATOM      6  S   UNL d   1      -1.172  -5.247   2.631  0.00  0.00    -0.106 SA
ATOM      7  C   UNL d   1       0.714  -3.950   1.027  0.00  0.00     0.067 C 
ATOM      8  C   UNL d   1      -2.475  -3.038   2.770  0.00  0.00     0.017 A 
ATOM      9  C   UNL d   1      -2.498  -4.342   3.218  0.00  0.00     0.051 A 
ATOM     10  C   UNL d   1      -2.014  -1.144   0.130  0.00  0.00     0.038 C 
ENDROOT
BRANCH   1  11
ATOM     11  S   UNL d   1       1.063  -0.087   0.053  0.00  0.00     0.268 S 
ATOM     12  O   UNL d   1       0.361   0.114  -1.198  0.00  0.00    -0.200 OA
ATOM     13  O   UNL d   1       2.503  -0.213   0.065  0.00  0.00    -0.200 OA
BRANCH  11  14
ATOM     14  C   UNL d   1       0.710   1.372   1.011  0.00  0.00     0.120 A 
ATOM     15  S   UNL d   1       1.326   1.397   2.607  0.00  0.00    -0.088 SA
ATOM     16  C   UNL d   1       0.762   2.992   2.868  0.00  0.00     0.051 A 
ATOM     17  C   UNL d   1       0.096   3.492   1.772  0.00  0.00     0.009 A 
ATOM     18  C   UNL d   1       0.055   2.551   0.702  0.00  0.00     0.033 A 
ENDBRANCH  11  14
ENDBRANCH   1  11
TORSDOF 2
