REMARK  0 active torsions:
REMARK  status: ('A' for Active; 'I' for Inactive)
ROOT
ATOM      1  N   UNL d   1      -2.069  -0.537  -0.042  0.00  0.00    -0.277 N 
ATOM      2  C   UNL d   1      -1.854   0.797   0.013  0.00  0.00     0.323 A 
ATOM      3  C   UNL d   1      -0.893  -1.221  -0.042  0.00  0.00     0.254 A 
ATOM      4  N   UNL d   1      -0.500   1.019   0.049  0.00  0.00    -0.325 N 
ATOM      5  C   UNL d   1       0.269  -0.210  -0.003  0.00  0.00     0.116 A 
ATOM      6  O   UNL d   1      -2.705   1.667   0.032  0.00  0.00    -0.247 OA
ATOM      7  O   UNL d   1      -0.791  -2.438  -0.075  0.00  0.00    -0.270 OA
ATOM      8  C   UNL d   1       1.120  -0.401   1.253  0.00  0.00     0.041 C 
ATOM      9  C   UNL d   1       1.103  -0.298  -1.283  0.00  0.00     0.041 C 
ATOM     10  C   UNL d   1       2.294   0.660  -1.250  0.00  0.00     0.003 C 
ATOM     11  C   UNL d   1       2.306   0.563   1.282  0.00  0.00     0.003 C 
ATOM     12  C   UNL d   1       3.141   0.473   0.007  0.00  0.00     0.000 C 
ATOM     13  H   UNL d   1      -2.981  -0.959  -0.067  0.00  0.00     0.173 HD
ATOM     14  H   UNL d   1      -0.127   1.959   0.084  0.00  0.00     0.165 HD
ENDROOT
TORSDOF 0
