REMARK  3 active torsions:
REMARK  status: ('A' for Active; 'I' for Inactive)
REMARK    1  A    between atoms: C_9  and  C_1 
REMARK    2  A    between atoms: C_10  and  C_6 
REMARK    3  A    between atoms: C_11  and  C_7 
REMARK       I    between atoms: N_14  and  C_11 
ROOT
ATOM      1  C   UNL d   1      -0.640  -0.297   0.385  0.00  0.00     0.136 A 
ATOM      2  N   UNL d   1       0.133  -1.028  -0.475  0.00  0.00    -0.292 N 
ATOM      3  C   UNL d   1       0.074   0.868   0.621  0.00  0.00     0.068 A 
ATOM      4  N   UNL d   1       1.270  -0.392  -0.825  0.00  0.00    -0.297 N 
ATOM      5  HN  UNL d   1       1.988  -0.718  -1.472  1.00  0.00     0.187 HD
ATOM      6  C   UNL d   1       1.252   0.756  -0.141  0.00  0.00     0.067 A 
ATOM      7  C   UNL d   1      -0.055  -2.352  -1.022  0.00  0.00     0.178 C 
ENDROOT
BRANCH   6   8
ATOM      8  C   UNL d   1       2.400   1.722  -0.192  0.00  0.00     0.034 C 
ATOM      9  S   UNL d   1       2.501   3.177   0.703  0.00  0.00    -0.083 SA
ATOM     10  C   UNL d   1       4.131   3.438   0.244  0.00  0.00     0.073 C 
ATOM     11  C   UNL d   1       4.498   2.534  -0.742  0.00  0.00     0.026 C 
ATOM     12  C   UNL d   1       3.511   1.537  -0.977  0.00  0.00     0.023 C 
BRANCH  10  13
ATOM     13  C   UNL d   1       4.966   4.551   0.690  0.00  0.00     0.260 C 
ATOM     14  N   UNL d   1       4.983   4.987   2.029  0.00  0.00    -0.356 N 
ATOM     15  C   UNL d   1       5.851   6.102   2.376  0.00  0.00     0.152 C 
ATOM     16  C   UNL d   1       4.186   4.465   3.127  0.00  0.00     0.152 C 
ATOM     17  O   UNL d   1       5.733   5.080  -0.118  0.00  0.00    -0.267 OA
ENDBRANCH  10  13
ENDBRANCH   6   8
BRANCH   1  18
ATOM     18  C   UNL d   1      -1.940  -0.712   0.948  0.00  0.00     0.434 C 
ATOM     19  F   UNL d   1      -2.499  -1.779   0.331  0.00  0.00    -0.165 F 
ATOM     20  F   UNL d   1      -1.823  -1.034   2.261  0.00  0.00    -0.165 F 
ATOM     21  F   UNL d   1      -2.850   0.291   0.873  0.00  0.00    -0.165 F 
ENDBRANCH   1  18
TORSDOF 3
