REMARK  10 active torsions:
REMARK  status: ('A' for Active; 'I' for Inactive)
REMARK    1  A    between atoms: N_2  and  C_1 
REMARK    2  A    between atoms: C_4  and  C_1 
REMARK    3  A    between atoms: C_6  and  C_1 
REMARK    4  A    between atoms: N_7  and  C_1 
REMARK       I    between atoms: C_3  and  N_2 
REMARK    5  A    between atoms: C_5  and  C_3 
REMARK    6  A    between atoms: O_14  and  C_6 
REMARK    7  A    between atoms: C_18  and  N_7 
REMARK    8  A    between atoms: C_20  and  O_14 
REMARK    9  A    between atoms: O_17  and  C_21 
REMARK   10  A    between atoms: C_21  and  C_18 
ROOT
ATOM      1  C   UNL d   1       1.063   0.043  -0.025  0.00  0.00     0.416 C 
ENDROOT
BRANCH   1   2
ATOM      2  N   UNL d   1       0.738  -0.655  -1.288  0.00  0.00    -0.306 N 
ATOM      3  C   UNL d   1       0.872  -2.003  -1.518  0.00  0.00     0.256 C 
ATOM      4  O   UNL d   1       1.325  -2.766  -0.670  0.00  0.00    -0.268 OA
ATOM      5  H   UNL d   1       0.304  -0.076  -2.001  0.00  0.00     0.166 HD
BRANCH   3   6
ATOM      6  C   UNL d   1       0.374  -2.526  -2.837  0.00  0.00     0.053 A 
ATOM      7  C   UNL d   1       0.276  -1.765  -4.012  0.00  0.00     0.049 A 
ATOM      8 CL   UNL d   1       1.019  -0.216  -4.210  0.00  0.00    -0.083 Cl
ATOM      9  C   UNL d   1      -0.374  -2.285  -5.141  0.00  0.00     0.025 A 
ATOM     10  C   UNL d   1      -0.836  -3.598  -5.151  0.00  0.00     0.002 A 
ATOM     11  C   UNL d   1      -0.635  -4.400  -4.036  0.00  0.00     0.001 A 
ATOM     12  C   UNL d   1      -0.051  -3.868  -2.880  0.00  0.00     0.019 A 
ENDBRANCH   3   6
ENDBRANCH   1   2
BRANCH   1  13
ATOM     13  C   UNL d   1       0.239  -0.466   1.234  0.00  0.00     0.452 C 
ATOM     14  F   UNL d   1      -0.624  -1.465   0.910  0.00  0.00    -0.166 F 
ATOM     15  F   UNL d   1       1.041  -0.942   2.219  0.00  0.00    -0.166 F 
ATOM     16  F   UNL d   1      -0.537   0.494   1.803  0.00  0.00    -0.166 F 
ENDBRANCH   1  13
BRANCH   1  17
ATOM     17  C   UNL d   1       0.606   1.530  -0.140  0.00  0.00     0.329 C 
ATOM     18  O   UNL d   1       0.838   2.429   0.666  0.00  0.00    -0.260 OA
BRANCH  17  19
ATOM     19  O   UNL d   1      -0.174   1.689  -1.256  0.00  0.00    -0.318 OA
BRANCH  19  20
ATOM     20  C   UNL d   1      -1.097   2.784  -1.233  0.00  0.00     0.174 C 
ATOM     21  C   UNL d   1      -2.405   2.244  -0.681  0.00  0.00     0.034 C 
ENDBRANCH  19  20
ENDBRANCH  17  19
ENDBRANCH   1  17
BRANCH   1  22
ATOM     22  N   UNL d   1       2.539  -0.009   0.123  0.00  0.00     0.134 N 
ATOM     23  H   UNL d   1       2.812  -0.993   0.223  0.00  0.00     0.320 HD
BRANCH  22  24
ATOM     24  C   UNL d   1       3.312   0.584  -0.973  0.00  0.00     0.300 C 
BRANCH  24  25
ATOM     25  C   UNL d   1       4.819   0.491  -0.694  0.00  0.00     0.197 C 
BRANCH  25  26
ATOM     26  O   UNL d   1       5.210  -0.882  -0.610  0.00  0.00    -0.394 OA
ATOM     27  C   UNL d   1       6.608  -1.008  -0.384  0.00  0.00     0.201 C 
ENDBRANCH  25  26
ENDBRANCH  24  25
ENDBRANCH  22  24
ENDBRANCH   1  22
TORSDOF 10
