REMARK  3 active torsions:
REMARK  status: ('A' for Active; 'I' for Inactive)
REMARK    1  A    between atoms: S_4  and  C_1 
REMARK    2  A    between atoms: C_3  and  C_2 
REMARK       I    between atoms: N_9  and  C_3 
REMARK    3  A    between atoms: C_8  and  S_4 
ROOT
ATOM      1  C   UNL d   1      -0.492   1.304  -0.012  0.00  0.00     0.090 A 
ATOM      2  C   UNL d   1       0.039   0.645   1.101  0.00  0.00     0.065 A 
ATOM      3  N   UNL d   1      -0.181   0.941  -1.289  0.00  0.00    -0.359 N 
ATOM      4  HN  UNL d   1      -0.590   1.428  -2.087  1.00  0.00     0.166 HD
ATOM      5  C   UNL d   1       0.957  -0.393   0.870  0.00  0.00     0.021 A 
ATOM      6  C   UNL d   1       0.684  -0.081  -1.467  0.00  0.00     0.089 A 
ATOM      7  C   UNL d   1       1.281  -0.768  -0.430  0.00  0.00     0.018 A 
ENDROOT
BRANCH   1   8
ATOM      8  S   UNL d   1      -1.698   2.616   0.073  0.00  0.00    -0.072 SA
BRANCH   8   9
ATOM      9  C   UNL d   1      -0.695   4.073  -0.135  0.00  0.00     0.007 A 
ATOM     10  C   UNL d   1      -0.407   4.558  -1.414  0.00  0.00     0.019 A 
ATOM     11  C   UNL d   1       0.220   5.798  -1.577  0.00  0.00     0.008 A 
ATOM     12  C   UNL d   1       0.564   6.574  -0.464  0.00  0.00    -0.062 A 
ATOM     13  C   UNL d   1       0.315   6.066   0.817  0.00  0.00     0.008 A 
ATOM     14  C   UNL d   1       1.157   7.939  -0.654  0.00  0.00     0.048 C 
ATOM     15  C   UNL d   1      -0.313   4.827   0.980  0.00  0.00     0.019 A 
ENDBRANCH   8   9
ENDBRANCH   1   8
BRANCH   2  16
ATOM     16  C   UNL d   1      -0.295   0.911   2.524  0.00  0.00     0.252 C 
ATOM     17  O   UNL d   1       0.516   0.683   3.413  0.00  0.00    -0.268 OA
ATOM     18  N   UNL d   1      -1.550   1.347   2.832  0.00  0.00    -0.366 N 
ATOM     19  H   UNL d   1      -2.258   1.555   2.139  0.00  0.00     0.159 HD
ATOM     20  H   UNL d   1      -1.776   1.484   3.810  0.00  0.00     0.159 HD
ENDBRANCH   2  16
TORSDOF 3
