REMARK  7 active torsions:
REMARK  status: ('A' for Active; 'I' for Inactive)
REMARK    1  A    between atoms: C_5  and  C_1 
REMARK    2  A    between atoms: S_15  and  C_6 
REMARK    3  A    between atoms: C_11  and  C_25 
REMARK    4  A    between atoms: C_27  and  C_12 
REMARK    5  A    between atoms: C_25  and  S_15 
REMARK    6  A    between atoms: C_16  and  O_26 
REMARK    7  A    between atoms: O_26  and  C_27 
ROOT
ATOM      1  N   UNL d   1      -2.199  -5.311   0.034  0.00  0.00    -0.354 N 
ATOM      2  HN  UNL d   1      -1.191  -5.152   0.030  1.00  0.00     0.166 HD
ATOM      3  C   UNL d   1      -3.162  -4.298   0.017  0.00  0.00     0.026 A 
ATOM      4  C   UNL d   1      -2.770  -6.502   0.054  0.00  0.00     0.075 A 
ATOM      5  S   UNL d   1      -4.489  -6.484   0.041  0.00  0.00    -0.084 SA
ATOM      6  C   UNL d   1      -4.461  -4.776   0.003  0.00  0.00     0.077 A 
ENDROOT
BRANCH   3   7
ATOM      7  C   UNL d   1      -2.688  -2.861   0.009  0.00  0.00     0.140 C 
BRANCH   7   8
ATOM      8  S   UNL d   1      -4.058  -1.653  -0.049  0.00  0.00    -0.086 SA
BRANCH   8   9
ATOM      9  C   UNL d   1      -3.225  -0.156  -0.047  0.00  0.00     0.161 A 
ATOM     10  N   UNL d   1      -3.919   1.016  -0.081  0.00  0.00    -0.317 N 
ATOM     11  C   UNL d   1      -2.979   2.014  -0.074  0.00  0.00     0.207 A 
ATOM     12  H   UNL d   1      -4.922   1.120  -0.107  0.00  0.00     0.169 HD
ATOM     13  N   UNL d   1      -1.779   1.457  -0.037  0.00  0.00    -0.280 N 
ATOM     14  N   UNL d   1      -1.940   0.085  -0.020  0.00  0.00    -0.278 N 
ATOM     15  HN  UNL d   1      -0.889   1.954  -0.024  1.00  0.00     0.188 HD
ATOM     16  HN  UNL d   1      -1.195  -0.611   0.008  1.00  0.00     0.189 HD
BRANCH  11  17
ATOM     17  C   UNL d   1      -3.351   3.446  -0.109  0.00  0.00     0.450 C 
ATOM     18  F   UNL d   1      -4.705   3.596  -0.131  0.00  0.00    -0.163 F 
ATOM     19  F   UNL d   1      -2.908   4.129   0.976  0.00  0.00    -0.163 F 
ATOM     20  F   UNL d   1      -2.879   4.081  -1.210  0.00  0.00    -0.163 F 
ENDBRANCH  11  17
ENDBRANCH   8   9
ENDBRANCH   7   8
ENDBRANCH   3   7
BRANCH   4  21
ATOM     21  C   UNL d   1      -2.048  -7.820   0.024  0.00  0.00     0.240 C 
BRANCH  21  22
ATOM     22  O   UNL d   1      -1.874  -8.259   1.375  0.00  0.00    -0.345 OA
BRANCH  22  23
ATOM     23  C   UNL d   1      -1.214  -9.445   1.560  0.00  0.00     0.072 A 
ATOM     24  C   UNL d   1      -0.775 -10.304   0.550  0.00  0.00     0.060 A 
ATOM     25  C   UNL d   1      -0.110 -11.489   0.883  0.00  0.00     0.038 A 
ATOM     26 CL   UNL d   1       0.427 -12.539  -0.372  0.00  0.00    -0.084 Cl
ATOM     27  C   UNL d   1       0.124 -11.830   2.211  0.00  0.00     0.048 A 
ATOM     28  C   UNL d   1      -0.318 -10.974   3.214  0.00  0.00     0.038 A 
ATOM     29  C   UNL d   1      -0.985  -9.790   2.895  0.00  0.00     0.060 A 
ATOM     30 CL   UNL d   1      -0.036 -11.381   4.862  0.00  0.00    -0.084 Cl
ENDBRANCH  22  23
ENDBRANCH  21  22
ENDBRANCH   4  21
TORSDOF 7
