REMARK  5 active torsions:
REMARK  status: ('A' for Active; 'I' for Inactive)
REMARK    1  A    between atoms: C_4  and  C_1 
REMARK    2  A    between atoms: O_6  and  C_2 
REMARK       I    between atoms: C_3  and  N_5 
REMARK    3  A    between atoms: C_7  and  C_3 
REMARK    4  A    between atoms: N_5  and  C_4 
REMARK    5  A    between atoms: C_13  and  O_6 
ROOT
ATOM      1  C   UNL d   1       0.219   1.113  -0.103  0.00  0.00     0.015 A 
ATOM      2  C   UNL d   1       1.629   1.151  -0.140  0.00  0.00     0.085 A 
ATOM      3  C   UNL d   1      -0.395  -0.155  -0.040  0.00  0.00     0.044 A 
ATOM      4 CL   UNL d   1      -2.115  -0.359   0.019  0.00  0.00    -0.084 Cl
ATOM      5  C   UNL d   1       2.374  -0.041  -0.208  0.00  0.00     0.038 A 
ATOM      6  C   UNL d   1       1.746  -1.277  -0.126  0.00  0.00     0.004 A 
ATOM      7  C   UNL d   1       0.363  -1.333  -0.030  0.00  0.00     0.024 A 
ENDROOT
BRANCH   1   8
ATOM      8  C   UNL d   1      -0.602   2.378  -0.150  0.00  0.00     0.166 C 
BRANCH   8   9
ATOM      9  N   UNL d   1      -0.403   3.343   0.916  0.00  0.00    -0.352 N 
ATOM     10  C   UNL d   1      -0.331   2.998   2.250  0.00  0.00     0.251 C 
ATOM     11  O   UNL d   1      -0.306   1.843   2.658  0.00  0.00    -0.268 OA
ATOM     12  H   UNL d   1      -0.732   4.272   0.707  0.00  0.00     0.163 HD
BRANCH  10  13
ATOM     13  C   UNL d   1      -0.299   4.117   3.230  0.00  0.00     0.032 A 
ATOM     14  C   UNL d   1      -0.610   3.828   4.566  0.00  0.00     0.018 A 
ATOM     15  C   UNL d   1      -0.578   4.831   5.539  0.00  0.00     0.025 A 
ATOM     16  C   UNL d   1      -0.230   6.130   5.176  0.00  0.00     0.034 A 
ATOM     17  C   UNL d   1       0.082   6.433   3.851  0.00  0.00     0.025 A 
ATOM     18 CL   UNL d   1      -0.176   7.365   6.371  0.00  0.00    -0.084 Cl
ATOM     19  C   UNL d   1       0.056   5.428   2.878  0.00  0.00     0.018 A 
ENDBRANCH  10  13
ENDBRANCH   8   9
ENDBRANCH   1   8
BRANCH   2  20
ATOM     20  O   UNL d   1       2.264   2.386  -0.131  0.00  0.00    -0.310 OA
BRANCH  20  21
ATOM     21  C   UNL d   1       3.459   2.472   0.558  0.00  0.00     0.076 A 
ATOM     22  C   UNL d   1       4.515   3.128  -0.076  0.00  0.00     0.037 A 
ATOM     23  C   UNL d   1       5.777   3.160   0.534  0.00  0.00     0.003 A 
ATOM     24  C   UNL d   1       5.975   2.537   1.766  0.00  0.00     0.000 A 
ATOM     25  C   UNL d   1       4.906   1.927   2.417  0.00  0.00     0.003 A 
ATOM     26  C   UNL d   1       3.641   1.913   1.827  0.00  0.00     0.037 A 
ENDBRANCH  20  21
ENDBRANCH   2  20
TORSDOF 5
