REMARK  3 active torsions:
REMARK  status: ('A' for Active; 'I' for Inactive)
REMARK    1  A    between atoms: C_2  and  N_1 
REMARK    2  A    between atoms: S_9  and  C_5 
REMARK    3  A    between atoms: C_11  and  S_9 
ROOT
ATOM      1  C   UNL d   1       0.694  -1.088  -1.052  0.00  0.00     0.118 A 
ATOM      2  N   UNL d   1       0.329  -2.049  -3.234  0.00  0.00    -0.358 N 
ATOM      3  HN  UNL d   1       0.611  -2.162  -4.207  1.00  0.00     0.166 HD
ATOM      4  C   UNL d   1      -0.770  -2.674  -2.743  0.00  0.00     0.074 A 
ATOM      5  C   UNL d   1       1.039  -1.268  -2.381  0.00  0.00     0.124 A 
ATOM      6  C   UNL d   1      -0.436  -1.740  -0.554  0.00  0.00     0.040 A 
ATOM      7  C   UNL d   1      -1.180  -2.545  -1.419  0.00  0.00     0.040 A 
ENDROOT
BRANCH   4   8
ATOM      8  S   UNL d   1      -1.744  -3.618  -3.893  0.00  0.00    -0.073 SA
BRANCH   8   9
ATOM      9  C   UNL d   1      -0.981  -5.226  -3.792  0.00  0.00     0.007 A 
ATOM     10  C   UNL d   1      -1.779  -6.337  -3.486  0.00  0.00     0.020 A 
ATOM     11  C   UNL d   1      -1.226  -7.620  -3.454  0.00  0.00     0.025 A 
ATOM     12  C   UNL d   1       0.127  -7.797  -3.734  0.00  0.00     0.034 A 
ATOM     13  C   UNL d   1       0.931  -6.702  -4.045  0.00  0.00     0.025 A 
ATOM     14 CL   UNL d   1       0.805  -9.378  -3.709  0.00  0.00    -0.084 Cl
ATOM     15  C   UNL d   1       0.376  -5.419  -4.077  0.00  0.00     0.020 A 
ENDBRANCH   8   9
ENDBRANCH   4   8
BRANCH   1  16
ATOM     16  N   UNL d   1       1.501  -0.226  -0.201  0.00  0.00    -0.114 N 
ATOM     17  O   UNL d   1       2.494   0.316  -0.706  0.00  0.00    -0.532 OA
ATOM     18  O   UNL d   1       1.144  -0.086   0.977  0.00  0.00    -0.532 OA
ENDBRANCH   1  16
TORSDOF 3
