REMARK  6 active torsions:
REMARK  status: ('A' for Active; 'I' for Inactive)
REMARK    1  A    between atoms: C_7  and  C_1 
REMARK    2  A    between atoms: C_10  and  C_2 
REMARK    3  A    between atoms: N_3  and  C_6 
REMARK    4  A    between atoms: C_8  and  C_22 
REMARK    5  A    between atoms: O_19  and  C_10 
REMARK    6  A    between atoms: C_22  and  O_19 
ROOT
ATOM      1  C   UNL d   1       0.369  -3.817   0.664  0.00  0.00     0.298 C 
ATOM      2  O   UNL d   1      -0.193  -4.004   1.740  0.00  0.00    -0.259 OA
ENDROOT
BRANCH   1   3
ATOM      3  C   UNL d   1       1.799  -3.639   0.586  0.00  0.00     0.100 A 
ATOM      4  C   UNL d   1       2.610  -2.572   0.060  0.00  0.00     0.088 A 
ATOM      5  N   UNL d   1       3.894  -2.786   0.397  0.00  0.00    -0.259 N 
ATOM      6  O   UNL d   1       3.958  -3.992   1.038  0.00  0.00    -0.241 OA
ATOM      7  HN  UNL d   1       4.679  -2.162   0.210  1.00  0.00     0.195 HD
ATOM      8  C   UNL d   1       2.713  -4.506   1.154  0.00  0.00     0.091 A 
ATOM      9  C   UNL d   1       2.636  -5.815   1.832  0.00  0.00     0.080 C 
BRANCH   4  10
ATOM     10  C   UNL d   1       2.248  -1.342  -0.661  0.00  0.00     0.054 A 
ATOM     11  C   UNL d   1       1.022  -0.708  -0.408  0.00  0.00     0.130 A 
ATOM     12  F   UNL d   1       0.175  -1.185   0.515  0.00  0.00    -0.205 F 
ATOM     13  C   UNL d   1       0.628   0.454  -1.077  0.00  0.00     0.043 A 
ATOM     14  C   UNL d   1       1.477   1.045  -2.002  0.00  0.00     0.005 A 
ATOM     15  C   UNL d   1       2.715   0.464  -2.255  0.00  0.00     0.025 A 
ATOM     16  C   UNL d   1       3.098  -0.721  -1.604  0.00  0.00     0.049 A 
ATOM     17 CL   UNL d   1       4.644  -1.345  -2.088  0.00  0.00    -0.083 Cl
ENDBRANCH   4  10
ENDBRANCH   1   3
BRANCH   1  18
ATOM     18  O   UNL d   1      -0.281  -3.761  -0.539  0.00  0.00    -0.312 OA
BRANCH  18  19
ATOM     19  C   UNL d   1      -1.726  -3.711  -0.442  0.00  0.00     0.227 C 
BRANCH  19  20
ATOM     20  C   UNL d   1      -2.360  -5.079  -0.594  0.00  0.00     0.034 A 
ATOM     21  C   UNL d   1      -3.548  -5.453  -1.222  0.00  0.00     0.055 A 
ATOM     22  C   UNL d   1      -3.779  -6.867  -1.154  0.00  0.00     0.038 A 
ATOM     23  C   UNL d   1      -2.807  -7.525  -0.444  0.00  0.00     0.052 A 
ATOM     24  S   UNL d   1      -1.601  -6.464   0.107  0.00  0.00    -0.102 SA
BRANCH  21  25
ATOM     25  N   UNL d   1      -4.510  -4.588  -1.854  0.00  0.00    -0.319 N 
ATOM     26  C   UNL d   1      -5.106  -4.807  -3.097  0.00  0.00     0.013 A 
ATOM     27  C   UNL d   1      -6.057  -3.827  -3.307  0.00  0.00     0.027 A 
ATOM     28  C   UNL d   1      -4.728  -5.884  -4.059  0.00  0.00     0.068 C 
ATOM     29  C   UNL d   1      -6.067  -2.993  -2.179  0.00  0.00     0.027 A 
ATOM     30  C   UNL d   1      -5.137  -3.483  -1.279  0.00  0.00     0.013 A 
ATOM     31  C   UNL d   1      -4.954  -3.016   0.123  0.00  0.00     0.068 C 
ENDBRANCH  21  25
ENDBRANCH  19  20
ENDBRANCH  18  19
ENDBRANCH   1  18
TORSDOF 6
