REMARK  5 active torsions:
REMARK  status: ('A' for Active; 'I' for Inactive)
REMARK    1  A    between atoms: C_4  and  C_1 
REMARK       I    between atoms: C_2  and  N_3 
REMARK    2  A    between atoms: C_6  and  C_2 
REMARK    3  A    between atoms: N_3  and  C_5 
REMARK       I    between atoms: N_8  and  C_4 
REMARK    4  A    between atoms: C_17  and  N_8 
REMARK    5  A    between atoms: C_9  and  C_17 
ROOT
ATOM      1  C   UNL d   1       0.990   0.036  -0.177  0.00  0.00     0.058 A 
ATOM      2  C   UNL d   1       0.432  -1.248  -0.096  0.00  0.00     0.050 A 
ATOM      3  C   UNL d   1       0.156   1.149  -0.429  0.00  0.00     0.019 A 
ATOM      4  C   UNL d   1      -0.968  -1.371  -0.139  0.00  0.00     0.030 A 
ATOM      5  C   UNL d   1      -1.228   0.999  -0.509  0.00  0.00     0.001 A 
ATOM      6  C   UNL d   1      -1.791  -0.257  -0.329  0.00  0.00     0.002 A 
ENDROOT
BRANCH   2   7
ATOM      7  N   UNL d   1       1.133  -2.466   0.029  0.00  0.00    -0.322 N 
ATOM      8  C   UNL d   1       2.426  -2.753  -0.376  0.00  0.00     0.263 C 
ATOM      9  O   UNL d   1       3.167  -1.939  -0.930  0.00  0.00    -0.267 OA
ATOM     10  H   UNL d   1       0.585  -3.284   0.268  0.00  0.00     0.169 HD
BRANCH   8  11
ATOM     11  C   UNL d   1       2.817  -4.157  -0.200  0.00  0.00     0.072 A 
ATOM     12  S   UNL d   1       1.705  -5.349   0.354  0.00  0.00    -0.097 SA
ATOM     13  C   UNL d   1       2.857  -6.601   0.216  0.00  0.00     0.050 A 
ATOM     14  C   UNL d   1       4.072  -6.134  -0.228  0.00  0.00     0.009 A 
ATOM     15  C   UNL d   1       4.050  -4.728  -0.467  0.00  0.00     0.025 A 
ENDBRANCH   8  11
ENDBRANCH   2   7
BRANCH   1  16
ATOM     16  C   UNL d   1       2.302   0.378   0.418  0.00  0.00     0.253 C 
ATOM     17  N   UNL d   1       3.019   1.369  -0.228  0.00  0.00    -0.356 N 
ATOM     18  H   UNL d   1       3.027   1.351  -1.240  0.00  0.00     0.162 HD
ATOM     19  O   UNL d   1       2.608  -0.078   1.513  0.00  0.00    -0.268 OA
BRANCH  17  20
ATOM     20  C   UNL d   1       4.071   2.044   0.486  0.00  0.00     0.127 C 
BRANCH  20  21
ATOM     21  C   UNL d   1       4.694   3.097  -0.367  0.00  0.00     0.003 A 
ATOM     22  C   UNL d   1       5.558   2.735  -1.548  0.00  0.00     0.007 A 
ATOM     23  C   UNL d   1       6.186   3.300  -0.303  0.00  0.00     0.007 A 
ENDBRANCH  20  21
ENDBRANCH  17  20
ENDBRANCH   1  16
TORSDOF 5
