REMARK  6 active torsions:
REMARK  status: ('A' for Active; 'I' for Inactive)
REMARK    1  A    between atoms: C_2  and  S_1 
REMARK    2  A    between atoms: C_10  and  S_1 
REMARK    3  A    between atoms: C_3  and  C_5 
REMARK    4  A    between atoms: C_4  and  C_6 
REMARK    5  A    between atoms: N_14  and  C_7 
REMARK    6  A    between atoms: C_15  and  N_14 
ROOT
ATOM      1  C   UNL d   1       0.357  -1.625  -0.495  0.00  0.00     0.159 C 
ATOM      2  C   UNL d   1      -0.317  -2.408   0.367  0.00  0.00     0.123 C 
ATOM      3  C   UNL d   1       0.812  -0.332  -0.143  0.00  0.00     0.113 C 
ATOM      4  N   UNL d   1       1.165   0.715   0.211  0.00  0.00    -0.191 NA
ENDROOT
BRANCH   1   5
ATOM      5  S   UNL d   1       0.790  -2.278  -2.037  0.00  0.00     0.218 S 
ATOM      6  O   UNL d   1      -0.166  -3.295  -2.434  0.00  0.00    -0.216 OA
ATOM      7  O   UNL d   1       2.208  -2.595  -2.037  0.00  0.00    -0.216 OA
BRANCH   5   8
ATOM      8  C   UNL d   1       0.569  -0.928  -3.190  0.00  0.00     0.065 A 
ATOM      9  C   UNL d   1       1.656  -0.101  -3.494  0.00  0.00     0.025 A 
ATOM     10  C   UNL d   1       1.505   0.914  -4.441  0.00  0.00     0.025 A 
ATOM     11  C   UNL d   1       0.283   1.085  -5.090  0.00  0.00     0.034 A 
ATOM     12  C   UNL d   1      -0.794   0.244  -4.806  0.00  0.00     0.025 A 
ATOM     13 CL   UNL d   1       0.108   2.330  -6.263  0.00  0.00    -0.084 Cl
ATOM     14  C   UNL d   1      -0.653  -0.772  -3.856  0.00  0.00     0.025 A 
ENDBRANCH   5   8
ENDBRANCH   1   5
BRANCH   2  15
ATOM     15  N   UNL d   1      -0.776  -2.083   1.625  0.00  0.00    -0.364 N 
ATOM     16  H   UNL d   1      -0.748  -1.102   1.900  0.00  0.00     0.165 HD
BRANCH  15  17
ATOM     17  C   UNL d   1      -1.339  -2.946   2.578  0.00  0.00     0.033 A 
ATOM     18  C   UNL d   1      -0.991  -4.297   2.670  0.00  0.00     0.045 A 
ATOM     19  C   UNL d   1      -1.645  -5.163   3.563  0.00  0.00     0.050 A 
ATOM     20  C   UNL d   1      -2.680  -4.660   4.364  0.00  0.00     0.032 A 
ATOM     21  C   UNL d   1      -3.058  -3.312   4.283  0.00  0.00     0.050 A 
ATOM     22  C   UNL d   1      -2.367  -2.465   3.400  0.00  0.00     0.045 A 
BRANCH  19  23
ATOM     23  C   UNL d   1      -1.238  -6.616   3.615  0.00  0.00     0.417 C 
ATOM     24  F   UNL d   1      -1.992  -7.362   4.467  0.00  0.00    -0.166 F 
ATOM     25  F   UNL d   1      -1.338  -7.220   2.399  0.00  0.00    -0.166 F 
ATOM     26  F   UNL d   1       0.053  -6.782   4.012  0.00  0.00    -0.166 F 
ENDBRANCH  19  23
BRANCH  21  27
ATOM     27  C   UNL d   1      -4.215  -2.767   5.086  0.00  0.00     0.417 C 
ATOM     28  F   UNL d   1      -4.854  -3.713   5.828  0.00  0.00    -0.166 F 
ATOM     29  F   UNL d   1      -3.834  -1.796   5.960  0.00  0.00    -0.166 F 
ATOM     30  F   UNL d   1      -5.170  -2.205   4.294  0.00  0.00    -0.166 F 
ENDBRANCH  21  27
ENDBRANCH  15  17
ENDBRANCH   2  15
TORSDOF 6
