REMARK  4 active torsions:
REMARK  status: ('A' for Active; 'I' for Inactive)
REMARK    1  A    between atoms: C_4  and  C_1 
REMARK    2  A    between atoms: C_3  and  C_2 
REMARK    3  A    between atoms: C_15  and  C_7 
REMARK    4  A    between atoms: N_9  and  C_8 
ROOT
ATOM      1  C   UNL d   1      -1.321  -0.929  -0.064  0.00  0.00     0.135 A 
ATOM      2  C   UNL d   1       0.004  -1.330  -0.019  0.00  0.00     0.079 A 
ATOM      3  O   UNL d   1      -1.323   0.443  -0.087  0.00  0.00    -0.235 OA
ATOM      4  N   UNL d   1      -0.040   0.933  -0.009  0.00  0.00    -0.264 N 
ATOM      5  HN  UNL d   1       0.243   1.913   0.001  1.00  0.00     0.194 HD
ATOM      6  C   UNL d   1       0.762  -0.136   0.052  0.00  0.00     0.046 A 
ATOM      7  C   UNL d   1       2.230   0.072   0.106  0.00  0.00     0.071 C 
ENDROOT
BRANCH   2   8
ATOM      8  C   UNL d   1       0.505  -2.724  -0.038  0.00  0.00     0.187 A 
ATOM      9  N   UNL d   1       1.657  -3.105   0.474  0.00  0.00    -0.317 N 
ATOM     10  C   UNL d   1       1.634  -4.466   0.303  0.00  0.00     0.162 A 
ATOM     11  HN  UNL d   1       2.387  -2.529   0.894  1.00  0.00     0.169 HD
ATOM     12  N   UNL d   1       0.573  -4.921  -0.374  0.00  0.00    -0.240 N 
ATOM     13  O   UNL d   1      -0.189  -3.776  -0.579  0.00  0.00    -0.217 OA
ATOM     14  HN  UNL d   1       0.372  -5.877  -0.669  1.00  0.00     0.196 HD
BRANCH  10  15
ATOM     15  C   UNL d   1       2.658  -5.374   0.896  0.00  0.00     0.123 A 
ATOM     16  O   UNL d   1       3.652  -4.973   1.752  0.00  0.00    -0.285 OA
ATOM     17  C   UNL d   1       4.308  -6.100   2.135  0.00  0.00     0.215 A 
ATOM     18  C   UNL d   1       3.799  -7.219   1.522  0.00  0.00     0.066 A 
ATOM     19  C   UNL d   1       2.727  -6.749   0.721  0.00  0.00     0.046 A 
BRANCH  17  20
ATOM     20  N   UNL d   1       5.356  -5.937   3.093  0.00  0.00    -0.090 N 
ATOM     21  O   UNL d   1       5.932  -6.973   3.452  0.00  0.00    -0.530 OA
ATOM     22  O   UNL d   1       5.601  -4.793   3.495  0.00  0.00    -0.530 OA
ENDBRANCH  17  20
ENDBRANCH  10  15
ENDBRANCH   2   8
BRANCH   1  23
ATOM     23  C   UNL d   1      -2.555  -1.660  -0.022  0.00  0.00     0.083 A 
ATOM     24  C   UNL d   1      -3.770  -1.396  -0.644  0.00  0.00     0.043 A 
ATOM     25  N   UNL d   1      -4.785  -2.304  -0.346  0.00  0.00    -0.298 N 
ATOM     26  C   UNL d   1      -4.118  -0.287  -1.568  0.00  0.00     0.071 C 
ATOM     27  N   UNL d   1      -4.392  -3.225   0.514  0.00  0.00    -0.269 N 
ATOM     28  HN  UNL d   1      -5.723  -2.262  -0.745  1.00  0.00     0.187 HD
ATOM     29  S   UNL d   1      -2.816  -3.018   1.005  0.00  0.00     0.006 SA
ATOM     30  HN  UNL d   1      -4.990  -3.983   0.842  1.00  0.00     0.195 HD
ENDBRANCH   1  23
TORSDOF 4
