REMARK  8 active torsions:
REMARK  status: ('A' for Active; 'I' for Inactive)
REMARK    1  A    between atoms: S_10  and  C_1 
REMARK    2  A    between atoms: C_2  and  C_7 
REMARK    3  A    between atoms: N_16  and  C_2 
REMARK    4  A    between atoms: O_9  and  N_3 
REMARK    5  A    between atoms: C_5  and  O_9 
REMARK       I    between atoms: N_8  and  C_5 
REMARK    6  A    between atoms: C_17  and  N_8 
REMARK    7  A    between atoms: C_19  and  S_10 
REMARK    8  A    between atoms: C_18  and  C_19 
ROOT
ATOM      1  C   UNL d   1       2.893   8.520   0.024  0.00  0.00     0.109 C 
ATOM      2  N   UNL d   1       2.725   9.788   0.307  0.00  0.00    -0.244 N 
ATOM      3  HN  UNL d   1       3.474  10.446   0.525  1.00  0.00     0.196 HD
ENDROOT
BRANCH   1   4
ATOM      4  C   UNL d   1       4.297   7.979  -0.079  0.00  0.00     0.004 A 
ATOM      5  C   UNL d   1       4.559   6.613  -0.312  0.00  0.00     0.022 A 
ATOM      6  C   UNL d   1       5.876   6.141  -0.483  0.00  0.00    -0.048 A 
ATOM      7  C   UNL d   1       6.920   7.080  -0.472  0.00  0.00     0.008 A 
ATOM      8  C   UNL d   1       6.674   8.428  -0.221  0.00  0.00     0.002 A 
ATOM      9  C   UNL d   1       5.370   8.874  -0.015  0.00  0.00     0.015 A 
BRANCH   6  10
ATOM     10  C   UNL d   1       6.129   4.668  -0.774  0.00  0.00     0.118 C 
BRANCH  10  11
ATOM     11  S   UNL d   1       7.647   4.029   0.007  0.00  0.00    -0.118 SA
BRANCH  11  12
ATOM     12  C   UNL d   1       7.731   2.368  -0.555  0.00  0.00     0.041 A 
ATOM     13  S   UNL d   1       7.527   1.880  -2.181  0.00  0.00    -0.095 SA
ATOM     14  C   UNL d   1       7.856   0.243  -1.802  0.00  0.00     0.051 A 
ATOM     15  C   UNL d   1       8.123   0.069  -0.463  0.00  0.00     0.009 A 
ATOM     16  C   UNL d   1       8.059   1.299   0.254  0.00  0.00     0.026 A 
ENDBRANCH  11  12
ENDBRANCH  10  11
ENDBRANCH   6  10
ENDBRANCH   1   4
BRANCH   1  17
ATOM     17  N   UNL d   1       1.827   7.679  -0.211  0.00  0.00    -0.286 NA
ATOM     18  H   UNL d   1       1.888   6.740   0.161  0.00  0.00     0.125 HD
ATOM     19  H   UNL d   1       0.936   8.114   0.013  0.00  0.00     0.125 HD
ENDBRANCH   1  17
BRANCH   2  20
ATOM     20  O   UNL d   1       1.342  10.106   0.265  0.00  0.00    -0.179 OA
BRANCH  20  21
ATOM     21  C   UNL d   1       1.068  11.441   0.497  0.00  0.00     0.387 C 
ATOM     22  N   UNL d   1       2.148  12.166   0.947  0.00  0.00    -0.301 N 
ATOM     23  H   UNL d   1       2.976  11.589   1.038  0.00  0.00     0.171 HD
ATOM     24  O   UNL d   1      -0.073  11.859   0.336  0.00  0.00    -0.236 OA
BRANCH  22  25
ATOM     25  C   UNL d   1       2.191  13.527   1.312  0.00  0.00     0.037 A 
ATOM     26  C   UNL d   1       1.111  14.402   1.159  0.00  0.00     0.031 A 
ATOM     27  C   UNL d   1       1.214  15.742   1.547  0.00  0.00     0.026 A 
ATOM     28  C   UNL d   1       2.402  16.216   2.094  0.00  0.00     0.034 A 
ATOM     29  C   UNL d   1       3.489  15.360   2.249  0.00  0.00     0.026 A 
ATOM     30 CL   UNL d   1       2.526  17.863   2.577  0.00  0.00    -0.084 Cl
ATOM     31  C   UNL d   1       3.384  14.021   1.854  0.00  0.00     0.031 A 
ENDBRANCH  22  25
ENDBRANCH  20  21
ENDBRANCH   2  20
TORSDOF 8
