REMARK  7 active torsions:
REMARK  status: ('A' for Active; 'I' for Inactive)
REMARK    1  A    between atoms: C_3  and  C_1 
REMARK    2  A    between atoms: C_2  and  C_5 
REMARK       I    between atoms: N_8  and  C_3 
REMARK       I    between atoms: C_6  and  N_9 
REMARK    3  A    between atoms: C_14  and  C_6 
REMARK    4  A    between atoms: N_9  and  N_8 
REMARK    5  A    between atoms: C_25  and  C_12 
REMARK    6  A    between atoms: C_15  and  S_18 
REMARK    7  A    between atoms: S_18  and  C_25 
ROOT
ATOM      1  C   UNL d   1      -0.207   1.188  -0.001  0.00  0.00     0.144 A 
ATOM      2  O   UNL d   1      -1.077   0.125  -0.017  0.00  0.00    -0.309 OA
ATOM      3  C   UNL d   1       1.093   0.715   0.005  0.00  0.00     0.045 A 
ATOM      4  C   UNL d   1      -0.317  -1.020  -0.056  0.00  0.00     0.063 A 
ATOM      5  C   UNL d   1       1.024  -0.693  -0.029  0.00  0.00     0.036 A 
ENDROOT
BRANCH   1   6
ATOM      6  C   UNL d   1      -0.671   2.561   0.009  0.00  0.00     0.293 C 
ATOM      7  N   UNL d   1      -2.040   2.770   0.015  0.00  0.00    -0.261 N 
ATOM      8  H   UNL d   1      -2.726   2.018   0.030  0.00  0.00     0.190 HD
ATOM      9  O   UNL d   1       0.099   3.527   0.013  0.00  0.00    -0.264 OA
BRANCH   7  10
ATOM     10  N   UNL d   1      -2.495   4.103   0.083  0.00  0.00    -0.263 N 
ATOM     11  C   UNL d   1      -3.847   4.372   0.069  0.00  0.00     0.270 C 
ATOM     12  O   UNL d   1      -4.705   3.498   0.002  0.00  0.00    -0.266 OA
ATOM     13  H   UNL d   1      -1.776   4.816  -0.029  0.00  0.00     0.190 HD
BRANCH  11  14
ATOM     14  C   UNL d   1      -4.232   5.814   0.121  0.00  0.00     0.035 A 
ATOM     15  C   UNL d   1      -5.441   6.204  -0.473  0.00  0.00     0.041 A 
ATOM     16  C   UNL d   1      -5.836   7.543  -0.431  0.00  0.00     0.035 A 
ATOM     17 CL   UNL d   1      -7.311   8.023  -1.177  0.00  0.00    -0.084 Cl
ATOM     18  C   UNL d   1      -5.048   8.495   0.210  0.00  0.00     0.024 A 
ATOM     19  C   UNL d   1      -3.854   8.111   0.820  0.00  0.00     0.003 A 
ATOM     20  C   UNL d   1      -3.446   6.773   0.776  0.00  0.00     0.017 A 
ENDBRANCH  11  14
ENDBRANCH   7  10
ENDBRANCH   1   6
BRANCH   4  21
ATOM     21  C   UNL d   1      -1.015  -2.340  -0.098  0.00  0.00     0.145 C 
BRANCH  21  22
ATOM     22  S   UNL d   1      -1.927  -2.547  -1.660  0.00  0.00    -0.106 SA
BRANCH  22  23
ATOM     23  C   UNL d   1      -2.575  -4.198  -1.463  0.00  0.00     0.069 A 
ATOM     24  N   UNL d   1      -2.225  -4.927  -0.379  0.00  0.00    -0.360 N 
ATOM     25  C   UNL d   1      -2.739  -6.179  -0.274  0.00  0.00     0.105 A 
ATOM     26  HN  UNL d   1      -1.598  -4.550   0.332  1.00  0.00     0.166 HD
ATOM     27  C   UNL d   1      -3.595  -6.754  -1.202  0.00  0.00     0.063 A 
ATOM     28  C   UNL d   1      -3.937  -5.984  -2.316  0.00  0.00     0.020 A 
ATOM     29  C   UNL d   1      -3.422  -4.695  -2.449  0.00  0.00     0.038 A 
BRANCH  27  30
ATOM     30  C   UNL d   1      -4.131  -8.141  -1.015  0.00  0.00     0.418 C 
ATOM     31  F   UNL d   1      -3.698  -8.744   0.126  0.00  0.00    -0.166 F 
ATOM     32  F   UNL d   1      -5.491  -8.170  -0.959  0.00  0.00    -0.166 F 
ATOM     33  F   UNL d   1      -3.783  -8.976  -2.033  0.00  0.00    -0.166 F 
ENDBRANCH  27  30
ENDBRANCH  22  23
ENDBRANCH  21  22
ENDBRANCH   4  21
TORSDOF 7
