REMARK  3 active torsions:
REMARK  status: ('A' for Active; 'I' for Inactive)
REMARK    1  A    between atoms: C_7  and  C_1 
REMARK    2  A    between atoms: C_6  and  C_3 
REMARK    3  A    between atoms: N_13  and  C_4 
REMARK       I    between atoms: N_14  and  C_7 
ROOT
ATOM      1  C   UNL d   1      -0.233   1.035   0.039  0.00  0.00     0.099 A 
ATOM      2  S   UNL d   1       1.352   0.382   0.155  0.00  0.00    -0.082 SA
ATOM      3  C   UNL d   1       0.795  -1.228   0.028  0.00  0.00     0.018 A 
ATOM      4  C   UNL d   1      -1.166   0.021  -0.059  0.00  0.00     0.050 A 
ATOM      5  C   UNL d   1      -0.580  -1.274  -0.070  0.00  0.00     0.050 A 
ENDROOT
BRANCH   1   6
ATOM      6  C   UNL d   1      -0.460   2.473   0.054  0.00  0.00     0.258 C 
ATOM      7  O   UNL d   1      -1.568   3.005   0.002  0.00  0.00    -0.267 OA
ATOM      8  N   UNL d   1       0.650   3.272   0.125  0.00  0.00    -0.365 N 
ATOM      9  H   UNL d   1       1.583   2.886   0.151  0.00  0.00     0.159 HD
ATOM     10  H   UNL d   1       0.519   4.274   0.110  0.00  0.00     0.159 HD
ENDBRANCH   1   6
BRANCH   4  11
ATOM     11  N   UNL d   1      -2.497   0.211  -0.146  0.00  0.00    -0.398 N 
ATOM     12  H   UNL d   1      -2.900   1.149  -0.085  0.00  0.00     0.156 HD
ATOM     13  H   UNL d   1      -3.178  -0.540  -0.129  0.00  0.00     0.156 HD
ENDBRANCH   4  11
BRANCH   3  14
ATOM     14  C   UNL d   1       1.691  -2.436   0.018  0.00  0.00    -0.012 A 
ATOM     15  C   UNL d   1       3.062  -2.369   0.166  0.00  0.00     0.062 A 
ATOM     16  S   UNL d   1       3.806  -3.911   0.102  0.00  0.00    -0.113 SA
ATOM     17  C   UNL d   1       2.301  -4.685  -0.127  0.00  0.00     0.050 A 
ATOM     18  C   UNL d   1       1.255  -3.788  -0.150  0.00  0.00     0.020 A 
ENDBRANCH   3  14
TORSDOF 3
