REMARK  6 active torsions:
REMARK  status: ('A' for Active; 'I' for Inactive)
REMARK    1  A    between atoms: C_6  and  C_1 
REMARK    2  A    between atoms: C_14  and  C_3 
REMARK    3  A    between atoms: S_16  and  C_5 
REMARK    4  A    between atoms: S_15  and  C_9 
REMARK    5  A    between atoms: C_19  and  S_15 
REMARK    6  A    between atoms: C_21  and  C_19 
ROOT
ATOM      1  C   UNL d   1       1.244  -1.307   0.031  0.00  0.00     0.045 A 
ATOM      2  C   UNL d   1      -0.249   0.378  -0.666  0.00  0.00     0.080 A 
ATOM      3  C   UNL d   1       0.686  -0.658  -1.083  0.00  0.00     0.016 A 
ATOM      4  S   UNL d   1       0.656  -0.623   1.500  0.00  0.00    -0.079 SA
ATOM      5  C   UNL d   1      -0.338   0.505   0.705  0.00  0.00     0.063 A 
ATOM      6  C   UNL d   1      -1.005   1.216  -1.554  0.00  0.00     0.102 C 
ATOM      7  N   UNL d   1      -1.667   1.859  -2.260  0.00  0.00    -0.191 NA
ENDROOT
BRANCH   3   8
ATOM      8  C   UNL d   1       1.026  -1.008  -2.483  0.00  0.00    -0.023 A 
ATOM      9  C   UNL d   1       2.347  -1.279  -2.874  0.00  0.00     0.012 A 
ATOM     10  C   UNL d   1       2.648  -1.688  -4.179  0.00  0.00     0.001 A 
ATOM     11  C   UNL d   1       1.644  -1.751  -5.139  0.00  0.00     0.000 A 
ATOM     12  C   UNL d   1       0.339  -1.419  -4.791  0.00  0.00     0.001 A 
ATOM     13  C   UNL d   1       0.029  -1.073  -3.470  0.00  0.00     0.012 A 
ENDBRANCH   3   8
BRANCH   5  14
ATOM     14  S   UNL d   1      -1.248   1.687   1.650  0.00  0.00    -0.126 SA
ATOM     15  C   UNL d   1      -2.955   1.164   1.363  0.00  0.00     0.096 C 
ENDBRANCH   5  14
BRANCH   1  16
ATOM     16  C   UNL d   1       2.186  -2.445   0.138  0.00  0.00     0.053 A 
ATOM     17  N   UNL d   1       2.055  -3.375  -0.825  0.00  0.00    -0.336 N 
ATOM     18  C   UNL d   1       2.941  -4.379  -0.847  0.00  0.00     0.144 A 
ATOM     19  HN  UNL d   1       1.306  -3.317  -1.516  1.00  0.00     0.168 HD
ATOM     20  N   UNL d   1       3.916  -4.557   0.060  0.00  0.00    -0.347 N 
ATOM     21  C   UNL d   1       3.992  -3.631   1.037  0.00  0.00     0.092 A 
ATOM     22  HN  UNL d   1       4.561  -5.346   0.012  1.00  0.00     0.167 HD
ATOM     23  C   UNL d   1       3.160  -2.538   1.113  0.00  0.00     0.048 A 
BRANCH  18  24
ATOM     24  S   UNL d   1       2.901  -5.422  -2.277  0.00  0.00    -0.089 SA
BRANCH  24  25
ATOM     25  C   UNL d   1       3.363  -6.994  -1.508  0.00  0.00     0.121 C 
BRANCH  25  26
ATOM     26  C   UNL d   1       3.307  -8.125  -2.509  0.00  0.00    -0.048 A 
ATOM     27  C   UNL d   1       4.444  -8.474  -3.255  0.00  0.00     0.009 A 
ATOM     28  C   UNL d   1       4.388  -9.513  -4.188  0.00  0.00     0.024 A 
ATOM     29  C   UNL d   1       3.194 -10.202  -4.387  0.00  0.00     0.034 A 
ATOM     30  C   UNL d   1       2.053  -9.858  -3.667  0.00  0.00     0.024 A 
ATOM     31 CL   UNL d   1       3.128 -11.485  -5.532  0.00  0.00    -0.084 Cl
ATOM     32  C   UNL d   1       2.108  -8.820  -2.732  0.00  0.00     0.009 A 
ENDBRANCH  25  26
ENDBRANCH  24  25
ENDBRANCH  18  24
ENDBRANCH   1  16
TORSDOF 6
