REMARK  3 active torsions:
REMARK  status: ('A' for Active; 'I' for Inactive)
REMARK       I    between atoms: N_2  and  C_1 
REMARK       I    between atoms: N_8  and  C_1 
REMARK    1  A    between atoms: C_11  and  N_2 
REMARK    2  A    between atoms: C_4  and  C_7 
REMARK    3  A    between atoms: C_5  and  N_8 
ROOT
ATOM      1  C   UNL d   1       1.019  -0.156   0.049  0.00  0.00     0.324 C 
ATOM      2  N   UNL d   1       0.459   0.550  -0.986  0.00  0.00    -0.309 N 
ATOM      3  N   UNL d   1       0.163  -0.539   1.055  0.00  0.00    -0.319 N 
ATOM      4  O   UNL d   1       2.204  -0.451   0.166  0.00  0.00    -0.247 OA
ATOM      5  H   UNL d   1      -0.450   0.943  -0.807  0.00  0.00     0.170 HD
ATOM      6  H   UNL d   1       0.669  -0.981   1.816  0.00  0.00     0.170 HD
ENDROOT
BRANCH   2   7
ATOM      7  C   UNL d   1       1.101   1.007  -2.156  0.00  0.00     0.037 A 
ATOM      8  C   UNL d   1       2.377   0.601  -2.551  0.00  0.00     0.053 A 
ATOM      9  C   UNL d   1       2.950   1.127  -3.711  0.00  0.00     0.036 A 
ATOM     10 CL   UNL d   1       4.529   0.631  -4.187  0.00  0.00    -0.084 Cl
ATOM     11  C   UNL d   1       2.258   2.052  -4.491  0.00  0.00     0.024 A 
ATOM     12  C   UNL d   1       0.976   2.445  -4.116  0.00  0.00     0.004 A 
ATOM     13  C   UNL d   1       0.399   1.919  -2.957  0.00  0.00     0.029 A 
ENDBRANCH   2   7
BRANCH   3  14
ATOM     14  C   UNL d   1      -1.204  -0.476   1.133  0.00  0.00     0.093 C 
ATOM     15  C   UNL d   1      -1.877  -0.864   2.228  0.00  0.00     0.029 C 
BRANCH  15  16
ATOM     16  C   UNL d   1      -3.303  -0.826   2.360  0.00  0.00    -0.028 A 
ATOM     17  C   UNL d   1      -3.925  -0.731   3.588  0.00  0.00     0.061 A 
ATOM     18  S   UNL d   1      -5.632  -0.685   3.451  0.00  0.00    -0.113 SA
ATOM     19  C   UNL d   1      -5.553  -0.818   1.748  0.00  0.00     0.050 A 
ATOM     20  C   UNL d   1      -4.254  -0.888   1.295  0.00  0.00     0.019 A 
ENDBRANCH  15  16
ENDBRANCH   3  14
TORSDOF 3
