REMARK  5 active torsions:
REMARK  status: ('A' for Active; 'I' for Inactive)
REMARK    1  A    between atoms: C_2  and  S_1 
REMARK    2  A    between atoms: C_5  and  S_1 
REMARK    3  A    between atoms: N_11  and  C_8 
REMARK    4  A    between atoms: C_19  and  N_11 
REMARK    5  A    between atoms: C_15  and  C_19 
ROOT
ATOM      1  C   UNL d   1       0.348   1.525  -0.866  0.00  0.00     0.154 C 
ATOM      2  C   UNL d   1      -0.466   1.396  -2.015  0.00  0.00     0.113 C 
ATOM      3  N   UNL d   1      -1.123   1.266  -2.962  0.00  0.00    -0.191 NA
ATOM      4  C   UNL d   1       0.719   2.707  -0.344  0.00  0.00     0.092 C 
ENDROOT
BRANCH   1   5
ATOM      5  S   UNL d   1       0.847   0.060  -0.088  0.00  0.00     0.217 S 
ATOM      6  O   UNL d   1      -0.307  -0.800   0.109  0.00  0.00    -0.216 OA
ATOM      7  O   UNL d   1       1.710   0.352   1.046  0.00  0.00    -0.216 OA
BRANCH   5   8
ATOM      8  C   UNL d   1       1.889  -0.751  -1.297  0.00  0.00     0.065 A 
ATOM      9  C   UNL d   1       3.272  -0.536  -1.271  0.00  0.00     0.025 A 
ATOM     10  C   UNL d   1       4.099  -1.261  -2.133  0.00  0.00     0.025 A 
ATOM     11  C   UNL d   1       3.546  -2.198  -3.006  0.00  0.00     0.034 A 
ATOM     12  C   UNL d   1       2.167  -2.415  -3.030  0.00  0.00     0.025 A 
ATOM     13 CL   UNL d   1       4.572  -3.111  -4.041  0.00  0.00    -0.084 Cl
ATOM     14  C   UNL d   1       1.333  -1.696  -2.169  0.00  0.00     0.025 A 
ENDBRANCH   5   8
ENDBRANCH   1   5
BRANCH   4  15
ATOM     15  N   UNL d   1       0.398   3.980  -0.788  0.00  0.00    -0.295 NA
ATOM     16  H   UNL d   1       1.142   4.665  -0.589  0.00  0.00     0.127 HD
BRANCH  15  17
ATOM     17  C   UNL d   1      -0.862   4.644  -0.396  0.00  0.00     0.148 C 
BRANCH  17  18
ATOM     18  C   UNL d   1      -0.717   6.158  -0.475  0.00  0.00     0.022 A 
ATOM     19  N   UNL d   1       0.521   6.661  -0.746  0.00  0.00    -0.368 N 
ATOM     20  C   UNL d   1       0.642   8.003  -0.836  0.00  0.00     0.088 A 
ATOM     21  HN  UNL d   1       1.326   6.047  -0.876  1.00  0.00     0.165 HD
ATOM     22  C   UNL d   1      -0.405   8.885  -0.634  0.00  0.00     0.017 A 
ATOM     23  C   UNL d   1      -1.654   8.361  -0.321  0.00  0.00     0.003 A 
ATOM     24  C   UNL d   1      -1.818   6.980  -0.241  0.00  0.00     0.026 A 
ENDBRANCH  17  18
ENDBRANCH  15  17
ENDBRANCH   4  15
TORSDOF 5
