REMARK  6 active torsions:
REMARK  status: ('A' for Active; 'I' for Inactive)
REMARK    1  A    between atoms: C_2  and  S_1 
REMARK    2  A    between atoms: N_6  and  S_1 
REMARK       I    between atoms: C_3  and  N_4 
REMARK    3  A    between atoms: O_7  and  C_3 
REMARK    4  A    between atoms: C_17  and  N_6 
REMARK    5  A    between atoms: C_15  and  O_7 
REMARK    6  A    between atoms: C_21  and  C_17 
ROOT
ATOM      1  N   UNL d   1       3.011   3.026   1.921  0.00  0.00    -0.215 NA
ATOM      2  H   UNL d   1       3.477   3.796   1.429  0.00  0.00     0.139 HD
ENDROOT
BRANCH   1   3
ATOM      3  S   UNL d   1       4.195   1.844   2.230  0.00  0.00     0.243 S 
ATOM      4  O   UNL d   1       5.396   2.517   2.669  0.00  0.00    -0.206 OA
ATOM      5  O   UNL d   1       3.565   0.826   3.045  0.00  0.00    -0.206 OA
BRANCH   3   6
ATOM      6  C   UNL d   1       4.509   1.129   0.638  0.00  0.00     0.102 A 
ATOM      7  C   UNL d   1       4.731   1.978  -0.447  0.00  0.00     0.065 A 
ATOM      8  N   UNL d   1       4.767   3.330  -0.332  0.00  0.00    -0.364 N 
ATOM      9  C   UNL d   1       4.893   1.359  -1.711  0.00  0.00    -0.008 A 
ATOM     10  C   UNL d   1       5.004   4.078  -1.431  0.00  0.00     0.088 A 
ATOM     11  HN  UNL d   1       4.616   3.775   0.574  1.00  0.00     0.165 HD
ATOM     12  C   UNL d   1       5.169   3.550  -2.693  0.00  0.00     0.018 A 
ATOM     13  C   UNL d   1       5.102   2.171  -2.832  0.00  0.00     0.015 A 
ATOM     14  C   UNL d   1       4.835  -0.040  -1.843  0.00  0.00     0.014 A 
ATOM     15  C   UNL d   1       4.624  -0.851  -0.736  0.00  0.00     0.003 A 
ATOM     16  C   UNL d   1       4.459  -0.268   0.514  0.00  0.00     0.027 A 
ENDBRANCH   3   6
ENDBRANCH   1   3
BRANCH   1  17
ATOM     17  C   UNL d   1       1.764   2.555   1.298  0.00  0.00     0.109 C 
BRANCH  17  18
ATOM     18  C   UNL d   1       0.624   3.565   1.501  0.00  0.00     0.002 C 
ATOM     19  C   UNL d   1      -0.703   2.948   1.029  0.00  0.00     0.026 C 
ATOM     20  C   UNL d   1      -0.769   2.850  -0.490  0.00  0.00     0.128 C 
ATOM     21  N   UNL d   1      -0.601   4.167  -1.088  0.00  0.00    -0.328 N 
ATOM     22  C   UNL d   1      -1.335   4.557  -2.204  0.00  0.00     0.363 C 
ATOM     23  C   UNL d   1       0.603   4.900  -0.719  0.00  0.00     0.128 C 
ATOM     24  O   UNL d   1      -1.082   5.537  -2.888  0.00  0.00    -0.238 OA
ATOM     25  C   UNL d   1       0.835   4.921   0.797  0.00  0.00     0.026 C 
BRANCH  22  26
ATOM     26  O   UNL d   1      -2.367   3.707  -2.432  0.00  0.00    -0.294 OA
BRANCH  26  27
ATOM     27  C   UNL d   1      -3.259   3.826  -3.568  0.00  0.00     0.061 C 
ATOM     28  C   UNL d   1      -2.494   3.672  -4.885  0.00  0.00     0.046 C 
ATOM     29  C   UNL d   1      -4.219   2.635  -3.407  0.00  0.00     0.046 C 
ATOM     30  C   UNL d   1      -4.066   5.124  -3.520  0.00  0.00     0.046 C 
ENDBRANCH  26  27
ENDBRANCH  22  26
ENDBRANCH  17  18
ENDBRANCH   1  17
TORSDOF 6
