REMARK  1 active torsions:
REMARK  status: ('A' for Active; 'I' for Inactive)
REMARK    1  A    between atoms: N_16  and  C_9 
ROOT
ATOM      1  N   UNL d   1       2.384   1.286  -0.002  0.00  0.00    -0.322 N 
ATOM      2  HN  UNL d   1       2.527   2.296  -0.005  1.00  0.00     0.169 HD
ATOM      3  N   UNL d   1      -2.391   1.281  -0.002  0.00  0.00    -0.322 N 
ATOM      4  HN  UNL d   1      -2.537   2.291  -0.003  1.00  0.00     0.169 HD
ATOM      5  C   UNL d   1      -1.164   0.657  -0.005  0.00  0.00     0.126 A 
ATOM      6  C   UNL d   1       1.158   0.660  -0.005  0.00  0.00     0.126 A 
ATOM      7  N   UNL d   1      -0.004   1.353  -0.006  0.00  0.00    -0.326 N 
ATOM      8  HN  UNL d   1      -0.005   2.373  -0.006  1.00  0.00     0.169 HD
ATOM      9  C   UNL d   1       3.337   0.391   0.004  0.00  0.00     0.144 A 
ATOM     10  C   UNL d   1      -3.343   0.384   0.002  0.00  0.00     0.144 A 
ATOM     11  S   UNL d   1       2.826  -1.248  -0.005  0.00  0.00    -0.051 SA
ATOM     12  S   UNL d   1      -2.828  -1.254  -0.004  0.00  0.00    -0.051 SA
ATOM     13  C   UNL d   1      -1.195  -0.736  -0.007  0.00  0.00     0.054 A 
ATOM     14  C   UNL d   1       1.192  -0.733  -0.007  0.00  0.00     0.054 A 
ATOM     15  C   UNL d   1      -0.001  -1.450  -0.008  0.00  0.00     0.045 A 
ATOM     16  N   UNL d   1      -4.641   0.703   0.011  0.00  0.00    -0.380 N 
ATOM     17  H   UNL d   1      -4.913   1.679  -0.004  0.00  0.00     0.158 HD
ATOM     18  H   UNL d   1      -5.376   0.011  -0.006  0.00  0.00     0.158 HD
ENDROOT
BRANCH   9  19
ATOM     19  N   UNL d   1       4.635   0.714   0.021  0.00  0.00    -0.380 N 
ATOM     20  H   UNL d   1       4.903   1.689  -0.018  0.00  0.00     0.158 HD
ATOM     21  H   UNL d   1       5.370   0.022  -0.024  0.00  0.00     0.158 HD
ENDBRANCH   9  19
TORSDOF 1
