REMARK  4 active torsions:
REMARK  status: ('A' for Active; 'I' for Inactive)
REMARK    1  A    between atoms: N_4  and  C_2 
REMARK    2  A    between atoms: N_13  and  C_10 
REMARK    3  A    between atoms: C_21  and  N_13 
REMARK    4  A    between atoms: C_15  and  C_21 
ROOT
ATOM      1  C   UNL d   1       0.143  -0.740  -0.005  0.00  0.00     0.120 A 
ATOM      2  C   UNL d   1      -1.052  -1.482   0.020  0.00  0.00     0.134 A 
ATOM      3  C   UNL d   1       0.108   0.725  -0.040  0.00  0.00     0.114 A 
ATOM      4  N   UNL d   1       1.433  -1.107  -0.004  0.00  0.00    -0.237 N 
ATOM      5  HN  UNL d   1       1.794  -2.061   0.019  1.00  0.00     0.197 HD
ATOM      6  C   UNL d   1      -2.252  -0.741   0.017  0.00  0.00     0.041 A 
ATOM      7  N   UNL d   1       1.371   1.177  -0.058  0.00  0.00    -0.237 N 
ATOM      8  HN  UNL d   1       1.676   2.150  -0.080  1.00  0.00     0.197 HD
ATOM      9  C   UNL d   1      -1.100   1.482  -0.048  0.00  0.00     0.059 A 
ATOM     10  O   UNL d   1       2.175   0.054  -0.039  0.00  0.00    -0.156 OA
ATOM     11  C   UNL d   1      -2.263   0.677  -0.020  0.00  0.00     0.034 A 
ENDROOT
BRANCH   9  12
ATOM     12  N   UNL d   1      -1.131   2.873  -0.144  0.00  0.00    -0.382 N 
ATOM     13  H   UNL d   1      -0.201   3.287  -0.083  0.00  0.00     0.160 HD
BRANCH  12  14
ATOM     14  C   UNL d   1      -2.160   3.617   0.579  0.00  0.00     0.184 C 
BRANCH  14  15
ATOM     15  C   UNL d   1      -2.004   5.099   0.525  0.00  0.00     0.070 A 
ATOM     16  O   UNL d   1      -2.996   5.796  -0.104  0.00  0.00    -0.325 OA
ATOM     17  C   UNL d   1      -2.677   7.112  -0.017  0.00  0.00     0.142 A 
ATOM     18  C   UNL d   1      -1.494   7.275   0.665  0.00  0.00     0.027 A 
ATOM     19  C   UNL d   1      -1.056   5.974   1.016  0.00  0.00     0.036 A 
ENDBRANCH  14  15
ENDBRANCH  12  14
ENDBRANCH   9  12
BRANCH   2  20
ATOM     20  N   UNL d   1      -1.058  -2.931   0.028  0.00  0.00    -0.113 N 
ATOM     21  O   UNL d   1       0.018  -3.538   0.032  0.00  0.00    -0.532 OA
ATOM     22  O   UNL d   1      -2.169  -3.483   0.029  0.00  0.00    -0.532 OA
ENDBRANCH   2  20
TORSDOF 4
