REMARK  4 active torsions:
REMARK  status: ('A' for Active; 'I' for Inactive)
REMARK    1  A    between atoms: C_3  and  C_1 
REMARK    2  A    between atoms: C_2  and  C_4 
REMARK       I    between atoms: N_7  and  C_3 
REMARK    3  A    between atoms: N_9  and  N_7 
REMARK    4  A    between atoms: C_11  and  N_9 
ROOT
ATOM      1  N   UNL d   1       2.433   3.052  -0.012  0.00  0.00    -0.202 NA
ATOM      2  H   UNL d   1       1.826   3.050   0.824  0.00  0.00     0.153 HD
ENDROOT
BRANCH   1   3
ATOM      3  N   UNL d   1       2.912   1.749  -0.261  0.00  0.00    -0.282 N 
ATOM      4  C   UNL d   1       2.492   0.716   0.573  0.00  0.00     0.274 C 
ATOM      5  O   UNL d   1       1.817   0.961   1.573  0.00  0.00    -0.266 OA
ATOM      6  H   UNL d   1       3.215   1.543  -1.206  0.00  0.00     0.184 HD
BRANCH   4   7
ATOM      7  C   UNL d   1       2.899  -0.623   0.162  0.00  0.00     0.095 A 
ATOM      8  C   UNL d   1       2.469  -1.845   0.647  0.00  0.00     0.057 A 
ATOM      9  C   UNL d   1       3.132  -2.947   0.028  0.00  0.00     0.032 A 
ATOM     10 CL   UNL d   1       1.274  -2.112   1.846  0.00  0.00    -0.083 Cl
ATOM     11  C   UNL d   1       4.049  -2.542  -0.913  0.00  0.00     0.052 A 
ATOM     12  S   UNL d   1       4.096  -0.843  -1.061  0.00  0.00    -0.095 SA
ENDBRANCH   4   7
ENDBRANCH   1   3
BRANCH   1  13
ATOM     13  C   UNL d   1       3.460   4.035   0.059  0.00  0.00     0.042 A 
ATOM     14  C   UNL d   1       3.320   5.191   0.854  0.00  0.00     0.070 A 
ATOM     15  C   UNL d   1       4.322   6.190   0.819  0.00  0.00     0.018 A 
ATOM     16  C   UNL d   1       5.435   6.069  -0.008  0.00  0.00     0.001 A 
ATOM     17  C   UNL d   1       5.560   4.954  -0.821  0.00  0.00     0.002 A 
ATOM     18  C   UNL d   1       4.580   3.959  -0.796  0.00  0.00     0.026 A 
BRANCH  14  19
ATOM     19  C   UNL d   1       2.148   5.436   1.771  0.00  0.00     0.419 C 
ATOM     20  F   UNL d   1       1.229   4.431   1.799  0.00  0.00    -0.166 F 
ATOM     21  F   UNL d   1       2.534   5.615   3.066  0.00  0.00    -0.166 F 
ATOM     22  F   UNL d   1       1.456   6.562   1.438  0.00  0.00    -0.166 F 
ENDBRANCH  14  19
ENDBRANCH   1  13
TORSDOF 4
