REMARK  6 active torsions:
REMARK  status: ('A' for Active; 'I' for Inactive)
REMARK    1  A    between atoms: N_7  and  C_1 
REMARK    2  A    between atoms: C_8  and  C_2 
REMARK    3  A    between atoms: C_9  and  C_3 
REMARK    4  A    between atoms: O_16  and  C_5 
REMARK       I    between atoms: C_10  and  N_7 
REMARK    5  A    between atoms: C_14  and  C_17 
REMARK    6  A    between atoms: C_17  and  O_16 
ROOT
ATOM      1  C   UNL d   1       1.407  -0.338   0.174  0.00  0.00     0.051 A 
ATOM      2  C   UNL d   1       0.534  -1.421   0.020  0.00  0.00     0.037 A 
ATOM      3  C   UNL d   1      -1.366   0.133  -0.176  0.00  0.00     0.044 A 
ATOM      4  C   UNL d   1      -0.836  -1.176  -0.142  0.00  0.00     0.035 A 
ATOM      5  C   UNL d   1      -0.481   1.225  -0.083  0.00  0.00     0.085 A 
ATOM      6  C   UNL d   1       0.892   0.964   0.095  0.00  0.00     0.068 A 
ENDROOT
BRANCH   1   7
ATOM      7  N   UNL d   1       2.795  -0.442   0.403  0.00  0.00    -0.327 N 
ATOM      8  C   UNL d   1       3.359  -1.358   1.272  0.00  0.00     0.218 C 
ATOM      9  O   UNL d   1       2.729  -2.094   2.029  0.00  0.00    -0.274 OA
ATOM     10  C   UNL d   1       4.864  -1.329   1.252  0.00  0.00     0.117 C 
ATOM     11  H   UNL d   1       3.373   0.352   0.159  0.00  0.00     0.169 HD
ENDBRANCH   1   7
BRANCH   2  12
ATOM     12  C   UNL d   1       1.023  -2.815  -0.184  0.00  0.00     0.158 C 
ATOM     13  O   UNL d   1       2.013  -3.015  -0.886  0.00  0.00    -0.293 OA
ATOM     14  C   UNL d   1       0.216  -3.953   0.388  0.00  0.00     0.097 C 
ENDBRANCH   2  12
BRANCH   5  15
ATOM     15  O   UNL d   1      -0.977   2.502  -0.159  0.00  0.00    -0.346 OA
BRANCH  15  16
ATOM     16  C   UNL d   1      -0.024   3.564  -0.280  0.00  0.00     0.202 C 
BRANCH  16  17
ATOM     17  C   UNL d   1      -0.675   4.890  -0.545  0.00  0.00    -0.011 C 
ATOM     18  C   UNL d   1      -1.972   5.198  -0.431  0.00  0.00     0.009 C 
ENDBRANCH  16  17
ENDBRANCH  15  16
ENDBRANCH   5  15
BRANCH   3  19
ATOM     19  C   UNL d   1      -2.859   0.200  -0.349  0.00  0.00     0.158 C 
ATOM     20  O   UNL d   1      -3.487  -0.856  -0.475  0.00  0.00    -0.293 OA
ATOM     21  C   UNL d   1      -3.609   1.499  -0.406  0.00  0.00     0.097 C 
ENDBRANCH   3  19
TORSDOF 6
