REMARK  8 active torsions:
REMARK  status: ('A' for Active; 'I' for Inactive)
REMARK    1  A    between atoms: C_3  and  N_1 
REMARK    2  A    between atoms: C_6  and  C_2 
REMARK    3  A    between atoms: N_4  and  C_6 
REMARK    4  A    between atoms: C_5  and  C_8 
REMARK    5  A    between atoms: O_20  and  C_5 
REMARK    6  A    between atoms: C_7  and  C_11 
REMARK    7  A    between atoms: O_21  and  C_13 
REMARK    8  A    between atoms: C_26  and  O_20 
ROOT
ATOM      1  C   UNL d   1       3.532  -0.646   0.289  0.00  0.00    -0.009 A 
ATOM      2  C   UNL d   1       2.398   0.038   0.824  0.00  0.00     0.018 A 
ATOM      3  C   UNL d   1       4.784  -0.574   0.980  0.00  0.00     0.011 A 
ATOM      4  C   UNL d   1       2.663   0.783   2.017  0.00  0.00     0.024 A 
ATOM      5  C   UNL d   1       4.959   0.117   2.171  0.00  0.00     0.001 A 
ATOM      6  C   UNL d   1       3.891   0.809   2.686  0.00  0.00     0.002 A 
ENDROOT
BRANCH   1   7
ATOM      7  C   UNL d   1       3.623  -1.516  -0.957  0.00  0.00     0.312 C 
BRANCH   7   8
ATOM      8  N   UNL d   1       4.026  -0.856  -2.224  0.00  0.00     0.092 N 
ATOM      9  C   UNL d   1       3.019   0.104  -2.679  0.00  0.00     0.273 C 
ATOM     10  C   UNL d   1       2.745   0.217  -4.180  0.00  0.00     0.040 C 
ATOM     11  C   UNL d   1       2.711  -1.145  -4.899  0.00  0.00     0.025 C 
ATOM     12  C   UNL d   1       4.113  -1.713  -4.647  0.00  0.00     0.040 C 
ATOM     13  C   UNL d   1       4.446  -1.897  -3.172  0.00  0.00     0.273 C 
BRANCH  11  14
ATOM     14  C   UNL d   1       1.451  -1.979  -4.667  0.00  0.00    -0.021 A 
ATOM     15  C   UNL d   1       1.387  -3.374  -4.483  0.00  0.00     0.074 A 
ATOM     16  C   UNL d   1       0.163  -4.048  -4.314  0.00  0.00     0.037 A 
ATOM     17  C   UNL d   1      -1.044  -3.365  -4.396  0.00  0.00     0.003 A 
ATOM     18  C   UNL d   1      -1.025  -2.000  -4.642  0.00  0.00     0.001 A 
ATOM     19  C   UNL d   1       0.195  -1.326  -4.776  0.00  0.00     0.010 A 
BRANCH  15  20
ATOM     20  O   UNL d   1       2.523  -4.139  -4.431  0.00  0.00    -0.355 OA
ATOM     21  C   UNL d   1       2.736  -4.833  -5.663  0.00  0.00     0.210 C 
ENDBRANCH  15  20
ENDBRANCH  11  14
ENDBRANCH   7   8
ENDBRANCH   1   7
BRANCH   2  22
ATOM     22  N   UNL d   1       1.057   0.058   0.267  0.00  0.00    -0.283 NA
ATOM     23  C   UNL d   1       0.539  -1.248  -0.160  0.00  0.00     0.096 C 
ATOM     24  C   UNL d   1      -0.934  -1.324  -0.564  0.00  0.00     0.029 C 
ATOM     25  C   UNL d   1      -1.890  -0.200  -0.189  0.00  0.00     0.088 C 
ATOM     26  C   UNL d   1      -1.273   1.011   0.484  0.00  0.00     0.029 C 
ATOM     27  C   UNL d   1       0.114   0.865   1.054  0.00  0.00     0.096 C 
BRANCH  25  28
ATOM     28  C   UNL d   1      -2.699   0.324  -1.378  0.00  0.00     0.263 C 
ATOM     29  O   UNL d   1      -2.492   0.100  -2.554  0.00  0.00    -0.265 OA
BRANCH  28  30
ATOM     30  O   UNL d   1      -3.686   1.145  -0.901  0.00  0.00    -0.322 OA
BRANCH  30  31
ATOM     31  C   UNL d   1      -4.404   1.920  -1.871  0.00  0.00     0.174 C 
ATOM     32  C   UNL d   1      -3.586   3.132  -2.282  0.00  0.00     0.034 C 
ENDBRANCH  30  31
ENDBRANCH  28  30
ENDBRANCH  25  28
ENDBRANCH   2  22
TORSDOF 8
