REMARK  2 active torsions:
REMARK  status: ('A' for Active; 'I' for Inactive)
REMARK    1  A    between atoms: C_4  and  N_1 
REMARK    2  A    between atoms: C_2  and  C_5 
ROOT
ATOM      1  C   UNL d   1      -1.005   2.348   0.136  0.00  0.00     0.037 A 
ATOM      2  C   UNL d   1      -2.477   4.756   0.371  0.00  0.00     0.048 A 
ATOM      3  C   UNL d   1      -0.578   3.367   0.997  0.00  0.00     0.030 A 
ATOM      4  C   UNL d   1      -2.164   2.558  -0.621  0.00  0.00     0.030 A 
ATOM      5  C   UNL d   1      -2.887   3.752  -0.516  0.00  0.00     0.018 A 
ATOM      6  C   UNL d   1      -1.316   4.549   1.129  0.00  0.00     0.018 A 
ENDROOT
BRANCH   1   7
ATOM      7  N   UNL d   1      -0.274   1.120   0.023  0.00  0.00    -0.318 N 
ATOM      8  C   UNL d   1      -0.963  -0.100   0.036  0.00  0.00     0.224 C 
ATOM      9  O   UNL d   1      -2.188  -0.206   0.108  0.00  0.00    -0.273 OA
ATOM     10  C   UNL d   1      -0.143  -1.372  -0.107  0.00  0.00     0.103 C 
ATOM     11  C   UNL d   1       1.321  -1.256   0.265  0.00  0.00     0.011 C 
ATOM     12  C   UNL d   1       1.903  -0.021  -0.388  0.00  0.00     0.021 C 
ATOM     13  C   UNL d   1       1.182   1.192   0.175  0.00  0.00     0.132 C 
ENDBRANCH   1   7
BRANCH   2  14
ATOM     14  C   UNL d   1      -3.270   6.029   0.537  0.00  0.00     0.417 C 
ATOM     15  F   UNL d   1      -4.318   6.139  -0.326  0.00  0.00    -0.166 F 
ATOM     16  F   UNL d   1      -3.799   6.152   1.785  0.00  0.00    -0.166 F 
ATOM     17  F   UNL d   1      -2.510   7.143   0.343  0.00  0.00    -0.166 F 
ENDBRANCH   2  14
TORSDOF 2
