REMARK  6 active torsions:
REMARK  status: ('A' for Active; 'I' for Inactive)
REMARK    1  A    between atoms: S_4  and  C_1 
REMARK    2  A    between atoms: C_3  and  C_2 
REMARK       I    between atoms: N_5  and  C_3 
REMARK    3  A    between atoms: C_12  and  S_4 
REMARK    4  A    between atoms: C_11  and  N_5 
REMARK    5  A    between atoms: C_8  and  C_11 
REMARK    6  A    between atoms: O_13  and  C_8 
ROOT
ATOM      1  C   UNL d   1      -0.425   1.262  -0.875  0.00  0.00     0.090 A 
ATOM      2  C   UNL d   1       0.456   1.298   0.210  0.00  0.00     0.065 A 
ATOM      3  N   UNL d   1      -0.810   0.088  -1.444  0.00  0.00    -0.359 N 
ATOM      4  HN  UNL d   1      -1.483   0.071  -2.210  1.00  0.00     0.166 HD
ATOM      5  C   UNL d   1       1.025   0.099   0.657  0.00  0.00     0.021 A 
ATOM      6  C   UNL d   1      -0.274  -1.057  -0.963  0.00  0.00     0.089 A 
ATOM      7  C   UNL d   1       0.650  -1.101   0.065  0.00  0.00     0.018 A 
ENDROOT
BRANCH   2   8
ATOM      8  C   UNL d   1       0.833   2.534   0.933  0.00  0.00     0.254 C 
ATOM      9  N   UNL d   1      -0.207   3.329   1.357  0.00  0.00    -0.347 N 
ATOM     10  H   UNL d   1      -1.164   3.048   1.177  0.00  0.00     0.163 HD
ATOM     11  O   UNL d   1       2.012   2.761   1.169  0.00  0.00    -0.268 OA
BRANCH   9  12
ATOM     12  C   UNL d   1       0.005   4.617   2.001  0.00  0.00     0.233 C 
BRANCH  12  13
ATOM     13  C   UNL d   1      -0.682   4.803   3.351  0.00  0.00     0.276 C 
ATOM     14  O   UNL d   1      -0.550   5.815   4.034  0.00  0.00    -0.263 OA
BRANCH  13  15
ATOM     15  O   UNL d   1      -1.485   3.751   3.676  0.00  0.00    -0.325 OA
ATOM     16  C   UNL d   1      -2.148   3.879   4.938  0.00  0.00     0.213 C 
ENDBRANCH  13  15
ENDBRANCH  12  13
ENDBRANCH   9  12
ENDBRANCH   2   8
BRANCH   1  17
ATOM     17  S   UNL d   1      -1.165   2.732  -1.563  0.00  0.00    -0.072 SA
BRANCH  17  18
ATOM     18  C   UNL d   1      -0.945   2.647  -3.333  0.00  0.00     0.007 A 
ATOM     19  C   UNL d   1      -1.740   3.509  -4.104  0.00  0.00     0.019 A 
ATOM     20  C   UNL d   1      -1.626   3.545  -5.496  0.00  0.00     0.001 A 
ATOM     21  C   UNL d   1      -0.713   2.716  -6.138  0.00  0.00     0.000 A 
ATOM     22  C   UNL d   1       0.093   1.860  -5.385  0.00  0.00     0.001 A 
ATOM     23  C   UNL d   1      -0.018   1.832  -3.990  0.00  0.00     0.019 A 
ENDBRANCH  17  18
ENDBRANCH   1  17
TORSDOF 6
