REMARK  5 active torsions:
REMARK  status: ('A' for Active; 'I' for Inactive)
REMARK    1  A    between atoms: N_3  and  C_1 
REMARK    2  A    between atoms: C_8  and  C_5 
REMARK    3  A    between atoms: C_17  and  N_11 
REMARK    4  A    between atoms: O_16  and  C_14 
REMARK    5  A    between atoms: C_20  and  O_16 
ROOT
ATOM      1  N   UNL d   1       3.451   5.876  -0.829  0.00  0.00    -0.344 N 
ATOM      2  HN  UNL d   1       4.181   6.155  -1.485  1.00  0.00     0.167 HD
ATOM      3  C   UNL d   1       2.893   6.756   0.031  0.00  0.00     0.148 A 
ATOM      4  C   UNL d   1       1.973   4.164   0.066  0.00  0.00     0.047 A 
ATOM      5  C   UNL d   1       2.990   4.607  -0.775  0.00  0.00     0.119 A 
ATOM      6  C   UNL d   1       1.848   6.436   0.884  0.00  0.00     0.059 A 
ATOM      7  C   UNL d   1       1.394   5.116   0.908  0.00  0.00     0.035 A 
ENDROOT
BRANCH   4   8
ATOM      8  N   UNL d   1       1.659   2.797   0.087  0.00  0.00    -0.361 N 
ATOM      9  C   UNL d   1       0.422   2.432   0.178  0.00  0.00     0.137 C 
ATOM     10  HN  UNL d   1       2.400   2.098   0.031  1.00  0.00     0.165 HD
BRANCH   9  11
ATOM     11  C   UNL d   1       0.047   1.037   0.194  0.00  0.00     0.124 A 
ATOM     12  N   UNL d   1       0.856  -0.084   0.028  0.00  0.00    -0.317 N 
ATOM     13  C   UNL d   1       0.029  -1.175   0.133  0.00  0.00     0.192 A 
ATOM     14  C   UNL d   1       2.276  -0.005  -0.223  0.00  0.00     0.159 C 
ATOM     15  C   UNL d   1      -1.233  -0.681   0.353  0.00  0.00     0.144 A 
ATOM     16  N   UNL d   1      -1.213   0.686   0.386  0.00  0.00    -0.347 N 
ATOM     17  HN  UNL d   1      -2.008   1.309   0.529  1.00  0.00     0.167 HD
BRANCH  13  18
ATOM     18  N   UNL d   1       0.393  -2.550   0.036  0.00  0.00    -0.096 N 
ATOM     19  O   UNL d   1       1.577  -2.836  -0.151  0.00  0.00    -0.530 OA
ATOM     20  O   UNL d   1      -0.530  -3.366   0.150  0.00  0.00    -0.530 OA
ENDBRANCH  13  18
ENDBRANCH   9  11
ENDBRANCH   4   8
BRANCH   3  21
ATOM     21  O   UNL d   1       3.386   8.051   0.089  0.00  0.00    -0.294 OA
BRANCH  21  22
ATOM     22  C   UNL d   1       4.744   8.221  -0.083  0.00  0.00     0.078 A 
ATOM     23  C   UNL d   1       5.149   9.412  -0.693  0.00  0.00     0.040 A 
ATOM     24  C   UNL d   1       6.509   9.675  -0.874  0.00  0.00     0.045 A 
ATOM     25  C   UNL d   1       7.453   8.751  -0.436  0.00  0.00     0.116 A 
ATOM     26  C   UNL d   1       7.064   7.573   0.188  0.00  0.00     0.045 A 
ATOM     27  F   UNL d   1       8.755   9.005  -0.610  0.00  0.00    -0.206 F 
ATOM     28  C   UNL d   1       5.707   7.315   0.381  0.00  0.00     0.040 A 
ENDBRANCH  21  22
ENDBRANCH   3  21
TORSDOF 5
