REMARK  4 active torsions:
REMARK  status: ('A' for Active; 'I' for Inactive)
REMARK    1  A    between atoms: C_8  and  C_1 
REMARK    2  A    between atoms: C_7  and  C_3 
REMARK    3  A    between atoms: O_14  and  C_8 
REMARK    4  A    between atoms: C_16  and  O_14 
ROOT
ATOM      1  C   UNL d   1      -0.154  -1.131   0.028  0.00  0.00     0.104 A 
ATOM      2  S   UNL d   1       1.411  -0.426   0.072  0.00  0.00    -0.063 SA
ATOM      3  C   UNL d   1       0.721   1.143   0.082  0.00  0.00     0.092 A 
ATOM      4  N   UNL d   1      -0.597   1.162   0.110  0.00  0.00    -0.352 N 
ATOM      5  HN  UNL d   1      -1.162   2.010   0.152  1.00  0.00     0.166 HD
ATOM      6  C   UNL d   1      -1.111  -0.127   0.073  0.00  0.00     0.029 A 
ATOM      7  C   UNL d   1      -2.593  -0.270   0.050  0.00  0.00     0.070 C 
ENDROOT
BRANCH   1   8
ATOM      8  C   UNL d   1      -0.268  -2.568  -0.093  0.00  0.00     0.302 C 
ATOM      9  O   UNL d   1       0.660  -3.359  -0.199  0.00  0.00    -0.259 OA
BRANCH   8  10
ATOM     10  O   UNL d   1      -1.583  -2.928  -0.152  0.00  0.00    -0.317 OA
BRANCH  10  11
ATOM     11  C   UNL d   1      -1.847  -4.254  -0.630  0.00  0.00     0.174 C 
ATOM     12  C   UNL d   1      -1.961  -4.200  -2.143  0.00  0.00     0.034 C 
ENDBRANCH  10  11
ENDBRANCH   8  10
ENDBRANCH   1   8
BRANCH   3  13
ATOM     13  C   UNL d   1       1.487   2.369   0.046  0.00  0.00     0.038 A 
ATOM     14  S   UNL d   1       3.202   2.423  -0.044  0.00  0.00    -0.099 SA
ATOM     15  C   UNL d   1       3.227   4.130  -0.065  0.00  0.00     0.050 A 
ATOM     16  C   UNL d   1       1.960   4.663  -0.004  0.00  0.00     0.008 A 
ATOM     17  C   UNL d   1       0.961   3.651   0.059  0.00  0.00     0.022 A 
ENDBRANCH   3  13
TORSDOF 4
