REMARK  2 active torsions:
REMARK  status: ('A' for Active; 'I' for Inactive)
REMARK    1  A    between atoms: C_2  and  C_1 
REMARK       I    between atoms: N_4  and  C_2 
REMARK    2  A    between atoms: S_8  and  C_3 
ROOT
ATOM      1  C   UNL d   1       0.692   1.228  -0.436  0.00  0.00     0.065 A 
ATOM      2  C   UNL d   1      -0.677   1.370  -0.224  0.00  0.00     0.085 A 
ATOM      3  N   UNL d   1      -1.509   0.294  -0.231  0.00  0.00    -0.360 N 
ATOM      4  HN  UNL d   1      -2.509   0.404  -0.065  1.00  0.00     0.166 HD
ATOM      5  C   UNL d   1       1.222  -0.046  -0.680  0.00  0.00     0.021 A 
ATOM      6  C   UNL d   1      -0.973  -0.925  -0.466  0.00  0.00     0.089 A 
ATOM      7  C   UNL d   1       0.375  -1.145  -0.687  0.00  0.00     0.018 A 
ENDROOT
BRANCH   1   8
ATOM      8  C   UNL d   1       1.617   2.366  -0.468  0.00  0.00     0.255 C 
ATOM      9  N   UNL d   1       2.434   2.600   0.636  0.00  0.00    -0.357 N 
ATOM     10  C   UNL d   1       3.335   3.739   0.588  0.00  0.00     0.152 C 
ATOM     11  C   UNL d   1       2.260   1.975   1.941  0.00  0.00     0.152 C 
ATOM     12  O   UNL d   1       1.667   3.012  -1.510  0.00  0.00    -0.267 OA
ENDBRANCH   1   8
BRANCH   2  13
ATOM     13  S   UNL d   1      -1.490   2.901   0.190  0.00  0.00    -0.116 SA
ATOM     14  C   UNL d   1      -1.315   3.796  -1.376  0.00  0.00     0.097 C 
ENDBRANCH   2  13
TORSDOF 2
