REMARK  5 active torsions:
REMARK  status: ('A' for Active; 'I' for Inactive)
REMARK    1  A    between atoms: C_2  and  N_1 
REMARK    2  A    between atoms: C_4  and  C_5 
REMARK    3  A    between atoms: O_11  and  C_6 
REMARK    4  A    between atoms: C_14  and  O_11 
REMARK    5  A    between atoms: C_16  and  C_14 
ROOT
ATOM      1  C   UNL d   1       0.308   0.547  -1.209  0.00  0.00     0.136 A 
ATOM      2  C   UNL d   1       0.641   0.072  -2.489  0.00  0.00     0.048 A 
ATOM      3  C   UNL d   1      -0.079   0.513  -3.612  0.00  0.00    -0.032 A 
ATOM      4  C   UNL d   1      -0.704   1.490  -1.009  0.00  0.00     0.102 A 
ATOM      5  C   UNL d   1      -1.144   1.406  -3.403  0.00  0.00     0.012 A 
ATOM      6  C   UNL d   1      -1.456   1.879  -2.123  0.00  0.00     0.040 A 
ENDROOT
BRANCH   4   7
ATOM      7  O   UNL d   1      -0.892   1.999   0.250  0.00  0.00    -0.344 OA
BRANCH   7   8
ATOM      8  C   UNL d   1      -1.589   3.247   0.318  0.00  0.00     0.214 C 
BRANCH   8   9
ATOM      9  C   UNL d   1      -1.367   3.943   1.641  0.00  0.00    -0.034 A 
ATOM     10  C   UNL d   1      -1.292   5.347   1.669  0.00  0.00     0.012 A 
ATOM     11  C   UNL d   1      -1.153   6.027   2.878  0.00  0.00     0.043 A 
ATOM     12  C   UNL d   1      -1.098   5.306   4.063  0.00  0.00     0.116 A 
ATOM     13  C   UNL d   1      -1.176   3.918   4.061  0.00  0.00     0.043 A 
ATOM     14  F   UNL d   1      -0.973   5.959   5.226  0.00  0.00    -0.206 F 
ATOM     15  C   UNL d   1      -1.315   3.235   2.849  0.00  0.00     0.012 A 
ENDBRANCH   8   9
ENDBRANCH   7   8
ENDBRANCH   4   7
BRANCH   1  16
ATOM     16  N   UNL d   1       1.058   0.028  -0.081  0.00  0.00    -0.113 N 
ATOM     17  O   UNL d   1       2.291   0.142  -0.126  0.00  0.00    -0.532 OA
ATOM     18  O   UNL d   1       0.422  -0.554   0.809  0.00  0.00    -0.532 OA
ENDBRANCH   1  16
BRANCH   3  19
ATOM     19  C   UNL d   1       0.254   0.064  -5.022  0.00  0.00     0.141 C 
ATOM     20  S   UNL d   1       0.103  -1.739  -5.221  0.00  0.00    -0.148 SA
ATOM     21  C   UNL d   1       1.598  -1.964  -6.216  0.00  0.00     0.085 C 
ATOM     22  C   UNL d   1       2.655  -1.017  -5.685  0.00  0.00     0.085 C 
ATOM     23  S   UNL d   1       1.905   0.625  -5.546  0.00  0.00    -0.148 SA
ENDBRANCH   3  19
TORSDOF 5
