REMARK  2 active torsions:
REMARK  status: ('A' for Active; 'I' for Inactive)
REMARK    1  A    between atoms: C_14  and  N_1 
REMARK    2  A    between atoms: C_8  and  C_14 
ROOT
ATOM      1  C   UNL d   1       2.636  -4.130   1.018  0.00  0.00     0.181 A 
ATOM      2  C   UNL d   1       0.921  -3.277   0.067  0.00  0.00     0.160 A 
ATOM      3  N   UNL d   1       2.787  -4.300  -0.285  0.00  0.00    -0.277 N 
ATOM      4  HN  UNL d   1       3.575  -4.750  -0.749  1.00  0.00     0.189 HD
ATOM      5  O   UNL d   1       1.444  -3.507   1.309  0.00  0.00    -0.275 OA
ATOM      6  N   UNL d   1       1.676  -3.753  -0.899  0.00  0.00    -0.280 N 
ATOM      7  HN  UNL d   1       1.482  -3.725  -1.900  1.00  0.00     0.189 HD
ATOM      8  C   UNL d   1       3.596  -4.530   2.006  0.00  0.00     0.057 A 
ATOM      9  S   UNL d   1       3.296  -4.314   3.681  0.00  0.00    -0.098 SA
ATOM     10  C   UNL d   1       4.837  -5.101   1.790  0.00  0.00     0.024 A 
ATOM     11  C   UNL d   1       4.812  -4.975   4.110  0.00  0.00     0.050 A 
ATOM     12  C   UNL d   1       5.540  -5.356   3.005  0.00  0.00     0.009 A 
ENDROOT
BRANCH   2  13
ATOM     13  C   UNL d   1      -0.373  -2.572  -0.004  0.00  0.00     0.234 C 
BRANCH  13  14
ATOM     14  N   UNL d   1      -0.154  -1.133  -0.038  0.00  0.00    -0.288 N 
ATOM     15  N   UNL d   1      -0.154  -0.457   1.136  0.00  0.00    -0.301 N 
ATOM     16  C   UNL d   1       0.053   0.820   0.789  0.00  0.00     0.041 A 
ATOM     17  HN  UNL d   1      -0.282  -0.836   2.074  1.00  0.00     0.187 HD
ATOM     18  C   UNL d   1       0.145   1.872   1.831  0.00  0.00     0.071 C 
ATOM     19  C   UNL d   1       0.147   0.949  -0.608  0.00  0.00     0.058 A 
ATOM     20  C   UNL d   1       0.008  -0.314  -1.133  0.00  0.00     0.044 A 
ATOM     21 BR   UNL d   1       0.409   2.554  -1.538  0.00  0.00    -0.047 Br
ATOM     22  C   UNL d   1       0.034  -0.771  -2.546  0.00  0.00     0.071 C 
ENDBRANCH  13  14
ENDBRANCH   2  13
TORSDOF 2
