REMARK  5 active torsions:
REMARK  status: ('A' for Active; 'I' for Inactive)
REMARK    1  A    between atoms: C_4  and  S_1 
REMARK    2  A    between atoms: C_9  and  S_1 
REMARK    3  A    between atoms: N_2  and  C_8 
REMARK    4  A    between atoms: C_3  and  C_5 
REMARK    5  A    between atoms: C_22  and  C_9 
ROOT
ATOM      1  S   UNL d   1       0.879   0.037  -0.002  0.00  0.00     0.195 S 
ATOM      2  O   UNL d   1       2.297   0.056   0.317  0.00  0.00    -0.221 OA
ATOM      3  O   UNL d   1       0.360   0.767  -1.147  0.00  0.00    -0.221 OA
ENDROOT
BRANCH   1   4
ATOM      4  C   UNL d   1       0.040   0.715   1.417  0.00  0.00     0.128 A 
ATOM      5  N   UNL d   1      -0.734  -0.156   2.115  0.00  0.00    -0.356 N 
ATOM      6  C   UNL d   1      -1.445   0.381   3.136  0.00  0.00     0.105 A 
ATOM      7  HN  UNL d   1      -0.777  -1.149   1.885  1.00  0.00     0.166 HD
ATOM      8  C   UNL d   1      -1.424   1.730   3.479  0.00  0.00     0.063 A 
ATOM      9  C   UNL d   1      -0.596   2.582   2.736  0.00  0.00     0.020 A 
ATOM     10  C   UNL d   1       0.153   2.071   1.681  0.00  0.00     0.042 A 
BRANCH   8  11
ATOM     11  C   UNL d   1      -2.282   2.256   4.592  0.00  0.00     0.418 C 
ATOM     12  F   UNL d   1      -3.028   1.295   5.202  0.00  0.00    -0.166 F 
ATOM     13  F   UNL d   1      -1.554   2.848   5.576  0.00  0.00    -0.166 F 
ATOM     14  F   UNL d   1      -3.166   3.196   4.161  0.00  0.00    -0.166 F 
ENDBRANCH   8  11
ENDBRANCH   1   4
BRANCH   1  15
ATOM     15  C   UNL d   1       0.330  -1.666  -0.099  0.00  0.00     0.185 C 
BRANCH  15  16
ATOM     16  C   UNL d   1       0.879  -2.275  -1.370  0.00  0.00    -0.044 A 
ATOM     17  C   UNL d   1       2.119  -2.934  -1.372  0.00  0.00     0.010 A 
ATOM     18  C   UNL d   1       2.657  -3.431  -2.563  0.00  0.00     0.036 A 
ATOM     19  C   UNL d   1       1.953  -3.268  -3.763  0.00  0.00     0.102 A 
ATOM     20  C   UNL d   1       0.707  -2.631  -3.773  0.00  0.00     0.036 A 
ATOM     21  C   UNL d   1       0.176  -2.140  -2.578  0.00  0.00     0.010 A 
BRANCH  19  22
ATOM     22  N   UNL d   1       2.531  -3.751  -5.022  0.00  0.00    -0.116 N 
ATOM     23  O   UNL d   1       1.881  -3.576  -6.062  0.00  0.00    -0.532 OA
ATOM     24  O   UNL d   1       3.639  -4.308  -4.972  0.00  0.00    -0.532 OA
ENDBRANCH  19  22
ENDBRANCH  15  16
ENDBRANCH   1  15
TORSDOF 5
