REMARK  5 active torsions:
REMARK  status: ('A' for Active; 'I' for Inactive)
REMARK    1  A    between atoms: S_13  and  C_4 
REMARK    2  A    between atoms: C_10  and  C_6 
REMARK    3  A    between atoms: O_16  and  C_10 
REMARK    4  A    between atoms: C_19  and  S_13 
REMARK    5  A    between atoms: C_20  and  O_16 
ROOT
ATOM      1  S   UNL d   1      -0.909  -2.189   0.178  0.00  0.00     0.267 S 
ATOM      2  C   UNL d   1      -1.703  -0.664   0.130  0.00  0.00     0.116 A 
ATOM      3  C   UNL d   1      -0.857   0.498  -0.058  0.00  0.00     0.025 A 
ATOM      4  C   UNL d   1      -3.051  -0.392   0.202  0.00  0.00     0.066 A 
ATOM      5  N   UNL d   1       0.477  -1.956  -0.763  0.00  0.00    -0.275 N 
ATOM      6  C   UNL d   1      -1.630   1.637  -0.251  0.00  0.00     0.094 A 
ATOM      7  S   UNL d   1      -3.302   1.290  -0.056  0.00  0.00    -0.075 SA
ATOM      8  C   UNL d   1       0.628   0.424  -0.075  0.00  0.00     0.005 A 
ATOM      9  C   UNL d   1       1.269  -0.804  -0.397  0.00  0.00     0.056 A 
ATOM     10  O   UNL d   1      -1.775  -3.109  -0.523  0.00  0.00    -0.200 OA
ATOM     11  O   UNL d   1      -0.541  -2.366   1.562  0.00  0.00    -0.200 OA
ATOM     12  C   UNL d   1       1.071  -3.155  -1.360  0.00  0.00     0.170 C 
ATOM     13  C   UNL d   1       1.435   1.506   0.310  0.00  0.00     0.014 A 
ATOM     14  C   UNL d   1       2.670  -0.887  -0.383  0.00  0.00     0.031 A 
ATOM     15  C   UNL d   1       2.829   1.409   0.316  0.00  0.00     0.001 A 
ATOM     16  C   UNL d   1       3.446   0.214  -0.029  0.00  0.00     0.002 A 
ENDROOT
BRANCH   6  17
ATOM     17  C   UNL d   1      -1.241   2.994  -0.597  0.00  0.00     0.301 C 
ATOM     18  O   UNL d   1      -0.279   3.314  -1.286  0.00  0.00    -0.259 OA
BRANCH  17  19
ATOM     19  O   UNL d   1      -2.033   3.887   0.068  0.00  0.00    -0.317 OA
BRANCH  19  20
ATOM     20  C   UNL d   1      -1.514   5.217   0.209  0.00  0.00     0.174 C 
ATOM     21  C   UNL d   1      -0.762   5.280   1.527  0.00  0.00     0.034 C 
ENDBRANCH  19  20
ENDBRANCH  17  19
ENDBRANCH   6  17
BRANCH   4  22
ATOM     22  S   UNL d   1      -4.497  -1.383   0.383  0.00  0.00    -0.117 SA
BRANCH  22  23
ATOM     23  C   UNL d   1      -4.123  -2.705   1.577  0.00  0.00     0.045 C 
ATOM     24  C   UNL d   1      -3.685  -2.170   2.934  0.00  0.00     0.021 C 
ATOM     25  C   UNL d   1      -5.377  -3.572   1.733  0.00  0.00     0.021 C 
ENDBRANCH  22  23
ENDBRANCH   4  22
TORSDOF 5
