REMARK  1 active torsions:
REMARK  status: ('A' for Active; 'I' for Inactive)
REMARK    1  A    between atoms: C_9  and  C_4 
ROOT
ATOM      1  N   UNL d   1       1.238  -0.082  -1.145  0.00  0.00    -0.297 N 
ATOM      2  HN  UNL d   1       1.797  -0.106  -1.997  1.00  0.00     0.187 HD
ATOM      3  N   UNL d   1      -0.127  -0.124  -1.186  0.00  0.00    -0.266 N 
ATOM      4  C   UNL d   1       1.792  -0.010   0.030  0.00  0.00     0.058 A 
ATOM      5  C   UNL d   1      -0.964  -0.115  -0.102  0.00  0.00     0.259 A 
ATOM      6  C   UNL d   1       1.024   0.008   1.300  0.00  0.00     0.037 A 
ATOM      7  C   UNL d   1      -0.306  -0.043   1.215  0.00  0.00     0.078 A 
ATOM      8  O   UNL d   1      -2.185  -0.169  -0.189  0.00  0.00    -0.267 OA
ATOM      9  H   UNL d   1      -0.552  -0.178  -2.106  0.00  0.00     0.190 HD
ENDROOT
BRANCH   4  10
ATOM     10  C   UNL d   1       3.282   0.013   0.137  0.00  0.00    -0.008 A 
ATOM     11  C   UNL d   1       3.945   0.680   1.176  0.00  0.00     0.014 A 
ATOM     12  C   UNL d   1       5.339   0.635   1.261  0.00  0.00     0.001 A 
ATOM     13  C   UNL d   1       6.077  -0.062   0.305  0.00  0.00     0.000 A 
ATOM     14  C   UNL d   1       5.426  -0.702  -0.748  0.00  0.00     0.001 A 
ATOM     15  C   UNL d   1       4.033  -0.661  -0.835  0.00  0.00     0.014 A 
ENDBRANCH   4  10
TORSDOF 1
