REMARK  4 active torsions:
REMARK  status: ('A' for Active; 'I' for Inactive)
REMARK    1  A    between atoms: N_2  and  S_1 
REMARK    2  A    between atoms: C_4  and  S_1 
REMARK       I    between atoms: C_3  and  N_2 
REMARK       I    between atoms: N_9  and  C_3 
REMARK    3  A    between atoms: C_5  and  C_8 
REMARK    4  A    between atoms: C_6  and  C_7 
ROOT
ATOM      1  S   UNL d   1       0.986  -0.014  -0.025  0.00  0.00     0.276 S 
ATOM      2  O   UNL d   1       0.249  -1.063  -0.693  0.00  0.00    -0.200 OA
ATOM      3  O   UNL d   1       2.419   0.130  -0.153  0.00  0.00    -0.200 OA
ENDROOT
BRANCH   1   4
ATOM      4  N   UNL d   1       0.647  -0.059   1.601  0.00  0.00    -0.113 N 
ATOM      5  C   UNL d   1      -0.574  -0.307   2.206  0.00  0.00     0.683 C 
ATOM      6  N   UNL d   1      -0.698   0.179   3.476  0.00  0.00    -0.216 N 
ATOM      7  N   UNL d   1      -1.482  -0.984   1.609  0.00  0.00    -0.234 N 
ATOM      8  C   UNL d   1      -0.047   1.397   3.977  0.00  0.00     0.151 C 
ATOM      9  C   UNL d   1      -1.565  -0.526   4.437  0.00  0.00     0.151 C 
ATOM     10  C   UNL d   1      -1.051   2.443   4.476  0.00  0.00     0.094 C 
ATOM     11  S   UNL d   1      -2.111   1.816   5.814  0.00  0.00    -0.166 SA
ATOM     12  C   UNL d   1      -2.720   0.338   4.938  0.00  0.00     0.094 C 
ATOM     13  H   UNL d   1      -1.128  -1.321   0.703  0.00  0.00     0.174 HD
ATOM     14  HN  UNL d   1      -2.417  -1.161   1.976  1.00  0.00     0.174 HD
ATOM     15  H   UNL d   1       1.442   0.194   2.175  0.00  0.00     0.197 HD
ENDBRANCH   1   4
BRANCH   1  16
ATOM     16  C   UNL d   1       0.240   1.544  -0.452  0.00  0.00     0.082 A 
ATOM     17  C   UNL d   1       1.022   2.703  -0.455  0.00  0.00     0.041 A 
ATOM     18  C   UNL d   1       0.424   3.948  -0.698  0.00  0.00     0.050 A 
ATOM     19  C   UNL d   1      -0.960   3.999  -0.950  0.00  0.00     0.032 A 
ATOM     20  C   UNL d   1      -1.745   2.831  -0.979  0.00  0.00     0.050 A 
ATOM     21  C   UNL d   1      -1.129   1.597  -0.732  0.00  0.00     0.041 A 
BRANCH  18  22
ATOM     22  C   UNL d   1       1.237   5.223  -0.663  0.00  0.00     0.417 C 
ATOM     23  F   UNL d   1       2.566   5.011  -0.455  0.00  0.00    -0.166 F 
ATOM     24  F   UNL d   1       1.142   5.934  -1.818  0.00  0.00    -0.166 F 
ATOM     25  F   UNL d   1       0.832   6.057   0.332  0.00  0.00    -0.166 F 
ENDBRANCH  18  22
BRANCH  20  26
ATOM     26  C   UNL d   1      -3.231   2.919  -1.248  0.00  0.00     0.417 C 
ATOM     27  F   UNL d   1      -3.850   1.710  -1.298  0.00  0.00    -0.166 F 
ATOM     28  F   UNL d   1      -3.881   3.637  -0.291  0.00  0.00    -0.166 F 
ATOM     29  F   UNL d   1      -3.505   3.534  -2.430  0.00  0.00    -0.166 F 
ENDBRANCH  20  26
ENDBRANCH   1  16
TORSDOF 4
