REMARK  5 active torsions:
REMARK  status: ('A' for Active; 'I' for Inactive)
REMARK    1  A    between atoms: C_2  and  S_1 
REMARK    2  A    between atoms: C_5  and  S_1 
REMARK    3  A    between atoms: N_6  and  C_3 
REMARK    4  A    between atoms: N_7  and  C_4 
REMARK    5  A    between atoms: C_8  and  C_11 
ROOT
ATOM      1  C   UNL d   1       0.316  -1.693   0.012  0.00  0.00     0.130 A 
ATOM      2  C   UNL d   1       1.151  -2.759  -0.351  0.00  0.00     0.128 A 
ATOM      3  C   UNL d   1      -0.952  -2.008   0.518  0.00  0.00     0.128 A 
ATOM      4  C   UNL d   1       0.744  -4.099  -0.193  0.00  0.00     0.053 A 
ATOM      5  C   UNL d   1      -1.368  -3.344   0.690  0.00  0.00     0.053 A 
ATOM      6  C   UNL d   1      -0.513  -4.402   0.351  0.00  0.00     0.052 A 
ENDROOT
BRANCH   1   7
ATOM      7  S   UNL d   1       0.957  -0.051   0.148  0.00  0.00     0.213 S 
ATOM      8  O   UNL d   1       2.384  -0.206   0.365  0.00  0.00    -0.217 OA
ATOM      9  O   UNL d   1       0.200   0.581   1.216  0.00  0.00    -0.217 OA
BRANCH   7  10
ATOM     10  C   UNL d   1       0.787   0.989  -1.268  0.00  0.00     0.086 A 
ATOM     11  C   UNL d   1       0.290   0.608  -2.510  0.00  0.00     0.057 A 
ATOM     12  C   UNL d   1       0.299   1.536  -3.559  0.00  0.00     0.049 A 
ATOM     13 CL   UNL d   1      -0.404  -0.924  -2.885  0.00  0.00    -0.083 Cl
ATOM     14  C   UNL d   1       0.720   2.855  -3.358  0.00  0.00     0.041 A 
ATOM     15  C   UNL d   1       1.134   3.277  -2.092  0.00  0.00    -0.039 A 
ATOM     16 CL   UNL d   1       0.681   3.917  -4.718  0.00  0.00    -0.084 Cl
ATOM     17  C   UNL d   1       1.207   2.319  -1.068  0.00  0.00     0.034 A 
ATOM     18  C   UNL d   1       1.488   4.698  -1.753  0.00  0.00     0.050 C 
ENDBRANCH   7  10
ENDBRANCH   1   7
BRANCH   2  19
ATOM     19  N   UNL d   1       2.445  -2.546  -0.989  0.00  0.00    -0.114 N 
ATOM     20  O   UNL d   1       2.460  -1.821  -1.991  0.00  0.00    -0.532 OA
ATOM     21  O   UNL d   1       3.406  -3.175  -0.531  0.00  0.00    -0.532 OA
ENDBRANCH   2  19
BRANCH   3  22
ATOM     22  N   UNL d   1      -1.947  -0.980   0.793  0.00  0.00    -0.114 N 
ATOM     23  O   UNL d   1      -2.189  -0.191  -0.129  0.00  0.00    -0.532 OA
ATOM     24  O   UNL d   1      -2.527  -1.035   1.883  0.00  0.00    -0.532 OA
ENDBRANCH   3  22
BRANCH   6  25
ATOM     25  C   UNL d   1      -0.953  -5.834   0.574  0.00  0.00     0.417 C 
ATOM     26  F   UNL d   1      -0.038  -6.748   0.155  0.00  0.00    -0.166 F 
ATOM     27  F   UNL d   1      -1.183  -6.098   1.886  0.00  0.00    -0.166 F 
ATOM     28  F   UNL d   1      -2.107  -6.122  -0.083  0.00  0.00    -0.166 F 
ENDBRANCH   6  25
TORSDOF 5
