REMARK  6 active torsions:
REMARK  status: ('A' for Active; 'I' for Inactive)
REMARK    1  A    between atoms: S_8  and  C_2 
REMARK    2  A    between atoms: C_6  and  C_4 
REMARK    3  A    between atoms: O_12  and  C_6 
REMARK    4  A    between atoms: C_15  and  S_8 
REMARK    5  A    between atoms: C_16  and  O_12 
REMARK    6  A    between atoms: C_17  and  C_15 
ROOT
ATOM      1  C   UNL d   1       0.532   0.671  -0.086  0.00  0.00     0.041 A 
ATOM      2  C   UNL d   1       1.898   0.881  -0.141  0.00  0.00     0.056 A 
ATOM      3  C   UNL d   1       0.206  -0.744  -0.050  0.00  0.00    -0.019 A 
ATOM      4  C   UNL d   1       1.341  -1.543  -0.011  0.00  0.00     0.088 A 
ATOM      5  S   UNL d   1       2.758  -0.595  -0.135  0.00  0.00    -0.076 SA
ATOM      6  C   UNL d   1      -0.522   1.694  -0.039  0.00  0.00     0.162 C 
ATOM      7  O   UNL d   1      -0.317   2.896  -0.191  0.00  0.00    -0.292 OA
ATOM      8  C   UNL d   1      -1.218  -1.225   0.021  0.00  0.00     0.042 C 
ATOM      9  C   UNL d   1      -1.922   1.191   0.279  0.00  0.00     0.084 C 
ATOM     10  C   UNL d   1      -2.203  -0.137  -0.418  0.00  0.00     0.012 C 
ENDROOT
BRANCH   4  11
ATOM     11  C   UNL d   1       1.413  -2.986   0.184  0.00  0.00     0.300 C 
ATOM     12  O   UNL d   1       0.447  -3.719   0.372  0.00  0.00    -0.259 OA
BRANCH  11  13
ATOM     13  O   UNL d   1       2.709  -3.406   0.239  0.00  0.00    -0.317 OA
BRANCH  13  14
ATOM     14  C   UNL d   1       2.941  -4.651   0.909  0.00  0.00     0.174 C 
ATOM     15  C   UNL d   1       3.034  -4.378   2.401  0.00  0.00     0.034 C 
ENDBRANCH  13  14
ENDBRANCH  11  13
ENDBRANCH   4  11
BRANCH   2  16
ATOM     16  S   UNL d   1       2.770   2.413  -0.105  0.00  0.00    -0.122 SA
BRANCH  16  17
ATOM     17  C   UNL d   1       3.751   2.313  -1.635  0.00  0.00     0.080 C 
BRANCH  17  18
ATOM     18  C   UNL d   1       4.568   3.592  -1.805  0.00  0.00     0.006 C 
ATOM     19  C   UNL d   1       5.394   3.556  -3.082  0.00  0.00     0.006 C 
ENDBRANCH  17  18
ENDBRANCH  16  17
ENDBRANCH   2  16
TORSDOF 6
