REMARK  6 active torsions:
REMARK  status: ('A' for Active; 'I' for Inactive)
REMARK    1  A    between atoms: N_5  and  C_1 
REMARK    2  A    between atoms: C_3  and  C_2 
REMARK       I    between atoms: N_7  and  C_3 
REMARK    3  A    between atoms: O_25  and  C_4 
REMARK    4  A    between atoms: N_6  and  C_11 
REMARK       I    between atoms: C_10  and  N_7 
REMARK    5  A    between atoms: C_9  and  N_16 
REMARK       I    between atoms: N_16  and  C_10 
REMARK    6  A    between atoms: O_29  and  C_12 
ROOT
ATOM      1  C   UNL d   1       3.709  -3.219  -1.030  0.00  0.00     0.265 C 
ATOM      2  N   UNL d   1       4.773  -2.436  -1.457  0.00  0.00    -0.275 N 
ATOM      3  C   UNL d   1       5.870  -2.877  -2.150  0.00  0.00     0.327 C 
ATOM      4  N   UNL d   1       6.397  -4.073  -1.732  0.00  0.00    -0.305 N 
ATOM      5  O   UNL d   1       3.767  -4.434  -0.895  0.00  0.00    -0.267 OA
ATOM      6  O   UNL d   1       6.274  -2.210  -3.099  0.00  0.00    -0.247 OA
ATOM      7  H   UNL d   1       4.532  -1.503  -1.772  0.00  0.00     0.173 HD
ATOM      8  H   UNL d   1       5.686  -4.722  -1.389  0.00  0.00     0.171 HD
ENDROOT
BRANCH   1   9
ATOM      9  C   UNL d   1       2.471  -2.443  -0.693  0.00  0.00     0.102 C 
ATOM     10  C   UNL d   1       1.726  -2.736   0.458  0.00  0.00     0.119 C 
ATOM     11  C   UNL d   1       0.728  -1.837   0.863  0.00  0.00     0.138 C 
ATOM     12  C   UNL d   1       0.397  -0.707   0.106  0.00  0.00     0.061 C 
ATOM     13  C   UNL d   1       1.065  -0.484  -1.093  0.00  0.00     0.048 C 
ATOM     14  C   UNL d   1       2.075  -1.363  -1.510  0.00  0.00     0.104 C 
ATOM     15 BR   UNL d   1       0.591   1.040  -2.116  0.00  0.00    -0.048 Br
BRANCH  10  16
ATOM     16  O   UNL d   1       2.000  -3.862   1.182  0.00  0.00    -0.352 OA
ATOM     17  C   UNL d   1       1.035  -4.892   0.922  0.00  0.00     0.210 C 
ENDBRANCH  10  16
BRANCH  11  18
ATOM     18  N   UNL d   1       0.016  -2.034   2.112  0.00  0.00    -0.113 N 
ATOM     19  O   UNL d   1       0.685  -2.150   3.144  0.00  0.00    -0.532 OA
ATOM     20  O   UNL d   1      -1.222  -2.034   2.049  0.00  0.00    -0.532 OA
ENDBRANCH  11  18
BRANCH  14  21
ATOM     21  O   UNL d   1       2.705  -1.135  -2.710  0.00  0.00    -0.353 OA
ATOM     22  C   UNL d   1       2.144  -1.975  -3.729  0.00  0.00     0.210 C 
ENDBRANCH  14  21
ENDBRANCH   1   9
BRANCH   4  23
ATOM     23  C   UNL d   1       7.569  -4.646  -2.297  0.00  0.00     0.080 A 
ATOM     24  C   UNL d   1       8.746  -3.918  -2.576  0.00  0.00     0.065 A 
ATOM     25  C   UNL d   1       9.830  -4.527  -3.223  0.00  0.00     0.062 A 
ATOM     26 CL   UNL d   1       9.027  -2.309  -1.994  0.00  0.00    -0.082 Cl
ATOM     27  C   UNL d   1       9.765  -5.883  -3.552  0.00  0.00     0.106 A 
ATOM     28  C   UNL d   1       8.645  -6.645  -3.210  0.00  0.00     0.062 A 
ATOM     29  C   UNL d   1       7.563  -6.026  -2.579  0.00  0.00     0.065 A 
ATOM     30 CL   UNL d   1       6.191  -7.009  -2.195  0.00  0.00    -0.082 Cl
BRANCH  27  31
ATOM     31  N   UNL d   1      10.897  -6.517  -4.239  0.00  0.00    -0.116 N 
ATOM     32  O   UNL d   1      11.783  -5.780  -4.689  0.00  0.00    -0.532 OA
ATOM     33  O   UNL d   1      10.892  -7.754  -4.327  0.00  0.00    -0.532 OA
ENDBRANCH  27  31
ENDBRANCH   4  23
TORSDOF 6
