REMARK  6 active torsions:
REMARK  status: ('A' for Active; 'I' for Inactive)
REMARK    1  A    between atoms: C_2  and  C_1 
REMARK       I    between atoms: N_8  and  C_2 
REMARK    2  A    between atoms: C_3  and  C_5 
REMARK    3  A    between atoms: O_11  and  C_3 
REMARK    4  A    between atoms: S_9  and  C_4 
REMARK    5  A    between atoms: C_5  and  C_10 
REMARK    6  A    between atoms: C_10  and  S_9 
ROOT
ATOM      1  C   UNL d   1       1.448  -0.261   0.096  0.00  0.00     0.048 A 
ATOM      2  C   UNL d   1       0.662  -1.423  -0.014  0.00  0.00     0.016 A 
ATOM      3  C   UNL d   1       0.822   1.004   0.140  0.00  0.00     0.018 A 
ATOM      4  C   UNL d   1      -0.741  -1.267  -0.074  0.00  0.00     0.019 A 
ATOM      5  C   UNL d   1      -0.563   1.131   0.068  0.00  0.00     0.001 A 
ATOM      6  C   UNL d   1      -1.347  -0.008  -0.028  0.00  0.00     0.001 A 
ENDROOT
BRANCH   2   7
ATOM      7  S   UNL d   1       1.208  -3.115  -0.245  0.00  0.00    -0.128 SA
BRANCH   7   8
ATOM      8  C   UNL d   1       2.290  -3.475   1.184  0.00  0.00     0.090 C 
BRANCH   8   9
ATOM      9  C   UNL d   1       1.597  -3.456   2.538  0.00  0.00     0.120 C 
BRANCH   9  10
ATOM     10  C   UNL d   1       2.555  -3.988   3.584  0.00  0.00     0.140 C 
ATOM     11  O   UNL d   1       3.655  -4.458   3.356  0.00  0.00    -0.650 OA
BRANCH  10  12
ATOM     12  O   UNL d   1       2.052  -3.908   4.838  0.00  0.00    -0.776 OA
ATOM     13  H   UNL d   1       1.167  -3.508   4.891  0.00  0.00     0.167 HD
ENDBRANCH  10  12
ENDBRANCH   9  10
ENDBRANCH   8   9
ENDBRANCH   7   8
ENDBRANCH   2   7
BRANCH   1  14
ATOM     14  C   UNL d   1       2.929  -0.211   0.186  0.00  0.00     0.252 C 
ATOM     15  O   UNL d   1       3.458   0.613   0.928  0.00  0.00    -0.268 OA
ATOM     16  N   UNL d   1       3.651  -1.085  -0.592  0.00  0.00    -0.361 N 
ATOM     17  C   UNL d   1       5.084  -1.159  -0.456  0.00  0.00     0.149 C 
ATOM     18  H   UNL d   1       3.163  -1.795  -1.128  0.00  0.00     0.162 HD
ENDBRANCH   1  14
TORSDOF 6
