REMARK  1 active torsions:
REMARK  status: ('A' for Active; 'I' for Inactive)
REMARK    1  A    between atoms: C_13  and  C_6 
ROOT
ATOM      1  C   UNL d   1       1.859   1.494  -0.107  0.00  0.00     0.030 C 
ATOM      2  N   UNL d   1       0.733   1.556  -0.735  0.00  0.00    -0.357 N 
ATOM      3  HN  UNL d   1       0.643   2.261  -1.466  1.00  0.00     0.166 HD
ATOM      4  C   UNL d   1       2.336   0.485   0.880  0.00  0.00     0.079 C 
ATOM      5  S   UNL d   1       0.704  -1.760   0.620  0.00  0.00    -0.117 SA
ATOM      6  C   UNL d   1       2.277  -0.945   0.414  0.00  0.00     0.097 C 
ATOM      7  C   UNL d   1       2.792   2.635   0.003  0.00  0.00     0.020 A 
ATOM      8  C   UNL d   1      -0.386   0.730  -0.495  0.00  0.00     0.049 A 
ATOM      9  C   UNL d   1       1.794   1.065   2.173  0.00  0.00     0.188 C 
ATOM     10  C   UNL d   1      -0.503  -0.609  -0.069  0.00  0.00     0.028 A 
ATOM     11  O   UNL d   1       2.413   2.373   2.426  0.00  0.00    -0.349 OA
ATOM     12  C   UNL d   1       3.110   2.918   1.353  0.00  0.00     0.081 A 
ATOM     13  C   UNL d   1       3.660   2.968  -1.034  0.00  0.00     0.016 A 
ATOM     14  C   UNL d   1      -1.594   1.449  -0.696  0.00  0.00     0.031 A 
ATOM     15  C   UNL d   1      -1.797  -1.200  -0.019  0.00  0.00     0.021 A 
ATOM     16  C   UNL d   1       4.317   3.536   1.662  0.00  0.00     0.037 A 
ATOM     17  C   UNL d   1       4.889   3.552  -0.704  0.00  0.00     0.001 A 
ATOM     18  C   UNL d   1      -2.859   0.871  -0.557  0.00  0.00     0.002 A 
ATOM     19  C   UNL d   1      -2.958  -0.471  -0.260  0.00  0.00     0.002 A 
ATOM     20  C   UNL d   1       5.218   3.820   0.634  0.00  0.00     0.003 A 
ENDROOT
BRANCH   6  21
ATOM     21  C   UNL d   1       3.487  -1.612   1.113  0.00  0.00    -0.043 A 
ATOM     22  C   UNL d   1       4.750  -1.432   0.508  0.00  0.00     0.009 A 
ATOM     23  C   UNL d   1       5.932  -1.614   1.226  0.00  0.00     0.007 A 
ATOM     24  C   UNL d   1       5.895  -2.038   2.556  0.00  0.00    -0.062 A 
ATOM     25  C   UNL d   1       4.651  -2.273   3.153  0.00  0.00     0.007 A 
ATOM     26  C   UNL d   1       7.183  -2.183   3.312  0.00  0.00     0.048 C 
ATOM     27  C   UNL d   1       3.457  -2.058   2.445  0.00  0.00     0.009 A 
ENDBRANCH   6  21
TORSDOF 1
