REMARK  4 active torsions:
REMARK  status: ('A' for Active; 'I' for Inactive)
REMARK    1  A    between atoms: C_2  and  S_1 
REMARK    2  A    between atoms: C_5  and  S_1 
REMARK    3  A    between atoms: N_3  and  C_4 
REMARK    4  A    between atoms: C_9  and  C_5 
ROOT
ATOM      1  C   UNL d   1       0.387   0.351   1.538  0.00  0.00     0.154 C 
ATOM      2  C   UNL d   1      -0.402   1.441   1.579  0.00  0.00     0.126 C 
ATOM      3  C   UNL d   1       0.848  -0.259   0.352  0.00  0.00     0.113 C 
ATOM      4  N   UNL d   1       1.208  -0.724  -0.651  0.00  0.00    -0.191 NA
ENDROOT
BRANCH   1   5
ATOM      5  S   UNL d   1       0.933  -0.348   3.031  0.00  0.00     0.192 S 
ATOM      6  O   UNL d   1       1.436   0.719   3.882  0.00  0.00    -0.222 OA
ATOM      7  O   UNL d   1       1.788  -1.493   2.774  0.00  0.00    -0.222 OA
BRANCH   5   8
ATOM      8  C   UNL d   1      -0.543  -0.954   3.820  0.00  0.00     0.211 C 
BRANCH   8   9
ATOM      9  C   UNL d   1      -1.272  -1.898   2.949  0.00  0.00     0.066 A 
ATOM     10  O   UNL d   1      -2.280  -1.368   2.197  0.00  0.00    -0.326 OA
ATOM     11  C   UNL d   1      -2.869  -2.399   1.538  0.00  0.00     0.142 A 
ATOM     12  C   UNL d   1      -2.252  -3.586   1.852  0.00  0.00     0.027 A 
ATOM     13  C   UNL d   1      -1.212  -3.263   2.759  0.00  0.00     0.035 A 
ENDBRANCH   8   9
ENDBRANCH   5   8
ENDBRANCH   1   5
BRANCH   2  14
ATOM     14  N   UNL d   1      -1.018   2.163   0.567  0.00  0.00    -0.354 N 
ATOM     15  C   UNL d   1      -1.885   3.277   0.730  0.00  0.00     0.040 A 
ATOM     16  C   UNL d   1      -2.568   3.598  -0.449  0.00  0.00    -0.030 A 
ATOM     17  C   UNL d   1      -2.098   4.046   1.864  0.00  0.00     0.030 A 
ATOM     18  C   UNL d   1      -3.481   4.640  -0.521  0.00  0.00     0.009 A 
ATOM     19  C   UNL d   1      -2.121   2.716  -1.558  0.00  0.00     0.061 C 
ATOM     20  C   UNL d   1      -3.709   5.394   0.627  0.00  0.00     0.001 A 
ATOM     21  C   UNL d   1      -3.015   5.106   1.809  0.00  0.00     0.002 A 
ATOM     22  C   UNL d   1      -1.283   1.673  -0.806  0.00  0.00     0.133 C 
ENDBRANCH   2  14
TORSDOF 4
