REMARK  5 active torsions:
REMARK  status: ('A' for Active; 'I' for Inactive)
REMARK    1  A    between atoms: C_2  and  C_1 
REMARK       I    between atoms: C_3  and  N_5 
REMARK       I    between atoms: N_6  and  C_3 
REMARK    2  A    between atoms: C_4  and  O_10 
REMARK    3  A    between atoms: N_5  and  C_12 
REMARK    4  A    between atoms: C_20  and  N_6 
REMARK    5  A    between atoms: O_10  and  C_21 
ROOT
ATOM      1  C   UNL d   1      -1.103  -1.017   4.390  0.00  0.00     0.325 C 
ATOM      2  N   UNL d   1      -0.832   0.321   4.268  0.00  0.00    -0.307 N 
ATOM      3  N   UNL d   1      -0.787  -1.774   3.286  0.00  0.00    -0.309 N 
ATOM      4  O   UNL d   1      -1.502  -1.579   5.408  0.00  0.00    -0.247 OA
ATOM      5  H   UNL d   1      -0.276   0.563   3.461  0.00  0.00     0.170 HD
ATOM      6  H   UNL d   1      -0.655  -2.753   3.514  0.00  0.00     0.170 HD
ENDROOT
BRANCH   2   7
ATOM      7  C   UNL d   1      -1.059   1.357   5.188  0.00  0.00     0.052 A 
ATOM      8  C   UNL d   1      -1.693   1.206   6.416  0.00  0.00     0.048 A 
ATOM      9  C   UNL d   1      -1.876   2.323   7.245  0.00  0.00     0.065 A 
ATOM     10  C   UNL d   1      -1.417   3.554   6.793  0.00  0.00     0.103 A 
ATOM     11  N   UNL d   1      -0.797   3.739   5.609  0.00  0.00    -0.372 N 
ATOM     12  C   UNL d   1      -0.633   2.640   4.840  0.00  0.00     0.117 A 
ATOM     13  HN  UNL d   1      -0.470   4.658   5.310  1.00  0.00     0.164 HD
BRANCH   9  14
ATOM     14  C   UNL d   1      -2.561   2.244   8.571  0.00  0.00     0.418 C 
ATOM     15  F   UNL d   1      -2.826   0.974   8.981  0.00  0.00    -0.166 F 
ATOM     16  F   UNL d   1      -3.757   2.894   8.572  0.00  0.00    -0.166 F 
ATOM     17  F   UNL d   1      -1.830   2.812   9.570  0.00  0.00    -0.166 F 
ENDBRANCH   9  14
ENDBRANCH   2   7
BRANCH   3  18
ATOM     18  C   UNL d   1      -0.550  -1.369   1.961  0.00  0.00     0.036 A 
ATOM     19  C   UNL d   1       0.345  -2.116   1.195  0.00  0.00     0.032 A 
ATOM     20  C   UNL d   1       0.676  -1.708  -0.101  0.00  0.00     0.039 A 
ATOM     21  C   UNL d   1       0.090  -0.567  -0.649  0.00  0.00     0.078 A 
ATOM     22  C   UNL d   1      -0.875   0.129   0.080  0.00  0.00     0.039 A 
ATOM     23  C   UNL d   1      -1.191  -0.268   1.382  0.00  0.00     0.032 A 
BRANCH  21  24
ATOM     24  O   UNL d   1       0.315  -0.141  -1.927  0.00  0.00    -0.255 OA
BRANCH  24  25
ATOM     25  C   UNL d   1       1.685   0.075  -2.245  0.00  0.00     0.530 C 
ATOM     26  F   UNL d   1       2.390  -1.076  -2.233  0.00  0.00    -0.144 F 
ATOM     27  F   UNL d   1       1.758   0.590  -3.493  0.00  0.00    -0.144 F 
ATOM     28  F   UNL d   1       2.248   0.957  -1.392  0.00  0.00    -0.144 F 
ENDBRANCH  24  25
ENDBRANCH  21  24
ENDBRANCH   3  18
TORSDOF 5
