REMARK  2 active torsions:
REMARK  status: ('A' for Active; 'I' for Inactive)
REMARK    1  A    between atoms: C_6  and  C_2 
REMARK    2  A    between atoms: O_9  and  N_3 
ROOT
ATOM      1  C   UNL d   1      -0.033   0.680  -0.015  0.00  0.00     0.067 A 
ATOM      2  C   UNL d   1      -1.232   1.411  -0.036  0.00  0.00     0.005 A 
ATOM      3  C   UNL d   1      -0.093  -0.725   0.020  0.00  0.00     0.056 A 
ATOM      4 CL   UNL d   1       1.507   1.480  -0.030  0.00  0.00    -0.082 Cl
ATOM      5 CL   UNL d   1       1.326  -1.718   0.046  0.00  0.00    -0.083 Cl
ATOM      6  C   UNL d   1      -2.465   0.737  -0.020  0.00  0.00     0.014 A 
ATOM      7  C   UNL d   1      -2.512  -0.655   0.015  0.00  0.00     0.003 A 
ATOM      8  C   UNL d   1      -1.327  -1.385   0.035  0.00  0.00     0.026 A 
ENDROOT
BRANCH   2   9
ATOM      9  C   UNL d   1      -1.248   2.892  -0.077  0.00  0.00     0.127 C 
ATOM     10  N   UNL d   1      -2.361   3.560  -0.101  0.00  0.00    -0.280 N 
ATOM     11  HN  UNL d   1      -3.297   3.154  -0.092  1.00  0.00     0.193 HD
BRANCH  10  12
ATOM     12  O   UNL d   1      -2.070   4.928  -0.140  0.00  0.00    -0.290 OA
ATOM     13  H   UNL d   1      -2.958   5.332  -0.157  0.00  0.00     0.244 HD
ENDBRANCH  10  12
ENDBRANCH   2   9
TORSDOF 2
