REMARK  7 active torsions:
REMARK  status: ('A' for Active; 'I' for Inactive)
REMARK    1  A    between atoms: N_2  and  C_1 
REMARK    2  A    between atoms: N_6  and  C_1 
REMARK    3  A    between atoms: C_4  and  N_2 
REMARK    4  A    between atoms: C_12  and  N_6 
REMARK    5  A    between atoms: O_8  and  C_7 
REMARK    6  A    between atoms: O_9  and  C_14 
REMARK    7  A    between atoms: C_14  and  C_12 
ROOT
ATOM      1  N   UNL d   1       0.410  -0.527  -0.962  0.00  0.00    -0.333 N 
ATOM      2  H   UNL d   1      -0.513  -0.091  -1.014  0.00  0.00     0.168 HD
ENDROOT
BRANCH   1   3
ATOM      3  C   UNL d   1       1.066  -0.280   0.219  0.00  0.00     0.172 C 
ATOM      4  S   UNL d   1       2.685   0.090   0.428  0.00  0.00    -0.041 SA
BRANCH   3   5
ATOM      5  N   UNL d   1       0.289  -0.314   1.343  0.00  0.00    -0.365 N 
ATOM      6  H   UNL d   1       0.802  -0.119   2.195  0.00  0.00     0.161 HD
BRANCH   5   7
ATOM      7  C   UNL d   1      -1.010  -0.962   1.470  0.00  0.00     0.148 C 
BRANCH   7   8
ATOM      8  C   UNL d   1      -2.176  -0.022   1.169  0.00  0.00     0.183 C 
BRANCH   8   9
ATOM      9  O   UNL d   1      -2.211   0.315  -0.220  0.00  0.00    -0.399 OA
ATOM     10  H   UNL d   1      -2.990   0.889  -0.339  0.00  0.00     0.209 HD
ENDBRANCH   8   9
ENDBRANCH   7   8
ENDBRANCH   5   7
ENDBRANCH   3   5
ENDBRANCH   1   3
BRANCH   1  11
ATOM     11  C   UNL d   1       0.977  -0.993  -2.164  0.00  0.00     0.036 A 
ATOM     12  C   UNL d   1       1.952  -1.999  -2.151  0.00  0.00     0.066 A 
ATOM     13  C   UNL d   1       2.494  -2.479  -3.343  0.00  0.00     0.070 A 
ATOM     14  C   UNL d   1       2.060  -1.940  -4.553  0.00  0.00     0.037 A 
ATOM     15  C   UNL d   1       1.066  -0.957  -4.576  0.00  0.00     0.005 A 
ATOM     16  C   UNL d   1       0.506  -0.502  -3.380  0.00  0.00     0.029 A 
BRANCH  13  17
ATOM     17  O   UNL d   1       3.437  -3.468  -3.449  0.00  0.00    -0.356 OA
ATOM     18  C   UNL d   1       3.857  -4.077  -2.232  0.00  0.00     0.210 C 
ENDBRANCH  13  17
ENDBRANCH   1  11
TORSDOF 7
