REMARK  5 active torsions:
REMARK  status: ('A' for Active; 'I' for Inactive)
REMARK    1  A    between atoms: C_2  and  C_1 
REMARK    2  A    between atoms: C_3  and  C_8 
REMARK    3  A    between atoms: N_17  and  C_3 
REMARK    4  A    between atoms: O_11  and  C_6 
REMARK    5  A    between atoms: C_18  and  O_11 
ROOT
ATOM      1  O   UNL d   1      -0.704  -5.011  -1.650  0.00  0.00    -0.294 OA
ENDROOT
BRANCH   1   2
ATOM      2  C   UNL d   1      -1.850  -4.506  -1.052  0.00  0.00     0.147 A 
ATOM      3  C   UNL d   1      -2.025  -3.131  -1.081  0.00  0.00     0.057 A 
ATOM      4  C   UNL d   1      -3.138  -2.597  -0.434  0.00  0.00     0.022 A 
ATOM      5  C   UNL d   1      -4.043  -3.450   0.211  0.00  0.00     0.063 A 
ATOM      6  C   UNL d   1      -3.799  -4.813   0.144  0.00  0.00     0.106 A 
ATOM      7  N   UNL d   1      -2.733  -5.356  -0.481  0.00  0.00    -0.346 N 
ATOM      8  HN  UNL d   1      -2.600  -6.367  -0.521  1.00  0.00     0.167 HD
BRANCH   5   9
ATOM      9  C   UNL d   1      -5.230  -2.930   0.960  0.00  0.00     0.418 C 
ATOM     10  F   UNL d   1      -5.971  -3.906   1.553  0.00  0.00    -0.166 F 
ATOM     11  F   UNL d   1      -6.091  -2.240   0.162  0.00  0.00    -0.166 F 
ATOM     12  F   UNL d   1      -4.878  -2.074   1.958  0.00  0.00    -0.166 F 
ENDBRANCH   5   9
ENDBRANCH   1   2
BRANCH   1  13
ATOM     13  C   UNL d   1      -0.152  -6.150  -1.108  0.00  0.00     0.077 A 
ATOM     14  C   UNL d   1       0.458  -7.039  -1.995  0.00  0.00     0.038 A 
ATOM     15  C   UNL d   1       1.067  -8.207  -1.516  0.00  0.00     0.017 A 
ATOM     16  C   UNL d   1       1.077  -8.493  -0.143  0.00  0.00     0.002 A 
ATOM     17  C   UNL d   1       0.469  -7.592   0.741  0.00  0.00     0.017 A 
ATOM     18  C   UNL d   1      -0.118  -6.417   0.263  0.00  0.00     0.038 A 
BRANCH  16  19
ATOM     19  C   UNL d   1       1.727  -9.726   0.390  0.00  0.00     0.104 C 
ATOM     20  S   UNL d   1       1.857 -11.186  -0.412  0.00  0.00    -0.060 SA
BRANCH  19  21
ATOM     21  N   UNL d   1       2.272  -9.636   1.648  0.00  0.00    -0.390 N 
ATOM     22  H   UNL d   1       2.342  -8.774   2.171  0.00  0.00     0.157 HD
ATOM     23  H   UNL d   1       2.757 -10.446   2.020  0.00  0.00     0.157 HD
ENDBRANCH  19  21
ENDBRANCH  16  19
ENDBRANCH   1  13
TORSDOF 5
