REMARK  4 active torsions:
REMARK  status: ('A' for Active; 'I' for Inactive)
REMARK    1  A    between atoms: C_3  and  C_1 
REMARK    2  A    between atoms: O_10  and  C_2 
REMARK    3  A    between atoms: O_9  and  C_3 
REMARK    4  A    between atoms: O_12  and  C_4 
ROOT
ATOM      1  C   UNL d   1       1.572   1.265  -0.069  0.00  0.00     0.105 A 
ATOM      2  C   UNL d   1       0.153   1.209   0.007  0.00  0.00     0.109 A 
ATOM      3  C   UNL d   1       2.353   0.088  -0.088  0.00  0.00     0.088 A 
ATOM      4  C   UNL d   1      -0.457  -0.056   0.021  0.00  0.00     0.068 A 
ATOM      5  C   UNL d   1       1.720  -1.151  -0.056  0.00  0.00     0.040 A 
ATOM      6  C   UNL d   1       0.329  -1.217  -0.018  0.00  0.00     0.029 A 
ATOM      7 CL   UNL d   1      -2.156  -0.358   0.134  0.00  0.00    -0.081 Cl
ENDROOT
BRANCH   1   8
ATOM      8  C   UNL d   1       2.238   2.601  -0.197  0.00  0.00     0.181 C 
ATOM      9  O   UNL d   1       1.816   3.507  -0.892  0.00  0.00    -0.646 OA
BRANCH   8  10
ATOM     10  O   UNL d   1       3.359   2.728   0.551  0.00  0.00    -0.772 OA
ATOM     11  H   UNL d   1       3.686   1.870   0.888  0.00  0.00     0.167 HD
ENDBRANCH   8  10
ENDBRANCH   1   8
BRANCH   2  12
ATOM     12  O   UNL d   1      -0.445   2.432   0.145  0.00  0.00    -0.353 OA
ATOM     13  C   UNL d   1      -1.835   2.620  -0.044  0.00  0.00     0.210 C 
ENDBRANCH   2  12
BRANCH   3  14
ATOM     14  O   UNL d   1       3.718   0.234  -0.072  0.00  0.00    -0.355 OA
ATOM     15  C   UNL d   1       4.493  -0.875  -0.522  0.00  0.00     0.210 C 
ENDBRANCH   3  14
TORSDOF 4
