REMARK  5 active torsions:
REMARK  status: ('A' for Active; 'I' for Inactive)
REMARK    1  A    between atoms: C_3  and  C_1 
REMARK    2  A    between atoms: C_2  and  C_13 
REMARK       I    between atoms: N_10  and  C_3 
REMARK    3  A    between atoms: N_11  and  C_4 
REMARK    4  A    between atoms: O_12  and  N_10 
REMARK    5  A    between atoms: C_13  and  O_12 
ROOT
ATOM      1  C   UNL d   1       0.987  -0.154   0.151  0.00  0.00     0.129 C 
ATOM      2  C   UNL d   1       0.195   0.698  -0.530  0.00  0.00     0.113 C 
ATOM      3  C   UNL d   1       0.489  -1.206   0.957  0.00  0.00     0.106 C 
ATOM      4  N   UNL d   1       0.204  -2.092   1.650  0.00  0.00    -0.191 NA
ENDROOT
BRANCH   1   5
ATOM      5  C   UNL d   1       2.486   0.014   0.077  0.00  0.00     0.287 C 
ATOM      6  O   UNL d   1       3.001   0.933  -0.553  0.00  0.00    -0.265 OA
ATOM      7  N   UNL d   1       3.192  -0.933   0.788  0.00  0.00    -0.230 N 
ATOM      8  H   UNL d   1       2.770  -1.660   1.357  0.00  0.00     0.197 HD
BRANCH   7   9
ATOM      9  O   UNL d   1       4.594  -0.774   0.886  0.00  0.00    -0.273 OA
BRANCH   9  10
ATOM     10  C   UNL d   1       5.041  -1.357   2.117  0.00  0.00     0.245 C 
BRANCH  10  11
ATOM     11  C   UNL d   1       6.537  -1.313   2.205  0.00  0.00     0.028 A 
ATOM     12  C   UNL d   1       7.374  -2.062   1.366  0.00  0.00     0.045 A 
ATOM     13 CL   UNL d   1       6.738  -3.138   0.172  0.00  0.00    -0.084 Cl
ATOM     14  C   UNL d   1       8.767  -1.983   1.489  0.00  0.00     0.024 A 
ATOM     15  C   UNL d   1       9.344  -1.163   2.460  0.00  0.00     0.005 A 
ATOM     16  C   UNL d   1       8.525  -0.429   3.311  0.00  0.00     0.043 A 
ATOM     17  C   UNL d   1       7.141  -0.509   3.178  0.00  0.00     0.126 A 
ATOM     18  F   UNL d   1       6.380   0.196   4.028  0.00  0.00    -0.205 F 
ENDBRANCH  10  11
ENDBRANCH   9  10
ENDBRANCH   7   9
ENDBRANCH   1   5
BRANCH   2  19
ATOM     19  N   UNL d   1      -1.190   0.841  -0.675  0.00  0.00    -0.397 N 
ATOM     20  C   UNL d   1      -2.228   0.013  -0.058  0.00  0.00     0.148 C 
ATOM     21  C   UNL d   1      -1.759   1.899  -1.524  0.00  0.00     0.148 C 
ENDBRANCH   2  19
TORSDOF 5
