REMARK  4 active torsions:
REMARK  status: ('A' for Active; 'I' for Inactive)
REMARK    1  A    between atoms: C_6  and  S_1 
REMARK    2  A    between atoms: C_11  and  S_1 
REMARK    3  A    between atoms: C_4  and  C_6 
REMARK    4  A    between atoms: C_10  and  C_5 
ROOT
ATOM      1  N   UNL d   1       2.160  -1.980   2.617  0.00  0.00    -0.322 N 
ATOM      2  HN  UNL d   1       2.866  -1.303   2.907  1.00  0.00     0.169 HD
ATOM      3  C   UNL d   1       0.974  -1.759   1.965  0.00  0.00     0.118 A 
ATOM      4  C   UNL d   1       2.158  -3.286   2.776  0.00  0.00     0.182 A 
ATOM      5  N   UNL d   1       0.224  -2.854   1.783  0.00  0.00    -0.246 N 
ATOM      6  HN  UNL d   1      -0.705  -2.923   1.366  1.00  0.00     0.196 HD
ATOM      7  O   UNL d   1       1.018  -3.876   2.301  0.00  0.00    -0.217 OA
ENDROOT
BRANCH   3   8
ATOM      8  C   UNL d   1       0.536  -0.427   1.524  0.00  0.00     0.224 C 
BRANCH   8   9
ATOM      9  S   UNL d   1       1.084  -0.073  -0.131  0.00  0.00     0.182 S 
ATOM     10  O   UNL d   1       2.533  -0.150  -0.180  0.00  0.00    -0.222 OA
ATOM     11  O   UNL d   1       0.406   1.128  -0.581  0.00  0.00    -0.222 OA
BRANCH   9  12
ATOM     12  C   UNL d   1       0.438  -1.403  -1.122  0.00  0.00     0.059 A 
ATOM     13  C   UNL d   1      -0.948  -1.530  -1.264  0.00  0.00     0.025 A 
ATOM     14  C   UNL d   1      -1.465  -2.608  -1.983  0.00  0.00     0.025 A 
ATOM     15  C   UNL d   1      -0.598  -3.532  -2.568  0.00  0.00     0.034 A 
ATOM     16  C   UNL d   1       0.786  -3.384  -2.451  0.00  0.00     0.025 A 
ATOM     17 CL   UNL d   1      -1.241  -4.869  -3.438  0.00  0.00    -0.084 Cl
ATOM     18  C   UNL d   1       1.311  -2.312  -1.726  0.00  0.00     0.025 A 
ENDBRANCH   9  12
ENDBRANCH   8   9
ENDBRANCH   3   8
BRANCH   4  19
ATOM     19  C   UNL d   1       3.163  -4.162   3.361  0.00  0.00     0.021 A 
ATOM     20  C   UNL d   1       4.329  -3.611   3.915  0.00  0.00     0.040 A 
ATOM     21  C   UNL d   1       5.300  -4.438   4.483  0.00  0.00     0.036 A 
ATOM     22 CL   UNL d   1       6.718  -3.743   5.165  0.00  0.00    -0.084 Cl
ATOM     23  C   UNL d   1       5.134  -5.819   4.505  0.00  0.00     0.047 A 
ATOM     24  C   UNL d   1       3.983  -6.371   3.951  0.00  0.00     0.036 A 
ATOM     25  C   UNL d   1       3.003  -5.556   3.383  0.00  0.00     0.040 A 
ATOM     26 CL   UNL d   1       3.762  -8.077   3.965  0.00  0.00    -0.084 Cl
ENDBRANCH   4  19
TORSDOF 4
