REMARK  6 active torsions:
REMARK  status: ('A' for Active; 'I' for Inactive)
REMARK    1  A    between atoms: C_7  and  S_1 
REMARK    2  A    between atoms: O_8  and  S_1 
REMARK    3  A    between atoms: C_4  and  C_9 
REMARK    4  A    between atoms: C_12  and  O_8 
REMARK    5  A    between atoms: C_13  and  O_19 
REMARK    6  A    between atoms: O_19  and  C_14 
ROOT
ATOM      1  C   UNL d   1       1.454   1.040  -5.207  0.00  0.00    -0.006 C 
ATOM      2  C   UNL d   1       0.765  -0.342  -2.855  0.00  0.00     0.101 C 
ATOM      3  C   UNL d   1      -0.222  -0.093  -3.822  0.00  0.00    -0.026 C 
ATOM      4  C   UNL d   1       2.119  -0.000  -3.124  0.00  0.00    -0.026 C 
ATOM      5  C   UNL d   1       0.164   0.546  -5.013  0.00  0.00     0.023 C 
ATOM      6  C   UNL d   1       2.443   0.712  -4.291  0.00  0.00     0.023 C 
ATOM      7  C   UNL d   1      -1.704  -0.305  -3.728  0.00  0.00     0.051 C 
ATOM      8  C   UNL d   1       3.251  -0.395  -2.210  0.00  0.00     0.051 C 
ENDROOT
BRANCH   2   9
ATOM      9  O   UNL d   1       0.557  -0.705  -1.553  0.00  0.00    -0.228 OA
BRANCH   9  10
ATOM     10  S   UNL d   1      -0.407  -1.887  -0.995  0.00  0.00     0.305 S 
ATOM     11  O   UNL d   1      -0.739  -2.807  -2.062  0.00  0.00    -0.193 OA
ATOM     12  O   UNL d   1       0.198  -2.364   0.236  0.00  0.00    -0.193 OA
BRANCH  10  13
ATOM     13  C   UNL d   1      -1.889  -1.018  -0.489  0.00  0.00     0.120 A 
ATOM     14  C   UNL d   1      -3.151  -1.624  -0.498  0.00  0.00     0.102 A 
ATOM     15  C   UNL d   1      -4.281  -0.836  -0.228  0.00  0.00     0.039 A 
ATOM     16  C   UNL d   1      -4.159   0.539   0.002  0.00  0.00     0.003 A 
ATOM     17  C   UNL d   1      -2.906   1.143  -0.027  0.00  0.00     0.002 A 
ATOM     18  C   UNL d   1      -1.771   0.364  -0.246  0.00  0.00     0.029 A 
BRANCH  14  19
ATOM     19  O   UNL d   1      -3.400  -2.854  -1.038  0.00  0.00    -0.254 OA
BRANCH  19  20
ATOM     20  C   UNL d   1      -3.182  -3.964  -0.176  0.00  0.00     0.530 C 
ATOM     21  F   UNL d   1      -2.034  -3.847   0.515  0.00  0.00    -0.144 F 
ATOM     22  F   UNL d   1      -4.208  -4.089   0.691  0.00  0.00    -0.144 F 
ATOM     23  F   UNL d   1      -3.122  -5.083  -0.929  0.00  0.00    -0.144 F 
ENDBRANCH  19  20
ENDBRANCH  14  19
ENDBRANCH  10  13
ENDBRANCH   9  10
ENDBRANCH   2   9
BRANCH   1  24
ATOM     24  C   UNL d   1       1.767   1.859  -6.414  0.00  0.00     0.070 C 
ATOM     25  N   UNL d   1       2.919   1.649  -6.974  0.00  0.00    -0.294 N 
ATOM     26  N   UNL d   1       3.205   2.252  -8.169  0.00  0.00    -0.261 N 
ATOM     27  HN  UNL d   1       3.605   1.041  -6.527  1.00  0.00     0.187 HD
ATOM     28  C   UNL d   1       4.492   1.937  -8.755  0.00  0.00     0.181 C 
ATOM     29  C   UNL d   1       2.283   2.966  -8.924  0.00  0.00     0.272 C 
ATOM     30  C   UNL d   1       0.994   3.262  -8.275  0.00  0.00     0.046 A 
ATOM     31  O   UNL d   1       2.497   3.381 -10.061  0.00  0.00    -0.266 OA
ATOM     32  C   UNL d   1       0.774   2.815  -6.980  0.00  0.00     0.009 A 
ATOM     33  C   UNL d   1       0.023   4.021  -8.944  0.00  0.00     0.018 A 
ATOM     34  C   UNL d   1      -0.376   3.261  -6.298  0.00  0.00     0.015 A 
ATOM     35  C   UNL d   1      -1.352   4.006  -6.966  0.00  0.00     0.001 A 
ATOM     36  C   UNL d   1      -1.165   4.364  -8.297  0.00  0.00     0.001 A 
ENDBRANCH   1  24
TORSDOF 6
