REMARK  8 active torsions:
REMARK  status: ('A' for Active; 'I' for Inactive)
REMARK    1  A    between atoms: C_2  and  S_1 
REMARK    2  A    between atoms: C_4  and  S_1 
REMARK    3  A    between atoms: C_6  and  C_2 
REMARK    4  A    between atoms: C_3  and  C_5 
REMARK       I    between atoms: N_18  and  C_6 
REMARK    5  A    between atoms: C_23  and  N_18 
REMARK    6  A    between atoms: C_19  and  S_22 
REMARK    7  A    between atoms: S_22  and  C_27 
REMARK    8  A    between atoms: C_27  and  C_23 
ROOT
ATOM      1  S   UNL d   1       0.950   0.090  -0.052  0.00  0.00     0.207 S 
ATOM      2  O   UNL d   1       0.574  -0.249  -1.419  0.00  0.00    -0.220 OA
ATOM      3  O   UNL d   1       0.509  -0.782   1.022  0.00  0.00    -0.220 OA
ENDROOT
BRANCH   1   4
ATOM      4  C   UNL d   1       0.345   1.760   0.278  0.00  0.00     0.143 C 
ATOM      5  C   UNL d   1      -1.193   1.704   0.330  0.00  0.00     0.042 C 
ATOM      6  C   UNL d   1       0.828   2.302   1.631  0.00  0.00     0.042 C 
BRANCH   4   7
ATOM      7  C   UNL d   1       0.897   2.646  -0.841  0.00  0.00     0.241 C 
ATOM      8  O   UNL d   1       2.107   2.758  -1.041  0.00  0.00    -0.272 OA
ATOM      9  N   UNL d   1      -0.009   3.347  -1.610  0.00  0.00    -0.359 N 
ATOM     10  H   UNL d   1      -0.959   3.486  -1.289  0.00  0.00     0.162 HD
BRANCH   9  11
ATOM     11  C   UNL d   1       0.445   4.274  -2.633  0.00  0.00     0.133 C 
BRANCH  11  12
ATOM     12  C   UNL d   1      -0.704   4.897  -3.431  0.00  0.00     0.094 C 
BRANCH  12  13
ATOM     13  S   UNL d   1      -1.826   5.849  -2.333  0.00  0.00    -0.159 SA
BRANCH  13  14
ATOM     14  C   UNL d   1      -3.026   6.577  -3.545  0.00  0.00    -0.003 C 
ATOM     15  C   UNL d   1      -3.844   5.466  -4.213  0.00  0.00     0.026 C 
ATOM     16  C   UNL d   1      -3.976   7.485  -2.744  0.00  0.00     0.026 C 
ATOM     17  C   UNL d   1      -2.305   7.428  -4.596  0.00  0.00     0.026 C 
ENDBRANCH  13  14
ENDBRANCH  12  13
ENDBRANCH  11  12
ENDBRANCH   9  11
ENDBRANCH   4   7
ENDBRANCH   1   4
BRANCH   1  18
ATOM     18  C   UNL d   1       2.742   0.116   0.007  0.00  0.00     0.129 A 
ATOM     19  N   UNL d   1       3.258   0.468   1.212  0.00  0.00    -0.356 N 
ATOM     20  C   UNL d   1       4.606   0.501   1.300  0.00  0.00     0.105 A 
ATOM     21  HN  UNL d   1       2.661   0.695   2.007  1.00  0.00     0.166 HD
ATOM     22  C   UNL d   1       5.463   0.173   0.256  0.00  0.00     0.063 A 
ATOM     23  C   UNL d   1       4.885  -0.226  -0.958  0.00  0.00     0.020 A 
ATOM     24  C   UNL d   1       3.499  -0.260  -1.092  0.00  0.00     0.043 A 
BRANCH  22  25
ATOM     25  C   UNL d   1       6.948   0.254   0.432  0.00  0.00     0.418 C 
ATOM     26  F   UNL d   1       7.330   0.678   1.669  0.00  0.00    -0.166 F 
ATOM     27  F   UNL d   1       7.561  -0.947   0.246  0.00  0.00    -0.166 F 
ATOM     28  F   UNL d   1       7.533   1.111  -0.450  0.00  0.00    -0.166 F 
ENDBRANCH  22  25
ENDBRANCH   1  18
TORSDOF 8
