REMARK  4 active torsions:
REMARK  status: ('A' for Active; 'I' for Inactive)
REMARK       I    between atoms: C_3  and  N_1 
REMARK       I    between atoms: C_4  and  N_1 
REMARK    1  A    between atoms: C_2  and  C_5 
REMARK    2  A    between atoms: C_7  and  C_3 
REMARK       I    between atoms: N_6  and  C_4 
REMARK    3  A    between atoms: N_9  and  N_6 
REMARK    4  A    between atoms: C_8  and  N_9 
ROOT
ATOM      1  N   UNL d   1       1.092  -0.104   0.057  0.00  0.00    -0.274 N 
ATOM      2  C   UNL d   1       0.341  -0.770   1.007  0.00  0.00     0.259 C 
ATOM      3  C   UNL d   1       2.454  -0.191  -0.143  0.00  0.00     0.337 C 
ATOM      4  N   UNL d   1       3.130  -1.021   0.722  0.00  0.00    -0.267 N 
ATOM      5  O   UNL d   1       0.779  -1.670   1.720  0.00  0.00    -0.267 OA
ATOM      6  O   UNL d   1       2.979   0.506  -1.014  0.00  0.00    -0.246 OA
ATOM      7  H   UNL d   1       0.648   0.529  -0.589  0.00  0.00     0.173 HD
ATOM      8  H   UNL d   1       2.584  -1.787   1.141  0.00  0.00     0.186 HD
ENDROOT
BRANCH   2   9
ATOM      9  C   UNL d   1      -1.089  -0.393   1.133  0.00  0.00     0.032 A 
ATOM     10  C   UNL d   1      -1.975  -1.369   1.608  0.00  0.00     0.018 A 
ATOM     11  C   UNL d   1      -3.311  -1.054   1.855  0.00  0.00     0.017 A 
ATOM     12  C   UNL d   1      -3.783   0.249   1.641  0.00  0.00     0.048 A 
ATOM     13  C   UNL d   1      -2.898   1.219   1.141  0.00  0.00     0.017 A 
ATOM     14  C   UNL d   1      -1.556   0.903   0.889  0.00  0.00     0.018 A 
BRANCH  12  15
ATOM     15  C   UNL d   1      -5.215   0.588   1.988  0.00  0.00     0.417 C 
ATOM     16  F   UNL d   1      -5.531   1.895   1.776  0.00  0.00    -0.166 F 
ATOM     17  F   UNL d   1      -6.112  -0.138   1.266  0.00  0.00    -0.166 F 
ATOM     18  F   UNL d   1      -5.500   0.342   3.297  0.00  0.00    -0.166 F 
ENDBRANCH  12  15
ENDBRANCH   2   9
BRANCH   4  19
ATOM     19  N   UNL d   1       4.454  -1.394   0.387  0.00  0.00    -0.186 NA
ATOM     20  H   UNL d   1       5.128  -0.789   0.851  0.00  0.00     0.154 HD
BRANCH  19  21
ATOM     21  C   UNL d   1       4.704  -2.750   0.724  0.00  0.00     0.098 A 
ATOM     22  N   UNL d   1       3.673  -3.541   1.111  0.00  0.00    -0.356 N 
ATOM     23  C   UNL d   1       3.937  -4.836   1.385  0.00  0.00     0.089 A 
ATOM     24  HN  UNL d   1       2.727  -3.169   1.191  1.00  0.00     0.166 HD
ATOM     25  C   UNL d   1       5.195  -5.402   1.290  0.00  0.00     0.017 A 
ATOM     26  C   UNL d   1       6.245  -4.589   0.884  0.00  0.00     0.005 A 
ATOM     27  C   UNL d   1       5.998  -3.249   0.592  0.00  0.00     0.044 A 
ENDBRANCH  19  21
ENDBRANCH   4  19
TORSDOF 4
