REMARK  1 active torsions:
REMARK  status: ('A' for Active; 'I' for Inactive)
REMARK    1  A    between atoms: C_6  and  C_1 
REMARK       I    between atoms: N_8  and  C_6 
ROOT
ATOM      1  C   UNL d   1       2.259   0.080   0.304  0.00  0.00     0.080 A 
ATOM      2  C   UNL d   1      -0.025  -0.715   0.438  0.00  0.00     0.057 A 
ATOM      3  S   UNL d   1       1.465  -1.409   0.704  0.00  0.00    -0.076 SA
ATOM      4  C   UNL d   1       1.341   1.122   0.074  0.00  0.00    -0.027 A 
ATOM      5  C   UNL d   1       0.024   0.598   0.165  0.00  0.00     0.002 A 
ATOM      6  S   UNL d   1      -1.569  -1.343   0.495  0.00  0.00    -0.093 SA
ATOM      7  C   UNL d   1      -1.249   1.216   0.049  0.00  0.00    -0.043 A 
ATOM      8  C   UNL d   1      -2.223   0.223   0.178  0.00  0.00     0.058 A 
ATOM      9  C   UNL d   1       1.727   2.537  -0.204  0.00  0.00     0.050 C 
ATOM     10  C   UNL d   1      -1.603   2.649  -0.152  0.00  0.00     0.049 C 
ENDROOT
BRANCH   1  11
ATOM     11  C   UNL d   1       3.712   0.202   0.423  0.00  0.00     0.261 C 
ATOM     12  N   UNL d   1       4.560  -0.680  -0.250  0.00  0.00    -0.344 N 
ATOM     13  C   UNL d   1       4.205  -1.800  -1.125  0.00  0.00     0.152 C 
ATOM     14  C   UNL d   1       6.006  -0.599  -0.011  0.00  0.00     0.152 C 
ATOM     15  C   UNL d   1       4.737  -3.103  -0.514  0.00  0.00     0.187 C 
ATOM     16  O   UNL d   1       6.164  -3.028  -0.326  0.00  0.00    -0.388 OA
ATOM     17  C   UNL d   1       6.517  -1.935   0.541  0.00  0.00     0.187 C 
ATOM     18  O   UNL d   1       4.195   1.113   1.100  0.00  0.00    -0.267 OA
ENDBRANCH   1  11
TORSDOF 1
