REMARK  4 active torsions:
REMARK  status: ('A' for Active; 'I' for Inactive)
REMARK    1  A    between atoms: C_12  and  C_1 
REMARK    2  A    between atoms: S_3  and  N_2 
REMARK    3  A    between atoms: C_13  and  C_8 
REMARK    4  A    between atoms: C_11  and  C_15 
ROOT
ATOM      1  C   UNL d   1       2.353   1.569  -0.079  0.00  0.00     0.034 A 
ATOM      2  S   UNL d   1       2.558   2.624   1.242  0.00  0.00    -0.086 SA
ATOM      3  C   UNL d   1       3.973   3.307   0.580  0.00  0.00     0.034 A 
ATOM      4  C   UNL d   1       3.349   1.730  -1.020  0.00  0.00     0.023 A 
ATOM      5  C   UNL d   1       4.284   2.748  -0.643  0.00  0.00     0.023 A 
ENDROOT
BRANCH   1   6
ATOM      6  C   UNL d   1       1.215   0.604  -0.176  0.00  0.00     0.067 A 
ATOM      7  C   UNL d   1       0.160   0.479   0.749  0.00  0.00     0.068 A 
ATOM      8  C   UNL d   1      -0.679  -0.494   0.241  0.00  0.00     0.136 A 
ATOM      9  N   UNL d   1      -0.064  -0.937  -0.899  0.00  0.00    -0.292 N 
ATOM     10  N   UNL d   1       1.072  -0.260  -1.185  0.00  0.00    -0.297 N 
ATOM     11  C   UNL d   1      -0.419  -2.007  -1.802  0.00  0.00     0.178 C 
ATOM     12  HN  UNL d   1       1.683  -0.381  -1.993  1.00  0.00     0.187 HD
BRANCH   8  13
ATOM     13  C   UNL d   1      -1.961  -0.968   0.794  0.00  0.00     0.434 C 
ATOM     14  F   UNL d   1      -2.627  -1.841   0.004  0.00  0.00    -0.165 F 
ATOM     15  F   UNL d   1      -1.782  -1.581   1.991  0.00  0.00    -0.165 F 
ATOM     16  F   UNL d   1      -2.807   0.071   1.014  0.00  0.00    -0.165 F 
ENDBRANCH   8  13
ENDBRANCH   1   6
BRANCH   3  17
ATOM     17  C   UNL d   1       4.750   4.385   1.272  0.00  0.00     0.067 A 
ATOM     18  N   UNL d   1       5.825   4.975   0.729  0.00  0.00    -0.284 N 
ATOM     19  N   UNL d   1       6.185   5.896   1.662  0.00  0.00    -0.192 N 
ATOM     20  HN  UNL d   1       6.266   4.780  -0.169  1.00  0.00     0.188 HD
ATOM     21  C   UNL d   1       5.401   5.871   2.786  0.00  0.00     0.131 A 
ATOM     22  C   UNL d   1       4.450   4.910   2.556  0.00  0.00     0.052 A 
BRANCH  19  23
ATOM     23  S   UNL d   1       7.452   7.045   1.493  0.00  0.00     0.245 S 
ATOM     24  O   UNL d   1       6.777   8.334   1.511  0.00  0.00    -0.204 OA
ATOM     25  O   UNL d   1       8.416   6.684   2.514  0.00  0.00    -0.204 OA
ATOM     26  C   UNL d   1       8.176   6.802  -0.102  0.00  0.00     0.188 C 
ENDBRANCH  19  23
ENDBRANCH   3  17
TORSDOF 4
