REMARK  10 active torsions:
REMARK  status: ('A' for Active; 'I' for Inactive)
REMARK    1  A    between atoms: C_2  and  S_1 
REMARK    2  A    between atoms: C_14  and  S_1 
REMARK    3  A    between atoms: C_6  and  C_3 
REMARK    4  A    between atoms: C_7  and  C_3 
REMARK    5  A    between atoms: N_8  and  C_4 
REMARK    6  A    between atoms: C_5  and  N_8 
REMARK    7  A    between atoms: O_18  and  C_6 
REMARK    8  A    between atoms: O_17  and  C_7 
REMARK    9  A    between atoms: C_22  and  O_17 
REMARK   10  A    between atoms: C_21  and  O_18 
ROOT
ATOM      1  N   UNL d   1       0.945  -3.349   0.223  0.00  0.00    -0.363 N 
ATOM      2  H   UNL d   1       0.525  -4.284   0.249  0.00  0.00     0.165 HD
ENDROOT
BRANCH   1   3
ATOM      3  C   UNL d   1       1.240  -2.934  -1.061  0.00  0.00     0.112 C 
ATOM      4  C   UNL d   1       1.797  -3.617  -2.079  0.00  0.00     0.129 C 
BRANCH   4   5
ATOM      5  C   UNL d   1       2.314  -4.991  -1.873  0.00  0.00     0.300 C 
ATOM      6  O   UNL d   1       2.474  -5.520  -0.782  0.00  0.00    -0.259 OA
BRANCH   5   7
ATOM      7  O   UNL d   1       2.610  -5.571  -3.062  0.00  0.00    -0.318 OA
BRANCH   7   8
ATOM      8  C   UNL d   1       3.478  -6.713  -3.036  0.00  0.00     0.174 C 
ATOM      9  C   UNL d   1       2.731  -7.927  -3.542  0.00  0.00     0.034 C 
ENDBRANCH   7   8
ENDBRANCH   5   7
ENDBRANCH   4   5
BRANCH   4  10
ATOM     10  C   UNL d   1       1.947  -2.868  -3.345  0.00  0.00     0.300 C 
ATOM     11  O   UNL d   1       1.162  -2.014  -3.731  0.00  0.00    -0.259 OA
BRANCH  10  12
ATOM     12  O   UNL d   1       3.069  -3.253  -4.003  0.00  0.00    -0.318 OA
BRANCH  12  13
ATOM     13  C   UNL d   1       3.172  -2.829  -5.369  0.00  0.00     0.174 C 
ATOM     14  C   UNL d   1       2.327  -3.735  -6.248  0.00  0.00     0.034 C 
ENDBRANCH  12  13
ENDBRANCH  10  12
ENDBRANCH   4  10
ENDBRANCH   1   3
BRANCH   1  15
ATOM     15  C   UNL d   1       1.593  -2.943   1.352  0.00  0.00     0.060 A 
ATOM     16  C   UNL d   1       1.530  -3.620   2.615  0.00  0.00     0.093 A 
ATOM     17  C   UNL d   1       2.326  -3.014   3.567  0.00  0.00     0.075 A 
ATOM     18  S   UNL d   1       3.149  -1.648   2.955  0.00  0.00    -0.110 SA
ATOM     19  C   UNL d   1       2.426  -1.844   1.416  0.00  0.00     0.080 A 
BRANCH  16  20
ATOM     20  S   UNL d   1       0.573  -5.024   2.969  0.00  0.00     0.181 S 
ATOM     21  O   UNL d   1      -0.522  -4.973   2.019  0.00  0.00    -0.222 OA
ATOM     22  O   UNL d   1       0.346  -4.961   4.398  0.00  0.00    -0.222 OA
BRANCH  20  23
ATOM     23  C   UNL d   1       1.581  -6.455   2.584  0.00  0.00     0.105 C 
ATOM     24  C   UNL d   1       2.915  -6.460   3.317  0.00  0.00     0.026 C 
ATOM     25  C   UNL d   1       0.793  -7.725   2.910  0.00  0.00     0.026 C 
ENDBRANCH  20  23
ENDBRANCH  16  20
ENDBRANCH   1  15
TORSDOF 10
