REMARK  8 active torsions:
REMARK  status: ('A' for Active; 'I' for Inactive)
REMARK    1  A    between atoms: C_2  and  C_1 
REMARK    2  A    between atoms: C_5  and  C_1 
REMARK    3  A    between atoms: C_6  and  C_1 
REMARK    4  A    between atoms: O_18  and  C_1 
REMARK       I    between atoms: C_3  and  N_4 
REMARK    5  A    between atoms: C_7  and  C_3 
REMARK    6  A    between atoms: N_4  and  C_8 
REMARK    7  A    between atoms: O_21  and  C_5 
REMARK    8  A    between atoms: C_26  and  O_21 
ROOT
ATOM      1  C   UNL d   1       0.676  -0.876   1.053  0.00  0.00    -0.005 A 
ATOM      2  C   UNL d   1       0.115  -2.736   3.189  0.00  0.00     0.037 A 
ATOM      3  C   UNL d   1       0.777  -2.260   0.866  0.00  0.00     0.013 A 
ATOM      4  C   UNL d   1       0.315  -0.443   2.335  0.00  0.00     0.013 A 
ATOM      5  C   UNL d   1       0.517  -3.161   1.908  0.00  0.00     0.030 A 
ATOM      6  C   UNL d   1       0.044  -1.350   3.369  0.00  0.00     0.030 A 
ENDROOT
BRANCH   1   7
ATOM      7  C   UNL d   1       0.997   0.116  -0.069  0.00  0.00     0.271 C 
BRANCH   7   8
ATOM      8  C   UNL d   1       0.161  -0.071  -1.357  0.00  0.00     0.432 C 
ATOM      9  F   UNL d   1       0.917  -0.316  -2.454  0.00  0.00    -0.167 F 
ATOM     10  F   UNL d   1      -0.750  -1.068  -1.280  0.00  0.00    -0.167 F 
ATOM     11  F   UNL d   1      -0.535   1.066  -1.636  0.00  0.00    -0.167 F 
ENDBRANCH   7   8
BRANCH   7  12
ATOM     12  C   UNL d   1       2.465  -0.021  -0.500  0.00  0.00     0.308 C 
ATOM     13  O   UNL d   1       3.107  -1.061  -0.545  0.00  0.00    -0.261 OA
BRANCH  12  14
ATOM     14  O   UNL d   1       2.992   1.214  -0.785  0.00  0.00    -0.319 OA
BRANCH  14  15
ATOM     15  C   UNL d   1       4.417   1.288  -0.665  0.00  0.00     0.174 C 
ATOM     16  C   UNL d   1       4.748   1.540   0.796  0.00  0.00     0.034 C 
ENDBRANCH  14  15
ENDBRANCH  12  14
ENDBRANCH   7  12
BRANCH   7  17
ATOM     17  O   UNL d   1       0.808   1.461   0.472  0.00  0.00    -0.368 OA
ATOM     18  H   UNL d   1       1.005   2.084  -0.253  0.00  0.00     0.212 HD
ENDBRANCH   7  17
ENDBRANCH   1   7
BRANCH   2  19
ATOM     19  N   UNL d   1      -0.218  -3.702   4.234  0.00  0.00    -0.318 N 
ATOM     20  C   UNL d   1      -0.520  -3.297   5.561  0.00  0.00     0.258 C 
ATOM     21  O   UNL d   1      -0.575  -2.126   5.944  0.00  0.00    -0.267 OA
ATOM     22  C   UNL d   1      -0.299  -5.100   3.797  0.00  0.00     0.159 C 
BRANCH  20  23
ATOM     23  C   UNL d   1      -0.827  -4.272   6.657  0.00  0.00     0.032 A 
ATOM     24  C   UNL d   1      -0.204  -5.513   6.813  0.00  0.00     0.017 A 
ATOM     25  C   UNL d   1      -0.556  -6.354   7.874  0.00  0.00     0.007 A 
ATOM     26  C   UNL d   1      -1.461  -5.930   8.855  0.00  0.00    -0.062 A 
ATOM     27  C   UNL d   1      -2.031  -4.661   8.747  0.00  0.00     0.007 A 
ATOM     28  C   UNL d   1      -1.798  -6.831  10.005  0.00  0.00     0.048 C 
ATOM     29  C   UNL d   1      -1.725  -3.848   7.654  0.00  0.00     0.017 A 
ENDBRANCH  20  23
ENDBRANCH   2  19
TORSDOF 8
