REMARK  2 active torsions:
REMARK  status: ('A' for Active; 'I' for Inactive)
REMARK    1  A    between atoms: C_6  and  C_1 
REMARK    2  A    between atoms: C_5  and  C_2 
REMARK       I    between atoms: N_15  and  C_6 
ROOT
ATOM      1  C   UNL d   1      -1.404  -0.758   0.014  0.00  0.00     0.137 A 
ATOM      2  C   UNL d   1      -0.086  -1.337  -0.011  0.00  0.00     0.056 A 
ATOM      3  N   UNL d   1      -1.327   0.581   0.075  0.00  0.00    -0.255 N 
ATOM      4  HN  UNL d   1      -2.109   1.235   0.122  1.00  0.00     0.195 HD
ATOM      5  O   UNL d   1       0.009   0.897   0.063  0.00  0.00    -0.241 OA
ATOM      6  C   UNL d   1       0.752  -0.237   0.029  0.00  0.00     0.087 A 
ATOM      7  C   UNL d   1       2.216  -0.031   0.029  0.00  0.00     0.080 C 
ENDROOT
BRANCH   2   8
ATOM      8  C   UNL d   1       0.347  -2.720  -0.047  0.00  0.00     0.051 A 
ATOM      9  N   UNL d   1       1.422  -3.039   0.599  0.00  0.00    -0.332 N 
ATOM     10  C   UNL d   1       1.844  -4.343   0.548  0.00  0.00     0.176 A 
ATOM     11  HN  UNL d   1       1.941  -2.341   1.130  1.00  0.00     0.168 HD
ATOM     12  S   UNL d   1       3.213  -4.909   1.331  0.00  0.00    -0.041 SA
ATOM     13  N   UNL d   1       1.112  -5.240  -0.196  0.00  0.00    -0.343 N 
ATOM     14  C   UNL d   1      -0.012  -4.899  -0.891  0.00  0.00     0.092 A 
ATOM     15  H   UNL d   1       1.451  -6.196  -0.208  0.00  0.00     0.167 HD
ATOM     16  C   UNL d   1      -0.456  -3.642  -0.876  0.00  0.00     0.047 A 
ENDBRANCH   2   8
BRANCH   1  17
ATOM     17  C   UNL d   1      -2.682  -1.485   0.092  0.00  0.00     0.272 C 
ATOM     18  N   UNL d   1      -3.836  -1.002  -0.544  0.00  0.00    -0.355 N 
ATOM     19  C   UNL d   1      -5.048  -1.802  -0.472  0.00  0.00     0.152 C 
ATOM     20  C   UNL d   1      -3.969   0.242  -1.296  0.00  0.00     0.152 C 
ATOM     21  O   UNL d   1      -2.709  -2.572   0.677  0.00  0.00    -0.266 OA
ENDBRANCH   1  17
TORSDOF 2
