REMARK  7 active torsions:
REMARK  status: ('A' for Active; 'I' for Inactive)
REMARK    1  A    between atoms: C_4  and  N_1 
REMARK    2  A    between atoms: N_2  and  C_3 
REMARK    3  A    between atoms: C_25  and  C_5 
REMARK    4  A    between atoms: C_6  and  O_11 
REMARK    5  A    between atoms: O_11  and  C_12 
REMARK    6  A    between atoms: C_15  and  O_22 
REMARK    7  A    between atoms: O_22  and  C_21 
ROOT
ATOM      1  C   UNL d   1      -1.583   0.830   6.009  0.00  0.00     0.011 C 
ATOM      2  C   UNL d   1      -1.738  -0.572   5.868  0.00  0.00     0.089 C 
ATOM      3  C   UNL d   1      -1.140   1.288   7.272  0.00  0.00     0.052 C 
ATOM      4  C   UNL d   1      -0.876   0.402   8.326  0.00  0.00     0.078 C 
ATOM      5  C   UNL d   1      -1.633  -1.431   6.975  0.00  0.00     0.041 C 
ATOM      6  C   UNL d   1      -1.197  -0.945   8.198  0.00  0.00     0.040 C 
ENDROOT
BRANCH   2   7
ATOM      7  O   UNL d   1      -2.033  -1.086   4.620  0.00  0.00    -0.293 OA
BRANCH   7   8
ATOM      8  C   UNL d   1      -1.438  -2.257   4.208  0.00  0.00     0.148 A 
ATOM      9  C   UNL d   1      -0.135  -2.622   4.544  0.00  0.00     0.059 A 
ATOM     10  C   UNL d   1       0.363  -3.845   4.089  0.00  0.00     0.041 A 
ATOM     11  C   UNL d   1      -0.447  -4.636   3.272  0.00  0.00     0.118 A 
ATOM     12  C   UNL d   1      -1.713  -4.182   2.944  0.00  0.00     0.126 A 
ATOM     13  N   UNL d   1      -2.222  -3.011   3.401  0.00  0.00    -0.344 N 
ATOM     14  HN  UNL d   1      -3.162  -2.708   3.145  1.00  0.00     0.167 HD
BRANCH  11  15
ATOM     15  N   UNL d   1       0.020  -5.917   2.764  0.00  0.00    -0.114 N 
ATOM     16  O   UNL d   1      -0.734  -6.547   2.007  0.00  0.00    -0.532 OA
ATOM     17  O   UNL d   1       1.141  -6.302   3.119  0.00  0.00    -0.532 OA
ENDBRANCH  11  15
ENDBRANCH   7   8
ENDBRANCH   2   7
BRANCH   1  18
ATOM     18  C   UNL d   1      -1.849   1.801   4.902  0.00  0.00    -0.023 A 
ATOM     19  C   UNL d   1      -2.861   1.583   3.945  0.00  0.00     0.012 A 
ATOM     20  C   UNL d   1      -3.086   2.470   2.886  0.00  0.00     0.001 A 
ATOM     21  C   UNL d   1      -2.332   3.631   2.777  0.00  0.00     0.000 A 
ATOM     22  C   UNL d   1      -1.355   3.902   3.728  0.00  0.00     0.001 A 
ATOM     23  C   UNL d   1      -1.113   2.995   4.770  0.00  0.00     0.012 A 
ENDBRANCH   1  18
BRANCH   4  24
ATOM     24  O   UNL d   1      -0.354   0.919   9.491  0.00  0.00    -0.294 OA
BRANCH  24  25
ATOM     25  C   UNL d   1       0.742   0.251  10.039  0.00  0.00     0.148 A 
ATOM     26  N   UNL d   1       1.515  -0.547   9.258  0.00  0.00    -0.344 N 
ATOM     27  C   UNL d   1       2.545  -1.194   9.856  0.00  0.00     0.126 A 
ATOM     28  HN  UNL d   1       1.328  -0.654   8.261  1.00  0.00     0.167 HD
ATOM     29  C   UNL d   1       2.841  -1.058  11.203  0.00  0.00     0.118 A 
ATOM     30  C   UNL d   1       2.054  -0.211  11.988  0.00  0.00     0.041 A 
ATOM     31  C   UNL d   1       0.985   0.460  11.390  0.00  0.00     0.059 A 
BRANCH  29  32
ATOM     32  N   UNL d   1       3.954  -1.802  11.775  0.00  0.00    -0.114 N 
ATOM     33  O   UNL d   1       4.589  -2.557  11.027  0.00  0.00    -0.532 OA
ATOM     34  O   UNL d   1       4.194  -1.637  12.980  0.00  0.00    -0.532 OA
ENDBRANCH  29  32
ENDBRANCH  24  25
ENDBRANCH   4  24
TORSDOF 7
