REMARK  3 active torsions:
REMARK  status: ('A' for Active; 'I' for Inactive)
REMARK    1  A    between atoms: N_2  and  C_1 
REMARK    2  A    between atoms: C_14  and  C_8 
REMARK    3  A    between atoms: S_21  and  C_11 
ROOT
ATOM      1  C   UNL d   1       2.141   0.036  -0.054  0.00  0.00     0.705 A 
ATOM      2  N   UNL d   1       1.508  -1.135  -0.247  0.00  0.00    -0.182 N 
ATOM      3  HN  UNL d   1       2.031  -1.991  -0.433  1.00  0.00     0.185 HD
ATOM      4  N   UNL d   1       1.493   1.194   0.168  0.00  0.00    -0.185 N 
ATOM      5  HN  UNL d   1       2.004   2.061   0.330  1.00  0.00     0.184 HD
ATOM      6  C   UNL d   1      -0.590   0.007  -0.008  0.00  0.00     0.108 A 
ATOM      7  C   UNL d   1       0.139   1.169   0.169  0.00  0.00     0.106 A 
ATOM      8  C   UNL d   1       0.161  -1.143  -0.186  0.00  0.00     0.109 A 
ATOM      9  C   UNL d   1      -2.016  -0.016  -0.057  0.00  0.00     0.104 C 
ATOM     10  N   UNL d   1      -3.176  -0.051  -0.121  0.00  0.00    -0.191 NA
ENDROOT
BRANCH   7  11
ATOM     11  C   UNL d   1      -0.440   2.498   0.352  0.00  0.00     0.103 A 
ATOM     12  O   UNL d   1      -1.672   2.564   0.937  0.00  0.00    -0.320 OA
ATOM     13  C   UNL d   1      -2.011   3.875   1.025  0.00  0.00     0.142 A 
ATOM     14  C   UNL d   1      -1.009   4.665   0.515  0.00  0.00     0.027 A 
ATOM     15  C   UNL d   1       0.010   3.778   0.089  0.00  0.00     0.041 A 
ENDBRANCH   7  11
BRANCH   8  16
ATOM     16  S   UNL d   1      -0.607  -2.759  -0.357  0.00  0.00    -0.115 SA
ATOM     17  C   UNL d   1       0.832  -3.852  -0.200  0.00  0.00     0.097 C 
ENDBRANCH   8  16
BRANCH   1  18
ATOM     18  N   UNL d   1       3.582   0.029  -0.034  0.00  0.00    -0.091 N 
ATOM     19  N   UNL d   1       4.276   0.996   0.637  0.00  0.00    -0.284 N 
ATOM     20  C   UNL d   1       5.533   0.547   0.686  0.00  0.00     0.025 C 
ATOM     21  HN  UNL d   1       3.913   1.870   1.017  1.00  0.00     0.188 HD
ATOM     22  C   UNL d   1       6.570   1.267   1.464  0.00  0.00     0.070 C 
ATOM     23  C   UNL d   1       5.699  -0.619  -0.083  0.00  0.00     0.053 C 
ATOM     24  C   UNL d   1       4.449  -0.912  -0.585  0.00  0.00     0.050 C 
ATOM     25  C   UNL d   1       4.069  -1.970  -1.556  0.00  0.00     0.071 C 
ENDBRANCH   1  18
TORSDOF 3
