REMARK  7 active torsions:
REMARK  status: ('A' for Active; 'I' for Inactive)
REMARK    1  A    between atoms: C_2  and  C_1 
REMARK    2  A    between atoms: C_24  and  N_3 
REMARK    3  A    between atoms: N_9  and  C_15 
REMARK    4  A    between atoms: S_20  and  C_10 
REMARK    5  A    between atoms: C_17  and  C_19 
REMARK    6  A    between atoms: C_19  and  C_22 
REMARK    7  A    between atoms: C_22  and  S_20 
ROOT
ATOM      1  C   UNL d   1      -0.940  -2.554  -0.007  0.00  0.00     0.193 A 
ATOM      2  O   UNL d   1      -1.596  -3.073  -1.097  0.00  0.00    -0.266 OA
ATOM      3  N   UNL d   1      -0.722  -3.471   0.915  0.00  0.00    -0.275 N 
ATOM      4  HN  UNL d   1      -0.274  -3.328   1.820  1.00  0.00     0.189 HD
ATOM      5  C   UNL d   1      -1.708  -4.394  -0.771  0.00  0.00     0.204 A 
ATOM      6  N   UNL d   1      -1.214  -4.660   0.421  0.00  0.00    -0.272 N 
ATOM      7  HN  UNL d   1      -1.200  -5.567   0.887  1.00  0.00     0.189 HD
ENDROOT
BRANCH   5   8
ATOM      8  S   UNL d   1      -2.362  -5.579  -1.855  0.00  0.00    -0.077 SA
BRANCH   8   9
ATOM      9  C   UNL d   1      -1.534  -7.061  -1.213  0.00  0.00     0.166 C 
BRANCH   9  10
ATOM     10  C   UNL d   1      -1.836  -8.296  -2.046  0.00  0.00     0.169 C 
ATOM     11  O   UNL d   1      -2.636  -8.315  -2.978  0.00  0.00    -0.291 OA
BRANCH  10  12
ATOM     12  C   UNL d   1      -1.112  -9.566  -1.712  0.00  0.00     0.013 A 
ATOM     13  C   UNL d   1      -0.211  -9.663  -0.645  0.00  0.00     0.051 A 
ATOM     14  C   UNL d   1       0.473 -10.871  -0.424  0.00  0.00     0.103 A 
ATOM     15  C   UNL d   1       0.250 -11.986  -1.242  0.00  0.00     0.036 A 
ATOM     16  C   UNL d   1      -0.664 -11.893  -2.289  0.00  0.00     0.003 A 
ATOM     17  C   UNL d   1      -1.337 -10.691  -2.523  0.00  0.00     0.015 A 
BRANCH  14  18
ATOM     18  N   UNL d   1       1.453 -10.958   0.668  0.00  0.00    -0.116 N 
ATOM     19  O   UNL d   1       1.626  -9.945   1.362  0.00  0.00    -0.532 OA
ATOM     20  O   UNL d   1       2.048 -12.031   0.825  0.00  0.00    -0.532 OA
ENDBRANCH  14  18
ENDBRANCH  10  12
ENDBRANCH   9  10
ENDBRANCH   8   9
ENDBRANCH   5   8
BRANCH   1  21
ATOM     21  C   UNL d   1      -0.519  -1.196   0.065  0.00  0.00     0.105 A 
ATOM     22  N   UNL d   1       0.502  -0.709   0.843  0.00  0.00    -0.288 N 
ATOM     23  N   UNL d   1       0.707   0.618   0.670  0.00  0.00    -0.303 N 
ATOM     24  C   UNL d   1      -0.183   0.974  -0.261  0.00  0.00     0.024 A 
ATOM     25  HN  UNL d   1       1.387   1.212   1.144  1.00  0.00     0.186 HD
ATOM     26  C   UNL d   1      -0.980  -0.118  -0.660  0.00  0.00     0.061 A 
ATOM     27  C   UNL d   1      -0.220   2.365  -0.772  0.00  0.00     0.070 C 
BRANCH  22  28
ATOM     28  C   UNL d   1       1.448  -1.443   1.666  0.00  0.00     0.145 C 
ATOM     29  C   UNL d   1       1.040  -1.518   3.126  0.00  0.00     0.028 C 
ENDBRANCH  22  28
ENDBRANCH   1  21
TORSDOF 7
