REMARK  6 active torsions:
REMARK  status: ('A' for Active; 'I' for Inactive)
REMARK    1  A    between atoms: S_12  and  C_4 
REMARK    2  A    between atoms: S_11  and  C_5 
REMARK    3  A    between atoms: C_16  and  S_11 
REMARK    4  A    between atoms: C_15  and  S_12 
REMARK    5  A    between atoms: C_13  and  C_16 
REMARK    6  A    between atoms: C_14  and  C_15 
ROOT
ATOM      1  N   UNL d   1      -5.487  -3.293  -4.460  0.00  0.00    -0.197 NA
ATOM      2  C   UNL d   1      -5.293  -3.125  -3.328  0.00  0.00     0.059 C 
ATOM      3  C   UNL d   1      -5.033  -2.894  -1.900  0.00  0.00     0.134 C 
ENDROOT
BRANCH   3   4
ATOM      4  C   UNL d   1      -3.846  -1.945  -1.729  0.00  0.00     0.094 C 
BRANCH   4   5
ATOM      5  S   UNL d   1      -3.558  -1.598   0.035  0.00  0.00    -0.120 SA
BRANCH   5   6
ATOM      6  C   UNL d   1      -2.122  -0.606  -0.048  0.00  0.00     0.067 A 
ATOM      7  C   UNL d   1      -2.099   0.746  -0.036  0.00  0.00     0.067 A 
ATOM      8  S   UNL d   1      -0.513   1.487   0.032  0.00  0.00    -0.062 SA
ATOM      9  C   UNL d   1       0.427   0.008   0.011  0.00  0.00     0.115 A 
ATOM     10  S   UNL d   1      -0.576  -1.426  -0.050  0.00  0.00    -0.062 SA
ATOM     11  S   UNL d   1       2.092  -0.024   0.022  0.00  0.00    -0.064 SA
BRANCH   7  12
ATOM     12  S   UNL d   1      -3.542   1.730   0.013  0.00  0.00    -0.120 SA
BRANCH  12  13
ATOM     13  C   UNL d   1      -3.123   3.249  -0.902  0.00  0.00     0.094 C 
BRANCH  13  14
ATOM     14  C   UNL d   1      -2.785   2.996  -2.368  0.00  0.00     0.134 C 
ATOM     15  C   UNL d   1      -2.565   4.265  -3.069  0.00  0.00     0.059 C 
ATOM     16  N   UNL d   1      -2.388   5.271  -3.624  0.00  0.00    -0.197 NA
ENDBRANCH  13  14
ENDBRANCH  12  13
ENDBRANCH   7  12
ENDBRANCH   5   6
ENDBRANCH   4   5
ENDBRANCH   3   4
TORSDOF 6
