REMARK  5 active torsions:
REMARK  status: ('A' for Active; 'I' for Inactive)
REMARK    1  A    between atoms: C_2  and  C_1 
REMARK    2  A    between atoms: C_3  and  C_2 
REMARK    3  A    between atoms: C_10  and  C_3 
REMARK    4  A    between atoms: O_15  and  C_10 
REMARK    5  A    between atoms: N_14  and  C_11 
ROOT
ATOM      1  C   UNL d   1       0.865  -5.171  -0.023  0.00  0.00     0.210 C 
ATOM      2  O   UNL d   1       1.818  -5.755  -0.548  0.00  0.00    -0.286 OA
ENDROOT
BRANCH   1   3
ATOM      3  C   UNL d   1      -0.225  -5.976   0.513  0.00  0.00     0.097 A 
ATOM      4  C   UNL d   1      -1.129  -5.898   1.566  0.00  0.00     0.045 A 
ATOM      5  N   UNL d   1      -1.996  -6.994   1.671  0.00  0.00    -0.298 N 
ATOM      6  C   UNL d   1      -1.313  -4.855   2.603  0.00  0.00     0.071 C 
ATOM      7  N   UNL d   1      -1.765  -7.907   0.752  0.00  0.00    -0.269 N 
ATOM      8  HN  UNL d   1      -2.724  -7.075   2.381  1.00  0.00     0.187 HD
ATOM      9  S   UNL d   1      -0.515  -7.500  -0.262  0.00  0.00     0.007 SA
ATOM     10  HN  UNL d   1      -2.298  -8.773   0.671  1.00  0.00     0.195 HD
ENDBRANCH   1   3
BRANCH   1  11
ATOM     11  C   UNL d   1       0.866  -3.644  -0.025  0.00  0.00     0.112 C 
ATOM     12  C   UNL d   1       2.030  -2.914   0.027  0.00  0.00     0.021 C 
ATOM     13  C   UNL d   1       3.421  -3.535  -0.073  0.00  0.00     0.069 C 
BRANCH  11  14
ATOM     14  C   UNL d   1      -0.469  -2.975  -0.203  0.00  0.00     0.298 C 
ATOM     15  O   UNL d   1      -1.539  -3.534  -0.044  0.00  0.00    -0.259 OA
BRANCH  14  16
ATOM     16  O   UNL d   1      -0.362  -1.697  -0.661  0.00  0.00    -0.322 OA
ATOM     17  C   UNL d   1      -1.595  -1.077  -1.038  0.00  0.00     0.213 C 
ENDBRANCH  14  16
ENDBRANCH  11  14
BRANCH  12  18
ATOM     18  N   UNL d   1       2.063  -1.516   0.153  0.00  0.00    -0.397 N 
ATOM     19  C   UNL d   1       3.188  -0.614   0.284  0.00  0.00     0.146 C 
ATOM     20  H   UNL d   1       1.153  -1.061   0.229  0.00  0.00     0.158 HD
ENDBRANCH  12  18
ENDBRANCH   1  11
TORSDOF 5
