REMARK  4 active torsions:
REMARK  status: ('A' for Active; 'I' for Inactive)
REMARK    1  A    between atoms: C_4  and  C_1 
REMARK       I    between atoms: C_2  and  N_6 
REMARK       I    between atoms: N_5  and  C_2 
REMARK    2  A    between atoms: N_3  and  C_4 
REMARK    3  A    between atoms: C_17  and  N_5 
REMARK    4  A    between atoms: N_6  and  C_12 
ROOT
ATOM      1  N   UNL d   1      -1.050   2.864   0.404  0.00  0.00     0.092 N 
ATOM      2  C   UNL d   1      -2.861   3.848  -0.982  0.00  0.00     0.055 C 
ATOM      3  C   UNL d   1      -3.284   3.481   1.429  0.00  0.00     0.055 C 
ATOM      4  C   UNL d   1      -3.930   3.461   0.037  0.00  0.00     0.089 C 
ATOM      5  C   UNL d   1      -1.676   2.891  -0.920  0.00  0.00     0.275 C 
ATOM      6  C   UNL d   1      -1.990   2.649   1.506  0.00  0.00     0.275 C 
ENDROOT
BRANCH   4   7
ATOM      7  N   UNL d   1      -4.545   2.158  -0.217  0.00  0.00    -0.338 N 
ATOM      8  C   UNL d   1      -5.328   1.642  -1.201  0.00  0.00     0.321 C 
ATOM      9  N   UNL d   1      -5.662   2.456  -2.247  0.00  0.00    -0.309 N 
ATOM     10  O   UNL d   1      -5.638   0.466  -1.064  0.00  0.00    -0.247 OA
ATOM     11  H   UNL d   1      -5.377   3.418  -2.185  0.00  0.00     0.170 HD
ATOM     12  H   UNL d   1      -4.353   1.425   0.456  0.00  0.00     0.164 HD
BRANCH   9  13
ATOM     13  C   UNL d   1      -6.296   2.048  -3.451  0.00  0.00     0.036 A 
ATOM     14  C   UNL d   1      -6.749   0.745  -3.689  0.00  0.00     0.029 A 
ATOM     15  C   UNL d   1      -7.258   0.367  -4.937  0.00  0.00     0.002 A 
ATOM     16  C   UNL d   1      -7.341   1.298  -5.966  0.00  0.00     0.000 A 
ATOM     17  C   UNL d   1      -6.949   2.613  -5.734  0.00  0.00     0.002 A 
ATOM     18  C   UNL d   1      -6.435   2.989  -4.482  0.00  0.00     0.029 A 
ENDBRANCH   9  13
ENDBRANCH   4   7
BRANCH   1  19
ATOM     19  C   UNL d   1       0.129   1.960   0.451  0.00  0.00     0.315 C 
BRANCH  19  20
ATOM     20  C   UNL d   1      -0.117   0.484   0.203  0.00  0.00     0.030 A 
ATOM     21  C   UNL d   1      -0.120   0.002  -1.117  0.00  0.00     0.126 A 
ATOM     22  F   UNL d   1       0.160   0.836  -2.130  0.00  0.00    -0.205 F 
ATOM     23  C   UNL d   1      -0.416  -1.324  -1.429  0.00  0.00     0.043 A 
ATOM     24  C   UNL d   1      -0.709  -2.222  -0.410  0.00  0.00     0.005 A 
ATOM     25  C   UNL d   1      -0.670  -1.788   0.914  0.00  0.00     0.024 A 
ATOM     26  C   UNL d   1      -0.362  -0.454   1.220  0.00  0.00     0.045 A 
ATOM     27 CL   UNL d   1      -0.271  -0.042   2.897  0.00  0.00    -0.084 Cl
ENDBRANCH  19  20
ENDBRANCH   1  19
TORSDOF 4
