REMARK  6 active torsions:
REMARK  status: ('A' for Active; 'I' for Inactive)
REMARK    1  A    between atoms: C_2  and  S_1 
REMARK    2  A    between atoms: N_10  and  S_1 
REMARK    3  A    between atoms: C_6  and  C_3 
REMARK    4  A    between atoms: C_12  and  C_4 
REMARK       I    between atoms: N_11  and  C_6 
REMARK    5  A    between atoms: C_7  and  N_11 
REMARK    6  A    between atoms: O_23  and  C_12 
ROOT
ATOM      1  C   UNL d   1       0.505   0.545  -1.635  0.00  0.00     0.186 A 
ATOM      2  C   UNL d   1      -0.322   1.762  -3.380  0.00  0.00     0.065 A 
ATOM      3  C   UNL d   1       0.168   1.830  -2.043  0.00  0.00     0.070 A 
ATOM      4  O   UNL d   1       0.252  -0.306  -2.686  0.00  0.00    -0.301 OA
ATOM      5  C   UNL d   1      -0.258   0.419  -3.713  0.00  0.00     0.066 A 
ATOM      6  C   UNL d   1      -0.616  -0.349  -4.928  0.00  0.00     0.078 C 
ENDROOT
BRANCH   2   7
ATOM      7  C   UNL d   1      -0.848   2.810  -4.247  0.00  0.00     0.258 C 
ATOM      8  N   UNL d   1      -0.442   4.088  -3.908  0.00  0.00    -0.321 N 
ATOM      9  H   UNL d   1       0.371   4.197  -3.311  0.00  0.00     0.169 HD
ATOM     10  O   UNL d   1      -1.555   2.536  -5.211  0.00  0.00    -0.267 OA
BRANCH   8  11
ATOM     11  C   UNL d   1      -0.943   5.250  -4.499  0.00  0.00     0.058 A 
ATOM     12  C   UNL d   1      -0.269   6.466  -4.494  0.00  0.00     0.106 A 
ATOM     13  S   UNL d   1      -1.176   7.689  -5.300  0.00  0.00    -0.094 SA
ATOM     14  C   UNL d   1      -2.457   6.624  -5.641  0.00  0.00     0.053 A 
ATOM     15  C   UNL d   1      -2.205   5.358  -5.169  0.00  0.00     0.038 A 
BRANCH  12  16
ATOM     16  C   UNL d   1       1.042   6.836  -3.986  0.00  0.00     0.302 C 
ATOM     17  O   UNL d   1       1.635   7.887  -4.202  0.00  0.00    -0.259 OA
BRANCH  16  18
ATOM     18  O   UNL d   1       1.557   5.823  -3.218  0.00  0.00    -0.322 OA
ATOM     19  C   UNL d   1       2.863   6.101  -2.705  0.00  0.00     0.213 C 
ENDBRANCH  16  18
ENDBRANCH  12  16
ENDBRANCH   8  11
ENDBRANCH   2   7
BRANCH   1  20
ATOM     20  S   UNL d   1       1.136  -0.050  -0.064  0.00  0.00     0.266 S 
ATOM     21  O   UNL d   1      -0.029  -0.169   0.781  0.00  0.00    -0.204 OA
ATOM     22  O   UNL d   1       2.200   0.879   0.255  0.00  0.00    -0.204 OA
BRANCH  20  23
ATOM     23  N   UNL d   1       1.819  -1.591  -0.285  0.00  0.00    -0.201 NA
ATOM     24  C   UNL d   1       0.879  -2.706  -0.624  0.00  0.00     0.134 C 
ATOM     25  C   UNL d   1       0.217  -3.301   0.627  0.00  0.00     0.183 C 
ATOM     26  O   UNL d   1       1.195  -3.713   1.593  0.00  0.00    -0.389 OA
ATOM     27  C   UNL d   1       2.013  -2.602   1.990  0.00  0.00     0.183 C 
ATOM     28  C   UNL d   1       2.766  -2.027   0.787  0.00  0.00     0.134 C 
ENDBRANCH  20  23
ENDBRANCH   1  20
TORSDOF 6
