REMARK  5 active torsions:
REMARK  status: ('A' for Active; 'I' for Inactive)
REMARK    1  A    between atoms: C_4  and  C_1 
REMARK    2  A    between atoms: C_6  and  O_13 
REMARK    3  A    between atoms: N_12  and  C_8 
REMARK    4  A    between atoms: C_17  and  N_12 
REMARK    5  A    between atoms: O_13  and  C_18 
ROOT
ATOM      1  C   UNL d   1      -3.722  -0.051  -0.004  0.00  0.00     0.103 C 
ATOM      2  C   UNL d   1      -4.390   1.119  -0.049  0.00  0.00     0.115 C 
ATOM      3  C   UNL d   1      -2.298  -0.068   0.001  0.00  0.00     0.104 C 
ATOM      4  N   UNL d   1      -1.135  -0.108   0.002  0.00  0.00    -0.191 NA
ENDROOT
BRANCH   1   5
ATOM      5  C   UNL d   1      -4.494  -1.255   0.014  0.00  0.00     0.128 A 
ATOM      6  N   UNL d   1      -5.807  -1.420   0.012  0.00  0.00    -0.339 N 
ATOM      7  C   UNL d   1      -6.028  -2.776   0.006  0.00  0.00     0.060 A 
ATOM      8  HN  UNL d   1      -6.514  -0.686   0.015  1.00  0.00     0.167 HD
ATOM      9  C   UNL d   1      -7.234  -3.492  -0.012  0.00  0.00     0.032 A 
ATOM     10  C   UNL d   1      -4.825  -3.468   0.009  0.00  0.00     0.060 A 
ATOM     11  C   UNL d   1      -7.181  -4.892  -0.025  0.00  0.00     0.002 A 
ATOM     12  C   UNL d   1      -5.955  -5.562  -0.019  0.00  0.00     0.002 A 
ATOM     13  C   UNL d   1      -4.744  -4.861  -0.001  0.00  0.00     0.032 A 
ATOM     14  N   UNL d   1      -3.866  -2.484   0.022  0.00  0.00    -0.339 N 
ATOM     15  H   UNL d   1      -2.869  -2.652   0.027  0.00  0.00     0.167 HD
ENDBRANCH   1   5
BRANCH   2  16
ATOM     16  N   UNL d   1      -3.902   2.407  -0.101  0.00  0.00    -0.364 N 
ATOM     17  H   UNL d   1      -2.891   2.515  -0.099  0.00  0.00     0.165 HD
BRANCH  16  18
ATOM     18  C   UNL d   1      -4.620   3.615  -0.174  0.00  0.00     0.032 A 
ATOM     19  C   UNL d   1      -6.016   3.702  -0.119  0.00  0.00     0.032 A 
ATOM     20  C   UNL d   1      -6.677   4.937  -0.207  0.00  0.00     0.039 A 
ATOM     21  C   UNL d   1      -5.949   6.116  -0.315  0.00  0.00     0.078 A 
ATOM     22  C   UNL d   1      -4.559   6.040  -0.418  0.00  0.00     0.039 A 
ATOM     23  C   UNL d   1      -3.904   4.807  -0.344  0.00  0.00     0.032 A 
BRANCH  21  24
ATOM     24  O   UNL d   1      -6.451   7.378  -0.361  0.00  0.00    -0.255 OA
BRANCH  24  25
ATOM     25  C   UNL d   1      -7.715   7.649   0.228  0.00  0.00     0.530 C 
ATOM     26  F   UNL d   1      -8.119   6.718   1.116  0.00  0.00    -0.144 F 
ATOM     27  F   UNL d   1      -7.632   8.829   0.884  0.00  0.00    -0.144 F 
ATOM     28  F   UNL d   1      -8.649   7.772  -0.739  0.00  0.00    -0.144 F 
ENDBRANCH  24  25
ENDBRANCH  21  24
ENDBRANCH  16  18
ENDBRANCH   2  16
TORSDOF 5
