REMARK  1 active torsions:
REMARK  status: ('A' for Active; 'I' for Inactive)
REMARK    1  A    between atoms: C_2  and  N_1 
ROOT
ATOM      1  C   UNL d   1       0.259   1.029  -0.800  0.00  0.00     0.110 A 
ATOM      2  C   UNL d   1      -0.904   1.635  -0.303  0.00  0.00     0.055 A 
ATOM      3  C   UNL d   1       0.760   1.313  -2.084  0.00  0.00    -0.029 A 
ATOM      4  C   UNL d   1       0.052   2.243  -2.864  0.00  0.00     0.010 A 
ATOM      5  C   UNL d   1      -1.577   2.552  -1.103  0.00  0.00     0.013 A 
ATOM      6  C   UNL d   1      -1.107   2.858  -2.379  0.00  0.00     0.020 A 
ATOM      7 BR   UNL d   1      -3.137   3.397  -0.453  0.00  0.00    -0.051 Br
ATOM      8  C   UNL d   1       1.997   0.698  -2.675  0.00  0.00     0.050 C 
ENDROOT
BRANCH   1   9
ATOM      9  N   UNL d   1       0.930   0.086   0.078  0.00  0.00    -0.115 N 
ATOM     10  O   UNL d   1       0.280  -0.904   0.439  0.00  0.00    -0.532 OA
ATOM     11  O   UNL d   1       2.088   0.357   0.424  0.00  0.00    -0.532 OA
ENDBRANCH   1   9
TORSDOF 1
