REMARK  8 active torsions:
REMARK  status: ('A' for Active; 'I' for Inactive)
REMARK    1  A    between atoms: C_2  and  S_1 
REMARK    2  A    between atoms: C_7  and  S_1 
REMARK    3  A    between atoms: C_3  and  C_2 
REMARK    4  A    between atoms: N_19  and  C_3 
REMARK    5  A    between atoms: C_4  and  O_8 
REMARK    6  A    between atoms: C_11  and  C_4 
REMARK    7  A    between atoms: O_8  and  N_5 
REMARK    8  A    between atoms: C_12  and  C_13 
ROOT
ATOM      1  C   UNL d   1       2.169   1.544   0.474  0.00  0.00     0.110 C 
ATOM      2  N   UNL d   1       2.715   0.417   0.829  0.00  0.00    -0.245 N 
ATOM      3  HN  UNL d   1       3.441  -0.067   0.301  1.00  0.00     0.196 HD
ENDROOT
BRANCH   2   4
ATOM      4  O   UNL d   1       2.167  -0.040   2.042  0.00  0.00    -0.193 OA
BRANCH   4   5
ATOM      5  C   UNL d   1       2.941  -1.058   2.523  0.00  0.00     0.315 C 
ATOM      6  O   UNL d   1       3.316  -2.044   1.907  0.00  0.00    -0.257 OA
BRANCH   5   7
ATOM      7  C   UNL d   1       3.304  -0.775   3.942  0.00  0.00     0.041 A 
ATOM      8  C   UNL d   1       4.076  -1.705   4.643  0.00  0.00     0.018 A 
ATOM      9  C   UNL d   1       4.492  -1.436   5.956  0.00  0.00     0.009 A 
ATOM     10  C   UNL d   1       4.147  -0.235   6.607  0.00  0.00    -0.051 A 
ATOM     11  C   UNL d   1       3.381   0.690   5.878  0.00  0.00     0.009 A 
ATOM     12  C   UNL d   1       2.963   0.426   4.569  0.00  0.00     0.018 A 
BRANCH  10  13
ATOM     13  C   UNL d   1       4.578   0.028   8.062  0.00  0.00    -0.024 C 
ATOM     14  C   UNL d   1       4.088   1.390   8.608  0.00  0.00     0.019 C 
ATOM     15  C   UNL d   1       3.991  -1.070   8.976  0.00  0.00     0.019 C 
ATOM     16  C   UNL d   1       6.116   0.015   8.194  0.00  0.00     0.019 C 
ENDBRANCH  10  13
ENDBRANCH   5   7
ENDBRANCH   4   5
ENDBRANCH   2   4
BRANCH   1  17
ATOM     17  C   UNL d   1       2.760   2.231  -0.737  0.00  0.00     0.218 C 
BRANCH  17  18
ATOM     18  S   UNL d   1       3.513   3.772  -0.248  0.00  0.00     0.158 S 
ATOM     19  O   UNL d   1       4.643   3.478   0.618  0.00  0.00    -0.227 OA
ATOM     20  O   UNL d   1       2.449   4.637   0.217  0.00  0.00    -0.227 OA
BRANCH  18  21
ATOM     21  C   UNL d   1       4.183   4.510  -1.794  0.00  0.00     0.053 C 
ATOM     22  C   UNL d   1       3.041   4.777  -2.784  0.00  0.00     0.031 C 
ATOM     23  C   UNL d   1       4.856   5.847  -1.438  0.00  0.00     0.031 C 
ATOM     24  C   UNL d   1       5.226   3.583  -2.430  0.00  0.00     0.031 C 
ENDBRANCH  18  21
ENDBRANCH  17  18
ENDBRANCH   1  17
BRANCH   1  25
ATOM     25  N   UNL d   1       1.082   2.104   1.085  0.00  0.00    -0.387 N 
ATOM     26  H   UNL d   1       0.783   3.058   0.888  0.00  0.00     0.157 HD
ATOM     27  H   UNL d   1       0.666   1.635   1.880  0.00  0.00     0.157 HD
ENDBRANCH   1  25
TORSDOF 8
