REMARK  1 active torsions:
REMARK  status: ('A' for Active; 'I' for Inactive)
REMARK    1  A    between atoms: S_6  and  C_1 
ROOT
ATOM      1  C   UNL d   1       1.127  -1.602   0.105  0.00  0.00     0.115 A 
ATOM      2  C   UNL d   1       0.005  -0.788   0.044  0.00  0.00     0.047 A 
ATOM      3  S   UNL d   1       2.563  -0.657   0.100  0.00  0.00    -0.065 SA
ATOM      4  C   UNL d   1       0.335   0.617   0.008  0.00  0.00    -0.013 A 
ATOM      5  C   UNL d   1       1.696   0.789   0.005  0.00  0.00     0.083 A 
ATOM      6  C   UNL d   1      -1.380  -1.242   0.014  0.00  0.00     0.162 C 
ATOM      7  C   UNL d   1      -0.721   1.691  -0.052  0.00  0.00     0.051 C 
ATOM      8  C   UNL d   1      -2.128   1.161   0.348  0.00  0.00    -0.037 C 
ATOM      9  C   UNL d   1      -2.406  -0.186  -0.362  0.00  0.00     0.093 C 
ATOM     10  O   UNL d   1      -1.710  -2.392   0.284  0.00  0.00    -0.292 OA
ATOM     11 CL   UNL d   1       2.555   2.275  -0.090  0.00  0.00    -0.076 Cl
ATOM     12  C   UNL d   1      -3.201   2.176  -0.084  0.00  0.00     0.015 C 
ATOM     13  C   UNL d   1      -2.225   0.992   1.881  0.00  0.00     0.015 C 
ENDROOT
BRANCH   1  14
ATOM     14  S   UNL d   1       1.350  -3.379   0.082  0.00  0.00     0.179 S 
ATOM     15  O   UNL d   1       0.560  -3.830  -1.041  0.00  0.00    -0.222 OA
ATOM     16  O   UNL d   1       2.779  -3.623   0.138  0.00  0.00    -0.222 OA
ATOM     17  C   UNL d   1       0.650  -3.967   1.602  0.00  0.00     0.167 C 
ENDBRANCH   1  14
TORSDOF 1
