REMARK  6 active torsions:
REMARK  status: ('A' for Active; 'I' for Inactive)
REMARK    1  A    between atoms: N_2  and  C_1 
REMARK    2  A    between atoms: C_3  and  C_6 
REMARK    3  A    between atoms: S_7  and  C_3 
REMARK    4  A    between atoms: O_11  and  C_5 
REMARK    5  A    between atoms: C_13  and  S_7 
REMARK    6  A    between atoms: C_19  and  O_11 
ROOT
ATOM      1  C   UNL d   1       1.382  -0.459   0.241  0.00  0.00     0.137 A 
ATOM      2  C   UNL d   1       0.417  -1.483   0.270  0.00  0.00     0.055 A 
ATOM      3  C   UNL d   1       1.071   0.842  -0.167  0.00  0.00     0.109 A 
ATOM      4  C   UNL d   1      -0.900  -1.204  -0.121  0.00  0.00     0.024 A 
ATOM      5  C   UNL d   1      -0.257   1.105  -0.535  0.00  0.00     0.041 A 
ATOM      6  C   UNL d   1      -1.214   0.091  -0.561  0.00  0.00     0.019 A 
ENDROOT
BRANCH   4   7
ATOM      7  C   UNL d   1      -1.939  -2.278  -0.027  0.00  0.00     0.224 C 
ATOM      8  O   UNL d   1      -1.610  -3.458  -0.010  0.00  0.00    -0.279 OA
BRANCH   7   9
ATOM      9  S   UNL d   1      -3.609  -1.724   0.090  0.00  0.00    -0.048 SA
BRANCH   9  10
ATOM     10  C   UNL d   1      -4.616  -3.136   0.454  0.00  0.00     0.010 A 
ATOM     11  C   UNL d   1      -4.464  -4.375  -0.167  0.00  0.00     0.044 A 
ATOM     12  C   UNL d   1      -5.357  -5.422   0.098  0.00  0.00     0.057 A 
ATOM     13 CL   UNL d   1      -5.095  -6.926  -0.713  0.00  0.00    -0.083 Cl
ATOM     14  C   UNL d   1      -6.427  -5.224   0.978  0.00  0.00     0.055 A 
ATOM     15  C   UNL d   1      -6.597  -3.982   1.589  0.00  0.00     0.027 A 
ATOM     16 CL   UNL d   1      -7.577  -6.462   1.338  0.00  0.00    -0.083 Cl
ATOM     17  C   UNL d   1      -5.698  -2.946   1.328  0.00  0.00     0.021 A 
ENDBRANCH   9  10
ENDBRANCH   7   9
ENDBRANCH   4   7
BRANCH   1  18
ATOM     18  N   UNL d   1       2.735  -0.782   0.648  0.00  0.00    -0.113 N 
ATOM     19  O   UNL d   1       2.876  -1.268   1.779  0.00  0.00    -0.532 OA
ATOM     20  O   UNL d   1       3.639  -0.588  -0.174  0.00  0.00    -0.532 OA
ENDBRANCH   1  18
BRANCH   3  21
ATOM     21  O   UNL d   1       2.037   1.831  -0.155  0.00  0.00    -0.308 OA
BRANCH  21  22
ATOM     22  C   UNL d   1       1.878   2.865  -1.046  0.00  0.00     0.076 A 
ATOM     23  C   UNL d   1       1.952   4.175  -0.566  0.00  0.00     0.039 A 
ATOM     24  C   UNL d   1       1.633   5.238  -1.419  0.00  0.00     0.026 A 
ATOM     25  C   UNL d   1       1.252   4.985  -2.736  0.00  0.00     0.034 A 
ATOM     26  C   UNL d   1       1.250   3.683  -3.239  0.00  0.00     0.026 A 
ATOM     27 CL   UNL d   1       0.748   6.282  -3.750  0.00  0.00    -0.084 Cl
ATOM     28  C   UNL d   1       1.604   2.629  -2.400  0.00  0.00     0.039 A 
ENDBRANCH  21  22
ENDBRANCH   3  21
TORSDOF 6
