REMARK  3 active torsions:
REMARK  status: ('A' for Active; 'I' for Inactive)
REMARK    1  A    between atoms: S_6  and  C_1 
REMARK    2  A    between atoms: N_7  and  S_6 
REMARK       I    between atoms: C_9  and  N_7 
REMARK       I    between atoms: N_11  and  C_9 
REMARK    3  A    between atoms: C_15  and  N_11 
ROOT
ATOM      1  S   UNL d   1       2.900   2.062   1.536  0.00  0.00    -0.085 SA
ATOM      2  C   UNL d   1       4.402   1.589   0.644  0.00  0.00     0.108 C 
ENDROOT
BRANCH   1   3
ATOM      3  C   UNL d   1       1.900   0.690   1.077  0.00  0.00     0.066 A 
ATOM      4  C   UNL d   1       1.267   0.315  -0.106  0.00  0.00     0.043 A 
ATOM      5  C   UNL d   1       0.384  -0.831   0.136  0.00  0.00    -0.014 A 
ATOM      6  C   UNL d   1       1.389   0.847  -1.478  0.00  0.00     0.162 C 
ATOM      7  C   UNL d   1      -0.477  -1.432  -0.934  0.00  0.00     0.042 C 
ATOM      8  C   UNL d   1       0.461  -1.260   1.436  0.00  0.00     0.083 A 
ATOM      9  C   UNL d   1       0.076  -1.127  -2.322  0.00  0.00     0.012 C 
ATOM     10  C   UNL d   1       0.337   0.368  -2.476  0.00  0.00     0.084 C 
ATOM     11  S   UNL d   1       1.574  -0.411   2.362  0.00  0.00    -0.069 SA
ATOM     12 CL   UNL d   1      -0.410  -2.560   2.157  0.00  0.00    -0.076 Cl
ATOM     13  O   UNL d   1       2.313   1.539  -1.914  0.00  0.00    -0.292 OA
ENDBRANCH   1   3
BRANCH   1  14
ATOM     14  N   UNL d   1       2.398   3.054   0.519  0.00  0.00    -0.287 N 
ATOM     15  C   UNL d   1       1.368   3.823   0.901  0.00  0.00     0.330 C 
ATOM     16  N   UNL d   1       1.332   4.923   0.081  0.00  0.00    -0.308 N 
ATOM     17  O   UNL d   1       0.535   3.605   1.783  0.00  0.00    -0.246 OA
ATOM     18  H   UNL d   1       2.103   4.907  -0.569  0.00  0.00     0.170 HD
ATOM     19  HN  UNL d   1       2.817   3.137  -0.407  1.00  0.00     0.178 HD
BRANCH  16  20
ATOM     20  C   UNL d   1       0.318   5.882  -0.061  0.00  0.00     0.036 A 
ATOM     21  C   UNL d   1      -0.810   5.939   0.759  0.00  0.00     0.031 A 
ATOM     22  C   UNL d   1      -1.857   6.819   0.474  0.00  0.00     0.026 A 
ATOM     23  C   UNL d   1      -1.768   7.658  -0.632  0.00  0.00     0.034 A 
ATOM     24  C   UNL d   1      -0.624   7.656  -1.427  0.00  0.00     0.026 A 
ATOM     25 CL   UNL d   1      -3.088   8.689  -1.031  0.00  0.00    -0.084 Cl
ATOM     26  C   UNL d   1       0.422   6.775  -1.134  0.00  0.00     0.031 A 
ENDBRANCH  16  20
ENDBRANCH   1  14
TORSDOF 3
