REMARK  7 active torsions:
REMARK  status: ('A' for Active; 'I' for Inactive)
REMARK    1  A    between atoms: N_4  and  C_1 
REMARK    2  A    between atoms: N_6  and  C_1 
REMARK    3  A    between atoms: C_2  and  C_3 
REMARK    4  A    between atoms: O_11  and  C_2 
REMARK    5  A    between atoms: C_8  and  N_4 
REMARK    6  A    between atoms: C_10  and  N_6 
REMARK    7  A    between atoms: C_12  and  C_10 
ROOT
ATOM      1  N   UNL d   1       0.404   1.308  -0.220  0.00  0.00    -0.333 N 
ATOM      2  H   UNL d   1      -0.589   1.258  -0.016  0.00  0.00     0.168 HD
ENDROOT
BRANCH   1   3
ATOM      3  C   UNL d   1       1.067   0.127   0.034  0.00  0.00     0.172 C 
ATOM      4  S   UNL d   1       2.519  -0.092   0.839  0.00  0.00    -0.041 SA
BRANCH   3   5
ATOM      5  N   UNL d   1       0.425  -1.005  -0.386  0.00  0.00    -0.363 N 
ATOM      6  H   UNL d   1       0.947  -1.839  -0.144  0.00  0.00     0.162 HD
BRANCH   5   7
ATOM      7  C   UNL d   1      -0.312  -1.097  -1.632  0.00  0.00     0.160 C 
BRANCH   7   8
ATOM      8  C   UNL d   1      -1.806  -0.974  -1.492  0.00  0.00    -0.041 A 
ATOM      9  C   UNL d   1      -2.553  -0.591  -2.618  0.00  0.00     0.009 A 
ATOM     10  C   UNL d   1      -3.942  -0.495  -2.553  0.00  0.00     0.001 A 
ATOM     11  C   UNL d   1      -4.605  -0.792  -1.365  0.00  0.00     0.000 A 
ATOM     12  C   UNL d   1      -3.879  -1.202  -0.248  0.00  0.00     0.001 A 
ATOM     13  C   UNL d   1      -2.487  -1.302  -0.313  0.00  0.00     0.009 A 
ENDBRANCH   7   8
ENDBRANCH   5   7
ENDBRANCH   3   5
ENDBRANCH   1   3
BRANCH   1  14
ATOM     14  C   UNL d   1       0.991   2.594  -0.196  0.00  0.00     0.035 A 
ATOM     15  C   UNL d   1       2.237   2.806  -0.786  0.00  0.00     0.047 A 
ATOM     16  C   UNL d   1       2.891   4.037  -0.655  0.00  0.00     0.041 A 
ATOM     17  C   UNL d   1       2.245   5.089   0.003  0.00  0.00     0.018 A 
ATOM     18  C   UNL d   1       0.961   4.904   0.524  0.00  0.00     0.003 A 
ATOM     19  C   UNL d   1       0.328   3.657   0.415  0.00  0.00     0.029 A 
BRANCH  16  20
ATOM     20  C   UNL d   1       4.290   4.216  -1.124  0.00  0.00     0.293 C 
ATOM     21  O   UNL d   1       4.890   5.277  -1.096  0.00  0.00    -0.259 OA
BRANCH  20  22
ATOM     22  O   UNL d   1       4.800   3.017  -1.500  0.00  0.00    -0.323 OA
ATOM     23  C   UNL d   1       6.204   3.008  -1.744  0.00  0.00     0.213 C 
ENDBRANCH  20  22
ENDBRANCH  16  20
ENDBRANCH   1  14
TORSDOF 7
