REMARK  4 active torsions:
REMARK  status: ('A' for Active; 'I' for Inactive)
REMARK    1  A    between atoms: C_4  and  C_1 
REMARK    2  A    between atoms: C_3  and  C_2 
REMARK    3  A    between atoms: S_13  and  C_4 
REMARK    4  A    between atoms: C_16  and  S_13 
ROOT
ATOM      1  C   UNL d   1       0.146  -1.197  -0.477  0.00  0.00     0.084 A 
ATOM      2  C   UNL d   1      -1.063  -0.502  -0.454  0.00  0.00     0.144 A 
ATOM      3  O   UNL d   1      -0.804   0.802  -0.121  0.00  0.00    -0.234 OA
ATOM      4  N   UNL d   1       0.535   1.000   0.061  0.00  0.00    -0.264 N 
ATOM      5  HN  UNL d   1       0.998   1.873   0.315  1.00  0.00     0.194 HD
ATOM      6  C   UNL d   1       1.116  -0.181  -0.160  0.00  0.00     0.046 A 
ATOM      7  C   UNL d   1       2.594  -0.247  -0.021  0.00  0.00     0.071 C 
ENDROOT
BRANCH   1   8
ATOM      8  C   UNL d   1       0.331  -2.611  -0.745  0.00  0.00     0.229 C 
ATOM      9  O   UNL d   1      -0.492  -3.471  -0.454  0.00  0.00    -0.279 OA
BRANCH   8  10
ATOM     10  S   UNL d   1       1.873  -3.090  -1.425  0.00  0.00    -0.047 SA
BRANCH  10  11
ATOM     11  C   UNL d   1       1.543  -3.709  -3.063  0.00  0.00     0.008 A 
ATOM     12  C   UNL d   1       2.669  -3.892  -3.880  0.00  0.00     0.019 A 
ATOM     13  C   UNL d   1       2.554  -4.398  -5.176  0.00  0.00     0.008 A 
ATOM     14  C   UNL d   1       1.302  -4.729  -5.696  0.00  0.00    -0.062 A 
ATOM     15  C   UNL d   1       0.173  -4.561  -4.884  0.00  0.00     0.008 A 
ATOM     16  C   UNL d   1       1.199  -5.305  -7.078  0.00  0.00     0.048 C 
ATOM     17  C   UNL d   1       0.292  -4.054  -3.579  0.00  0.00     0.019 A 
ENDBRANCH  10  11
ENDBRANCH   8  10
ENDBRANCH   1   8
BRANCH   2  18
ATOM     18  C   UNL d   1      -2.467  -0.909  -0.788  0.00  0.00     0.094 A 
ATOM     19  N   UNL d   1      -3.421   0.033  -0.854  0.00  0.00    -0.258 N 
ATOM     20  O   UNL d   1      -4.560  -0.596  -1.316  0.00  0.00    -0.242 OA
ATOM     21  HN  UNL d   1      -3.324   1.019  -0.611  1.00  0.00     0.195 HD
ATOM     22  C   UNL d   1      -4.296  -1.913  -1.500  0.00  0.00     0.074 A 
ATOM     23  C   UNL d   1      -3.001  -2.169  -1.126  0.00  0.00     0.068 A 
ATOM     24  C   UNL d   1      -5.377  -2.739  -2.061  0.00  0.00     0.079 C 
ENDBRANCH   2  18
TORSDOF 4
