REMARK  3 active torsions:
REMARK  status: ('A' for Active; 'I' for Inactive)
REMARK    1  A    between atoms: O_8  and  C_1 
REMARK    2  A    between atoms: N_7  and  C_2 
REMARK    3  A    between atoms: C_9  and  O_8 
ROOT
ATOM      1  C   UNL d   1       0.585  -1.311   0.081  0.00  0.00     0.200 A 
ATOM      2  C   UNL d   1      -0.803  -1.231   0.061  0.00  0.00     0.179 A 
ATOM      3  N   UNL d   1       0.994  -0.005  -0.057  0.00  0.00    -0.273 N 
ATOM      4  N   UNL d   1      -0.011   0.891  -0.116  0.00  0.00    -0.299 N 
ATOM      5  HN  UNL d   1       0.058   1.904  -0.214  1.00  0.00     0.187 HD
ATOM      6  C   UNL d   1      -1.120   0.148  -0.017  0.00  0.00     0.059 A 
ATOM      7  C   UNL d   1       2.351   0.489  -0.067  0.00  0.00     0.180 C 
ATOM      8  C   UNL d   1      -2.445   0.819  -0.007  0.00  0.00     0.072 C 
ENDROOT
BRANCH   1   9
ATOM      9  O   UNL d   1       1.508  -2.273   0.222  0.00  0.00    -0.288 OA
BRANCH   9  10
ATOM     10  C   UNL d   1       1.229  -3.499   0.783  0.00  0.00     0.105 C 
ATOM     11  C   UNL d   1       0.594  -3.645   2.029  0.00  0.00     0.068 C 
ATOM     12 CL   UNL d   1       0.291  -2.307   3.085  0.00  0.00    -0.081 Cl
ATOM     13  C   UNL d   1       0.239  -4.912   2.494  0.00  0.00     0.027 C 
ATOM     14  C   UNL d   1       0.583  -6.045   1.764  0.00  0.00     0.002 C 
ATOM     15  C   UNL d   1       1.323  -5.915   0.590  0.00  0.00     0.010 C 
ATOM     16  C   UNL d   1       1.673  -4.647   0.096  0.00  0.00    -0.026 C 
ATOM     17  C   UNL d   1       2.531  -4.587  -1.138  0.00  0.00     0.051 C 
ENDBRANCH   9  10
ENDBRANCH   1   9
BRANCH   2  18
ATOM     18  N   UNL d   1      -1.736  -2.303   0.147  0.00  0.00    -0.109 N 
ATOM     19  O   UNL d   1      -1.589  -3.237  -0.649  0.00  0.00    -0.532 OA
ATOM     20  O   UNL d   1      -2.637  -2.195   0.984  0.00  0.00    -0.532 OA
ENDBRANCH   2  18
TORSDOF 3
