REMARK  4 active torsions:
REMARK  status: ('A' for Active; 'I' for Inactive)
REMARK    1  A    between atoms: C_10  and  C_5 
REMARK    2  A    between atoms: S_17  and  C_6 
REMARK       I    between atoms: N_13  and  C_10 
REMARK    3  A    between atoms: C_19  and  N_13 
REMARK    4  A    between atoms: C_14  and  C_19 
ROOT
ATOM      1  S   UNL d   1      -1.133  -2.309   0.112  0.00  0.00     0.267 S 
ATOM      2  C   UNL d   1      -1.833  -0.747   0.227  0.00  0.00     0.116 C 
ATOM      3  C   UNL d   1      -0.928   0.383   0.211  0.00  0.00     0.024 C 
ATOM      4  N   UNL d   1       0.291  -2.062  -0.793  0.00  0.00    -0.275 N 
ATOM      5  C   UNL d   1      -1.637   1.573   0.025  0.00  0.00     0.086 C 
ATOM      6  C   UNL d   1      -3.165  -0.410   0.269  0.00  0.00     0.066 C 
ATOM      7  S   UNL d   1      -3.331   1.292   0.201  0.00  0.00    -0.075 SA
ATOM      8  C   UNL d   1       0.547   0.204   0.229  0.00  0.00     0.005 A 
ATOM      9  C   UNL d   1       1.131  -0.998  -0.266  0.00  0.00     0.056 A 
ATOM     10  O   UNL d   1      -2.040  -3.100  -0.690  0.00  0.00    -0.200 OA
ATOM     11  O   UNL d   1      -0.801  -2.664   1.473  0.00  0.00    -0.200 OA
ATOM     12  C   UNL d   1       0.886  -3.295  -1.334  0.00  0.00     0.170 C 
ATOM     13  C   UNL d   1       1.390   1.147   0.833  0.00  0.00     0.014 A 
ATOM     14  C   UNL d   1       2.530  -1.128  -0.293  0.00  0.00     0.031 A 
ATOM     15  C   UNL d   1       2.779   0.980   0.837  0.00  0.00     0.001 A 
ATOM     16  C   UNL d   1       3.351  -0.143   0.257  0.00  0.00     0.002 A 
ENDROOT
BRANCH   5  17
ATOM     17  C   UNL d   1      -1.185   2.933  -0.306  0.00  0.00     0.259 C 
ATOM     18  N   UNL d   1      -2.164   3.908  -0.443  0.00  0.00    -0.356 N 
ATOM     19  H   UNL d   1      -3.139   3.648  -0.376  0.00  0.00     0.162 HD
ATOM     20  O   UNL d   1      -0.007   3.234  -0.494  0.00  0.00    -0.267 OA
BRANCH  18  21
ATOM     21  C   UNL d   1      -1.796   5.249  -0.830  0.00  0.00     0.127 C 
BRANCH  21  22
ATOM     22  C   UNL d   1      -2.984   6.138  -1.020  0.00  0.00     0.003 A 
ATOM     23  C   UNL d   1      -4.038   5.919  -2.079  0.00  0.00     0.007 A 
ATOM     24  C   UNL d   1      -3.024   7.011  -2.254  0.00  0.00     0.007 A 
ENDBRANCH  21  22
ENDBRANCH  18  21
ENDBRANCH   5  17
BRANCH   6  25
ATOM     25  S   UNL d   1      -4.632  -1.381   0.272  0.00  0.00    -0.126 SA
ATOM     26  C   UNL d   1      -4.329  -2.624   1.542  0.00  0.00     0.096 C 
ENDBRANCH   6  25
TORSDOF 4
