REMARK  3 active torsions:
REMARK  status: ('A' for Active; 'I' for Inactive)
REMARK    1  A    between atoms: C_9  and  C_6 
REMARK    2  A    between atoms: O_16  and  C_7 
REMARK    3  A    between atoms: O_17  and  C_11 
ROOT
ATOM      1  C   UNL d   1      -5.273  -1.194   1.359  0.00  0.00     0.124 A 
ATOM      2  C   UNL d   1      -4.128  -0.369   1.252  0.00  0.00     0.080 A 
ATOM      3  C   UNL d   1      -3.857   0.333   0.057  0.00  0.00    -0.010 A 
ATOM      4  C   UNL d   1      -6.174  -1.251   0.279  0.00  0.00     0.103 A 
ATOM      5  C   UNL d   1      -4.768   0.274  -0.999  0.00  0.00     0.016 A 
ATOM      6  C   UNL d   1      -5.915  -0.504  -0.880  0.00  0.00     0.040 A 
ATOM      7 CL   UNL d   1      -3.057  -0.120   2.605  0.00  0.00    -0.080 Cl
ENDROOT
BRANCH   3   8
ATOM      8  C   UNL d   1      -2.617   1.096  -0.142  0.00  0.00     0.038 C 
ATOM      9  C   UNL d   1      -1.509   0.572  -0.682  0.00  0.00     0.076 A 
ATOM     10  C   UNL d   1      -1.330  -0.812  -1.218  0.00  0.00     0.264 A 
ATOM     11  S   UNL d   1      -0.014   1.439  -0.813  0.00  0.00    -0.055 SA
ATOM     12  N   UNL d   1      -0.033  -0.984  -1.614  0.00  0.00    -0.307 N 
ATOM     13  O   UNL d   1      -2.182  -1.678  -1.298  0.00  0.00    -0.267 OA
ATOM     14  C   UNL d   1       0.832   0.055  -1.463  0.00  0.00     0.146 A 
ATOM     15  H   UNL d   1       0.262  -1.872  -1.990  0.00  0.00     0.170 HD
ATOM     16  S   UNL d   1       2.439  -0.029  -1.849  0.00  0.00    -0.052 SA
ENDBRANCH   3   8
BRANCH   1  17
ATOM     17  O   UNL d   1      -5.607  -1.841   2.525  0.00  0.00    -0.351 OA
ATOM     18  C   UNL d   1      -4.619  -2.744   3.023  0.00  0.00     0.210 C 
ENDBRANCH   1  17
BRANCH   4  19
ATOM     19  O   UNL d   1      -7.352  -1.944   0.178  0.00  0.00    -0.353 OA
ATOM     20  C   UNL d   1      -7.618  -2.985   1.103  0.00  0.00     0.210 C 
ENDBRANCH   4  19
TORSDOF 3
