REMARK  6 active torsions:
REMARK  status: ('A' for Active; 'I' for Inactive)
REMARK    1  A    between atoms: C_6  and  C_1 
REMARK    2  A    between atoms: C_8  and  N_3 
REMARK    3  A    between atoms: C_7  and  C_6 
REMARK    4  A    between atoms: C_13  and  C_8 
REMARK    5  A    between atoms: N_12  and  C_10 
REMARK    6  A    between atoms: C_16  and  C_13 
ROOT
ATOM      1  C   UNL d   1      -0.110  -1.239  -0.073  0.00  0.00     0.080 C 
ATOM      2  C   UNL d   1       1.441   0.752   0.031  0.00  0.00     0.146 C 
ATOM      3  N   UNL d   1       0.079   1.078  -0.093  0.00  0.00    -0.335 N 
ATOM      4  S   UNL d   1       1.608  -1.000  -0.043  0.00  0.00    -0.054 SA
ATOM      5  C   UNL d   1      -0.779  -0.063  -0.064  0.00  0.00     0.030 C 
ATOM      6  S   UNL d   1       2.790   1.698   0.256  0.00  0.00    -0.052 SA
ATOM      7  C   UNL d   1      -2.274   0.053   0.006  0.00  0.00     0.070 C 
ENDROOT
BRANCH   3   8
ATOM      8  C   UNL d   1      -0.481   2.450  -0.051  0.00  0.00     0.135 C 
BRANCH   8   9
ATOM      9  C   UNL d   1       0.283   3.630  -0.687  0.00  0.00     0.058 C 
BRANCH   9  10
ATOM     10  C   UNL d   1       0.646   3.576  -2.155  0.00  0.00    -0.057 A 
ATOM     11  C   UNL d   1       0.252   2.553  -3.026  0.00  0.00     0.009 A 
ATOM     12  C   UNL d   1       0.624   2.582  -4.374  0.00  0.00     0.024 A 
ATOM     13  C   UNL d   1       1.383   3.641  -4.867  0.00  0.00     0.034 A 
ATOM     14  C   UNL d   1       1.778   4.672  -4.021  0.00  0.00     0.024 A 
ATOM     15 CL   UNL d   1       1.827   3.678  -6.528  0.00  0.00    -0.084 Cl
ATOM     16  C   UNL d   1       1.413   4.637  -2.674  0.00  0.00     0.009 A 
ENDBRANCH   9  10
ENDBRANCH   8   9
ENDBRANCH   3   8
BRANCH   1  17
ATOM     17  C   UNL d   1      -0.663  -2.644  -0.027  0.00  0.00     0.192 C 
ATOM     18  O   UNL d   1      -1.814  -2.879   0.326  0.00  0.00    -0.287 OA
BRANCH  17  19
ATOM     19  C   UNL d   1       0.274  -3.745  -0.457  0.00  0.00     0.073 C 
ATOM     20  C   UNL d   1       0.138  -5.018  -0.057  0.00  0.00     0.088 C 
BRANCH  20  21
ATOM     21  N   UNL d   1       0.941  -6.127  -0.326  0.00  0.00    -0.398 N 
ATOM     22  C   UNL d   1       2.168  -6.106  -1.131  0.00  0.00     0.148 C 
ATOM     23  C   UNL d   1       0.642  -7.450   0.227  0.00  0.00     0.148 C 
ENDBRANCH  20  21
ENDBRANCH  17  19
ENDBRANCH   1  17
TORSDOF 6
