REMARK  6 active torsions:
REMARK  status: ('A' for Active; 'I' for Inactive)
REMARK    1  A    between atoms: C_2  and  N_1 
REMARK    2  A    between atoms: O_7  and  C_10 
REMARK    3  A    between atoms: C_8  and  O_7 
REMARK    4  A    between atoms: C_10  and  C_9 
REMARK    5  A    between atoms: C_19  and  C_13 
REMARK    6  A    between atoms: O_18  and  C_19 
ROOT
ATOM      1  O   UNL d   1      -1.387  -2.263  -5.473  0.00  0.00    -0.347 OA
ENDROOT
BRANCH   1   2
ATOM      2  C   UNL d   1      -1.964  -1.155  -4.784  0.00  0.00     0.214 C 
BRANCH   2   3
ATOM      3  C   UNL d   1      -1.318  -1.033  -3.422  0.00  0.00    -0.034 A 
ATOM      4  C   UNL d   1       0.067  -0.828  -3.312  0.00  0.00     0.012 A 
ATOM      5  C   UNL d   1       0.670  -0.695  -2.060  0.00  0.00     0.037 A 
ATOM      6  C   UNL d   1      -0.118  -0.766  -0.905  0.00  0.00     0.102 A 
ATOM      7  C   UNL d   1      -1.501  -0.967  -0.998  0.00  0.00     0.037 A 
ATOM      8  C   UNL d   1      -2.095  -1.099  -2.255  0.00  0.00     0.012 A 
BRANCH   6   9
ATOM      9  N   UNL d   1       0.509  -0.628   0.415  0.00  0.00    -0.116 N 
ATOM     10  O   UNL d   1      -0.224  -0.700   1.413  0.00  0.00    -0.532 OA
ATOM     11  O   UNL d   1       1.734  -0.444   0.456  0.00  0.00    -0.532 OA
ENDBRANCH   6   9
ENDBRANCH   2   3
ENDBRANCH   1   2
BRANCH   1  12
ATOM     12  C   UNL d   1      -1.871  -2.523  -6.726  0.00  0.00     0.069 A 
ATOM     13  C   UNL d   1      -2.860  -1.798  -7.390  0.00  0.00     0.037 A 
ATOM     14  C   UNL d   1      -3.273  -2.179  -8.671  0.00  0.00     0.012 A 
ATOM     15  C   UNL d   1      -2.714  -3.294  -9.308  0.00  0.00    -0.035 A 
ATOM     16  C   UNL d   1      -1.705  -4.004  -8.644  0.00  0.00     0.012 A 
ATOM     17  C   UNL d   1      -1.294  -3.624  -7.363  0.00  0.00     0.037 A 
BRANCH  15  18
ATOM     18  C   UNL d   1      -3.131  -3.695 -10.698  0.00  0.00     0.202 C 
BRANCH  18  19
ATOM     19  O   UNL d   1      -4.497  -3.372 -10.930  0.00  0.00    -0.396 OA
ATOM     20  H   UNL d   1      -4.720  -3.719 -11.809  0.00  0.00     0.209 HD
ENDBRANCH  18  19
ENDBRANCH  15  18
ENDBRANCH   1  12
TORSDOF 6
