REMARK  16 active torsions:
REMARK  status: ('A' for Active; 'I' for Inactive)
REMARK    1  A    between atoms: C_2  and  C_1 
REMARK    2  A    between atoms: C_4  and  C_1 
REMARK    3  A    between atoms: C_1  and  O_6 
REMARK    4  A    between atoms: C_2  and  O_7 
REMARK    5  A    between atoms: C_3  and  C_2 
REMARK    6  A    between atoms: C_3  and  O_9 
REMARK    7  A    between atoms: C_3  and  C_5 
REMARK       I    between atoms: N_8  and  C_4 
REMARK    8  A    between atoms: C_5  and  O_10 
REMARK    9  A    between atoms: C_17  and  C_5 
REMARK   10  A    between atoms: C_12  and  O_6 
REMARK   11  A    between atoms: C_11  and  O_7 
REMARK   12  A    between atoms: C_24  and  N_8 
REMARK   13  A    between atoms: C_13  and  O_9 
REMARK   14  A    between atoms: C_14  and  O_10 
REMARK   15  A    between atoms: C_15  and  O_18 
REMARK   16  A    between atoms: O_18  and  C_17 
ROOT
ATOM      1  C   UNL d   1      -1.460   2.669  -0.301  0.00  0.00     0.202 C 
ENDROOT
BRANCH   1   2
ATOM      2  C   UNL d   1      -0.593   3.814   0.288  0.00  0.00     0.256 C 
BRANCH   2   3
ATOM      3  C   UNL d   1       0.742   4.054  -0.400  0.00  0.00     0.254 C 
ATOM      4  N   UNL d   1       1.515   5.054   0.185  0.00  0.00    -0.325 N 
ATOM      5  H   UNL d   1       0.990   5.865   0.486  0.00  0.00     0.169 HD
ATOM      6  O   UNL d   1       1.074   3.455  -1.420  0.00  0.00    -0.270 OA
BRANCH   4   7
ATOM      7  C   UNL d   1       2.822   5.275  -0.298  0.00  0.00     0.034 A 
ATOM      8  C   UNL d   1       3.179   6.532  -0.786  0.00  0.00     0.029 A 
ATOM      9  C   UNL d   1       4.417   6.696  -1.414  0.00  0.00     0.002 A 
ATOM     10  C   UNL d   1       5.316   5.630  -1.491  0.00  0.00     0.000 A 
ATOM     11  C   UNL d   1       4.990   4.400  -0.923  0.00  0.00     0.002 A 
ATOM     12  C   UNL d   1       3.740   4.220  -0.334  0.00  0.00     0.029 A 
ENDBRANCH   4   7
ENDBRANCH   2   3
BRANCH   2  13
ATOM     13  O   UNL d   1      -1.297   5.069  -0.007  0.00  0.00    -0.304 OA
BRANCH  13  14
ATOM     14  C   UNL d   1      -1.843   5.747   1.029  0.00  0.00     0.255 C 
ATOM     15  O   UNL d   1      -1.713   5.462   2.208  0.00  0.00    -0.266 OA
ATOM     16  C   UNL d   1      -2.663   6.904   0.537  0.00  0.00     0.126 C 
ENDBRANCH  13  14
ENDBRANCH   2  13
ENDBRANCH   1   2
BRANCH   1  17
ATOM     17  O   UNL d   1      -2.816   2.787   0.286  0.00  0.00    -0.310 OA
BRANCH  17  18
ATOM     18  C   UNL d   1      -2.949   2.533   1.621  0.00  0.00     0.255 C 
ATOM     19  O   UNL d   1      -2.028   2.265   2.378  0.00  0.00    -0.266 OA
ATOM     20  C   UNL d   1      -4.378   2.667   2.036  0.00  0.00     0.126 C 
ENDBRANCH  17  18
ENDBRANCH   1  17
BRANCH   1  21
ATOM     21  C   UNL d   1      -1.044   1.164  -0.211  0.00  0.00     0.196 C 
BRANCH  21  22
ATOM     22  O   UNL d   1      -2.095   0.451  -0.942  0.00  0.00    -0.311 OA
BRANCH  22  23
ATOM     23  C   UNL d   1      -2.849  -0.475  -0.301  0.00  0.00     0.255 C 
ATOM     24  O   UNL d   1      -2.793  -0.721   0.896  0.00  0.00    -0.266 OA
ATOM     25  C   UNL d   1      -3.811  -1.107  -1.254  0.00  0.00     0.126 C 
ENDBRANCH  22  23
ENDBRANCH  21  22
BRANCH  21  26
ATOM     26  C   UNL d   1       0.296   0.747  -0.858  0.00  0.00     0.188 C 
BRANCH  26  27
ATOM     27  O   UNL d   1       0.289   1.072  -2.274  0.00  0.00    -0.311 OA
BRANCH  27  28
ATOM     28  C   UNL d   1      -0.382   0.316  -3.177  0.00  0.00     0.255 C 
ATOM     29  O   UNL d   1      -0.737  -0.845  -3.030  0.00  0.00    -0.266 OA
ATOM     30  C   UNL d   1      -0.691   1.120  -4.402  0.00  0.00     0.126 C 
ENDBRANCH  27  28
ENDBRANCH  26  27
BRANCH  26  31
ATOM     31  C   UNL d   1       0.732  -0.700  -0.546  0.00  0.00     0.213 C 
BRANCH  31  32
ATOM     32  O   UNL d   1       0.692  -0.993   0.864  0.00  0.00    -0.319 OA
BRANCH  32  33
ATOM     33  C   UNL d   1       1.698  -0.501   1.629  0.00  0.00     0.254 C 
ATOM     34  O   UNL d   1       2.635   0.168   1.216  0.00  0.00    -0.266 OA
ATOM     35  C   UNL d   1       1.501  -0.885   3.064  0.00  0.00     0.126 C 
ENDBRANCH  32  33
ENDBRANCH  31  32
ENDBRANCH  26  31
ENDBRANCH  21  26
ENDBRANCH   1  21
TORSDOF 16
