REMARK  4 active torsions:
REMARK  status: ('A' for Active; 'I' for Inactive)
REMARK    1  A    between atoms: C_5  and  C_1 
REMARK    2  A    between atoms: C_7  and  C_2 
REMARK       I    between atoms: N_9  and  C_7 
REMARK    3  A    between atoms: C_16  and  N_9 
REMARK    4  A    between atoms: C_15  and  C_16 
ROOT
ATOM      1  C   UNL d   1      -1.358  -0.651   0.333  0.00  0.00     0.086 A 
ATOM      2  C   UNL d   1      -0.083  -1.277   0.127  0.00  0.00     0.092 A 
ATOM      3  N   UNL d   1      -1.180   0.641   0.661  0.00  0.00    -0.259 N 
ATOM      4  HN  UNL d   1      -1.905   1.302   0.942  1.00  0.00     0.195 HD
ATOM      5  O   UNL d   1       0.161   0.901   0.546  0.00  0.00    -0.241 OA
ATOM      6  C   UNL d   1       0.820  -0.234   0.211  0.00  0.00     0.090 A 
ATOM      7  C   UNL d   1       2.269  -0.066  -0.024  0.00  0.00     0.080 C 
ENDROOT
BRANCH   2   8
ATOM      8  C   UNL d   1       0.234  -2.656  -0.192  0.00  0.00     0.256 C 
ATOM      9  N   UNL d   1       1.337  -3.149   0.479  0.00  0.00    -0.352 N 
ATOM     10  H   UNL d   1       1.749  -2.600   1.219  0.00  0.00     0.163 HD
ATOM     11  O   UNL d   1      -0.432  -3.313  -0.979  0.00  0.00    -0.267 OA
BRANCH   9  12
ATOM     12  C   UNL d   1       1.900  -4.458   0.215  0.00  0.00     0.162 C 
BRANCH  12  13
ATOM     13  C   UNL d   1       1.667  -5.490   1.285  0.00  0.00    -0.025 A 
ATOM     14  C   UNL d   1       2.237  -6.754   1.135  0.00  0.00     0.096 A 
ATOM     15  N   UNL d   1       2.070  -7.784   1.996  0.00  0.00    -0.375 N 
ATOM     16  C   UNL d   1       1.281  -7.555   3.066  0.00  0.00     0.087 A 
ATOM     17  HN  UNL d   1       2.517  -8.688   1.845  1.00  0.00     0.164 HD
ATOM     18  C   UNL d   1       0.680  -6.336   3.324  0.00  0.00     0.018 A 
ATOM     19  C   UNL d   1       0.889  -5.290   2.427  0.00  0.00     0.011 A 
ENDBRANCH  12  13
ENDBRANCH   9  12
ENDBRANCH   2   8
BRANCH   1  20
ATOM     20  C   UNL d   1      -2.721  -1.198   0.278  0.00  0.00     0.037 A 
ATOM     21  C   UNL d   1      -3.101  -2.324   1.033  0.00  0.00     0.048 A 
ATOM     22 CL   UNL d   1      -2.049  -3.103   2.161  0.00  0.00    -0.083 Cl
ATOM     23  C   UNL d   1      -4.410  -2.830   0.978  0.00  0.00     0.025 A 
ATOM     24  C   UNL d   1      -5.383  -2.191   0.219  0.00  0.00     0.003 A 
ATOM     25  C   UNL d   1      -5.044  -1.053  -0.502  0.00  0.00     0.025 A 
ATOM     26  C   UNL d   1      -3.726  -0.570  -0.492  0.00  0.00     0.048 A 
ATOM     27 CL   UNL d   1      -3.433   0.820  -1.490  0.00  0.00    -0.083 Cl
ENDBRANCH   1  20
TORSDOF 4
