REMARK  5 active torsions:
REMARK  status: ('A' for Active; 'I' for Inactive)
REMARK    1  A    between atoms: C_2  and  C_1 
REMARK    2  A    between atoms: C_3  and  C_1 
REMARK    3  A    between atoms: N_4  and  C_1 
REMARK    4  A    between atoms: N_5  and  C_1 
REMARK       I    between atoms: C_6  and  N_4 
REMARK    5  A    between atoms: C_14  and  N_5 
ROOT
ATOM      1  C   UNL d   1       0.716  -0.169  -0.044  0.00  0.00     0.290 C 
ENDROOT
BRANCH   1   2
ATOM      2  C   UNL d   1      -0.030  -1.542  -0.241  0.00  0.00     0.435 C 
ATOM      3  F   UNL d   1      -1.136  -1.723   0.508  0.00  0.00    -0.167 F 
ATOM      4  F   UNL d   1      -0.431  -1.710  -1.532  0.00  0.00    -0.167 F 
ATOM      5  F   UNL d   1       0.795  -2.588   0.035  0.00  0.00    -0.167 F 
ENDBRANCH   1   2
BRANCH   1   6
ATOM      6  C   UNL d   1       0.485   0.234   1.467  0.00  0.00     0.435 C 
ATOM      7  F   UNL d   1      -0.283  -0.587   2.203  0.00  0.00    -0.167 F 
ATOM      8  F   UNL d   1       1.694   0.269   2.110  0.00  0.00    -0.167 F 
ATOM      9  F   UNL d   1      -0.017   1.490   1.593  0.00  0.00    -0.167 F 
ENDBRANCH   1   6
BRANCH   1  10
ATOM     10  N   UNL d   1       0.358   0.896  -0.993  0.00  0.00    -0.324 N 
ATOM     11  C   UNL d   1      -0.931   1.297  -1.160  0.00  0.00     0.215 C 
ATOM     12  O   UNL d   1      -1.849   0.777  -0.528  0.00  0.00    -0.274 OA
ATOM     13  C   UNL d   1      -1.138   2.373  -2.184  0.00  0.00     0.117 C 
ATOM     14  H   UNL d   1       1.133   1.340  -1.466  0.00  0.00     0.165 HD
ENDBRANCH   1  10
BRANCH   1  15
ATOM     15  N   UNL d   1       2.219  -0.221  -0.314  0.00  0.00    -0.251 NA
ATOM     16  H   UNL d   1       2.722  -0.383   0.566  0.00  0.00     0.130 HD
BRANCH  15  17
ATOM     17  C   UNL d   1       2.792  -0.961  -1.347  0.00  0.00     0.010 A 
ATOM     18  C   UNL d   1       2.169  -1.185  -2.578  0.00  0.00     0.025 A 
ATOM     19  C   UNL d   1       2.794  -1.919  -3.591  0.00  0.00     0.025 A 
ATOM     20  C   UNL d   1       4.085  -2.394  -3.407  0.00  0.00     0.034 A 
ATOM     21  C   UNL d   1       4.760  -2.116  -2.219  0.00  0.00     0.025 A 
ATOM     22 CL   UNL d   1       4.851  -3.306  -4.644  0.00  0.00    -0.084 Cl
ATOM     23  C   UNL d   1       4.117  -1.393  -1.208  0.00  0.00     0.025 A 
ENDBRANCH  15  17
ENDBRANCH   1  15
TORSDOF 5
