REMARK  3 active torsions:
REMARK  status: ('A' for Active; 'I' for Inactive)
REMARK    1  A    between atoms: N_2  and  S_1 
REMARK    2  A    between atoms: C_5  and  S_1 
REMARK    3  A    between atoms: C_4  and  C_3 
ROOT
ATOM      1  N   UNL d   1       0.614   1.062  -0.755  0.00  0.00    -0.297 N 
ATOM      2  C   UNL d   1       1.476   2.220  -1.112  0.00  0.00     0.136 C 
ATOM      3  C   UNL d   1      -0.735   1.624  -0.490  0.00  0.00     0.136 C 
ATOM      4  C   UNL d   1       0.987   3.314  -0.163  0.00  0.00     0.033 C 
ATOM      5  C   UNL d   1      -0.516   3.084  -0.089  0.00  0.00     0.023 C 
ENDROOT
BRANCH   1   6
ATOM      6  S   UNL d   1       1.103  -0.256   0.190  0.00  0.00     0.261 S 
ATOM      7  O   UNL d   1       2.280  -0.867  -0.387  0.00  0.00    -0.200 OA
ATOM      8  O   UNL d   1      -0.067  -1.066   0.466  0.00  0.00    -0.200 OA
BRANCH   6   9
ATOM      9  C   UNL d   1       1.584   0.473   1.745  0.00  0.00     0.079 A 
ATOM     10  C   UNL d   1       0.610   0.996   2.599  0.00  0.00     0.027 A 
ATOM     11  C   UNL d   1       1.000   1.683   3.750  0.00  0.00     0.025 A 
ATOM     12  C   UNL d   1       2.356   1.801   4.061  0.00  0.00     0.034 A 
ATOM     13  C   UNL d   1       3.324   1.204   3.253  0.00  0.00     0.025 A 
ATOM     14 CL   UNL d   1       2.837   2.705   5.442  0.00  0.00    -0.084 Cl
ATOM     15  C   UNL d   1       2.938   0.523   2.098  0.00  0.00     0.027 A 
ENDBRANCH   6   9
ENDBRANCH   1   6
BRANCH   2  16
ATOM     16  C   UNL d   1       2.960   2.014  -1.135  0.00  0.00     0.006 A 
ATOM     17  S   UNL d   1       3.668   1.166  -2.459  0.00  0.00    -0.104 SA
ATOM     18  C   UNL d   1       5.233   1.279  -1.788  0.00  0.00     0.050 A 
ATOM     19  C   UNL d   1       5.249   2.036  -0.640  0.00  0.00     0.008 A 
ATOM     20  C   UNL d   1       3.945   2.490  -0.285  0.00  0.00     0.017 A 
ENDBRANCH   2  16
TORSDOF 3
