REMARK  4 active torsions:
REMARK  status: ('A' for Active; 'I' for Inactive)
REMARK    1  A    between atoms: S_8  and  C_1 
REMARK    2  A    between atoms: C_9  and  C_5 
REMARK    3  A    between atoms: N_7  and  C_11 
REMARK    4  A    between atoms: C_17  and  S_8 
ROOT
ATOM      1  C   UNL d   1      -1.497   1.249   0.110  0.00  0.00     0.110 A 
ATOM      2  N   UNL d   1      -0.211   0.730   0.133  0.00  0.00    -0.300 N 
ATOM      3  N   UNL d   1      -1.609  -1.023   0.089  0.00  0.00    -0.339 N 
ATOM      4  HN  UNL d   1      -1.974  -1.975   0.108  1.00  0.00     0.167 HD
ATOM      5  C   UNL d   1      -2.338   0.147   0.054  0.00  0.00     0.079 A 
ATOM      6  C   UNL d   1      -0.348  -0.657   0.094  0.00  0.00     0.113 A 
ATOM      7  C   UNL d   1       1.041   1.358   0.174  0.00  0.00     0.099 A 
ATOM      8  C   UNL d   1       0.843  -1.438   0.056  0.00  0.00     0.049 A 
ATOM      9  C   UNL d   1       2.161   0.614   0.155  0.00  0.00     0.018 A 
ATOM     10  C   UNL d   1       2.045  -0.833   0.080  0.00  0.00     0.005 A 
ENDROOT
BRANCH   1  11
ATOM     11  S   UNL d   1      -1.774   2.963   0.044  0.00  0.00    -0.070 SA
BRANCH  11  12
ATOM     12  C   UNL d   1      -2.120   3.417   1.736  0.00  0.00     0.007 A 
ATOM     13  C   UNL d   1      -2.023   4.788   2.036  0.00  0.00     0.021 A 
ATOM     14  C   UNL d   1      -2.290   5.273   3.320  0.00  0.00     0.037 A 
ATOM     15  C   UNL d   1      -2.667   4.379   4.325  0.00  0.00     0.102 A 
ATOM     16  C   UNL d   1      -2.785   3.012   4.045  0.00  0.00     0.037 A 
ATOM     17  C   UNL d   1      -2.513   2.539   2.752  0.00  0.00     0.021 A 
BRANCH  15  18
ATOM     18  N   UNL d   1      -2.939   4.880   5.678  0.00  0.00    -0.116 N 
ATOM     19  O   UNL d   1      -2.816   6.097   5.878  0.00  0.00    -0.532 OA
ATOM     20  O   UNL d   1      -3.272   4.056   6.542  0.00  0.00    -0.532 OA
ENDBRANCH  15  18
ENDBRANCH  11  12
ENDBRANCH   1  11
BRANCH   5  21
ATOM     21  C   UNL d   1      -3.795   0.115   0.003  0.00  0.00    -0.006 A 
ATOM     22  C   UNL d   1      -4.468  -0.949   0.625  0.00  0.00     0.015 A 
ATOM     23  C   UNL d   1      -5.864  -1.027   0.608  0.00  0.00     0.020 A 
ATOM     24  C   UNL d   1      -6.599  -0.038  -0.038  0.00  0.00     0.011 A 
ATOM     25  C   UNL d   1      -5.951   1.014  -0.680  0.00  0.00     0.020 A 
ATOM     26 BR   UNL d   1      -8.486  -0.129  -0.056  0.00  0.00    -0.051 Br
ATOM     27  C   UNL d   1      -4.554   1.082  -0.668  0.00  0.00     0.015 A 
ENDBRANCH   5  21
TORSDOF 4
