REMARK  2 active torsions:
REMARK  status: ('A' for Active; 'I' for Inactive)
REMARK    1  A    between atoms: C_2  and  C_1 
REMARK    2  A    between atoms: C_11  and  C_7 
ROOT
ATOM      1  N   UNL d   1       2.523   2.057   1.204  0.00  0.00    -0.353 N 
ATOM      2  HN  UNL d   1       1.520   2.004   1.379  1.00  0.00     0.166 HD
ATOM      3  N   UNL d   1       5.301   2.200   0.730  0.00  0.00    -0.362 N 
ATOM      4  HN  UNL d   1       6.306   2.240   0.556  1.00  0.00     0.165 HD
ATOM      5  C   UNL d   1       3.265   3.086   1.664  0.00  0.00     0.059 A 
ATOM      6  C   UNL d   1       3.168   1.098   0.500  0.00  0.00     0.048 A 
ATOM      7  C   UNL d   1       4.660   3.159   1.423  0.00  0.00     0.059 A 
ATOM      8  C   UNL d   1       4.536   1.178   0.277  0.00  0.00     0.117 A 
ATOM      9  C   UNL d   1       2.654   4.103   2.388  0.00  0.00     0.032 A 
ATOM     10  C   UNL d   1       5.375   4.247   1.911  0.00  0.00     0.032 A 
ATOM     11  C   UNL d   1       3.383   5.190   2.875  0.00  0.00     0.002 A 
ATOM     12  C   UNL d   1       4.749   5.263   2.635  0.00  0.00     0.002 A 
ENDROOT
BRANCH   6  13
ATOM     13  C   UNL d   1       2.378  -0.014  -0.046  0.00  0.00     0.032 C 
ATOM     14  C   UNL d   1       1.049  -0.129   0.113  0.00  0.00     0.017 C 
BRANCH  14  15
ATOM     15  C   UNL d   1       0.273  -1.220  -0.501  0.00  0.00     0.007 A 
ATOM     16  C   UNL d   1       0.069  -2.442   0.166  0.00  0.00     0.045 A 
ATOM     17 CL   UNL d   1       0.727  -2.749   1.738  0.00  0.00    -0.083 Cl
ATOM     18  C   UNL d   1      -0.686  -3.465  -0.422  0.00  0.00     0.025 A 
ATOM     19  C   UNL d   1      -1.250  -3.287  -1.684  0.00  0.00     0.003 A 
ATOM     20  C   UNL d   1      -1.055  -2.086  -2.361  0.00  0.00     0.025 A 
ATOM     21  C   UNL d   1      -0.301  -1.061  -1.777  0.00  0.00     0.045 A 
ATOM     22 CL   UNL d   1      -0.113   0.399  -2.692  0.00  0.00    -0.083 Cl
ENDBRANCH  14  15
ENDBRANCH   6  13
TORSDOF 2
