REMARK  4 active torsions:
REMARK  status: ('A' for Active; 'I' for Inactive)
REMARK       I    between atoms: C_7  and  N_1 
REMARK    1  A    between atoms: S_8  and  C_4 
REMARK    2  A    between atoms: C_9  and  C_5 
REMARK    3  A    between atoms: C_10  and  C_7 
REMARK    4  A    between atoms: C_16  and  S_8 
ROOT
ATOM      1  N   UNL d   1      -0.355   0.999  -0.051  0.00  0.00    -0.229 N 
ATOM      2  N   UNL d   1       0.931   0.577  -0.154  0.00  0.00    -0.289 N 
ATOM      3  HN  UNL d   1       1.763   1.155  -0.267  1.00  0.00     0.188 HD
ATOM      4  C   UNL d   1      -0.479  -1.197   0.031  0.00  0.00     0.052 A 
ATOM      5  C   UNL d   1       0.876  -0.768  -0.077  0.00  0.00     0.077 A 
ATOM      6  C   UNL d   1      -1.228  -0.051   0.092  0.00  0.00     0.141 A 
ATOM      7  C   UNL d   1      -0.675   2.372  -0.073  0.00  0.00     0.276 C 
ATOM      8  O   UNL d   1      -1.801   2.688   0.313  0.00  0.00    -0.265 OA
ENDROOT
BRANCH   7   9
ATOM      9  C   UNL d   1       0.231   3.442  -0.565  0.00  0.00     0.034 A 
ATOM     10  C   UNL d   1       1.061   3.230  -1.674  0.00  0.00     0.019 A 
ATOM     11  C   UNL d   1       1.825   4.282  -2.187  0.00  0.00     0.025 A 
ATOM     12  C   UNL d   1       1.759   5.542  -1.595  0.00  0.00     0.034 A 
ATOM     13  C   UNL d   1       0.934   5.762  -0.491  0.00  0.00     0.025 A 
ATOM     14 CL   UNL d   1       2.685   6.838  -2.243  0.00  0.00    -0.084 Cl
ATOM     15  C   UNL d   1       0.163   4.714   0.019  0.00  0.00     0.019 A 
ENDBRANCH   7   9
BRANCH   5  16
ATOM     16  C   UNL d   1       2.120  -1.548  -0.082  0.00  0.00    -0.006 A 
ATOM     17  C   UNL d   1       3.252  -1.048   0.588  0.00  0.00     0.015 A 
ATOM     18  C   UNL d   1       4.439  -1.785   0.641  0.00  0.00     0.024 A 
ATOM     19  C   UNL d   1       4.507  -3.028   0.019  0.00  0.00     0.034 A 
ATOM     20  C   UNL d   1       3.405  -3.530  -0.669  0.00  0.00     0.024 A 
ATOM     21 CL   UNL d   1       5.957  -3.949   0.100  0.00  0.00    -0.084 Cl
ATOM     22  C   UNL d   1       2.220  -2.787  -0.728  0.00  0.00     0.015 A 
ENDBRANCH   5  16
BRANCH   4  23
ATOM     23  S   UNL d   1      -1.136  -2.811   0.080  0.00  0.00    -0.087 SA
BRANCH  23  24
ATOM     24  C   UNL d   1      -1.037  -3.199   1.812  0.00  0.00     0.005 A 
ATOM     25  C   UNL d   1      -1.892  -2.582   2.732  0.00  0.00     0.020 A 
ATOM     26  C   UNL d   1      -1.843  -2.933   4.084  0.00  0.00     0.025 A 
ATOM     27  C   UNL d   1      -0.944  -3.907   4.513  0.00  0.00     0.034 A 
ATOM     28  C   UNL d   1      -0.091  -4.530   3.605  0.00  0.00     0.025 A 
ATOM     29 CL   UNL d   1      -0.895  -4.351   6.175  0.00  0.00    -0.084 Cl
ATOM     30  C   UNL d   1      -0.139  -4.177   2.254  0.00  0.00     0.020 A 
ENDBRANCH  23  24
ENDBRANCH   4  23
TORSDOF 4
