REMARK  7 active torsions:
REMARK  status: ('A' for Active; 'I' for Inactive)
REMARK    1  A    between atoms: S_13  and  C_3 
REMARK    2  A    between atoms: N_17  and  C_5 
REMARK    3  A    between atoms: C_8  and  C_14 
REMARK    4  A    between atoms: O_9  and  C_8 
REMARK    5  A    between atoms: C_10  and  O_9 
REMARK    6  A    between atoms: C_23  and  S_13 
REMARK    7  A    between atoms: C_24  and  C_23 
ROOT
ATOM      1  C   UNL d   1       2.059   8.265  -0.166  0.00  0.00     0.040 A 
ATOM      2  C   UNL d   1       2.332   7.550  -1.341  0.00  0.00     0.018 A 
ATOM      3  C   UNL d   1       1.717   7.562   0.994  0.00  0.00     0.018 A 
ATOM      4  C   UNL d   1       1.913   5.442  -0.201  0.00  0.00    -0.048 A 
ATOM      5  C   UNL d   1       1.656   6.163   0.977  0.00  0.00     0.009 A 
ATOM      6  C   UNL d   1       2.255   6.152  -1.360  0.00  0.00     0.009 A 
ENDROOT
BRANCH   4   7
ATOM      7  C   UNL d   1       1.799   3.930  -0.219  0.00  0.00     0.121 C 
BRANCH   7   8
ATOM      8  S   UNL d   1       0.073   3.416   0.015  0.00  0.00    -0.089 SA
BRANCH   8   9
ATOM      9  C   UNL d   1       0.219   1.690   0.055  0.00  0.00     0.148 A 
ATOM     10  N   UNL d   1       1.313   1.046  -0.169  0.00  0.00    -0.328 N 
ATOM     11  C   UNL d   1       1.264  -0.328  -0.103  0.00  0.00     0.084 A 
ATOM     12  HN  UNL d   1       2.181   1.536  -0.386  1.00  0.00     0.169 HD
ATOM     13  C   UNL d   1       0.124  -0.995   0.144  0.00  0.00     0.116 A 
ATOM     14  C   UNL d   1      -1.111  -0.240   0.378  0.00  0.00     0.250 A 
ATOM     15  O   UNL d   1      -2.179  -0.800   0.585  0.00  0.00    -0.268 OA
ATOM     16  N   UNL d   1      -0.973   1.108   0.338  0.00  0.00    -0.304 N 
ATOM     17  H   UNL d   1      -1.787   1.681   0.489  0.00  0.00     0.171 HD
BRANCH  11  18
ATOM     18  N   UNL d   1       2.427  -1.032  -0.314  0.00  0.00    -0.288 NA
ATOM     19  H   UNL d   1       3.094  -0.455  -0.820  0.00  0.00     0.125 HD
ATOM     20  H   UNL d   1       2.288  -1.940  -0.742  0.00  0.00     0.125 HD
ENDBRANCH  11  18
ENDBRANCH   8   9
ENDBRANCH   7   8
ENDBRANCH   4   7
BRANCH   1  21
ATOM     21  C   UNL d   1       2.163   9.753  -0.206  0.00  0.00     0.298 C 
ATOM     22  O   UNL d   1       2.641  10.360  -1.152  0.00  0.00    -0.259 OA
BRANCH  21  23
ATOM     23  O   UNL d   1       1.665  10.299   0.967  0.00  0.00    -0.272 OA
BRANCH  23  24
ATOM     24  C   UNL d   1       1.595  11.699   0.984  0.00  0.00     0.118 A 
ATOM     25  C   UNL d   1       0.817  12.403   0.062  0.00  0.00     0.153 A 
ATOM     26  C   UNL d   1       0.735  13.788   0.119  0.00  0.00     0.087 A 
ATOM     27  F   UNL d   1       0.116  11.747  -0.874  0.00  0.00    -0.203 F 
ATOM     28  C   UNL d   1       1.414  14.459   1.129  0.00  0.00     0.119 A 
ATOM     29  C   UNL d   1       2.164  13.768   2.080  0.00  0.00     0.045 A 
ATOM     30  F   UNL d   1       1.335  15.794   1.199  0.00  0.00    -0.206 F 
ATOM     31  C   UNL d   1       2.255  12.375   2.014  0.00  0.00     0.043 A 
ENDBRANCH  23  24
ENDBRANCH  21  23
ENDBRANCH   1  21
TORSDOF 7
