REMARK  3 active torsions:
REMARK  status: ('A' for Active; 'I' for Inactive)
REMARK    1  A    between atoms: N_5  and  S_1 
REMARK    2  A    between atoms: C_7  and  S_1 
REMARK    3  A    between atoms: C_4  and  N_5 
ROOT
ATOM      1  N   UNL d   1       0.576   1.273  -0.267  0.00  0.00    -0.310 N 
ATOM      2  H   UNL d   1       0.567   1.591  -1.235  0.00  0.00     0.172 HD
ENDROOT
BRANCH   1   3
ATOM      3  C   UNL d   1       1.052   2.202   0.760  0.00  0.00     0.102 C 
ATOM      4  C   UNL d   1       2.040   1.679   1.848  0.00  0.00    -0.016 C 
ATOM      5  C   UNL d   1       2.822   2.981   2.271  0.00  0.00    -0.035 C 
ATOM      6  C   UNL d   1       3.164   0.861   1.148  0.00  0.00     0.012 C 
ATOM      7  C   UNL d   1       1.375   0.985   3.026  0.00  0.00     0.018 C 
ATOM      8  C   UNL d   1       3.989   2.761   3.260  0.00  0.00     0.016 C 
ATOM      9  C   UNL d   1       1.981   4.131   2.864  0.00  0.00     0.016 C 
ATOM     10  C   UNL d   1       3.268   3.243   0.819  0.00  0.00    -0.004 C 
ATOM     11  C   UNL d   1       1.928   3.281   0.046  0.00  0.00     0.032 C 
ATOM     12  C   UNL d   1       3.987   1.940   0.425  0.00  0.00     0.006 C 
ENDBRANCH   1   3
BRANCH   1  13
ATOM     13  S   UNL d   1      -0.112  -0.234  -0.122  0.00  0.00     0.259 S 
ATOM     14  O   UNL d   1       0.768  -1.092   0.643  0.00  0.00    -0.201 OA
ATOM     15  O   UNL d   1      -0.483  -0.597  -1.475  0.00  0.00    -0.201 OA
BRANCH  13  16
ATOM     16  C   UNL d   1      -1.629  -0.061   0.779  0.00  0.00     0.079 A 
ATOM     17  C   UNL d   1      -2.615   0.827   0.338  0.00  0.00     0.026 A 
ATOM     18  C   UNL d   1      -3.892   0.772   0.911  0.00  0.00     0.008 A 
ATOM     19  C   UNL d   1      -4.192  -0.170   1.906  0.00  0.00    -0.062 A 
ATOM     20  C   UNL d   1      -3.180  -1.020   2.368  0.00  0.00     0.008 A 
ATOM     21  C   UNL d   1      -5.593  -0.299   2.430  0.00  0.00     0.048 C 
ATOM     22  C   UNL d   1      -1.906  -0.967   1.807  0.00  0.00     0.026 A 
ENDBRANCH  13  16
ENDBRANCH   1  13
TORSDOF 3
