REMARK  3 active torsions:
REMARK  status: ('A' for Active; 'I' for Inactive)
REMARK    1  A    between atoms: C_7  and  C_1 
REMARK    2  A    between atoms: C_8  and  C_2 
REMARK    3  A    between atoms: S_9  and  C_5 
ROOT
ATOM      1  C   UNL d   1       0.963  -0.660  -0.061  0.00  0.00     0.072 A 
ATOM      2  C   UNL d   1      -0.333  -1.157   0.081  0.00  0.00     0.072 A 
ATOM      3  N   UNL d   1       0.970   0.724  -0.059  0.00  0.00    -0.334 N 
ATOM      4  HN  UNL d   1       1.778   1.342  -0.127  1.00  0.00     0.168 HD
ATOM      5  C   UNL d   1      -0.285   1.063   0.051  0.00  0.00     0.142 A 
ATOM      6  N   UNL d   1      -1.107  -0.015   0.138  0.00  0.00    -0.334 N 
ATOM      7  H   UNL d   1      -2.106   0.027   0.265  0.00  0.00     0.168 HD
ENDROOT
BRANCH   1   8
ATOM      8  C   UNL d   1       2.200  -1.419  -0.157  0.00  0.00    -0.007 A 
ATOM      9  C   UNL d   1       2.297  -2.589  -0.921  0.00  0.00     0.014 A 
ATOM     10  C   UNL d   1       3.486  -3.324  -0.944  0.00  0.00     0.001 A 
ATOM     11  C   UNL d   1       4.595  -2.881  -0.227  0.00  0.00     0.000 A 
ATOM     12  C   UNL d   1       4.523  -1.697   0.502  0.00  0.00     0.001 A 
ATOM     13  C   UNL d   1       3.333  -0.968   0.535  0.00  0.00     0.014 A 
ENDBRANCH   1   8
BRANCH   2  14
ATOM     14  C   UNL d   1      -0.912  -2.497   0.210  0.00  0.00    -0.007 A 
ATOM     15  C   UNL d   1      -0.257  -3.499   0.939  0.00  0.00     0.014 A 
ATOM     16  C   UNL d   1      -0.793  -4.786   1.030  0.00  0.00     0.001 A 
ATOM     17  C   UNL d   1      -2.008  -5.080   0.417  0.00  0.00     0.000 A 
ATOM     18  C   UNL d   1      -2.686  -4.089  -0.287  0.00  0.00     0.001 A 
ATOM     19  C   UNL d   1      -2.140  -2.807  -0.394  0.00  0.00     0.014 A 
ENDBRANCH   2  14
BRANCH   5  20
ATOM     20  S   UNL d   1      -0.917   2.659   0.104  0.00  0.00    -0.107 SA
ATOM     21  H   UNL d   1       0.262   3.287  -0.010  0.00  0.00     0.110 HD
ENDBRANCH   5  20
TORSDOF 3
