REMARK  2 active torsions:
REMARK  status: ('A' for Active; 'I' for Inactive)
REMARK    1  A    between atoms: C_3  and  C_1 
REMARK       I    between atoms: N_9  and  C_3 
REMARK    2  A    between atoms: N_10  and  N_9 
ROOT
ATOM      1  C   UNL d   1       2.223   0.659  -0.407  0.00  0.00     0.246 C 
ATOM      2  O   UNL d   1       1.093   1.437  -0.002  0.00  0.00    -0.331 OA
ATOM      3  O   UNL d   1       1.071  -1.466   0.012  0.00  0.00    -0.345 OA
ATOM      4  C   UNL d   1      -0.057   0.692   0.044  0.00  0.00     0.103 A 
ATOM      5  C   UNL d   1       2.246  -0.694   0.292  0.00  0.00     0.218 C 
ATOM      6  C   UNL d   1      -0.066  -0.704   0.027  0.00  0.00     0.102 A 
ATOM      7  C   UNL d   1      -1.256   1.401   0.086  0.00  0.00     0.040 A 
ATOM      8  C   UNL d   1      -1.278  -1.391  -0.001  0.00  0.00     0.039 A 
ATOM      9  C   UNL d   1      -2.470   0.712   0.069  0.00  0.00     0.003 A 
ATOM     10  C   UNL d   1      -2.480  -0.683   0.017  0.00  0.00     0.003 A 
ENDROOT
BRANCH   1  11
ATOM     11  C   UNL d   1       2.351   0.516  -1.934  0.00  0.00     0.263 C 
ATOM     12  O   UNL d   1       2.983  -0.380  -2.489  0.00  0.00    -0.269 OA
ATOM     13  N   UNL d   1       1.766   1.572  -2.635  0.00  0.00    -0.292 N 
ATOM     14  H   UNL d   1       1.081   2.141  -2.136  0.00  0.00     0.183 HD
BRANCH  13  15
ATOM     15  N   UNL d   1       1.690   1.504  -4.045  0.00  0.00    -0.247 NA
ATOM     16  H   UNL d   1       1.999   0.559  -4.317  0.00  0.00     0.143 HD
ATOM     17  H   UNL d   1       2.409   2.121  -4.428  0.00  0.00     0.143 HD
ENDBRANCH  13  15
ENDBRANCH   1  11
TORSDOF 2
