REMARK  2 active torsions:
REMARK  status: ('A' for Active; 'I' for Inactive)
REMARK    1  A    between atoms: C_4  and  C_1 
REMARK       I    between atoms: N_7  and  C_4 
REMARK    2  A    between atoms: C_8  and  N_7 
ROOT
ATOM      1  C   UNL d   1       1.422  -2.757   0.080  0.00  0.00     0.258 C 
ATOM      2  N   UNL d   1       0.796  -3.994   0.071  0.00  0.00    -0.320 N 
ATOM      3  O   UNL d   1       0.864  -1.673   0.007  0.00  0.00    -0.267 OA
ATOM      4  H   UNL d   1       1.355  -4.789   0.351  0.00  0.00     0.169 HD
ENDROOT
BRANCH   1   5
ATOM      5  C   UNL d   1       2.885  -2.795   0.195  0.00  0.00     0.063 A 
ATOM      6  C   UNL d   1       3.666  -3.752   0.809  0.00  0.00     0.091 A 
ATOM      7  S   UNL d   1       5.338  -3.458   0.695  0.00  0.00    -0.065 SA
ATOM      8 CL   UNL d   1       3.169  -5.158   1.677  0.00  0.00    -0.075 Cl
ATOM      9  C   UNL d   1       5.061  -2.011  -0.131  0.00  0.00     0.077 A 
ATOM     10  C   UNL d   1       3.731  -1.736  -0.307  0.00  0.00     0.050 A 
ATOM     11 CL   UNL d   1       6.385  -1.057  -0.660  0.00  0.00    -0.076 Cl
ENDBRANCH   1   5
BRANCH   2  12
ATOM     12  C   UNL d   1      -0.592  -4.225  -0.069  0.00  0.00     0.073 A 
ATOM     13  C   UNL d   1      -1.499  -3.336  -0.661  0.00  0.00     0.143 A 
ATOM     14  F   UNL d   1      -1.088  -2.251  -1.329  0.00  0.00    -0.204 F 
ATOM     15  C   UNL d   1      -2.869  -3.598  -0.658  0.00  0.00     0.044 A 
ATOM     16  C   UNL d   1      -3.353  -4.772  -0.089  0.00  0.00     0.003 A 
ATOM     17  C   UNL d   1      -2.458  -5.704   0.433  0.00  0.00     0.002 A 
ATOM     18  C   UNL d   1      -1.084  -5.439   0.430  0.00  0.00     0.033 A 
ENDBRANCH   2  12
TORSDOF 2
