REMARK  6 active torsions:
REMARK  status: ('A' for Active; 'I' for Inactive)
REMARK    1  A    between atoms: S_3  and  C_1 
REMARK    2  A    between atoms: S_2  and  C_4 
REMARK    3  A    between atoms: N_11  and  S_2 
REMARK    4  A    between atoms: C_16  and  S_3 
REMARK    5  A    between atoms: C_8  and  C_17 
REMARK    6  A    between atoms: C_17  and  N_11 
ROOT
ATOM      1  S   UNL d   1      -0.294   3.012   0.023  0.00  0.00     0.248 S 
ATOM      2  O   UNL d   1      -1.186   3.193   1.141  0.00  0.00    -0.205 OA
ATOM      3  O   UNL d   1       0.971   3.693  -0.092  0.00  0.00    -0.205 OA
ENDROOT
BRANCH   1   4
ATOM      4  C   UNL d   1       0.171   1.285  -0.021  0.00  0.00     0.116 A 
ATOM      5  C   UNL d   1       0.987   0.602  -0.905  0.00  0.00     0.056 A 
ATOM      6  C   UNL d   1       1.170  -0.766  -0.538  0.00  0.00     0.072 A 
ATOM      7  C   UNL d   1       0.443  -1.095   0.587  0.00  0.00     0.074 A 
ATOM      8  S   UNL d   1      -0.409   0.255   1.213  0.00  0.00    -0.087 SA
BRANCH   6   9
ATOM      9  S   UNL d   1       2.141  -1.891  -1.435  0.00  0.00     0.207 S 
ATOM     10  O   UNL d   1       1.485  -3.170  -1.233  0.00  0.00    -0.217 OA
ATOM     11  O   UNL d   1       2.260  -1.292  -2.747  0.00  0.00    -0.217 OA
BRANCH   9  12
ATOM     12  C   UNL d   1       3.739  -1.940  -0.667  0.00  0.00     0.064 A 
ATOM     13  C   UNL d   1       3.989  -2.875   0.345  0.00  0.00     0.024 A 
ATOM     14  C   UNL d   1       5.268  -2.976   0.895  0.00  0.00     0.002 A 
ATOM     15  C   UNL d   1       6.304  -2.181   0.406  0.00  0.00     0.000 A 
ATOM     16  C   UNL d   1       6.061  -1.270  -0.624  0.00  0.00     0.002 A 
ATOM     17  C   UNL d   1       4.775  -1.135  -1.153  0.00  0.00     0.024 A 
ENDBRANCH   9  12
ENDBRANCH   6   9
ENDBRANCH   1   4
BRANCH   1  18
ATOM     18  N   UNL d   1      -1.149   3.310  -1.405  0.00  0.00    -0.211 NA
ATOM     19  H   UNL d   1      -0.754   2.797  -2.196  0.00  0.00     0.140 HD
BRANCH  18  20
ATOM     20  C   UNL d   1      -2.604   3.126  -1.316  0.00  0.00     0.146 C 
BRANCH  20  21
ATOM     21  C   UNL d   1      -3.301   3.450  -2.617  0.00  0.00    -0.007 A 
ATOM     22  C   UNL d   1      -3.004   2.751  -3.800  0.00  0.00     0.087 A 
ATOM     23  C   UNL d   1      -3.677   3.037  -4.995  0.00  0.00     0.003 A 
ATOM     24  O   UNL d   1      -2.016   1.800  -3.738  0.00  0.00    -0.325 OA
ATOM     25  C   UNL d   1      -3.344   2.272  -6.238  0.00  0.00     0.212 C 
ATOM     26  C   UNL d   1      -4.685   4.008  -5.001  0.00  0.00     0.054 A 
ATOM     27  O   UNL d   1      -2.075   1.641  -6.115  0.00  0.00    -0.362 OA
ATOM     28  C   UNL d   1      -1.999   0.942  -4.881  0.00  0.00     0.345 C 
ATOM     29  C   UNL d   1      -4.982   4.699  -3.833  0.00  0.00     0.117 A 
ATOM     30  C   UNL d   1      -4.301   4.434  -2.650  0.00  0.00     0.053 A 
ATOM     31  F   UNL d   1      -5.949   5.626  -3.845  0.00  0.00    -0.206 F 
ENDBRANCH  20  21
ENDBRANCH  18  20
ENDBRANCH   1  18
TORSDOF 6
