REMARK  6 active torsions:
REMARK  status: ('A' for Active; 'I' for Inactive)
REMARK    1  A    between atoms: C_3  and  N_1 
REMARK    2  A    between atoms: S_10  and  C_2 
REMARK    3  A    between atoms: O_25  and  C_6 
REMARK    4  A    between atoms: C_11  and  C_7 
REMARK    5  A    between atoms: C_14  and  S_10 
REMARK    6  A    between atoms: C_12  and  C_13 
ROOT
ATOM      1  N   UNL d   1       0.021  -1.371   0.038  0.00  0.00    -0.254 N 
ATOM      2  C   UNL d   1       1.273  -0.867  -0.275  0.00  0.00     0.175 A 
ATOM      3  N   UNL d   1       1.227   0.443  -0.373  0.00  0.00    -0.276 N 
ATOM      4  HN  UNL d   1       2.017   1.058  -0.564  1.00  0.00     0.189 HD
ATOM      5  C   UNL d   1      -0.783  -0.240   0.065  0.00  0.00     0.245 A 
ATOM      6  N   UNL d   1      -0.072   0.837  -0.172  0.00  0.00    -0.263 N 
ATOM      7  HN  UNL d   1      -0.422   1.794  -0.203  1.00  0.00     0.190 HD
ENDROOT
BRANCH   2   8
ATOM      8  S   UNL d   1       2.670  -1.839  -0.590  0.00  0.00    -0.034 SA
BRANCH   8   9
ATOM      9  C   UNL d   1       3.190  -1.089  -2.111  0.00  0.00     0.077 A 
ATOM     10  N   UNL d   1       2.526  -1.458  -3.230  0.00  0.00    -0.359 N 
ATOM     11  C   UNL d   1       2.981  -0.975  -4.408  0.00  0.00     0.105 A 
ATOM     12  HN  UNL d   1       1.715  -2.075  -3.187  1.00  0.00     0.166 HD
ATOM     13  C   UNL d   1       4.088  -0.148  -4.536  0.00  0.00     0.063 A 
ATOM     14  C   UNL d   1       4.755   0.220  -3.364  0.00  0.00     0.020 A 
ATOM     15  C   UNL d   1       4.302  -0.256  -2.135  0.00  0.00     0.038 A 
BRANCH  13  16
ATOM     16  C   UNL d   1       4.559   0.303  -5.884  0.00  0.00     0.418 C 
ATOM     17  F   UNL d   1       3.746  -0.088  -6.904  0.00  0.00    -0.166 F 
ATOM     18  F   UNL d   1       4.656   1.657  -5.981  0.00  0.00    -0.166 F 
ATOM     19  F   UNL d   1       5.794  -0.183  -6.187  0.00  0.00    -0.166 F 
ENDBRANCH  13  16
ENDBRANCH   8   9
ENDBRANCH   2   8
BRANCH   1  20
ATOM     20  C   UNL d   1      -0.421  -2.719   0.145  0.00  0.00     0.060 A 
ATOM     21  C   UNL d   1       0.169  -3.669   1.006  0.00  0.00     0.075 A 
ATOM     22  C   UNL d   1      -0.321  -4.994   0.965  0.00  0.00     0.018 A 
ATOM     23  C   UNL d   1      -1.392  -5.352   0.146  0.00  0.00     0.001 A 
ATOM     24  C   UNL d   1      -1.999  -4.396  -0.656  0.00  0.00     0.002 A 
ATOM     25  C   UNL d   1      -1.516  -3.088  -0.664  0.00  0.00     0.031 A 
BRANCH  21  26
ATOM     26  C   UNL d   1       1.225  -3.380   2.053  0.00  0.00     0.419 C 
ATOM     27  F   UNL d   1       1.363  -2.061   2.348  0.00  0.00    -0.166 F 
ATOM     28  F   UNL d   1       0.936  -3.979   3.245  0.00  0.00    -0.166 F 
ATOM     29  F   UNL d   1       2.456  -3.839   1.709  0.00  0.00    -0.166 F 
ENDBRANCH  21  26
ENDBRANCH   1  20
BRANCH   5  30
ATOM     30  O   UNL d   1      -2.079  -0.197   0.355  0.00  0.00    -0.331 OA
ATOM     31  H   UNL d   1      -2.351  -1.051   0.727  0.00  0.00     0.221 HD
ENDBRANCH   5  30
TORSDOF 6
