REMARK  6 active torsions:
REMARK  status: ('A' for Active; 'I' for Inactive)
REMARK    1  A    between atoms: C_6  and  C_1 
REMARK    2  A    between atoms: C_7  and  C_2 
REMARK    3  A    between atoms: C_3  and  C_11 
REMARK    4  A    between atoms: O_16  and  C_17 
REMARK    5  A    between atoms: C_22  and  O_16 
REMARK    6  A    between atoms: C_19  and  C_22 
ROOT
ATOM      1  C   UNL d   1      -1.131   5.019   3.493  0.00  0.00     0.055 C 
ATOM      2  C   UNL d   1       0.132   4.754   3.101  0.00  0.00     0.034 C 
ATOM      3  C   UNL d   1      -2.215   4.101   3.365  0.00  0.00     0.100 C 
ATOM      4  N   UNL d   1      -3.099   3.350   3.293  0.00  0.00    -0.191 NA
ENDROOT
BRANCH   1   5
ATOM      5  C   UNL d   1      -1.455   6.320   4.107  0.00  0.00    -0.015 A 
ATOM      6  C   UNL d   1      -1.970   7.363   3.330  0.00  0.00     0.015 A 
ATOM      7  C   UNL d   1      -2.404   8.543   3.940  0.00  0.00     0.037 A 
ATOM      8  C   UNL d   1      -2.319   8.699   5.325  0.00  0.00     0.069 A 
ATOM      9  C   UNL d   1      -1.808   7.659   6.103  0.00  0.00     0.037 A 
ATOM     10  C   UNL d   1      -1.367   6.479   5.496  0.00  0.00     0.015 A 
BRANCH   8  11
ATOM     11  O   UNL d   1      -2.777   9.897   5.801  0.00  0.00    -0.347 OA
BRANCH  11  12
ATOM     12  C   UNL d   1      -2.408  10.224   7.138  0.00  0.00     0.214 C 
BRANCH  12  13
ATOM     13  C   UNL d   1      -2.595  11.707   7.338  0.00  0.00    -0.034 A 
ATOM     14  C   UNL d   1      -3.713  12.211   8.015  0.00  0.00     0.011 A 
ATOM     15  C   UNL d   1      -3.858  13.586   8.210  0.00  0.00     0.024 A 
ATOM     16  C   UNL d   1      -2.891  14.462   7.720  0.00  0.00     0.034 A 
ATOM     17  C   UNL d   1      -1.784  13.977   7.027  0.00  0.00     0.024 A 
ATOM     18 CL   UNL d   1      -3.063  16.155   7.973  0.00  0.00    -0.084 Cl
ATOM     19  C   UNL d   1      -1.640  12.602   6.832  0.00  0.00     0.011 A 
ENDBRANCH  12  13
ENDBRANCH  11  12
ENDBRANCH   8  11
ENDBRANCH   1   5
BRANCH   2  20
ATOM     20  C   UNL d   1       0.634   3.500   2.499  0.00  0.00    -0.035 A 
ATOM     21  C   UNL d   1       1.613   3.565   1.498  0.00  0.00     0.012 A 
ATOM     22  C   UNL d   1       2.113   2.397   0.905  0.00  0.00     0.017 A 
ATOM     23  C   UNL d   1       1.646   1.136   1.302  0.00  0.00     0.048 A 
ATOM     24  C   UNL d   1       0.692   1.068   2.323  0.00  0.00     0.017 A 
ATOM     25  C   UNL d   1       0.212   2.235   2.927  0.00  0.00     0.012 A 
BRANCH  23  26
ATOM     26  C   UNL d   1       2.171  -0.118   0.645  0.00  0.00     0.417 C 
ATOM     27  F   UNL d   1       1.612  -1.263   1.130  0.00  0.00    -0.166 F 
ATOM     28  F   UNL d   1       3.515  -0.264   0.805  0.00  0.00    -0.166 F 
ATOM     29  F   UNL d   1       1.950  -0.136  -0.698  0.00  0.00    -0.166 F 
ENDBRANCH  23  26
ENDBRANCH   2  20
TORSDOF 6
