REMARK  4 active torsions:
REMARK  status: ('A' for Active; 'I' for Inactive)
REMARK    1  A    between atoms: C_11  and  N_2 
REMARK    2  A    between atoms: N_12  and  C_3 
REMARK    3  A    between atoms: N_13  and  C_8 
REMARK    4  A    between atoms: C_14  and  N_9 
ROOT
ATOM      1  C   UNL d   1      -0.673   1.116  -0.007  0.00  0.00     0.694 A 
ATOM      2  N   UNL d   1       0.730   1.112   0.001  0.00  0.00    -0.122 N 
ATOM      3  C   UNL d   1       1.351  -0.124   0.012  0.00  0.00     0.180 A 
ATOM      4  N   UNL d   1      -1.333  -0.087  -0.069  0.00  0.00    -0.165 N 
ATOM      5  HN  UNL d   1      -2.351  -0.115  -0.129  1.00  0.00     0.187 HD
ATOM      6  N   UNL d   1       0.706  -1.254  -0.021  0.00  0.00    -0.308 N 
ATOM      7  HN  UNL d   1       1.195  -2.149  -0.025  1.00  0.00     0.171 HD
ATOM      8  C   UNL d   1      -0.652  -1.184  -0.050  0.00  0.00     0.172 A 
ATOM      9  N   UNL d   1      -1.395   2.205   0.032  0.00  0.00    -0.191 N 
ATOM     10  HN  UNL d   1      -0.900   3.096   0.063  1.00  0.00     0.184 HD
ENDROOT
BRANCH   2  11
ATOM     11  C   UNL d   1       1.470   2.346  -0.030  0.00  0.00     0.059 A 
ATOM     12  C   UNL d   1       1.108   3.443   0.774  0.00  0.00     0.030 A 
ATOM     13  C   UNL d   1       1.843   4.634   0.762  0.00  0.00     0.002 A 
ATOM     14  C   UNL d   1       2.972   4.751  -0.042  0.00  0.00     0.000 A 
ATOM     15  C   UNL d   1       3.353   3.686  -0.851  0.00  0.00     0.002 A 
ATOM     16  C   UNL d   1       2.601   2.506  -0.856  0.00  0.00     0.030 A 
ENDBRANCH   2  11
BRANCH   9  17
ATOM     17  C   UNL d   1      -2.800   2.246   0.037  0.00  0.00     0.049 A 
ATOM     18  C   UNL d   1      -3.623   1.389   0.778  0.00  0.00     0.030 A 
ATOM     19  C   UNL d   1      -5.015   1.529   0.761  0.00  0.00     0.002 A 
ATOM     20  C   UNL d   1      -5.603   2.563   0.037  0.00  0.00     0.000 A 
ATOM     21  C   UNL d   1      -4.799   3.454  -0.668  0.00  0.00     0.002 A 
ATOM     22  C   UNL d   1      -3.409   3.291  -0.666  0.00  0.00     0.030 A 
ENDBRANCH   9  17
BRANCH   3  23
ATOM     23  N   UNL d   1       2.710  -0.223   0.117  0.00  0.00    -0.273 NA
ATOM     24  H   UNL d   1       3.123   0.424   0.779  0.00  0.00     0.127 HD
ATOM     25  H   UNL d   1       2.990  -1.179   0.308  0.00  0.00     0.127 HD
ENDBRANCH   3  23
BRANCH   8  26
ATOM     26  N   UNL d   1      -1.318  -2.362  -0.061  0.00  0.00    -0.273 NA
ATOM     27  H   UNL d   1      -0.781  -3.118  -0.460  0.00  0.00     0.127 HD
ATOM     28  H   UNL d   1      -2.260  -2.271  -0.418  0.00  0.00     0.127 HD
ENDBRANCH   8  26
TORSDOF 4
