REMARK  3 active torsions:
REMARK  status: ('A' for Active; 'I' for Inactive)
REMARK    1  A    between atoms: C_3  and  C_4 
REMARK       I    between atoms: N_5  and  C_3 
REMARK    2  A    between atoms: C_10  and  N_5 
REMARK    3  A    between atoms: C_9  and  C_10 
ROOT
ATOM      1  N   UNL d   1       6.693  -0.526  -2.872  0.00  0.00    -0.197 NA
ATOM      2  C   UNL d   1       6.267  -0.888  -1.852  0.00  0.00     0.068 C 
ATOM      3  C   UNL d   1       5.773  -1.378  -0.567  0.00  0.00     0.226 C 
ENDROOT
BRANCH   3   4
ATOM      4  C   UNL d   1       4.271  -1.257  -0.501  0.00  0.00     0.231 C 
ATOM      5  N   UNL d   1       3.563  -2.372  -0.878  0.00  0.00    -0.355 N 
ATOM      6  H   UNL d   1       3.998  -3.208  -1.256  0.00  0.00     0.162 HD
ATOM      7  O   UNL d   1       3.720  -0.225  -0.123  0.00  0.00    -0.273 OA
BRANCH   5   8
ATOM      8  C   UNL d   1       2.114  -2.357  -0.887  0.00  0.00     0.179 C 
BRANCH   8   9
ATOM      9  C   UNL d   1       1.506  -3.628  -1.441  0.00  0.00     0.026 A 
ATOM     10  N   UNL d   1       2.338  -4.652  -1.779  0.00  0.00    -0.368 N 
ATOM     11  C   UNL d   1       1.764  -5.763  -2.297  0.00  0.00     0.088 A 
ATOM     12  HN  UNL d   1       3.348  -4.584  -1.649  1.00  0.00     0.165 HD
ATOM     13  C   UNL d   1       0.401  -5.911  -2.498  0.00  0.00     0.017 A 
ATOM     14  C   UNL d   1      -0.434  -4.860  -2.138  0.00  0.00     0.003 A 
ATOM     15  C   UNL d   1       0.122  -3.704  -1.598  0.00  0.00     0.027 A 
ENDBRANCH   8   9
ENDBRANCH   5   8
ENDBRANCH   3   4
TORSDOF 3
