REMARK  3 active torsions:
REMARK  status: ('A' for Active; 'I' for Inactive)
REMARK    1  A    between atoms: C_2  and  C_1 
REMARK    2  A    between atoms: C_16  and  C_8 
REMARK    3  A    between atoms: C_12  and  C_15 
ROOT
ATOM      1  C   UNL d   1      -0.287  -1.048   0.059  0.00  0.00     0.193 A 
ATOM      2  O   UNL d   1      -1.071   0.050  -0.209  0.00  0.00    -0.271 OA
ATOM      3  N   UNL d   1       0.933  -0.700   0.431  0.00  0.00    -0.276 N 
ATOM      4  HN  UNL d   1       1.695  -1.330   0.681  1.00  0.00     0.189 HD
ATOM      5  N   UNL d   1       0.978   0.679   0.416  0.00  0.00    -0.277 N 
ATOM      6  HN  UNL d   1       1.780   1.266   0.647  1.00  0.00     0.189 HD
ATOM      7  C   UNL d   1      -0.217   1.088   0.044  0.00  0.00     0.174 A 
ENDROOT
BRANCH   7   8
ATOM      8  C   UNL d   1      -0.738   2.438  -0.130  0.00  0.00     0.017 A 
ATOM      9  C   UNL d   1      -2.080   2.675  -0.464  0.00  0.00     0.017 A 
ATOM     10  C   UNL d   1      -2.559   3.979  -0.630  0.00  0.00     0.017 A 
ATOM     11  C   UNL d   1      -1.705   5.078  -0.467  0.00  0.00     0.048 A 
ATOM     12  C   UNL d   1      -0.365   4.846  -0.126  0.00  0.00     0.017 A 
ATOM     13  C   UNL d   1       0.112   3.541   0.041  0.00  0.00     0.017 A 
BRANCH  11  14
ATOM     14  C   UNL d   1      -2.203   6.492  -0.656  0.00  0.00     0.417 C 
ATOM     15  F   UNL d   1      -3.520   6.565  -0.996  0.00  0.00    -0.166 F 
ATOM     16  F   UNL d   1      -2.065   7.247   0.469  0.00  0.00    -0.166 F 
ATOM     17  F   UNL d   1      -1.527   7.153  -1.636  0.00  0.00    -0.166 F 
ENDBRANCH  11  14
ENDBRANCH   7   8
BRANCH   1  18
ATOM     18  C   UNL d   1      -0.761  -2.457  -0.037  0.00  0.00     0.110 A 
ATOM     19  N   UNL d   1      -2.000  -2.778  -0.435  0.00  0.00    -0.257 N 
ATOM     20  O   UNL d   1      -2.066  -4.160  -0.369  0.00  0.00    -0.242 OA
ATOM     21  HN  UNL d   1      -2.739  -2.138  -0.726  1.00  0.00     0.195 HD
ATOM     22  C   UNL d   1      -0.876  -4.650   0.071  0.00  0.00     0.075 A 
ATOM     23  C   UNL d   1      -0.007  -3.608   0.281  0.00  0.00     0.070 A 
ATOM     24  C   UNL d   1      -0.788  -6.113   0.225  0.00  0.00     0.079 C 
ENDBRANCH   1  18
TORSDOF 3
