REMARK  7 active torsions:
REMARK  status: ('A' for Active; 'I' for Inactive)
REMARK    1  A    between atoms: C_5  and  C_1 
REMARK    2  A    between atoms: C_2  and  C_3 
REMARK       I    between atoms: C_3  and  N_6 
REMARK    3  A    between atoms: O_7  and  C_4 
REMARK    4  A    between atoms: N_6  and  C_5 
REMARK    5  A    between atoms: C_11  and  O_7 
REMARK    6  A    between atoms: N_12  and  C_9 
REMARK    7  A    between atoms: O_21  and  C_14 
ROOT
ATOM      1  C   UNL d   1       0.219   1.155  -0.023  0.00  0.00     0.015 A 
ATOM      2  C   UNL d   1       1.627   1.206  -0.107  0.00  0.00     0.085 A 
ATOM      3  C   UNL d   1      -0.389  -0.117   0.002  0.00  0.00     0.044 A 
ATOM      4 CL   UNL d   1      -2.105  -0.314   0.093  0.00  0.00    -0.084 Cl
ATOM      5  C   UNL d   1       2.378   0.022  -0.218  0.00  0.00     0.038 A 
ATOM      6  C   UNL d   1       1.760  -1.220  -0.147  0.00  0.00     0.004 A 
ATOM      7  C   UNL d   1       0.377  -1.289  -0.032  0.00  0.00     0.024 A 
ENDROOT
BRANCH   1   8
ATOM      8  C   UNL d   1      -0.604   2.413   0.092  0.00  0.00     0.166 C 
BRANCH   8   9
ATOM      9  N   UNL d   1      -1.101   2.921  -1.170  0.00  0.00    -0.352 N 
ATOM     10  C   UNL d   1      -1.900   4.050  -1.167  0.00  0.00     0.253 C 
ATOM     11  O   UNL d   1      -2.200   4.643  -0.132  0.00  0.00    -0.268 OA
ATOM     12  H   UNL d   1      -1.105   2.333  -2.000  0.00  0.00     0.163 HD
BRANCH  10  13
ATOM     13  C   UNL d   1      -2.405   4.553  -2.472  0.00  0.00     0.052 A 
ATOM     14  C   UNL d   1      -1.640   4.534  -3.657  0.00  0.00     0.021 A 
ATOM     15  C   UNL d   1      -2.210   5.072  -4.823  0.00  0.00     0.024 A 
ATOM     16  C   UNL d   1      -3.456   5.707  -4.799  0.00  0.00     0.002 A 
ATOM     17  C   UNL d   1      -4.180   5.772  -3.615  0.00  0.00     0.001 A 
ATOM     18  C   UNL d   1      -3.659   5.194  -2.457  0.00  0.00     0.019 A 
BRANCH  14  19
ATOM     19  N   UNL d   1      -0.418   3.841  -3.772  0.00  0.00    -0.302 NA
ATOM     20  H   UNL d   1       0.088   3.805  -2.886  0.00  0.00     0.124 HD
ATOM     21  H   UNL d   1       0.172   4.203  -4.515  0.00  0.00     0.124 HD
ENDBRANCH  14  19
ENDBRANCH  10  13
ENDBRANCH   8   9
ENDBRANCH   1   8
BRANCH   2  22
ATOM     22  O   UNL d   1       2.245   2.449  -0.092  0.00  0.00    -0.310 OA
BRANCH  22  23
ATOM     23  C   UNL d   1       3.489   2.533   0.503  0.00  0.00     0.076 A 
ATOM     24  C   UNL d   1       4.505   3.179  -0.202  0.00  0.00     0.040 A 
ATOM     25  C   UNL d   1       5.808   3.205   0.313  0.00  0.00     0.039 A 
ATOM     26  C   UNL d   1       6.091   2.589   1.535  0.00  0.00     0.068 A 
ATOM     27  C   UNL d   1       5.052   2.017   2.271  0.00  0.00     0.039 A 
ATOM     28  C   UNL d   1       3.750   2.000   1.768  0.00  0.00     0.040 A 
BRANCH  26  29
ATOM     29  O   UNL d   1       7.325   2.504   2.118  0.00  0.00    -0.356 OA
ATOM     30  C   UNL d   1       8.441   2.588   1.239  0.00  0.00     0.210 C 
ENDBRANCH  26  29
ENDBRANCH  22  23
ENDBRANCH   2  22
TORSDOF 7
