REMARK  8 active torsions:
REMARK  status: ('A' for Active; 'I' for Inactive)
REMARK    1  A    between atoms: C_6  and  N_1 
REMARK    2  A    between atoms: C_11  and  C_2 
REMARK    3  A    between atoms: C_8  and  C_3 
REMARK    4  A    between atoms: O_23  and  C_8 
REMARK    5  A    between atoms: C_10  and  N_17 
REMARK    6  A    between atoms: N_20  and  C_10 
REMARK    7  A    between atoms: N_12  and  C_11 
REMARK    8  A    between atoms: N_17  and  N_12 
ROOT
ATOM      1  N   UNL d   1       1.024  -0.588  -0.077  0.00  0.00    -0.251 N 
ATOM      2  C   UNL d   1       1.106   0.806   0.003  0.00  0.00     0.091 A 
ATOM      3  C   UNL d   1      -0.209   1.266   0.044  0.00  0.00     0.086 A 
ATOM      4  N   UNL d   1      -0.267  -0.999  -0.171  0.00  0.00    -0.303 N 
ATOM      5  HN  UNL d   1      -0.606  -1.953  -0.292  1.00  0.00     0.186 HD
ATOM      6  C   UNL d   1      -0.995   0.108  -0.070  0.00  0.00     0.127 A 
ENDROOT
BRANCH   2   7
ATOM      7  C   UNL d   1       2.306   1.603  -0.044  0.00  0.00     0.139 C 
BRANCH   7   8
ATOM      8  N   UNL d   1       3.353   1.171  -0.669  0.00  0.00    -0.307 N 
ATOM      9  HN  UNL d   1       3.351   0.289  -1.182  1.00  0.00     0.186 HD
BRANCH   8  10
ATOM     10  N   UNL d   1       4.461   1.964  -0.601  0.00  0.00    -0.277 N 
ATOM     11  H   UNL d   1       4.451   2.836  -0.079  0.00  0.00     0.189 HD
BRANCH  10  12
ATOM     12  C   UNL d   1       5.639   1.574  -1.179  0.00  0.00     0.184 C 
ATOM     13  S   UNL d   1       7.021   2.482  -1.072  0.00  0.00    -0.040 SA
BRANCH  12  14
ATOM     14  N   UNL d   1       5.607   0.393  -1.840  0.00  0.00    -0.375 N 
ATOM     15  H   UNL d   1       4.746  -0.139  -1.812  0.00  0.00     0.158 HD
ATOM     16  H   UNL d   1       6.429   0.014  -2.288  0.00  0.00     0.158 HD
ENDBRANCH  12  14
ENDBRANCH  10  12
ENDBRANCH   8  10
ENDBRANCH   7   8
ENDBRANCH   2   7
BRANCH   1  17
ATOM     17  C   UNL d   1       2.060  -1.560  -0.007  0.00  0.00     0.095 A 
ATOM     18  C   UNL d   1       1.929  -2.774  -0.694  0.00  0.00     0.147 A 
ATOM     19  C   UNL d   1       2.972  -3.697  -0.717  0.00  0.00     0.087 A 
ATOM     20  F   UNL d   1       0.841  -3.060  -1.423  0.00  0.00    -0.203 F 
ATOM     21  C   UNL d   1       4.148  -3.413  -0.037  0.00  0.00     0.119 A 
ATOM     22  C   UNL d   1       4.284  -2.241   0.695  0.00  0.00     0.045 A 
ATOM     23  F   UNL d   1       5.169  -4.277  -0.092  0.00  0.00    -0.206 F 
ATOM     24  C   UNL d   1       3.233  -1.322   0.729  0.00  0.00     0.038 A 
ENDBRANCH   1  17
BRANCH   3  25
ATOM     25  C   UNL d   1      -0.661   2.641   0.111  0.00  0.00     0.296 C 
ATOM     26  O   UNL d   1       0.104   3.594   0.207  0.00  0.00    -0.259 OA
BRANCH  25  27
ATOM     27  O   UNL d   1      -2.018   2.749   0.050  0.00  0.00    -0.322 OA
ATOM     28  C   UNL d   1      -2.502   4.093   0.073  0.00  0.00     0.213 C 
ENDBRANCH  25  27
ENDBRANCH   3  25
TORSDOF 8
