REMARK  5 active torsions:
REMARK  status: ('A' for Active; 'I' for Inactive)
REMARK    1  A    between atoms: O_10  and  C_1 
REMARK    2  A    between atoms: C_5  and  C_2 
REMARK    3  A    between atoms: O_12  and  C_3 
REMARK    4  A    between atoms: O_11  and  C_4 
REMARK       I    between atoms: N_9  and  C_5 
REMARK    5  A    between atoms: N_13  and  N_9 
ROOT
ATOM      1  C   UNL d   1       1.387  -0.410  -0.087  0.00  0.00     0.135 A 
ATOM      2  C   UNL d   1      -1.391   0.104  -0.075  0.00  0.00     0.038 A 
ATOM      3  C   UNL d   1       0.461  -1.464   0.092  0.00  0.00     0.105 A 
ATOM      4  C   UNL d   1       0.917   0.910  -0.184  0.00  0.00     0.105 A 
ATOM      5  C   UNL d   1      -0.468   1.150  -0.173  0.00  0.00     0.057 A 
ATOM      6  C   UNL d   1      -0.916  -1.203   0.053  0.00  0.00     0.057 A 
ENDROOT
BRANCH   2   7
ATOM      7  C   UNL d   1      -2.851   0.435  -0.041  0.00  0.00     0.265 C 
ATOM      8  O   UNL d   1      -3.222   1.599   0.084  0.00  0.00    -0.266 OA
ATOM      9  N   UNL d   1      -3.747  -0.622  -0.156  0.00  0.00    -0.290 N 
ATOM     10  H   UNL d   1      -3.459  -1.547  -0.442  0.00  0.00     0.183 HD
BRANCH   9  11
ATOM     11  N   UNL d   1      -5.135  -0.347  -0.152  0.00  0.00    -0.247 NA
ATOM     12  H   UNL d   1      -5.237   0.649  -0.393  0.00  0.00     0.143 HD
ATOM     13  H   UNL d   1      -5.457  -0.388   0.820  0.00  0.00     0.143 HD
ENDBRANCH   9  11
ENDBRANCH   2   7
BRANCH   4  14
ATOM     14  O   UNL d   1       1.632   2.074  -0.293  0.00  0.00    -0.353 OA
ATOM     15  C   UNL d   1       3.049   2.032  -0.246  0.00  0.00     0.210 C 
ENDBRANCH   4  14
BRANCH   3  16
ATOM     16  O   UNL d   1       0.970  -2.719   0.326  0.00  0.00    -0.353 OA
ATOM     17  C   UNL d   1       0.081  -3.692   0.868  0.00  0.00     0.210 C 
ENDBRANCH   3  16
BRANCH   1  18
ATOM     18  O   UNL d   1       2.739  -0.643  -0.053  0.00  0.00    -0.351 OA
ATOM     19  C   UNL d   1       3.212  -1.612  -0.990  0.00  0.00     0.210 C 
ENDBRANCH   1  18
TORSDOF 5
