REMARK  7 active torsions:
REMARK  status: ('A' for Active; 'I' for Inactive)
REMARK    1  A    between atoms: C_3  and  S_1 
REMARK    2  A    between atoms: C_10  and  S_1 
REMARK    3  A    between atoms: C_2  and  C_5 
REMARK    4  A    between atoms: C_4  and  C_3 
REMARK    5  A    between atoms: N_16  and  C_4 
REMARK    6  A    between atoms: O_17  and  N_8 
REMARK    7  A    between atoms: C_12  and  C_10 
ROOT
ATOM      1  S   UNL d   1       1.481  -3.212   4.414  0.00  0.00     0.154 S 
ATOM      2  O   UNL d   1       1.010  -1.966   3.832  0.00  0.00    -0.227 OA
ATOM      3  O   UNL d   1       1.280  -3.475   5.830  0.00  0.00    -0.227 OA
ENDROOT
BRANCH   1   4
ATOM      4  C   UNL d   1       3.226  -3.261   4.115  0.00  0.00     0.212 C 
BRANCH   4   5
ATOM      5  C   UNL d   1       3.829  -4.507   4.701  0.00  0.00     0.088 C 
ATOM      6  N   UNL d   1       3.905  -5.558   3.937  0.00  0.00    -0.262 N 
ATOM      7  HN  UNL d   1       3.591  -5.596   2.967  1.00  0.00     0.195 HD
BRANCH   6   8
ATOM      8  O   UNL d   1       4.479  -6.631   4.637  0.00  0.00    -0.289 OA
ATOM      9  H   UNL d   1       4.602  -7.301   3.938  0.00  0.00     0.244 HD
ENDBRANCH   6   8
BRANCH   5  10
ATOM     10  N   UNL d   1       4.279  -4.480   6.000  0.00  0.00    -0.290 NA
ATOM     11  H   UNL d   1       3.709  -3.950   6.657  0.00  0.00     0.125 HD
ATOM     12  H   UNL d   1       4.483  -5.418   6.338  0.00  0.00     0.125 HD
ENDBRANCH   5  10
ENDBRANCH   4   5
ENDBRANCH   1   4
BRANCH   1  13
ATOM     13  C   UNL d   1       0.816  -4.573   3.447  0.00  0.00     0.179 C 
BRANCH  13  14
ATOM     14  C   UNL d   1      -0.689  -4.577   3.583  0.00  0.00    -0.043 A 
ATOM     15  C   UNL d   1      -1.498  -3.844   2.698  0.00  0.00     0.024 A 
ATOM     16  C   UNL d   1      -2.895  -3.813   2.853  0.00  0.00     0.048 A 
ATOM     17  C   UNL d   1      -3.478  -4.532   3.907  0.00  0.00     0.016 A 
ATOM     18  C   UNL d   1      -2.684  -5.266   4.785  0.00  0.00     0.001 A 
ATOM     19  C   UNL d   1      -1.299  -5.288   4.625  0.00  0.00     0.008 A 
BRANCH  16  20
ATOM     20  C   UNL d   1      -3.776  -3.016   1.920  0.00  0.00     0.417 C 
ATOM     21  F   UNL d   1      -3.089  -2.373   0.934  0.00  0.00    -0.166 F 
ATOM     22  F   UNL d   1      -4.693  -3.796   1.282  0.00  0.00    -0.166 F 
ATOM     23  F   UNL d   1      -4.490  -2.054   2.566  0.00  0.00    -0.166 F 
ENDBRANCH  16  20
ENDBRANCH  13  14
ENDBRANCH   1  13
TORSDOF 7
