REMARK  5 active torsions:
REMARK  status: ('A' for Active; 'I' for Inactive)
REMARK    1  A    between atoms: N_4  and  C_1 
REMARK    2  A    between atoms: S_2  and  N_4 
REMARK    3  A    between atoms: C_12  and  S_2 
REMARK    4  A    between atoms: C_11  and  C_5 
REMARK    5  A    between atoms: C_13  and  C_14 
ROOT
ATOM      1  C   UNL d   1      -1.184   1.188   0.223  0.00  0.00     0.149 A 
ATOM      2  C   UNL d   1      -0.444   0.055   0.422  0.00  0.00     0.085 A 
ATOM      3  C   UNL d   1      -1.276  -1.035   0.043  0.00  0.00     0.079 A 
ATOM      4  N   UNL d   1      -2.438  -0.569  -0.458  0.00  0.00    -0.297 N 
ATOM      5  HN  UNL d   1      -3.205  -1.111  -0.856  1.00  0.00     0.187 HD
ATOM      6  N   UNL d   1      -2.365   0.765  -0.317  0.00  0.00    -0.283 N 
ATOM      7 BR   UNL d   1       1.339  -0.009   1.014  0.00  0.00    -0.044 Br
ATOM      8  H   UNL d   1      -3.167   1.317  -0.603  0.00  0.00     0.188 HD
ENDROOT
BRANCH   1   9
ATOM      9  N   UNL d   1      -0.801   2.480   0.520  0.00  0.00    -0.263 N 
ATOM     10  H   UNL d   1      -0.643   3.135  -0.232  0.00  0.00     0.180 HD
BRANCH   9  11
ATOM     11  S   UNL d   1      -1.256   3.189   1.924  0.00  0.00     0.264 S 
ATOM     12  O   UNL d   1      -1.398   4.608   1.682  0.00  0.00    -0.200 OA
ATOM     13  O   UNL d   1      -2.341   2.446   2.535  0.00  0.00    -0.200 OA
BRANCH  11  14
ATOM     14  C   UNL d   1       0.188   2.990   2.945  0.00  0.00     0.079 A 
ATOM     15  C   UNL d   1       1.373   3.635   2.570  0.00  0.00     0.025 A 
ATOM     16  C   UNL d   1       2.516   3.473   3.351  0.00  0.00     0.002 A 
ATOM     17  C   UNL d   1       2.471   2.684   4.500  0.00  0.00     0.000 A 
ATOM     18  C   UNL d   1       1.282   2.056   4.879  0.00  0.00     0.002 A 
ATOM     19  C   UNL d   1       0.133   2.207   4.103  0.00  0.00     0.025 A 
ENDBRANCH  11  14
ENDBRANCH   9  11
ENDBRANCH   1   9
BRANCH   3  20
ATOM     20  C   UNL d   1      -1.007  -2.474   0.112  0.00  0.00    -0.007 A 
ATOM     21  C   UNL d   1      -0.299  -3.019   1.185  0.00  0.00     0.014 A 
ATOM     22  C   UNL d   1       0.051  -4.371   1.202  0.00  0.00     0.009 A 
ATOM     23  C   UNL d   1      -0.323  -5.240   0.164  0.00  0.00    -0.051 A 
ATOM     24  C   UNL d   1      -1.107  -4.699  -0.869  0.00  0.00     0.009 A 
ATOM     25  C   UNL d   1      -1.444  -3.337  -0.897  0.00  0.00     0.014 A 
BRANCH  23  26
ATOM     26  C   UNL d   1       0.148  -6.705   0.183  0.00  0.00    -0.024 C 
ATOM     27  C   UNL d   1      -0.364  -7.529  -1.017  0.00  0.00     0.019 C 
ATOM     28  C   UNL d   1       1.692  -6.745   0.146  0.00  0.00     0.019 C 
ATOM     29  C   UNL d   1      -0.336  -7.409   1.469  0.00  0.00     0.019 C 
ENDBRANCH  23  26
ENDBRANCH   3  20
TORSDOF 5
