REMARK  1 active torsions:
REMARK  status: ('A' for Active; 'I' for Inactive)
REMARK    1  A    between atoms: N_8  and  C_3 
ROOT
ATOM      1  N   UNL d   1      -0.772   1.143   0.040  0.00  0.00    -0.355 N 
ATOM      2  HN  UNL d   1      -1.299   2.017   0.050  1.00  0.00     0.166 HD
ATOM      3  C   UNL d   1      -1.396  -0.052   0.081  0.00  0.00     0.095 A 
ATOM      4  C   UNL d   1      -0.694  -1.262   0.073  0.00  0.00     0.050 A 
ATOM      5  C   UNL d   1       0.699  -1.243   0.012  0.00  0.00     0.043 A 
ATOM      6  C   UNL d   1       1.348  -0.017  -0.030  0.00  0.00     0.027 A 
ATOM      7  C   UNL d   1       0.583   1.138  -0.015  0.00  0.00     0.108 A 
ATOM      8 BR   UNL d   1      -1.581  -2.937   0.124  0.00  0.00    -0.048 Br
ATOM      9 BR   UNL d   1       3.229   0.073  -0.103  0.00  0.00    -0.050 Br
ENDROOT
BRANCH   3  10
ATOM     10  N   UNL d   1      -2.783   0.010   0.193  0.00  0.00    -0.287 NA
ATOM     11  H   UNL d   1      -3.060   0.984   0.103  0.00  0.00     0.125 HD
ATOM     12  H   UNL d   1      -3.247  -0.598  -0.471  0.00  0.00     0.125 HD
ENDBRANCH   3  10
TORSDOF 1
