REMARK  10 active torsions:
REMARK  status: ('A' for Active; 'I' for Inactive)
REMARK       I    between atoms: N_4  and  C_1 
REMARK    1  A    between atoms: O_5  and  C_1 
REMARK    2  A    between atoms: C_2  and  C_11 
REMARK    3  A    between atoms: O_10  and  C_2 
REMARK    4  A    between atoms: C_3  and  C_12 
REMARK    5  A    between atoms: O_15  and  C_3 
REMARK    6  A    between atoms: C_11  and  N_4 
REMARK    7  A    between atoms: C_9  and  O_5 
REMARK    8  A    between atoms: C_16  and  O_10 
REMARK    9  A    between atoms: C_12  and  C_13 
REMARK   10  A    between atoms: C_14  and  C_16 
ROOT
ATOM      1  O   UNL d   1       0.498   3.712  -3.219  0.00  0.00    -0.316 OA
ENDROOT
BRANCH   1   2
ATOM      2  C   UNL d   1      -0.009   2.695  -2.475  0.00  0.00     0.277 C 
ATOM      3  O   UNL d   1      -1.199   2.414  -2.375  0.00  0.00    -0.263 OA
BRANCH   2   4
ATOM      4  C   UNL d   1       1.103   1.870  -1.839  0.00  0.00     0.235 C 
BRANCH   4   5
ATOM      5  N   UNL d   1       1.449   0.713  -2.643  0.00  0.00    -0.328 N 
ATOM      6  C   UNL d   1       2.439   0.784  -3.579  0.00  0.00     0.361 C 
ATOM      7  O   UNL d   1       3.150   1.766  -3.736  0.00  0.00    -0.238 OA
ATOM      8  H   UNL d   1       0.857  -0.107  -2.649  0.00  0.00     0.165 HD
BRANCH   6   9
ATOM      9  O   UNL d   1       2.504  -0.366  -4.293  0.00  0.00    -0.294 OA
BRANCH   9  10
ATOM     10  C   UNL d   1       3.489  -0.501  -5.359  0.00  0.00     0.061 C 
ATOM     11  C   UNL d   1       4.921  -0.443  -4.813  0.00  0.00     0.046 C 
ATOM     12  C   UNL d   1       3.246  -1.886  -5.984  0.00  0.00     0.046 C 
ATOM     13  C   UNL d   1       3.280   0.548  -6.461  0.00  0.00     0.046 C 
ENDBRANCH   9  10
ENDBRANCH   6   9
ENDBRANCH   4   5
ENDBRANCH   2   4
ENDBRANCH   1   2
BRANCH   1  14
ATOM     14  C   UNL d   1      -0.447   4.517  -3.937  0.00  0.00     0.217 C 
BRANCH  14  15
ATOM     15  C   UNL d   1      -0.274   5.951  -3.506  0.00  0.00    -0.034 A 
ATOM     16  C   UNL d   1       0.548   6.828  -4.224  0.00  0.00     0.010 A 
ATOM     17  C   UNL d   1       0.722   8.148  -3.796  0.00  0.00     0.008 A 
ATOM     18  C   UNL d   1       0.092   8.618  -2.634  0.00  0.00    -0.048 A 
ATOM     19  C   UNL d   1      -0.746   7.744  -1.929  0.00  0.00     0.008 A 
ATOM     20  C   UNL d   1      -0.918   6.422  -2.355  0.00  0.00     0.010 A 
BRANCH  18  21
ATOM     21  C   UNL d   1       0.261  10.068  -2.238  0.00  0.00     0.148 C 
BRANCH  21  22
ATOM     22  C   UNL d   1       0.207  10.360  -0.756  0.00  0.00     0.143 C 
ATOM     23  O   UNL d   1      -0.573  11.153  -0.244  0.00  0.00    -0.650 OA
BRANCH  22  24
ATOM     24  O   UNL d   1       1.138   9.700  -0.029  0.00  0.00    -0.776 OA
ATOM     25  H   UNL d   1       1.686   9.092  -0.564  0.00  0.00     0.167 HD
ENDBRANCH  22  24
ENDBRANCH  21  22
ENDBRANCH  18  21
ENDBRANCH  14  15
ENDBRANCH   1  14
TORSDOF 10
