REMARK  4 active torsions:
REMARK  status: ('A' for Active; 'I' for Inactive)
REMARK    1  A    between atoms: C_8  and  C_2 
REMARK    2  A    between atoms: S_18  and  C_4 
REMARK    3  A    between atoms: N_7  and  C_10 
REMARK    4  A    between atoms: C_9  and  C_8 
ROOT
ATOM      1  C   UNL d   1       0.018  -0.829   0.084  0.00  0.00     0.041 C 
ATOM      2  C   UNL d   1       1.758   0.759  -0.104  0.00  0.00     0.064 C 
ATOM      3  C   UNL d   1       0.381   0.578  -0.029  0.00  0.00    -0.021 C 
ATOM      4  C   UNL d   1       1.128  -1.649   0.181  0.00  0.00     0.056 C 
ATOM      5  S   UNL d   1       2.567  -0.719   0.203  0.00  0.00    -0.078 SA
ATOM      6  C   UNL d   1      -1.389  -1.229   0.120  0.00  0.00     0.162 C 
ATOM      7  C   UNL d   1      -0.674   1.671  -0.087  0.00  0.00     0.050 C 
ATOM      8  C   UNL d   1      -2.089   1.171   0.328  0.00  0.00    -0.037 C 
ATOM      9  C   UNL d   1      -2.376  -0.182  -0.350  0.00  0.00     0.093 C 
ATOM     10  O   UNL d   1      -1.789  -2.324   0.507  0.00  0.00    -0.292 OA
ATOM     11  C   UNL d   1      -3.162   2.176  -0.127  0.00  0.00     0.015 C 
ATOM     12  C   UNL d   1      -2.195   1.032   1.863  0.00  0.00     0.015 C 
ENDROOT
BRANCH   2  13
ATOM     13  C   UNL d   1       2.511   2.005  -0.292  0.00  0.00     0.199 C 
ATOM     14  O   UNL d   1       2.050   3.110   0.006  0.00  0.00    -0.286 OA
BRANCH  13  15
ATOM     15  C   UNL d   1       3.883   1.995  -0.895  0.00  0.00     0.018 A 
ATOM     16  C   UNL d   1       4.229   1.101  -1.916  0.00  0.00     0.051 A 
ATOM     17  C   UNL d   1       5.542   1.077  -2.406  0.00  0.00     0.103 A 
ATOM     18  C   UNL d   1       6.499   1.984  -1.935  0.00  0.00     0.036 A 
ATOM     19  C   UNL d   1       6.136   2.918  -0.963  0.00  0.00     0.003 A 
ATOM     20  C   UNL d   1       4.836   2.923  -0.442  0.00  0.00     0.015 A 
BRANCH  17  21
ATOM     21  N   UNL d   1       5.920   0.070  -3.406  0.00  0.00    -0.116 N 
ATOM     22  O   UNL d   1       5.056  -0.748  -3.752  0.00  0.00    -0.532 OA
ATOM     23  O   UNL d   1       7.080   0.093  -3.839  0.00  0.00    -0.532 OA
ENDBRANCH  17  21
ENDBRANCH  13  15
ENDBRANCH   2  13
BRANCH   4  24
ATOM     24  S   UNL d   1       1.288  -3.394   0.364  0.00  0.00    -0.126 SA
ATOM     25  C   UNL d   1       0.125  -4.085  -0.830  0.00  0.00     0.096 C 
ENDBRANCH   4  24
TORSDOF 4
