REMARK  5 active torsions:
REMARK  status: ('A' for Active; 'I' for Inactive)
REMARK       I    between atoms: N_2  and  C_1 
REMARK       I    between atoms: N_4  and  C_1 
REMARK    1  A    between atoms: C_3  and  N_2 
REMARK    2  A    between atoms: C_11  and  N_4 
REMARK    3  A    between atoms: N_8  and  C_6 
REMARK    4  A    between atoms: C_17  and  N_8 
REMARK    5  A    between atoms: C_18  and  N_8 
ROOT
ATOM      1  C   UNL d   1       1.174  -1.041  -1.640  0.00  0.00     0.325 C 
ATOM      2  N   UNL d   1       2.406  -1.020  -0.997  0.00  0.00    -0.308 N 
ATOM      3  N   UNL d   1       0.243  -0.295  -0.941  0.00  0.00    -0.309 N 
ATOM      4  O   UNL d   1       0.940  -1.671  -2.666  0.00  0.00    -0.247 OA
ATOM      5  H   UNL d   1       2.321  -0.922   0.001  0.00  0.00     0.170 HD
ATOM      6  H   UNL d   1       0.608   0.485  -0.414  0.00  0.00     0.170 HD
ENDROOT
BRANCH   2   7
ATOM      7  C   UNL d   1       3.487  -1.818  -1.465  0.00  0.00     0.047 A 
ATOM      8  C   UNL d   1       4.194  -2.678  -0.578  0.00  0.00     0.001 A 
ATOM      9  C   UNL d   1       5.215  -3.503  -1.118  0.00  0.00    -0.024 A 
ATOM     10  C   UNL d   1       3.908  -2.819   0.804  0.00  0.00     0.014 A 
ATOM     11  C   UNL d   1       5.889  -4.421  -0.296  0.00  0.00     0.012 A 
ATOM     12  C   UNL d   1       5.535  -3.426  -2.483  0.00  0.00     0.012 A 
ATOM     13  C   UNL d   1       5.577  -4.540   1.056  0.00  0.00     0.001 A 
ATOM     14  C   UNL d   1       4.590  -3.736   1.608  0.00  0.00     0.001 A 
ATOM     15  C   UNL d   1       4.854  -2.556  -3.329  0.00  0.00     0.003 A 
ATOM     16  C   UNL d   1       3.832  -1.761  -2.823  0.00  0.00     0.030 A 
ENDBRANCH   2   7
BRANCH   3  17
ATOM     17  C   UNL d   1      -1.157  -0.358  -1.117  0.00  0.00     0.036 A 
ATOM     18  C   UNL d   1      -1.799  -1.422  -1.743  0.00  0.00     0.032 A 
ATOM     19  C   UNL d   1      -3.198  -1.457  -1.847  0.00  0.00     0.031 A 
ATOM     20  C   UNL d   1      -4.007  -0.453  -1.304  0.00  0.00     0.030 A 
ATOM     21  C   UNL d   1      -3.338   0.617  -0.689  0.00  0.00     0.031 A 
ATOM     22  C   UNL d   1      -1.938   0.668  -0.588  0.00  0.00     0.032 A 
BRANCH  20  23
ATOM     23  N   UNL d   1      -5.393  -0.535  -1.339  0.00  0.00    -0.382 N 
BRANCH  23  24
ATOM     24  C   UNL d   1      -6.084  -1.093  -2.507  0.00  0.00     0.118 C 
ATOM     25  C   UNL d   1      -6.571  -2.513  -2.258  0.00  0.00     0.026 C 
ENDBRANCH  23  24
BRANCH  23  26
ATOM     26  C   UNL d   1      -6.213   0.014  -0.256  0.00  0.00     0.118 C 
ATOM     27  C   UNL d   1      -5.978  -0.737   1.050  0.00  0.00     0.026 C 
ENDBRANCH  23  26
ENDBRANCH  20  23
ENDBRANCH   3  17
TORSDOF 5
