REMARK  6 active torsions:
REMARK  status: ('A' for Active; 'I' for Inactive)
REMARK    1  A    between atoms: C_2  and  C_1 
REMARK       I    between atoms: N_8  and  C_1 
REMARK    2  A    between atoms: C_3  and  C_2 
REMARK    3  A    between atoms: O_12  and  C_7 
REMARK    4  A    between atoms: C_14  and  N_8 
REMARK    5  A    between atoms: C_16  and  O_12 
REMARK    6  A    between atoms: O_24  and  C_18 
ROOT
ATOM      1  N   UNL d   1      -3.288   1.562   1.650  0.00  0.00    -0.344 N 
ATOM      2  HN  UNL d   1      -3.774   2.404   1.956  1.00  0.00     0.167 HD
ATOM      3  C   UNL d   1      -3.966   0.476   1.224  0.00  0.00     0.148 A 
ATOM      4  C   UNL d   1      -1.214   0.393   1.197  0.00  0.00     0.050 A 
ATOM      5  C   UNL d   1      -1.938   1.488   1.652  0.00  0.00     0.119 A 
ATOM      6  C   UNL d   1      -3.345  -0.650   0.710  0.00  0.00     0.059 A 
ATOM      7  C   UNL d   1      -1.945  -0.686   0.690  0.00  0.00     0.035 A 
ENDROOT
BRANCH   4   8
ATOM      8  N   UNL d   1       0.198   0.335   1.182  0.00  0.00    -0.326 N 
ATOM      9  C   UNL d   1       1.042   1.212   1.852  0.00  0.00     0.226 C 
ATOM     10  O   UNL d   1       0.692   2.022   2.706  0.00  0.00    -0.273 OA
ATOM     11  H   UNL d   1       0.627  -0.458   0.720  0.00  0.00     0.169 HD
BRANCH   9  12
ATOM     12  C   UNL d   1       2.490   1.128   1.407  0.00  0.00     0.149 C 
BRANCH  12  13
ATOM     13  C   UNL d   1       3.242   0.096   2.186  0.00  0.00    -0.009 A 
ATOM     14  S   UNL d   1       3.391  -1.501   1.582  0.00  0.00    -0.106 SA
ATOM     15  C   UNL d   1       4.398  -1.966   2.882  0.00  0.00     0.050 A 
ATOM     16  C   UNL d   1       4.602  -0.936   3.772  0.00  0.00     0.008 A 
ATOM     17  C   UNL d   1       3.926   0.254   3.375  0.00  0.00     0.015 A 
ENDBRANCH  12  13
ENDBRANCH   9  12
ENDBRANCH   4   8
BRANCH   3  18
ATOM     18  O   UNL d   1      -5.355   0.469   1.323  0.00  0.00    -0.294 OA
BRANCH  18  19
ATOM     19  C   UNL d   1      -5.896   1.204   2.360  0.00  0.00     0.078 A 
ATOM     20  C   UNL d   1      -7.049   1.948   2.105  0.00  0.00     0.040 A 
ATOM     21  C   UNL d   1      -7.607   2.745   3.116  0.00  0.00     0.039 A 
ATOM     22  C   UNL d   1      -7.013   2.790   4.380  0.00  0.00     0.068 A 
ATOM     23  C   UNL d   1      -5.901   1.994   4.647  0.00  0.00     0.039 A 
ATOM     24  C   UNL d   1      -5.353   1.193   3.648  0.00  0.00     0.040 A 
BRANCH  22  25
ATOM     25  O   UNL d   1      -7.458   3.530   5.441  0.00  0.00    -0.356 OA
ATOM     26  C   UNL d   1      -8.073   4.768   5.108  0.00  0.00     0.210 C 
ENDBRANCH  22  25
ENDBRANCH  18  19
ENDBRANCH   3  18
TORSDOF 6
