REMARK  7 active torsions:
REMARK  status: ('A' for Active; 'I' for Inactive)
REMARK    1  A    between atoms: S_8  and  C_1 
REMARK    2  A    between atoms: S_2  and  N_5 
REMARK    3  A    between atoms: C_11  and  S_2 
REMARK    4  A    between atoms: C_10  and  C_4 
REMARK    5  A    between atoms: N_5  and  S_8 
REMARK    6  A    between atoms: O_21  and  C_10 
REMARK    7  A    between atoms: C_26  and  O_21 
ROOT
ATOM      1  C   UNL d   1      -1.308   1.486  -0.201  0.00  0.00     0.062 A 
ATOM      2  S   UNL d   1      -2.706   0.527  -0.407  0.00  0.00    -0.075 SA
ATOM      3  C   UNL d   1      -1.854  -0.936  -0.166  0.00  0.00     0.088 A 
ATOM      4  C   UNL d   1      -0.173   0.707  -0.076  0.00  0.00    -0.004 A 
ATOM      5  C   UNL d   1      -0.489  -0.703  -0.064  0.00  0.00    -0.022 A 
ATOM      6  C   UNL d   1       1.196   1.119   0.004  0.00  0.00     0.010 C 
ATOM      7  C   UNL d   1       2.206   0.232   0.043  0.00  0.00    -0.025 C 
ATOM      8  C   UNL d   1       0.568  -1.770   0.063  0.00  0.00     0.045 C 
ATOM      9  C   UNL d   1       2.016  -1.257   0.004  0.00  0.00     0.032 C 
ENDROOT
BRANCH   1  10
ATOM     10  S   UNL d   1      -1.570   3.220  -0.137  0.00  0.00    -0.079 SA
ATOM     11  C   UNL d   1      -0.752   3.651  -1.694  0.00  0.00     0.108 C 
BRANCH  10  12
ATOM     12  N   UNL d   1      -0.330   3.565   0.815  0.00  0.00    -0.259 N 
ATOM     13  HN  UNL d   1       0.634   3.545   0.482  1.00  0.00     0.186 HD
BRANCH  12  14
ATOM     14  S   UNL d   1      -0.736   3.973   2.440  0.00  0.00     0.267 S 
ATOM     15  O   UNL d   1       0.500   4.221   3.158  0.00  0.00    -0.200 OA
ATOM     16  O   UNL d   1      -1.795   4.965   2.449  0.00  0.00    -0.200 OA
BRANCH  14  17
ATOM     17  C   UNL d   1      -1.411   2.450   3.080  0.00  0.00     0.080 A 
ATOM     18  C   UNL d   1      -0.557   1.498   3.639  0.00  0.00     0.026 A 
ATOM     19  C   UNL d   1      -1.089   0.306   4.136  0.00  0.00     0.008 A 
ATOM     20  C   UNL d   1      -2.469   0.064   4.081  0.00  0.00    -0.062 A 
ATOM     21  C   UNL d   1      -3.316   1.036   3.535  0.00  0.00     0.008 A 
ATOM     22  C   UNL d   1      -3.022  -1.225   4.616  0.00  0.00     0.048 C 
ATOM     23  C   UNL d   1      -2.793   2.234   3.046  0.00  0.00     0.026 A 
ENDBRANCH  14  17
ENDBRANCH  12  14
ENDBRANCH  10  12
ENDBRANCH   1  10
BRANCH   3  24
ATOM     24  C   UNL d   1      -2.542  -2.218  -0.158  0.00  0.00     0.300 C 
ATOM     25  O   UNL d   1      -1.995  -3.312  -0.075  0.00  0.00    -0.259 OA
BRANCH  24  26
ATOM     26  O   UNL d   1      -3.886  -2.054  -0.336  0.00  0.00    -0.317 OA
BRANCH  26  27
ATOM     27  C   UNL d   1      -4.598  -3.202  -0.811  0.00  0.00     0.174 C 
ATOM     28  C   UNL d   1      -4.512  -3.208  -2.326  0.00  0.00     0.034 C 
ENDBRANCH  26  27
ENDBRANCH  24  26
ENDBRANCH   3  24
TORSDOF 7
