REMARK  7 active torsions:
REMARK  status: ('A' for Active; 'I' for Inactive)
REMARK    1  A    between atoms: C_10  and  C_1 
REMARK    2  A    between atoms: C_6  and  C_2 
REMARK    3  A    between atoms: N_13  and  C_9 
REMARK    4  A    between atoms: O_27  and  C_10 
REMARK    5  A    between atoms: C_12  and  C_17 
REMARK    6  A    between atoms: C_17  and  N_13 
REMARK    7  A    between atoms: C_30  and  O_27 
ROOT
ATOM      1  C   UNL d   1       2.583   0.655  -0.002  0.00  0.00     0.072 A 
ATOM      2  C   UNL d   1       2.515  -0.728  -0.064  0.00  0.00     0.133 A 
ATOM      3  N   UNL d   1       1.302  -1.377  -0.032  0.00  0.00    -0.351 N 
ATOM      4  HN  UNL d   1       1.270  -2.396  -0.066  1.00  0.00     0.166 HD
ATOM      5  C   UNL d   1       0.138   0.725   0.101  0.00  0.00     0.030 A 
ATOM      6  C   UNL d   1       1.385   1.380   0.075  0.00  0.00     0.037 A 
ATOM      7  C   UNL d   1       0.157  -0.675   0.042  0.00  0.00     0.047 A 
ATOM      8  C   UNL d   1      -1.112   1.383   0.196  0.00  0.00     0.092 A 
ATOM      9  N   UNL d   1      -2.271   0.696   0.228  0.00  0.00    -0.356 N 
ATOM     10  HN  UNL d   1      -3.165   1.180   0.309  1.00  0.00     0.166 HD
ATOM     11  C   UNL d   1      -1.039  -1.358   0.059  0.00  0.00     0.047 A 
ATOM     12  C   UNL d   1      -2.216  -0.646   0.149  0.00  0.00     0.091 A 
ENDROOT
BRANCH   8  13
ATOM     13  N   UNL d   1      -1.150   2.791   0.265  0.00  0.00    -0.274 NA
ATOM     14  H   UNL d   1      -0.716   3.174  -0.570  0.00  0.00     0.129 HD
BRANCH  13  15
ATOM     15  C   UNL d   1      -2.476   3.349   0.510  0.00  0.00     0.134 C 
BRANCH  15  16
ATOM     16  C   UNL d   1      -2.444   4.851   0.313  0.00  0.00    -0.023 A 
ATOM     17  C   UNL d   1      -2.416   5.772   1.373  0.00  0.00     0.043 A 
ATOM     18  C   UNL d   1      -2.422   7.149   1.119  0.00  0.00     0.048 A 
ATOM     19 CL   UNL d   1      -2.385   5.276   3.027  0.00  0.00    -0.084 Cl
ATOM     20  C   UNL d   1      -2.443   7.614  -0.192  0.00  0.00     0.035 A 
ATOM     21  C   UNL d   1      -2.451   6.720  -1.258  0.00  0.00     0.024 A 
ATOM     22 CL   UNL d   1      -2.466   9.306  -0.502  0.00  0.00    -0.084 Cl
ATOM     23  C   UNL d   1      -2.451   5.347  -1.006  0.00  0.00     0.012 A 
ENDBRANCH  15  16
ENDBRANCH  13  15
ENDBRANCH   8  13
BRANCH   1  24
ATOM     24  C   UNL d   1       3.814   1.465  -0.076  0.00  0.00     0.295 C 
ATOM     25  O   UNL d   1       3.864   2.504  -0.717  0.00  0.00    -0.259 OA
BRANCH  24  26
ATOM     26  O   UNL d   1       4.779   0.956   0.717  0.00  0.00    -0.318 OA
BRANCH  26  27
ATOM     27  C   UNL d   1       5.998   1.720   0.747  0.00  0.00     0.174 C 
ATOM     28  C   UNL d   1       6.808   1.528  -0.525  0.00  0.00     0.034 C 
ENDBRANCH  26  27
ENDBRANCH  24  26
ENDBRANCH   1  24
BRANCH   2  29
ATOM     29  C   UNL d   1       3.746  -1.616  -0.161  0.00  0.00     0.433 C 
ATOM     30  F   UNL d   1       4.820  -1.048  -0.772  0.00  0.00    -0.165 F 
ATOM     31  F   UNL d   1       4.181  -2.042   1.062  0.00  0.00    -0.165 F 
ATOM     32  F   UNL d   1       3.514  -2.758  -0.877  0.00  0.00    -0.165 F 
ENDBRANCH   2  29
TORSDOF 7
