REMARK  5 active torsions:
REMARK  status: ('A' for Active; 'I' for Inactive)
REMARK    1  A    between atoms: C_2  and  C_1 
REMARK       I    between atoms: N_7  and  C_2 
REMARK    2  A    between atoms: N_9  and  C_3 
REMARK    3  A    between atoms: C_11  and  N_7 
REMARK    4  A    between atoms: C_8  and  C_10 
REMARK    5  A    between atoms: C_10  and  C_11 
ROOT
ATOM      1  C   UNL d   1       1.000   2.515   0.114  0.00  0.00     0.253 C 
ATOM      2  O   UNL d   1       0.339   3.538   0.245  0.00  0.00    -0.268 OA
ATOM      3  N   UNL d   1       2.373   2.514  -0.022  0.00  0.00    -0.356 N 
ATOM      4  H   UNL d   1       2.780   1.663  -0.404  0.00  0.00     0.162 HD
ENDROOT
BRANCH   1   5
ATOM      5  C   UNL d   1       0.323   1.185   0.073  0.00  0.00     0.052 A 
ATOM      6  C   UNL d   1       0.914  -0.011   0.532  0.00  0.00     0.021 A 
ATOM      7  C   UNL d   1       0.194  -1.207   0.390  0.00  0.00     0.024 A 
ATOM      8  C   UNL d   1      -1.121  -1.208  -0.082  0.00  0.00     0.002 A 
ATOM      9  C   UNL d   1      -1.721  -0.016  -0.473  0.00  0.00     0.001 A 
ATOM     10  C   UNL d   1      -1.000   1.175  -0.404  0.00  0.00     0.019 A 
BRANCH   6  11
ATOM     11  N   UNL d   1       2.259  -0.091   0.960  0.00  0.00    -0.302 NA
ATOM     12  H   UNL d   1       2.531   0.754   1.464  0.00  0.00     0.124 HD
ATOM     13  H   UNL d   1       2.446  -0.924   1.513  0.00  0.00     0.124 HD
ENDBRANCH   6  11
ENDBRANCH   1   5
BRANCH   3  14
ATOM     14  C   UNL d   1       3.124   3.756  -0.158  0.00  0.00     0.129 C 
BRANCH  14  15
ATOM     15  C   UNL d   1       4.521   3.680   0.455  0.00  0.00     0.076 C 
BRANCH  15  16
ATOM     16  C   UNL d   1       5.449   2.771  -0.308  0.00  0.00     0.010 A 
ATOM     17  N   UNL d   1       6.126   3.313  -1.349  0.00  0.00    -0.369 N 
ATOM     18  C   UNL d   1       6.959   2.503  -2.038  0.00  0.00     0.088 A 
ATOM     19  HN  UNL d   1       6.011   4.295  -1.601  1.00  0.00     0.165 HD
ATOM     20  C   UNL d   1       7.146   1.162  -1.749  0.00  0.00     0.017 A 
ATOM     21  C   UNL d   1       6.439   0.618  -0.685  0.00  0.00     0.003 A 
ATOM     22  C   UNL d   1       5.582   1.430   0.050  0.00  0.00     0.025 A 
ENDBRANCH  15  16
ENDBRANCH  14  15
ENDBRANCH   3  14
TORSDOF 5
