REMARK  0 active torsions:
REMARK  status: ('A' for Active; 'I' for Inactive)
ROOT
ATOM      1  N   UNL d   1       0.026   0.264  -0.003  0.00  0.00    -0.293 N 
ATOM      2  C   UNL d   1      -0.141   1.694  -0.001  0.00  0.00     0.138 A 
ATOM      3  C   UNL d   1      -1.303  -0.290  -0.003  0.00  0.00     0.068 A 
ATOM      4  C   UNL d   1       1.316  -0.328  -0.002  0.00  0.00     0.053 A 
ATOM      5  C   UNL d   1       0.899   2.578  -0.000  0.00  0.00     0.111 A 
ATOM      6  N   UNL d   1      -1.523   2.001  -0.002  0.00  0.00    -0.334 N 
ATOM      7  C   UNL d   1      -2.230   0.784  -0.003  0.00  0.00     0.063 A 
ATOM      8  C   UNL d   1      -1.786  -1.588  -0.004  0.00  0.00     0.032 A 
ATOM      9  C   UNL d   1       2.467   0.490  -0.000  0.00  0.00     0.014 A 
ATOM     10  C   UNL d   1       1.526  -1.719  -0.002  0.00  0.00     0.031 A 
ATOM     11  C   UNL d   1       2.314   1.996   0.000  0.00  0.00     0.068 A 
ATOM     12  C   UNL d   1      -2.284   3.230  -0.000  0.00  0.00     0.158 C 
ATOM     13  C   UNL d   1      -3.603   0.572  -0.001  0.00  0.00     0.032 A 
ATOM     14  C   UNL d   1      -3.172  -1.808  -0.003  0.00  0.00     0.002 A 
ATOM     15  C   UNL d   1       3.755  -0.101   0.001  0.00  0.00     0.015 A 
ATOM     16  C   UNL d   1       2.802  -2.292  -0.002  0.00  0.00     0.002 A 
ATOM     17  S   UNL d   1       3.671   3.031   0.002  0.00  0.00    -0.077 SA
ATOM     18  C   UNL d   1      -4.073  -0.739  -0.002  0.00  0.00     0.002 A 
ATOM     19  C   UNL d   1       3.920  -1.482  -0.000  0.00  0.00     0.001 A 
ATOM     20  C   UNL d   1       0.726   4.044   0.000  0.00  0.00     0.105 C 
ATOM     21  N   UNL d   1       0.582   5.197   0.000  0.00  0.00    -0.191 NA
ENDROOT
TORSDOF 0
