REMARK  7 active torsions:
REMARK  status: ('A' for Active; 'I' for Inactive)
REMARK    1  A    between atoms: C_2  and  S_1 
REMARK    2  A    between atoms: N_3  and  S_1 
REMARK    3  A    between atoms: C_4  and  N_3 
REMARK    4  A    between atoms: C_12  and  C_8 
REMARK    5  A    between atoms: C_18  and  C_12 
REMARK    6  A    between atoms: O_22  and  C_18 
REMARK    7  A    between atoms: C_24  and  O_22 
ROOT
ATOM      1  N   UNL d   1       0.429   0.805   1.327  0.00  0.00    -0.160 NA
ATOM      2  H   UNL d   1       1.001   0.239   0.698  0.00  0.00     0.148 HD
ENDROOT
BRANCH   1   3
ATOM      3  S   UNL d   1       0.792   2.431   0.994  0.00  0.00     0.249 S 
ATOM      4  O   UNL d   1       0.481   2.672  -0.396  0.00  0.00    -0.205 OA
ATOM      5  O   UNL d   1       0.214   3.266   2.027  0.00  0.00    -0.205 OA
BRANCH   3   6
ATOM      6  C   UNL d   1       2.566   2.534   1.134  0.00  0.00     0.097 A 
ATOM      7  C   UNL d   1       3.405   1.722   0.371  0.00  0.00     0.058 A 
ATOM      8  C   UNL d   1       4.791   1.857   0.495  0.00  0.00     0.050 A 
ATOM      9 CL   UNL d   1       2.840   0.513  -0.724  0.00  0.00    -0.083 Cl
ATOM     10  C   UNL d   1       5.342   2.804   1.365  0.00  0.00     0.041 A 
ATOM     11  C   UNL d   1       4.512   3.630   2.134  0.00  0.00    -0.039 A 
ATOM     12 CL   UNL d   1       7.065   2.896   1.439  0.00  0.00    -0.084 Cl
ATOM     13  C   UNL d   1       3.117   3.481   2.012  0.00  0.00     0.035 A 
ATOM     14  C   UNL d   1       5.024   4.686   3.076  0.00  0.00     0.050 C 
ENDBRANCH   3   6
ENDBRANCH   1   3
BRANCH   1  15
ATOM     15  C   UNL d   1       0.752   0.472   2.658  0.00  0.00     0.137 A 
ATOM     16  N   UNL d   1       1.922  -0.061   2.904  0.00  0.00    -0.343 N 
ATOM     17  C   UNL d   1       2.044  -0.274   4.272  0.00  0.00     0.026 A 
ATOM     18  HN  UNL d   1       2.630  -0.284   2.205  1.00  0.00     0.167 HD
ATOM     19  C   UNL d   1       0.891  -0.024   4.999  0.00  0.00     0.078 A 
ATOM     20  S   UNL d   1      -0.327   0.604   3.968  0.00  0.00    -0.069 SA
BRANCH  17  21
ATOM     21  C   UNL d   1       3.361  -0.718   4.818  0.00  0.00     0.168 C 
BRANCH  21  22
ATOM     22  C   UNL d   1       4.032   0.387   5.604  0.00  0.00     0.264 C 
ATOM     23  O   UNL d   1       3.558   1.490   5.843  0.00  0.00    -0.265 OA
BRANCH  22  24
ATOM     24  O   UNL d   1       5.277  -0.021   5.989  0.00  0.00    -0.322 OA
BRANCH  24  25
ATOM     25  C   UNL d   1       6.110   1.007   6.548  0.00  0.00     0.174 C 
ATOM     26  C   UNL d   1       6.850   1.698   5.419  0.00  0.00     0.034 C 
ENDBRANCH  24  25
ENDBRANCH  22  24
ENDBRANCH  21  22
ENDBRANCH  17  21
ENDBRANCH   1  15
TORSDOF 7
