REMARK  6 active torsions:
REMARK  status: ('A' for Active; 'I' for Inactive)
REMARK    1  A    between atoms: C_7  and  C_1 
REMARK    2  A    between atoms: C_8  and  C_2 
REMARK    3  A    between atoms: O_14  and  C_7 
REMARK    4  A    between atoms: C_9  and  C_8 
REMARK    5  A    between atoms: N_13  and  C_10 
REMARK    6  A    between atoms: C_18  and  O_14 
ROOT
ATOM      1  C   UNL d   1       1.182  -1.311  -0.069  0.00  0.00     0.130 A 
ATOM      2  C   UNL d   1       1.608   0.008   0.018  0.00  0.00     0.089 A 
ATOM      3  N   UNL d   1      -0.210  -1.470  -0.055  0.00  0.00    -0.348 N 
ATOM      4  HN  UNL d   1      -0.692  -2.367  -0.108  1.00  0.00     0.166 HD
ATOM      5  S   UNL d   1       0.241   1.043   0.153  0.00  0.00    -0.071 SA
ATOM      6  C   UNL d   1      -0.804  -0.308   0.035  0.00  0.00     0.048 A 
ATOM      7  C   UNL d   1      -2.281  -0.129   0.033  0.00  0.00     0.076 C 
ENDROOT
BRANCH   2   8
ATOM      8  C   UNL d   1       2.966   0.496   0.164  0.00  0.00     0.192 C 
ATOM      9  O   UNL d   1       3.807  -0.137   0.803  0.00  0.00    -0.287 OA
BRANCH   8  10
ATOM     10  C   UNL d   1       3.422   1.817  -0.377  0.00  0.00     0.073 C 
ATOM     11  C   UNL d   1       2.873   2.537  -1.365  0.00  0.00     0.088 C 
BRANCH  11  12
ATOM     12  N   UNL d   1       3.273   3.764  -1.887  0.00  0.00    -0.398 N 
ATOM     13  C   UNL d   1       4.434   4.527  -1.424  0.00  0.00     0.148 C 
ATOM     14  C   UNL d   1       2.484   4.464  -2.904  0.00  0.00     0.148 C 
ENDBRANCH  11  12
ENDBRANCH   8  10
ENDBRANCH   2   8
BRANCH   1  15
ATOM     15  C   UNL d   1       2.046  -2.480  -0.236  0.00  0.00     0.311 C 
ATOM     16  O   UNL d   1       3.105  -2.463  -0.854  0.00  0.00    -0.258 OA
BRANCH  15  17
ATOM     17  O   UNL d   1       1.456  -3.607   0.264  0.00  0.00    -0.317 OA
BRANCH  17  18
ATOM     18  C   UNL d   1       1.987  -4.856  -0.191  0.00  0.00     0.175 C 
ATOM     19  C   UNL d   1       1.271  -5.240  -1.473  0.00  0.00     0.034 C 
ENDBRANCH  17  18
ENDBRANCH  15  17
ENDBRANCH   1  15
TORSDOF 6
