REMARK  4 active torsions:
REMARK  status: ('A' for Active; 'I' for Inactive)
REMARK    1  A    between atoms: C_2  and  C_1 
REMARK    2  A    between atoms: O_12  and  C_2 
REMARK    3  A    between atoms: O_9  and  C_5 
REMARK    4  A    between atoms: C_10  and  O_9 
ROOT
ATOM      1  C   UNL d   1       0.746   1.301  -0.077  0.00  0.00     0.055 A 
ATOM      2  N   UNL d   1      -1.314   0.029  -0.066  0.00  0.00    -0.346 N 
ATOM      3  HN  UNL d   1      -2.333  -0.001  -0.084  1.00  0.00     0.167 HD
ATOM      4  C   UNL d   1      -0.572  -1.102  -0.030  0.00  0.00     0.147 A 
ATOM      5  C   UNL d   1      -0.639   1.204  -0.077  0.00  0.00     0.107 A 
ATOM      6  C   UNL d   1       1.485   0.115  -0.090  0.00  0.00     0.023 A 
ATOM      7  C   UNL d   1       0.814  -1.109  -0.074  0.00  0.00     0.057 A 
ENDROOT
BRANCH   4   8
ATOM      8  O   UNL d   1      -1.206  -2.335   0.038  0.00  0.00    -0.294 OA
BRANCH   8   9
ATOM      9  C   UNL d   1      -2.399  -2.405   0.723  0.00  0.00     0.077 A 
ATOM     10  C   UNL d   1      -3.353  -3.295   0.224  0.00  0.00     0.039 A 
ATOM     11  C   UNL d   1      -4.580  -3.446   0.876  0.00  0.00     0.026 A 
ATOM     12  C   UNL d   1      -4.845  -2.712   2.032  0.00  0.00     0.034 A 
ATOM     13  C   UNL d   1      -3.887  -1.843   2.551  0.00  0.00     0.026 A 
ATOM     14 CL   UNL d   1      -6.361  -2.882   2.827  0.00  0.00    -0.084 Cl
ATOM     15  C   UNL d   1      -2.657  -1.703   1.906  0.00  0.00     0.039 A 
ENDBRANCH   8   9
ENDBRANCH   4   8
BRANCH   1  16
ATOM     16  C   UNL d   1       1.346   2.652  -0.038  0.00  0.00     0.294 C 
ATOM     17  O   UNL d   1       0.684   3.677   0.004  0.00  0.00    -0.259 OA
BRANCH  16  18
ATOM     18  O   UNL d   1       2.699   2.577  -0.036  0.00  0.00    -0.322 OA
ATOM     19  C   UNL d   1       3.342   3.851   0.027  0.00  0.00     0.213 C 
ENDBRANCH  16  18
ENDBRANCH   1  16
TORSDOF 4
