REMARK  4 active torsions:
REMARK  status: ('A' for Active; 'I' for Inactive)
REMARK    1  A    between atoms: S_8  and  C_1 
REMARK    2  A    between atoms: C_6  and  C_12 
REMARK       I    between atoms: N_9  and  C_6 
REMARK    3  A    between atoms: C_12  and  S_8 
REMARK    4  A    between atoms: C_13  and  N_9 
ROOT
ATOM      1  C   UNL d   1      -4.534  -3.374   0.510  0.00  0.00     0.231 C 
ATOM      2  N   UNL d   1      -5.553  -2.672   1.128  0.00  0.00    -0.327 N 
ATOM      3  O   UNL d   1      -4.538  -4.578   0.269  0.00  0.00    -0.272 OA
ATOM      4  H   UNL d   1      -5.427  -1.668   1.197  0.00  0.00     0.169 HD
ENDROOT
BRANCH   1   5
ATOM      5  C   UNL d   1      -3.375  -2.522   0.003  0.00  0.00     0.183 C 
BRANCH   5   6
ATOM      6  S   UNL d   1      -2.869  -1.230   1.181  0.00  0.00    -0.114 SA
BRANCH   6   7
ATOM      7  C   UNL d   1      -1.370  -0.696   0.450  0.00  0.00     0.041 C 
ATOM      8  C   UNL d   1      -0.251  -0.760   1.177  0.00  0.00     0.075 C 
ATOM      9  C   UNL d   1       1.070  -0.339   0.678  0.00  0.00     0.152 C 
ATOM     10  O   UNL d   1       2.071  -0.812   1.218  0.00  0.00    -0.293 OA
ATOM     11  C   UNL d   1       1.202   0.709  -0.401  0.00  0.00     0.103 C 
ATOM     12  C   UNL d   1      -0.042   1.081  -1.220  0.00  0.00     0.013 C 
ATOM     13  S   UNL d   1      -1.369  -0.173  -1.198  0.00  0.00    -0.113 SA
ATOM     14  C   UNL d   1      -0.629   2.424  -0.751  0.00  0.00     0.027 C 
ATOM     15  C   UNL d   1       0.361   1.220  -2.701  0.00  0.00     0.027 C 
ENDBRANCH   6   7
ENDBRANCH   5   6
ENDBRANCH   1   5
BRANCH   2  16
ATOM     16  C   UNL d   1      -6.732  -3.205   1.694  0.00  0.00     0.034 A 
ATOM     17  C   UNL d   1      -6.988  -4.576   1.801  0.00  0.00     0.031 A 
ATOM     18  C   UNL d   1      -8.171  -5.040   2.390  0.00  0.00     0.026 A 
ATOM     19  C   UNL d   1      -9.105  -4.133   2.873  0.00  0.00     0.034 A 
ATOM     20  C   UNL d   1      -8.871  -2.764   2.771  0.00  0.00     0.026 A 
ATOM     21 CL   UNL d   1     -10.557  -4.704   3.598  0.00  0.00    -0.084 Cl
ATOM     22  C   UNL d   1      -7.684  -2.305   2.188  0.00  0.00     0.031 A 
ENDBRANCH   2  16
TORSDOF 4
