REMARK  5 active torsions:
REMARK  status: ('A' for Active; 'I' for Inactive)
REMARK    1  A    between atoms: C_11  and  C_3 
REMARK    2  A    between atoms: C_14  and  C_4 
REMARK    3  A    between atoms: C_15  and  C_10 
REMARK    4  A    between atoms: N_12  and  C_13 
REMARK    5  A    between atoms: O_28  and  C_25 
ROOT
ATOM      1  C   UNL d   1       0.303  -0.750   0.000  0.00  0.00     0.144 A 
ATOM      2  N   UNL d   1       0.299   0.634  -0.022  0.00  0.00    -0.202 N 
ATOM      3  C   UNL d   1       2.370   0.089  -0.065  0.00  0.00     0.147 A 
ATOM      4  C   UNL d   1       1.630  -1.147  -0.017  0.00  0.00     0.053 A 
ATOM      5  N   UNL d   1       1.544   1.156  -0.035  0.00  0.00    -0.284 N 
ATOM      6  HN  UNL d   1       1.804   2.142  -0.024  1.00  0.00     0.187 HD
ATOM      7  N   UNL d   1      -0.901  -1.383   0.030  0.00  0.00    -0.339 N 
ATOM      8  C   UNL d   1      -0.854   1.437  -0.034  0.00  0.00     0.270 A 
ATOM      9  C   UNL d   1      -2.126   0.676  -0.042  0.00  0.00     0.106 A 
ATOM     10  C   UNL d   1      -2.084  -0.666  -0.010  0.00  0.00     0.049 A 
ATOM     11  O   UNL d   1      -0.806   2.660  -0.043  0.00  0.00    -0.266 OA
ATOM     12  H   UNL d   1      -0.982  -2.394   0.110  0.00  0.00     0.167 HD
ENDROOT
BRANCH  10  13
ATOM     13  C   UNL d   1      -3.358  -1.397  -0.022  0.00  0.00    -0.007 A 
ATOM     14  C   UNL d   1      -3.975  -1.721  -1.238  0.00  0.00     0.049 A 
ATOM     15  C   UNL d   1      -5.240  -2.326  -1.232  0.00  0.00     0.103 A 
ATOM     16  C   UNL d   1      -5.891  -2.615  -0.025  0.00  0.00     0.036 A 
ATOM     17  C   UNL d   1      -5.266  -2.300   1.183  0.00  0.00     0.003 A 
ATOM     18  C   UNL d   1      -4.006  -1.696   1.184  0.00  0.00     0.014 A 
BRANCH  15  19
ATOM     19  N   UNL d   1      -5.901  -2.644  -2.506  0.00  0.00    -0.116 N 
ATOM     20  O   UNL d   1      -5.282  -2.401  -3.550  0.00  0.00    -0.532 OA
ATOM     21  O   UNL d   1      -7.038  -3.134  -2.458  0.00  0.00    -0.532 OA
ENDBRANCH  15  19
ENDBRANCH  10  13
BRANCH   4  22
ATOM     22  C   UNL d   1       2.094  -2.530  -0.029  0.00  0.00    -0.020 A 
ATOM     23  C   UNL d   1       3.212  -2.913   0.725  0.00  0.00     0.015 A 
ATOM     24  C   UNL d   1       3.738  -4.208   0.634  0.00  0.00     0.037 A 
ATOM     25  C   UNL d   1       3.127  -5.153  -0.186  0.00  0.00     0.068 A 
ATOM     26  C   UNL d   1       1.970  -4.807  -0.882  0.00  0.00     0.037 A 
ATOM     27  C   UNL d   1       1.470  -3.500  -0.825  0.00  0.00     0.015 A 
BRANCH  25  28
ATOM     28  O   UNL d   1       3.548  -6.446  -0.330  0.00  0.00    -0.356 OA
ATOM     29  C   UNL d   1       4.964  -6.615  -0.359  0.00  0.00     0.210 C 
ENDBRANCH  25  28
ENDBRANCH   4  22
BRANCH   3  30
ATOM     30  C   UNL d   1       3.863   0.307  -0.148  0.00  0.00     0.434 C 
ATOM     31  F   UNL d   1       4.562  -0.817  -0.456  0.00  0.00    -0.165 F 
ATOM     32  F   UNL d   1       4.201   1.223  -1.096  0.00  0.00    -0.165 F 
ATOM     33  F   UNL d   1       4.370   0.756   1.033  0.00  0.00    -0.165 F 
ENDBRANCH   3  30
TORSDOF 5
