REMARK  4 active torsions:
REMARK  status: ('A' for Active; 'I' for Inactive)
REMARK    1  A    between atoms: C_2  and  C_1 
REMARK    2  A    between atoms: C_11  and  C_3 
REMARK    3  A    between atoms: O_23  and  C_16 
REMARK    4  A    between atoms: C_26  and  C_17 
ROOT
ATOM      1  C   UNL d   1      -2.722  -0.561   0.071  0.00  0.00     0.098 C 
ATOM      2  C   UNL d   1      -2.131  -1.768  -0.046  0.00  0.00     0.177 C 
ATOM      3  C   UNL d   1      -1.865   0.647   0.216  0.00  0.00     0.201 C 
ATOM      4  C   UNL d   1      -0.408   0.434   0.130  0.00  0.00     0.050 A 
ATOM      5  O   UNL d   1      -0.755  -1.959   0.023  0.00  0.00    -0.304 OA
ATOM      6  C   UNL d   1       0.067  -0.866   0.064  0.00  0.00     0.093 A 
ATOM      7  C   UNL d   1       0.486   1.511   0.126  0.00  0.00     0.028 A 
ATOM      8  C   UNL d   1       1.438  -1.104   0.034  0.00  0.00     0.075 A 
ATOM      9  C   UNL d   1       2.334  -0.033   0.033  0.00  0.00     0.074 A 
ATOM     10  C   UNL d   1       1.880   1.293   0.057  0.00  0.00    -0.024 A 
ATOM     11  O   UNL d   1      -2.318   1.764   0.431  0.00  0.00    -0.286 OA
ENDROOT
BRANCH   1  12
ATOM     12  C   UNL d   1      -4.132  -0.414  -0.017  0.00  0.00     0.125 A 
ATOM     13  N   UNL d   1      -4.862  -0.258  -1.104  0.00  0.00    -0.340 N 
ATOM     14  C   UNL d   1      -6.168  -0.217  -0.687  0.00  0.00     0.060 A 
ATOM     15  HN  UNL d   1      -4.523  -0.183  -2.063  1.00  0.00     0.167 HD
ATOM     16  C   UNL d   1      -7.341  -0.046  -1.437  0.00  0.00     0.032 A 
ATOM     17  C   UNL d   1      -6.255  -0.391   0.689  0.00  0.00     0.062 A 
ATOM     18  C   UNL d   1      -8.577  -0.078  -0.777  0.00  0.00     0.002 A 
ATOM     19  C   UNL d   1      -8.642  -0.282   0.602  0.00  0.00     0.002 A 
ATOM     20  C   UNL d   1      -7.481  -0.441   1.369  0.00  0.00     0.032 A 
ATOM     21  N   UNL d   1      -4.942  -0.481   1.102  0.00  0.00    -0.335 N 
ATOM     22  C   UNL d   1      -4.550  -0.642   2.483  0.00  0.00     0.158 C 
ENDBRANCH   1  12
BRANCH   2  23
ATOM     23  C   UNL d   1      -2.894  -3.052  -0.223  0.00  0.00     0.440 C 
ATOM     24  F   UNL d   1      -2.068  -4.134  -0.238  0.00  0.00    -0.164 F 
ATOM     25  F   UNL d   1      -3.764  -3.263   0.800  0.00  0.00    -0.164 F 
ATOM     26  F   UNL d   1      -3.601  -3.097  -1.377  0.00  0.00    -0.164 F 
ENDBRANCH   2  23
BRANCH  10  27
ATOM     27  C   UNL d   1       2.797   2.493   0.009  0.00  0.00     0.037 C 
ATOM     28  C   UNL d   1       3.186   3.000   1.390  0.00  0.00     0.010 C 
ENDBRANCH  10  27
BRANCH   9  29
ATOM     29  O   UNL d   1       3.654  -0.381  -0.004  0.00  0.00    -0.360 OA
ATOM     30  H   UNL d   1       4.210   0.410  -0.067  0.00  0.00     0.217 HD
ENDBRANCH   9  29
TORSDOF 4
