REMARK  2 active torsions:
REMARK  status: ('A' for Active; 'I' for Inactive)
REMARK    1  A    between atoms: C_6  and  C_2 
REMARK    2  A    between atoms: C_3  and  C_7 
ROOT
ATOM      1  C   UNL d   1      -0.082   0.674  -0.016  0.00  0.00     0.056 A 
ATOM      2  C   UNL d   1      -0.117  -0.722   0.018  0.00  0.00     0.055 A 
ATOM      3  C   UNL d   1      -1.276   1.405  -0.040  0.00  0.00     0.037 A 
ATOM      4  C   UNL d   1      -2.517   0.752  -0.046  0.00  0.00    -0.034 A 
ATOM      5  C   UNL d   1      -1.348  -1.381   0.037  0.00  0.00     0.026 A 
ATOM      6 CL   UNL d   1       1.401   1.564  -0.029  0.00  0.00    -0.083 Cl
ATOM      7 CL   UNL d   1       1.316  -1.687   0.043  0.00  0.00    -0.083 Cl
ATOM      8  C   UNL d   1      -2.539  -0.648   0.010  0.00  0.00     0.013 A 
ENDROOT
BRANCH   4   9
ATOM      9  C   UNL d   1      -3.794   1.479  -0.062  0.00  0.00     0.015 C 
ATOM     10  C   UNL d   1      -3.977   2.667  -0.661  0.00  0.00     0.050 C 
BRANCH  10  11
ATOM     11  C   UNL d   1      -5.315   3.323  -0.645  0.00  0.00     0.145 C 
ATOM     12  O   UNL d   1      -6.280   2.800  -0.093  0.00  0.00    -0.294 OA
ATOM     13  C   UNL d   1      -5.434   4.656  -1.337  0.00  0.00     0.096 C 
ENDBRANCH  10  11
ENDBRANCH   4   9
TORSDOF 2
