REMARK  5 active torsions:
REMARK  status: ('A' for Active; 'I' for Inactive)
REMARK    1  A    between atoms: S_2  and  C_1 
REMARK    2  A    between atoms: C_16  and  S_2 
REMARK    3  A    between atoms: N_8  and  C_4 
REMARK    4  A    between atoms: S_5  and  N_6 
REMARK    5  A    between atoms: C_12  and  S_5 
REMARK       I    between atoms: N_6  and  C_9 
REMARK       I    between atoms: C_9  and  N_8 
ROOT
ATOM      1  N   UNL d   1      -1.012   3.967   0.583  0.00  0.00    -0.265 N 
ATOM      2  HN  UNL d   1      -1.476   4.394  -0.219  1.00  0.00     0.180 HD
ATOM      3  N   UNL d   1       0.179   1.975   0.642  0.00  0.00    -0.301 N 
ATOM      4  C   UNL d   1      -1.043   2.584   0.729  0.00  0.00     0.332 C 
ATOM      5  O   UNL d   1      -2.113   2.001   0.823  0.00  0.00    -0.246 OA
ATOM      6  H   UNL d   1       0.915   2.563   0.276  0.00  0.00     0.171 HD
ENDROOT
BRANCH   3   7
ATOM      7  C   UNL d   1       0.318   0.612   0.536  0.00  0.00     0.101 C 
ATOM      8  C   UNL d   1      -0.356  -0.473   1.062  0.00  0.00     0.089 C 
ATOM      9  C   UNL d   1       0.014  -1.671   0.376  0.00  0.00     0.090 C 
ATOM     10 CL   UNL d   1      -1.454  -0.415   2.377  0.00  0.00    -0.080 Cl
ATOM     11  C   UNL d   1       1.099  -1.472  -0.457  0.00  0.00     0.077 C 
ATOM     12  S   UNL d   1       1.618   0.155  -0.462  0.00  0.00    -0.081 SA
BRANCH   9  13
ATOM     13  S   UNL d   1      -0.711  -3.230   0.575  0.00  0.00     0.181 S 
ATOM     14  O   UNL d   1      -0.224  -3.986  -0.564  0.00  0.00    -0.222 OA
ATOM     15  O   UNL d   1      -0.355  -3.596   1.933  0.00  0.00    -0.222 OA
BRANCH  13  16
ATOM     16  C   UNL d   1      -2.494  -3.064   0.437  0.00  0.00     0.105 C 
ATOM     17  C   UNL d   1      -2.923  -2.292  -0.806  0.00  0.00     0.026 C 
ATOM     18  C   UNL d   1      -3.129  -4.455   0.437  0.00  0.00     0.026 C 
ENDBRANCH  13  16
ENDBRANCH   9  13
ENDBRANCH   3   7
BRANCH   1  19
ATOM     19  S   UNL d   1      -0.297   4.865   1.596  0.00  0.00     0.056 S 
ATOM     20  O   UNL d   1       1.139   4.806   1.802  0.00  0.00    -0.245 OA
ATOM     21  C   UNL d   1      -0.682   6.550   1.196  0.00  0.00     0.142 C 
BRANCH  19  22
ATOM     22  C   UNL d   1      -1.061   4.580   3.182  0.00  0.00     0.038 A 
ATOM     23  C   UNL d   1      -0.291   4.046   4.221  0.00  0.00     0.023 A 
ATOM     24  C   UNL d   1      -0.873   3.831   5.471  0.00  0.00     0.025 A 
ATOM     25  C   UNL d   1      -2.216   4.149   5.676  0.00  0.00     0.034 A 
ATOM     26  C   UNL d   1      -2.989   4.665   4.635  0.00  0.00     0.025 A 
ATOM     27 CL   UNL d   1      -2.923   3.903   7.225  0.00  0.00    -0.084 Cl
ATOM     28  C   UNL d   1      -2.415   4.873   3.377  0.00  0.00     0.023 A 
ENDBRANCH  19  22
ENDBRANCH   1  19
TORSDOF 5
