REMARK  5 active torsions:
REMARK  status: ('A' for Active; 'I' for Inactive)
REMARK    1  A    between atoms: C_3  and  N_1 
REMARK    2  A    between atoms: N_12  and  C_4 
REMARK    3  A    between atoms: O_10  and  C_8 
REMARK    4  A    between atoms: C_16  and  O_10 
REMARK    5  A    between atoms: C_14  and  C_16 
ROOT
ATOM      1  C   UNL d   1       0.198   0.714   0.921  0.00  0.00     0.140 A 
ATOM      2  N   UNL d   1      -0.899   0.111   1.444  0.00  0.00    -0.350 N 
ATOM      3  HN  UNL d   1      -1.158  -0.839   1.180  1.00  0.00     0.166 HD
ATOM      4  C   UNL d   1       0.584   2.019   1.268  0.00  0.00     0.113 A 
ATOM      5  C   UNL d   1      -1.634   0.819   2.326  0.00  0.00     0.090 A 
ATOM      6  C   UNL d   1      -0.208   2.725   2.175  0.00  0.00     0.042 A 
ATOM      7  C   UNL d   1      -1.333   2.114   2.718  0.00  0.00     0.020 A 
ENDROOT
BRANCH   4   8
ATOM      8  O   UNL d   1       1.690   2.547   0.656  0.00  0.00    -0.343 OA
BRANCH   8   9
ATOM      9  C   UNL d   1       2.456   3.474   1.424  0.00  0.00     0.214 C 
BRANCH   9  10
ATOM     10  C   UNL d   1       3.896   3.442   0.958  0.00  0.00    -0.032 A 
ATOM     11  C   UNL d   1       4.679   4.606   0.993  0.00  0.00     0.035 A 
ATOM     12  C   UNL d   1       6.023   4.575   0.599  0.00  0.00     0.056 A 
ATOM     13 CL   UNL d   1       6.914   6.055   0.668  0.00  0.00    -0.083 Cl
ATOM     14  C   UNL d   1       6.600   3.373   0.174  0.00  0.00     0.055 A 
ATOM     15  C   UNL d   1       5.833   2.207   0.152  0.00  0.00     0.026 A 
ATOM     16 CL   UNL d   1       8.249   3.261  -0.330  0.00  0.00    -0.083 Cl
ATOM     17  C   UNL d   1       4.494   2.240   0.547  0.00  0.00     0.011 A 
ENDBRANCH   9  10
ENDBRANCH   8   9
ENDBRANCH   4   8
BRANCH   1  18
ATOM     18  N   UNL d   1       0.946  -0.011  -0.024  0.00  0.00    -0.336 N 
ATOM     19  C   UNL d   1       0.888  -1.300  -0.002  0.00  0.00     0.179 C 
ATOM     20  HN  UNL d   1       1.522   0.472  -0.713  1.00  0.00     0.168 HD
BRANCH  19  21
ATOM     21  N   UNL d   1       1.558  -2.152  -0.854  0.00  0.00    -0.386 N 
ATOM     22  C   UNL d   1       2.330  -1.650  -1.979  0.00  0.00     0.149 C 
ATOM     23  C   UNL d   1       1.391  -3.592  -0.787  0.00  0.00     0.149 C 
ENDBRANCH  19  21
ENDBRANCH   1  18
TORSDOF 5
