REMARK  3 active torsions:
REMARK  status: ('A' for Active; 'I' for Inactive)
REMARK    1  A    between atoms: C_2  and  C_1 
REMARK       I    between atoms: N_5  and  C_2 
REMARK    2  A    between atoms: C_6  and  C_9 
REMARK    3  A    between atoms: C_7  and  C_11 
ROOT
ATOM      1  C   UNL d   1      -3.309   0.562   0.044  0.00  0.00     0.259 C 
ATOM      2  N   UNL d   1      -3.929   1.799  -0.220  0.00  0.00    -0.322 N 
ATOM      3  C   UNL d   1      -5.339   4.389   0.499  0.00  0.00     0.113 C 
ATOM      4  C   UNL d   1      -5.950   3.049   0.252  0.00  0.00     0.051 C 
ATOM      5  C   UNL d   1      -5.278   1.911   0.060  0.00  0.00     0.096 C 
ATOM      6  N   UNL d   1      -4.198   4.836   0.128  0.00  0.00    -0.384 N 
ATOM      7  HN  UNL d   1      -4.006   5.804   0.387  1.00  0.00     0.159 HD
ATOM      8  O   UNL d   1      -3.934  -0.422   0.447  0.00  0.00    -0.267 OA
ATOM      9  C   UNL d   1      -3.135   4.175  -0.607  0.00  0.00     0.140 C 
ATOM     10  C   UNL d   1      -3.394   2.787  -1.173  0.00  0.00     0.151 C 
ENDROOT
BRANCH   1  11
ATOM     11  C   UNL d   1      -1.834   0.427  -0.039  0.00  0.00     0.054 A 
ATOM     12  C   UNL d   1      -1.231  -0.734  -0.532  0.00  0.00     0.021 A 
ATOM     13  N   UNL d   1       0.119  -0.922  -0.498  0.00  0.00    -0.355 N 
ATOM     14  C   UNL d   1      -2.019  -1.891  -1.077  0.00  0.00     0.069 C 
ATOM     15  C   UNL d   1       0.909   0.036   0.064  0.00  0.00     0.117 A 
ATOM     16  HN  UNL d   1       0.533  -1.768  -0.889  1.00  0.00     0.166 HD
ATOM     17  C   UNL d   1       0.369   1.213   0.580  0.00  0.00     0.035 A 
ATOM     18  C   UNL d   1      -1.012   1.400   0.539  0.00  0.00     0.021 A 
BRANCH  15  19
ATOM     19  C   UNL d   1       2.414  -0.191   0.167  0.00  0.00     0.432 C 
ATOM     20  F   UNL d   1       2.831  -1.419  -0.249  0.00  0.00    -0.165 F 
ATOM     21  F   UNL d   1       3.125   0.715  -0.567  0.00  0.00    -0.165 F 
ATOM     22  F   UNL d   1       2.871  -0.058   1.448  0.00  0.00    -0.165 F 
ENDBRANCH  15  19
ENDBRANCH   1  11
BRANCH   3  23
ATOM     23  C   UNL d   1      -6.206   5.321   1.383  0.00  0.00     0.432 C 
ATOM     24  F   UNL d   1      -7.431   4.797   1.677  0.00  0.00    -0.165 F 
ATOM     25  F   UNL d   1      -5.613   5.577   2.583  0.00  0.00    -0.165 F 
ATOM     26  F   UNL d   1      -6.442   6.525   0.797  0.00  0.00    -0.165 F 
ENDBRANCH   3  23
TORSDOF 3
