REMARK  8 active torsions:
REMARK  status: ('A' for Active; 'I' for Inactive)
REMARK    1  A    between atoms: C_7  and  C_1 
REMARK       I    between atoms: N_9  and  C_1 
REMARK    2  A    between atoms: N_2  and  N_9 
REMARK    3  A    between atoms: C_5  and  C_14 
REMARK       I    between atoms: C_6  and  N_15 
REMARK    4  A    between atoms: C_14  and  C_6 
REMARK    5  A    between atoms: C_19  and  C_7 
REMARK    6  A    between atoms: N_15  and  C_18 
REMARK    7  A    between atoms: C_17  and  C_16 
REMARK    8  A    between atoms: C_18  and  C_19 
ROOT
ATOM      1  C   UNL d   1       0.235   0.839   1.078  0.00  0.00     0.037 C 
ATOM      2  C   UNL d   1      -0.654  -0.033   1.983  0.00  0.00     0.025 C 
ATOM      3  C   UNL d   1       1.289   1.538   1.960  0.00  0.00     0.025 C 
ENDROOT
BRANCH   1   4
ATOM      4  C   UNL d   1       0.976  -0.013   0.023  0.00  0.00     0.244 C 
ATOM      5  N   UNL d   1       1.717  -1.069   0.534  0.00  0.00    -0.270 N 
ATOM      6  H   UNL d   1       1.795  -1.233   1.531  0.00  0.00     0.190 HD
ATOM      7  O   UNL d   1       0.930   0.259  -1.177  0.00  0.00    -0.271 OA
BRANCH   5   8
ATOM      8  N   UNL d   1       2.375  -1.890  -0.331  0.00  0.00    -0.308 N 
ATOM      9  C   UNL d   1       3.071  -2.847   0.190  0.00  0.00     0.118 C 
ATOM     10  HN  UNL d   1       2.321  -1.756  -1.341  1.00  0.00     0.186 HD
BRANCH   9  11
ATOM     11  C   UNL d   1       3.809  -3.804  -0.661  0.00  0.00    -0.019 A 
ATOM     12  C   UNL d   1       3.771  -3.692  -2.055  0.00  0.00     0.013 A 
ATOM     13  C   UNL d   1       4.467  -4.609  -2.844  0.00  0.00     0.001 A 
ATOM     14  C   UNL d   1       5.197  -5.633  -2.243  0.00  0.00     0.000 A 
ATOM     15  C   UNL d   1       5.236  -5.742  -0.851  0.00  0.00     0.001 A 
ATOM     16  C   UNL d   1       4.543  -4.828  -0.057  0.00  0.00     0.013 A 
ENDBRANCH   9  11
ENDBRANCH   5   8
ENDBRANCH   1   4
BRANCH   1  17
ATOM     17  C   UNL d   1      -0.622   1.934   0.374  0.00  0.00     0.038 C 
BRANCH  17  18
ATOM     18  C   UNL d   1      -1.740   1.397  -0.531  0.00  0.00     0.123 C 
BRANCH  18  19
ATOM     19  N   UNL d   1      -2.530   2.460  -1.115  0.00  0.00    -0.361 N 
ATOM     20  C   UNL d   1      -3.660   2.952  -0.499  0.00  0.00     0.221 C 
ATOM     21  O   UNL d   1      -4.041   2.574   0.604  0.00  0.00    -0.273 OA
ATOM     22  H   UNL d   1      -2.201   2.883  -1.974  0.00  0.00     0.162 HD
BRANCH  20  23
ATOM     23  C   UNL d   1      -4.413   3.995  -1.302  0.00  0.00     0.141 C 
BRANCH  23  24
ATOM     24  C   UNL d   1      -3.959   5.388  -0.984  0.00  0.00    -0.043 A 
ATOM     25  C   UNL d   1      -4.025   5.971   0.269  0.00  0.00     0.057 A 
ATOM     26  S   UNL d   1      -3.443   7.577   0.286  0.00  0.00    -0.113 SA
ATOM     27  C   UNL d   1      -3.102   7.528  -1.385  0.00  0.00     0.050 A 
ATOM     28  C   UNL d   1      -3.419   6.307  -1.943  0.00  0.00     0.015 A 
ENDBRANCH  23  24
ENDBRANCH  20  23
ENDBRANCH  18  19
ENDBRANCH  17  18
ENDBRANCH   1  17
TORSDOF 8
