REMARK  5 active torsions:
REMARK  status: ('A' for Active; 'I' for Inactive)
REMARK    1  A    between atoms: N_3  and  S_1 
REMARK    2  A    between atoms: C_10  and  S_1 
REMARK    3  A    between atoms: C_5  and  C_2 
REMARK    4  A    between atoms: C_6  and  N_3 
REMARK    5  A    between atoms: C_7  and  C_5 
ROOT
ATOM      1  C   UNL d   1       0.379   3.720  -0.844  0.00  0.00     0.113 C 
ATOM      2  C   UNL d   1       0.878   2.613  -0.271  0.00  0.00     0.124 C 
ATOM      3  C   UNL d   1       0.592   5.021  -0.314  0.00  0.00     0.105 C 
ATOM      4  N   UNL d   1       0.731   6.094   0.107  0.00  0.00    -0.191 NA
ENDROOT
BRANCH   1   5
ATOM      5  C   UNL d   1      -0.516   3.521  -2.027  0.00  0.00     0.227 C 
ATOM      6  O   UNL d   1      -1.083   2.434  -2.172  0.00  0.00    -0.284 OA
BRANCH   5   7
ATOM      7  C   UNL d   1      -0.725   4.622  -2.945  0.00  0.00     0.126 A 
ATOM      8  O   UNL d   1       0.244   5.575  -3.076  0.00  0.00    -0.319 OA
ATOM      9  C   UNL d   1      -0.198   6.486  -3.978  0.00  0.00     0.142 A 
ATOM     10  C   UNL d   1      -1.438   6.128  -4.450  0.00  0.00     0.027 A 
ATOM     11  C   UNL d   1      -1.770   4.912  -3.804  0.00  0.00     0.043 A 
ENDBRANCH   5   7
ENDBRANCH   1   5
BRANCH   2  12
ATOM     12  N   UNL d   1       1.651   2.700   0.939  0.00  0.00    -0.322 N 
ATOM     13  HN  UNL d   1       1.804   3.612   1.370  1.00  0.00     0.175 HD
BRANCH  12  14
ATOM     14  S   UNL d   1       2.254   1.438   1.598  0.00  0.00     0.052 S 
ATOM     15  O   UNL d   1       3.095   0.487   0.898  0.00  0.00    -0.245 OA
ATOM     16  C   UNL d   1       0.925   0.511   2.335  0.00  0.00     0.142 C 
BRANCH  14  17
ATOM     17  C   UNL d   1       3.160   1.993   3.039  0.00  0.00     0.038 A 
ATOM     18  C   UNL d   1       2.743   3.141   3.724  0.00  0.00     0.023 A 
ATOM     19  C   UNL d   1       3.436   3.554   4.865  0.00  0.00     0.025 A 
ATOM     20  C   UNL d   1       4.538   2.824   5.310  0.00  0.00     0.034 A 
ATOM     21  C   UNL d   1       4.960   1.687   4.620  0.00  0.00     0.025 A 
ATOM     22 CL   UNL d   1       5.383   3.329   6.721  0.00  0.00    -0.084 Cl
ATOM     23  C   UNL d   1       4.273   1.269   3.477  0.00  0.00     0.023 A 
ENDBRANCH  14  17
ENDBRANCH  12  14
ENDBRANCH   2  12
TORSDOF 5
