REMARK  1 active torsions:
REMARK  status: ('A' for Active; 'I' for Inactive)
REMARK    1  A    between atoms: S_11  and  C_3 
ROOT
ATOM      1  C   UNL d   1       0.008  -0.827   0.032  0.00  0.00     0.042 A 
ATOM      2  C   UNL d   1       0.333   0.586   0.025  0.00  0.00    -0.013 A 
ATOM      3  C   UNL d   1       1.146  -1.621   0.047  0.00  0.00     0.057 A 
ATOM      4  S   UNL d   1       2.575  -0.665   0.083  0.00  0.00    -0.070 SA
ATOM      5  C   UNL d   1       1.693   0.772   0.029  0.00  0.00     0.083 A 
ATOM      6  C   UNL d   1      -1.386  -1.276  -0.008  0.00  0.00     0.162 C 
ATOM      7  C   UNL d   1      -0.723   1.661  -0.032  0.00  0.00     0.051 C 
ATOM      8  C   UNL d   1      -2.132   1.136   0.351  0.00  0.00    -0.037 C 
ATOM      9  C   UNL d   1      -2.406  -0.206  -0.364  0.00  0.00     0.093 C 
ATOM     10  O   UNL d   1      -1.745  -2.428   0.201  0.00  0.00    -0.292 OA
ATOM     11 CL   UNL d   1       2.537   2.270  -0.039  0.00  0.00    -0.076 Cl
ATOM     12  C   UNL d   1      -3.200   2.150  -0.097  0.00  0.00     0.015 C 
ATOM     13  C   UNL d   1      -2.249   0.970   1.881  0.00  0.00     0.015 C 
ENDROOT
BRANCH   3  14
ATOM     14  S   UNL d   1       1.291  -3.371  -0.095  0.00  0.00    -0.126 SA
ATOM     15  C   UNL d   1       0.735  -3.930   1.530  0.00  0.00     0.096 C 
ENDBRANCH   3  14
TORSDOF 1
