REMARK  3 active torsions:
REMARK  status: ('A' for Active; 'I' for Inactive)
REMARK    1  A    between atoms: C_2  and  C_1 
REMARK       I    between atoms: N_8  and  C_2 
REMARK    2  A    between atoms: C_9  and  C_3 
REMARK    3  A    between atoms: C_13  and  N_8 
ROOT
ATOM      1  C   UNL d   1       0.284  -1.209  -0.090  0.00  0.00     0.093 C 
ATOM      2  C   UNL d   1      -0.784  -0.325  -0.159  0.00  0.00     0.126 C 
ATOM      3  O   UNL d   1      -0.355   0.901   0.277  0.00  0.00    -0.236 OA
ATOM      4  N   UNL d   1       0.992   0.885   0.517  0.00  0.00    -0.264 N 
ATOM      5  HN  UNL d   1       1.569   1.656   0.854  1.00  0.00     0.194 HD
ATOM      6  C   UNL d   1       1.392  -0.351   0.220  0.00  0.00     0.047 C 
ATOM      7  C   UNL d   1       2.850  -0.635   0.201  0.00  0.00     0.071 C 
ENDROOT
BRANCH   1   8
ATOM      8  C   UNL d   1       0.314  -2.645  -0.356  0.00  0.00     0.261 C 
ATOM      9  N   UNL d   1       1.306  -3.292   0.365  0.00  0.00    -0.323 N 
ATOM     10  H   UNL d   1       1.746  -2.754   1.095  0.00  0.00     0.169 HD
ATOM     11  O   UNL d   1      -0.460  -3.179  -1.144  0.00  0.00    -0.267 OA
BRANCH   9  12
ATOM     12  C   UNL d   1       1.834  -4.589   0.199  0.00  0.00     0.035 A 
ATOM     13  C   UNL d   1       1.334  -5.544  -0.681  0.00  0.00     0.030 A 
ATOM     14  C   UNL d   1       1.975  -6.787  -0.810  0.00  0.00     0.009 A 
ATOM     15  C   UNL d   1       3.127  -7.085  -0.071  0.00  0.00    -0.062 A 
ATOM     16  C   UNL d   1       3.628  -6.125   0.810  0.00  0.00     0.009 A 
ATOM     17  C   UNL d   1       3.836  -8.395  -0.259  0.00  0.00     0.048 C 
ATOM     18  C   UNL d   1       2.979  -4.895   0.952  0.00  0.00     0.030 A 
ENDBRANCH   9  12
ENDBRANCH   1   8
BRANCH   2  19
ATOM     19  C   UNL d   1      -2.167  -0.280  -0.626  0.00  0.00     0.001 A 
ATOM     20  C   UNL d   1      -3.091   0.573   0.010  0.00  0.00     0.016 A 
ATOM     21  C   UNL d   1      -4.334   0.852  -0.565  0.00  0.00     0.024 A 
ATOM     22  C   UNL d   1      -4.676   0.267  -1.779  0.00  0.00     0.034 A 
ATOM     23  C   UNL d   1      -3.802  -0.625  -2.397  0.00  0.00     0.024 A 
ATOM     24 CL   UNL d   1      -6.161   0.684  -2.541  0.00  0.00    -0.084 Cl
ATOM     25  C   UNL d   1      -2.554  -0.900  -1.820  0.00  0.00     0.016 A 
ENDBRANCH   2  19
TORSDOF 3
