REMARK  2 active torsions:
REMARK  status: ('A' for Active; 'I' for Inactive)
REMARK    1  A    between atoms: C_2  and  C_1 
REMARK    2  A    between atoms: C_14  and  C_8 
ROOT
ATOM      1  C   UNL d   1      -0.286  -1.039   0.022  0.00  0.00     0.193 A 
ATOM      2  O   UNL d   1      -1.080   0.051  -0.248  0.00  0.00    -0.271 OA
ATOM      3  N   UNL d   1       0.928  -0.681   0.400  0.00  0.00    -0.276 N 
ATOM      4  HN  UNL d   1       1.697  -1.305   0.646  1.00  0.00     0.189 HD
ATOM      5  N   UNL d   1       0.958   0.698   0.398  0.00  0.00    -0.277 N 
ATOM      6  HN  UNL d   1       1.751   1.292   0.641  1.00  0.00     0.189 HD
ATOM      7  C   UNL d   1      -0.240   1.097   0.022  0.00  0.00     0.174 A 
ENDROOT
BRANCH   1   8
ATOM      8  C   UNL d   1      -0.746  -2.454  -0.068  0.00  0.00     0.110 A 
ATOM      9  N   UNL d   1      -1.978  -2.793  -0.469  0.00  0.00    -0.257 N 
ATOM     10  O   UNL d   1      -2.032  -4.175  -0.379  0.00  0.00    -0.242 OA
ATOM     11  HN  UNL d   1      -2.721  -2.166  -0.777  1.00  0.00     0.195 HD
ATOM     12  C   UNL d   1      -0.840  -4.646   0.079  0.00  0.00     0.075 A 
ATOM     13  C   UNL d   1       0.018  -3.593   0.273  0.00  0.00     0.070 A 
ATOM     14  C   UNL d   1      -0.739  -6.104   0.266  0.00  0.00     0.079 C 
ENDBRANCH   1   8
BRANCH   7  15
ATOM     15  C   UNL d   1      -0.776   2.444  -0.120  0.00  0.00     0.018 A 
ATOM     16  C   UNL d   1       0.041   3.548   0.164  0.00  0.00     0.039 A 
ATOM     17  C   UNL d   1      -0.456   4.845   0.040  0.00  0.00     0.035 A 
ATOM     18 CL   UNL d   1       0.561   6.187   0.394  0.00  0.00    -0.084 Cl
ATOM     19  C   UNL d   1      -1.770   5.064  -0.366  0.00  0.00     0.024 A 
ATOM     20  C   UNL d   1      -2.594   3.977  -0.651  0.00  0.00     0.003 A 
ATOM     21  C   UNL d   1      -2.100   2.675  -0.528  0.00  0.00     0.016 A 
ENDBRANCH   7  15
TORSDOF 2
