REMARK  3 active torsions:
REMARK  status: ('A' for Active; 'I' for Inactive)
REMARK    1  A    between atoms: C_6  and  C_1 
REMARK    2  A    between atoms: C_3  and  C_2 
REMARK       I    between atoms: N_7  and  C_3 
REMARK    3  A    between atoms: S_9  and  N_7 
ROOT
ATOM      1  C   UNL d   1      -1.395  -0.433   0.002  0.00  0.00     0.086 A 
ATOM      2  C   UNL d   1      -0.119  -1.075  -0.049  0.00  0.00     0.093 A 
ATOM      3  N   UNL d   1      -1.261   0.893  -0.166  0.00  0.00    -0.259 N 
ATOM      4  HN  UNL d   1      -2.013   1.580  -0.221  1.00  0.00     0.195 HD
ATOM      5  O   UNL d   1       0.086   1.141  -0.248  0.00  0.00    -0.241 OA
ATOM      6  C   UNL d   1       0.774  -0.024  -0.166  0.00  0.00     0.090 A 
ATOM      7  C   UNL d   1       2.244   0.122  -0.209  0.00  0.00     0.080 C 
ENDROOT
BRANCH   1   8
ATOM      8  C   UNL d   1      -2.734  -0.995   0.179  0.00  0.00     0.037 A 
ATOM      9  C   UNL d   1      -3.521  -0.622   1.289  0.00  0.00     0.048 A 
ATOM     10 CL   UNL d   1      -2.938   0.421   2.547  0.00  0.00    -0.083 Cl
ATOM     11  C   UNL d   1      -4.829  -1.099   1.437  0.00  0.00     0.025 A 
ATOM     12  C   UNL d   1      -5.368  -1.973   0.498  0.00  0.00     0.003 A 
ATOM     13  C   UNL d   1      -4.601  -2.363  -0.597  0.00  0.00     0.025 A 
ATOM     14  C   UNL d   1      -3.300  -1.868  -0.767  0.00  0.00     0.048 A 
ATOM     15 CL   UNL d   1      -2.470  -2.350  -2.211  0.00  0.00    -0.083 Cl
ENDBRANCH   1   8
BRANCH   2  16
ATOM     16  C   UNL d   1       0.203  -2.498   0.011  0.00  0.00     0.267 C 
ATOM     17  N   UNL d   1       1.464  -2.882  -0.472  0.00  0.00    -0.283 N 
ATOM     18  HN  UNL d   1       1.981  -2.219  -1.049  1.00  0.00     0.178 HD
ATOM     19  O   UNL d   1      -0.639  -3.305   0.382  0.00  0.00    -0.267 OA
BRANCH  17  20
ATOM     20  S   UNL d   1       2.107  -4.242  -0.182  0.00  0.00     0.020 S 
ATOM     21  O   UNL d   1       1.865  -5.054   0.993  0.00  0.00    -0.250 OA
ATOM     22  C   UNL d   1       3.864  -3.953  -0.231  0.00  0.00     0.136 C 
ATOM     23  C   UNL d   1       1.871  -5.272  -1.616  0.00  0.00     0.136 C 
ENDBRANCH  17  20
ENDBRANCH   2  16
TORSDOF 3
