REMARK  6 active torsions:
REMARK  status: ('A' for Active; 'I' for Inactive)
REMARK    1  A    between atoms: N_2  and  S_1 
REMARK    2  A    between atoms: C_3  and  S_1 
REMARK    3  A    between atoms: C_16  and  N_4 
REMARK    4  A    between atoms: C_15  and  C_16 
REMARK    5  A    between atoms: C_26  and  C_25 
REMARK    6  A    between atoms: C_27  and  C_26 
ROOT
ATOM      1  N   UNL d   1       0.360  -1.393  -0.334  0.00  0.00    -0.303 N 
ATOM      2  N   UNL d   1       0.083  -4.220  -1.137  0.00  0.00     0.095 N 
ATOM      3  C   UNL d   1       0.251  -2.447   0.698  0.00  0.00     0.165 C 
ATOM      4  C   UNL d   1       0.017  -1.746  -1.728  0.00  0.00     0.165 C 
ATOM      5  C   UNL d   1       0.458  -3.169  -2.103  0.00  0.00     0.293 C 
ATOM      6  C   UNL d   1       0.654  -3.839   0.178  0.00  0.00     0.293 C 
ENDROOT
BRANCH   1   7
ATOM      7  S   UNL d   1       1.148   0.045   0.007  0.00  0.00     0.260 S 
ATOM      8  O   UNL d   1       0.935   0.348   1.411  0.00  0.00    -0.200 OA
ATOM      9  O   UNL d   1       0.819   1.009  -1.021  0.00  0.00    -0.200 OA
BRANCH   7  10
ATOM     10  C   UNL d   1       2.862  -0.385  -0.191  0.00  0.00     0.079 A 
ATOM     11  C   UNL d   1       3.448  -0.321  -1.457  0.00  0.00     0.026 A 
ATOM     12  C   UNL d   1       4.818  -0.553  -1.595  0.00  0.00     0.009 A 
ATOM     13  C   UNL d   1       5.613  -0.835  -0.473  0.00  0.00    -0.058 A 
ATOM     14  C   UNL d   1       5.008  -0.891   0.792  0.00  0.00     0.009 A 
ATOM     15  C   UNL d   1       3.636  -0.667   0.936  0.00  0.00     0.026 A 
BRANCH  13  16
ATOM     16  C   UNL d   1       7.107  -1.007  -0.624  0.00  0.00     0.038 C 
BRANCH  16  17
ATOM     17  C   UNL d   1       7.658  -2.339  -0.106  0.00  0.00     0.000 C 
ATOM     18  C   UNL d   1       7.136  -3.541  -0.879  0.00  0.00     0.005 C 
ENDBRANCH  16  17
ENDBRANCH  13  16
ENDBRANCH   7  10
ENDBRANCH   1   7
BRANCH   2  19
ATOM     19  C   UNL d   1      -1.375  -4.386  -1.016  0.00  0.00     0.311 C 
BRANCH  19  20
ATOM     20  C   UNL d   1      -2.085  -5.014  -2.199  0.00  0.00    -0.027 A 
ATOM     21  C   UNL d   1      -3.460  -4.756  -2.343  0.00  0.00     0.048 A 
ATOM     22  C   UNL d   1      -4.185  -5.569  -3.182  0.00  0.00     0.105 A 
ATOM     23  O   UNL d   1      -5.542  -5.580  -3.295  0.00  0.00    -0.323 OA
ATOM     24  C   UNL d   1      -3.591  -6.562  -3.926  0.00  0.00     0.105 A 
ATOM     25  C   UNL d   1      -5.718  -6.855  -3.945  0.00  0.00     0.352 C 
ATOM     26  O   UNL d   1      -4.511  -7.322  -4.584  0.00  0.00    -0.323 OA
ATOM     27  C   UNL d   1      -2.231  -6.772  -3.900  0.00  0.00     0.040 A 
ATOM     28  C   UNL d   1      -1.476  -6.005  -3.006  0.00  0.00     0.012 A 
ENDBRANCH  19  20
ENDBRANCH   2  19
TORSDOF 6
