REMARK  6 active torsions:
REMARK  status: ('A' for Active; 'I' for Inactive)
REMARK    1  A    between atoms: C_7  and  C_1 
REMARK    2  A    between atoms: C_11  and  N_2 
REMARK    3  A    between atoms: C_12  and  C_6 
REMARK       I    between atoms: N_9  and  C_7 
REMARK       I    between atoms: C_8  and  N_10 
REMARK    4  A    between atoms: C_15  and  C_8 
REMARK    5  A    between atoms: N_10  and  N_9 
REMARK    6  A    between atoms: C_16  and  C_11 
ROOT
ATOM      1  C   UNL d   1      -0.464  -1.430   0.152  0.00  0.00     0.122 A 
ATOM      2  N   UNL d   1       0.742  -0.780   0.261  0.00  0.00    -0.282 N 
ATOM      3  N   UNL d   1       0.651   0.552   0.111  0.00  0.00    -0.301 N 
ATOM      4  HN  UNL d   1       1.417   1.224   0.058  1.00  0.00     0.187 HD
ATOM      5  C   UNL d   1      -1.396  -0.408   0.029  0.00  0.00     0.064 A 
ATOM      6  C   UNL d   1      -0.659   0.807   0.047  0.00  0.00     0.036 A 
ENDROOT
BRANCH   1   7
ATOM      7  C   UNL d   1      -0.632  -2.866   0.070  0.00  0.00     0.288 C 
ATOM      8  N   UNL d   1      -0.093  -3.564   1.139  0.00  0.00    -0.262 N 
ATOM      9  H   UNL d   1       0.192  -3.095   1.994  0.00  0.00     0.190 HD
ATOM     10  O   UNL d   1      -1.134  -3.416  -0.905  0.00  0.00    -0.264 OA
BRANCH   8  11
ATOM     11  N   UNL d   1       0.273  -4.913   1.000  0.00  0.00    -0.263 N 
ATOM     12  C   UNL d   1      -0.559  -5.926   1.442  0.00  0.00     0.270 C 
ATOM     13  O   UNL d   1      -1.692  -5.775   1.881  0.00  0.00    -0.266 OA
ATOM     14  H   UNL d   1       1.085  -5.122   0.430  0.00  0.00     0.190 HD
BRANCH  12  15
ATOM     15  C   UNL d   1       0.054  -7.286   1.397  0.00  0.00     0.033 A 
ATOM     16  C   UNL d   1       1.373  -7.476   1.840  0.00  0.00     0.017 A 
ATOM     17  C   UNL d   1       1.922  -8.761   1.872  0.00  0.00     0.001 A 
ATOM     18  C   UNL d   1       1.163  -9.855   1.460  0.00  0.00     0.000 A 
ATOM     19  C   UNL d   1      -0.151  -9.668   1.020  0.00  0.00     0.001 A 
ATOM     20  C   UNL d   1      -0.710  -8.387   0.995  0.00  0.00     0.017 A 
ENDBRANCH  12  15
ENDBRANCH   8  11
ENDBRANCH   1   7
BRANCH   2  21
ATOM     21  C   UNL d   1       2.066  -1.337   0.515  0.00  0.00     0.188 C 
BRANCH  21  22
ATOM     22  C   UNL d   1       2.399  -1.360   1.995  0.00  0.00    -0.038 A 
ATOM     23  C   UNL d   1       3.159  -2.408   2.521  0.00  0.00     0.009 A 
ATOM     24  C   UNL d   1       3.500  -2.430   3.879  0.00  0.00     0.001 A 
ATOM     25  C   UNL d   1       3.090  -1.399   4.721  0.00  0.00     0.000 A 
ATOM     26  C   UNL d   1       2.354  -0.338   4.211  0.00  0.00     0.001 A 
ATOM     27  C   UNL d   1       2.022  -0.311   2.855  0.00  0.00     0.009 A 
ENDBRANCH  21  22
ENDBRANCH   2  21
BRANCH   6  28
ATOM     28  C   UNL d   1      -1.101   2.261  -0.009  0.00  0.00    -0.007 C 
ATOM     29  C   UNL d   1      -2.631   2.413   0.016  0.00  0.00     0.021 C 
ATOM     30  C   UNL d   1      -0.529   3.029   1.209  0.00  0.00     0.021 C 
ATOM     31  C   UNL d   1      -0.567   2.927  -1.295  0.00  0.00     0.021 C 
ENDBRANCH   6  28
TORSDOF 6
