REMARK  9 active torsions:
REMARK  status: ('A' for Active; 'I' for Inactive)
REMARK    1  A    between atoms: C_2  and  S_1 
REMARK    2  A    between atoms: N_11  and  S_1 
REMARK    3  A    between atoms: C_3  and  C_13 
REMARK    4  A    between atoms: C_4  and  C_15 
REMARK    5  A    between atoms: O_12  and  C_6 
REMARK    6  A    between atoms: C_25  and  N_11 
REMARK    7  A    between atoms: C_13  and  O_12 
REMARK    8  A    between atoms: O_23  and  C_14 
REMARK    9  A    between atoms: C_15  and  O_23 
ROOT
ATOM      1  C   UNL d   1       1.775   0.191  -3.692  0.00  0.00    -0.102 C 
ATOM      2  C   UNL d   1       2.403   0.037  -4.716  0.00  0.00     0.013 C 
ATOM      3  C   UNL d   1       0.977   0.349  -2.466  0.00  0.00     0.197 C 
ENDROOT
BRANCH   3   4
ATOM      4  N   UNL d   1       1.863   0.579  -1.323  0.00  0.00    -0.204 NA
ATOM      5  H   UNL d   1       2.629  -0.097  -1.259  0.00  0.00     0.141 HD
BRANCH   4   6
ATOM      6  S   UNL d   1       1.151   0.715   0.200  0.00  0.00     0.245 S 
ATOM      7  O   UNL d   1       0.169  -0.348   0.270  0.00  0.00    -0.206 OA
ATOM      8  O   UNL d   1       2.220   0.780   1.169  0.00  0.00    -0.206 OA
BRANCH   6   9
ATOM      9  C   UNL d   1       0.286   2.273   0.201  0.00  0.00     0.110 C 
ATOM     10  C   UNL d   1      -1.125   2.174   0.244  0.00  0.00     0.064 C 
ATOM     11  C   UNL d   1      -1.918   3.314   0.304  0.00  0.00     0.070 C 
ATOM     12  C   UNL d   1      -1.334   4.559   0.235  0.00  0.00     0.039 C 
ATOM     13  C   UNL d   1       0.047   4.666   0.163  0.00  0.00     0.041 C 
ATOM     14  C   UNL d   1       0.895   3.541   0.261  0.00  0.00     0.092 C 
BRANCH  11  15
ATOM     15  O   UNL d   1      -3.259   3.323   0.523  0.00  0.00    -0.342 OA
BRANCH  15  16
ATOM     16  C   UNL d   1      -4.007   2.380  -0.245  0.00  0.00     0.293 C 
BRANCH  16  17
ATOM     17  C   UNL d   1      -5.491   2.716  -0.163  0.00  0.00     0.408 C 
ATOM     18  F   UNL d   1      -5.731   3.875   0.490  0.00  0.00    -0.169 F 
ATOM     19  F   UNL d   1      -6.023   2.837  -1.402  0.00  0.00    -0.169 F 
ATOM     20  F   UNL d   1      -6.173   1.739   0.477  0.00  0.00    -0.169 F 
ENDBRANCH  16  17
ENDBRANCH  15  16
ENDBRANCH  11  15
BRANCH  14  21
ATOM     21  O   UNL d   1       2.254   3.711   0.490  0.00  0.00    -0.341 OA
BRANCH  21  22
ATOM     22  C   UNL d   1       2.589   5.076   0.861  0.00  0.00     0.293 C 
BRANCH  22  23
ATOM     23  C   UNL d   1       3.949   5.399   1.463  0.00  0.00     0.408 C 
ATOM     24  F   UNL d   1       4.938   4.581   1.075  0.00  0.00    -0.169 F 
ATOM     25  F   UNL d   1       4.295   6.663   1.087  0.00  0.00    -0.169 F 
ATOM     26  F   UNL d   1       3.895   5.411   2.815  0.00  0.00    -0.169 F 
ENDBRANCH  22  23
ENDBRANCH  21  22
ENDBRANCH  14  21
ENDBRANCH   6   9
ENDBRANCH   4   6
ENDBRANCH   3   4
TORSDOF 9
