REMARK  9 active torsions:
REMARK  status: ('A' for Active; 'I' for Inactive)
REMARK    1  A    between atoms: C_4  and  C_1 
REMARK    2  A    between atoms: N_6  and  C_2 
REMARK    3  A    between atoms: C_3  and  O_9 
REMARK       I    between atoms: N_7  and  C_3 
REMARK    4  A    between atoms: O_22  and  C_4 
REMARK    5  A    between atoms: C_5  and  O_10 
REMARK    6  A    between atoms: C_14  and  N_6 
REMARK    7  A    between atoms: C_19  and  N_7 
REMARK    8  A    between atoms: O_9  and  C_20 
REMARK    9  A    between atoms: O_10  and  C_21 
ROOT
ATOM      1  C   UNL d   1       3.435  -0.650  -1.115  0.00  0.00     0.012 A 
ATOM      2  C   UNL d   1       6.120   0.104  -0.855  0.00  0.00     0.081 A 
ATOM      3  C   UNL d   1       3.787   0.479  -0.364  0.00  0.00     0.026 A 
ATOM      4  C   UNL d   1       4.450  -1.382  -1.748  0.00  0.00     0.026 A 
ATOM      5  C   UNL d   1       5.125   0.860  -0.241  0.00  0.00     0.039 A 
ATOM      6  C   UNL d   1       5.791  -0.997  -1.640  0.00  0.00     0.039 A 
ENDROOT
BRANCH   2   7
ATOM      7  O   UNL d   1       7.439   0.559  -0.677  0.00  0.00    -0.261 OA
BRANCH   7   8
ATOM      8  C   UNL d   1       8.462  -0.333  -0.379  0.00  0.00     0.370 C 
ATOM      9  N   UNL d   1       9.687   0.238  -0.126  0.00  0.00    -0.302 N 
ATOM     10  H   UNL d   1      10.401  -0.471  -0.020  0.00  0.00     0.171 HD
ATOM     11  O   UNL d   1       8.347  -1.556  -0.351  0.00  0.00    -0.238 OA
BRANCH   9  12
ATOM     12  C   UNL d   1      10.093   1.580  -0.032  0.00  0.00     0.037 A 
ATOM     13  C   UNL d   1       9.237   2.678  -0.009  0.00  0.00     0.032 A 
ATOM     14  C   UNL d   1       9.735   3.992   0.046  0.00  0.00     0.039 A 
ATOM     15  C   UNL d   1      11.106   4.221   0.118  0.00  0.00     0.078 A 
ATOM     16  C   UNL d   1      11.966   3.123   0.120  0.00  0.00     0.039 A 
ATOM     17  C   UNL d   1      11.472   1.818   0.057  0.00  0.00     0.032 A 
BRANCH  15  18
ATOM     18  O   UNL d   1      11.735   5.427   0.210  0.00  0.00    -0.255 OA
BRANCH  18  19
ATOM     19  C   UNL d   1      10.966   6.614   0.287  0.00  0.00     0.530 C 
ATOM     20  F   UNL d   1       9.926   6.501   1.141  0.00  0.00    -0.144 F 
ATOM     21  F   UNL d   1      11.763   7.606   0.743  0.00  0.00    -0.144 F 
ATOM     22  F   UNL d   1      10.511   6.964  -0.934  0.00  0.00    -0.144 F 
ENDBRANCH  18  19
ENDBRANCH  15  18
ENDBRANCH   9  12
ENDBRANCH   7   8
ENDBRANCH   2   7
BRANCH   1  23
ATOM     23  N   UNL d   1       2.105  -1.149  -1.173  0.00  0.00    -0.262 NA
ATOM     24  H   UNL d   1       2.073  -2.008  -0.623  0.00  0.00     0.133 HD
BRANCH  23  25
ATOM     25  C   UNL d   1       0.984  -0.350  -0.983  0.00  0.00     0.012 C 
ATOM     26  C   UNL d   1       0.566   0.689  -1.733  0.00  0.00     0.044 C 
ATOM     27  C   UNL d   1      -0.652   1.420  -1.280  0.00  0.00     0.120 C 
ATOM     28  S   UNL d   1      -1.391   0.376   0.007  0.00  0.00    -0.159 SA
ATOM     29  C   UNL d   1       0.074  -0.676   0.180  0.00  0.00     0.126 C 
BRANCH  26  30
ATOM     30  C   UNL d   1       1.163   1.183  -2.990  0.00  0.00     0.291 C 
ATOM     31  O   UNL d   1       1.070   2.349  -3.343  0.00  0.00    -0.260 OA
BRANCH  30  32
ATOM     32  O   UNL d   1       1.684   0.164  -3.712  0.00  0.00    -0.323 OA
ATOM     33  C   UNL d   1       2.230   0.485  -4.992  0.00  0.00     0.213 C 
ENDBRANCH  30  32
ENDBRANCH  26  30
ENDBRANCH  23  25
ENDBRANCH   1  23
TORSDOF 9
