REMARK  5 active torsions:
REMARK  status: ('A' for Active; 'I' for Inactive)
REMARK    1  A    between atoms: N_2  and  S_1 
REMARK    2  A    between atoms: C_7  and  S_1 
REMARK    3  A    between atoms: N_4  and  S_3 
REMARK       I    between atoms: C_6  and  N_4 
REMARK    4  A    between atoms: C_14  and  C_6 
REMARK    5  A    between atoms: O_27  and  C_21 
ROOT
ATOM      1  N   UNL d   1       0.338   1.339   0.198  0.00  0.00    -0.305 N 
ATOM      2  S   UNL d   1      -0.722   3.026  -2.381  0.00  0.00    -0.122 SA
ATOM      3  C   UNL d   1      -1.014   1.069  -0.346  0.00  0.00     0.146 C 
ATOM      4  C   UNL d   1       0.670   2.779   0.131  0.00  0.00     0.146 C 
ATOM      5  C   UNL d   1       0.691   3.353  -1.284  0.00  0.00     0.105 C 
ATOM      6  C   UNL d   1      -1.091   1.323  -1.840  0.00  0.00     0.105 C 
ENDROOT
BRANCH   2   7
ATOM      7  N   UNL d   1      -1.828   3.784  -1.673  0.00  0.00    -0.306 N 
ATOM      8  C   UNL d   1      -3.028   3.673  -2.287  0.00  0.00     0.261 C 
ATOM      9  O   UNL d   1      -3.588   2.647  -2.685  0.00  0.00    -0.267 OA
ATOM     10  HN  UNL d   1      -1.682   4.325  -0.821  1.00  0.00     0.176 HD
BRANCH   8  11
ATOM     11  C   UNL d   1      -3.812   4.931  -2.474  0.00  0.00     0.033 A 
ATOM     12  C   UNL d   1      -4.780   4.944  -3.489  0.00  0.00     0.020 A 
ATOM     13  C   UNL d   1      -5.587   6.065  -3.703  0.00  0.00     0.038 A 
ATOM     14  C   UNL d   1      -5.429   7.192  -2.901  0.00  0.00     0.068 A 
ATOM     15  C   UNL d   1      -4.480   7.180  -1.873  0.00  0.00     0.038 A 
ATOM     16  C   UNL d   1      -3.662   6.061  -1.667  0.00  0.00     0.020 A 
BRANCH  14  17
ATOM     17  O   UNL d   1      -6.169   8.341  -3.013  0.00  0.00    -0.356 OA
ATOM     18  C   UNL d   1      -6.678   8.603  -4.317  0.00  0.00     0.210 C 
ENDBRANCH  14  17
ENDBRANCH   8  11
ENDBRANCH   2   7
BRANCH   1  19
ATOM     19  S   UNL d   1       1.523   0.152   0.174  0.00  0.00     0.260 S 
ATOM     20  O   UNL d   1       0.896  -1.143   0.343  0.00  0.00    -0.200 OA
ATOM     21  O   UNL d   1       2.574   0.561   1.094  0.00  0.00    -0.200 OA
BRANCH  19  22
ATOM     22  C   UNL d   1       2.257   0.159  -1.452  0.00  0.00     0.079 A 
ATOM     23  C   UNL d   1       3.445   0.869  -1.668  0.00  0.00     0.027 A 
ATOM     24  C   UNL d   1       4.073   0.809  -2.916  0.00  0.00     0.025 A 
ATOM     25  C   UNL d   1       3.519   0.038  -3.938  0.00  0.00     0.034 A 
ATOM     26  C   UNL d   1       2.356  -0.698  -3.714  0.00  0.00     0.025 A 
ATOM     27 CL   UNL d   1       4.296  -0.032  -5.472  0.00  0.00    -0.084 Cl
ATOM     28  C   UNL d   1       1.739  -0.660  -2.460  0.00  0.00     0.027 A 
ENDBRANCH  19  22
ENDBRANCH   1  19
TORSDOF 5
