REMARK  3 active torsions:
REMARK  status: ('A' for Active; 'I' for Inactive)
REMARK    1  A    between atoms: C_12  and  N_4 
REMARK    2  A    between atoms: N_11  and  C_5 
REMARK    3  A    between atoms: O_18  and  C_10 
ROOT
ATOM      1  C   UNL d   1      -0.056   0.716  -0.011  0.00  0.00     0.140 A 
ATOM      2  C   UNL d   1      -0.006  -0.640   0.048  0.00  0.00     0.113 A 
ATOM      3  N   UNL d   1      -1.326   1.324  -0.133  0.00  0.00    -0.288 N 
ATOM      4  N   UNL d   1       1.185   1.440  -0.011  0.00  0.00    -0.261 N 
ATOM      5  C   UNL d   1       2.402  -0.677  -0.002  0.00  0.00     0.205 A 
ATOM      6  N   UNL d   1      -2.453  -0.738   0.094  0.00  0.00    -0.270 N 
ATOM      7  C   UNL d   1      -2.534   0.630   0.017  0.00  0.00     0.332 C 
ATOM      8  C   UNL d   1      -1.273  -1.424   0.043  0.00  0.00     0.268 C 
ATOM      9  C   UNL d   1       2.451   0.781  -0.042  0.00  0.00     0.290 A 
ATOM     10  C   UNL d   1       1.265  -1.364   0.061  0.00  0.00     0.124 A 
ATOM     11  O   UNL d   1      -3.622   1.210   0.044  0.00  0.00    -0.246 OA
ATOM     12  O   UNL d   1      -1.221  -2.656   0.000  0.00  0.00    -0.267 OA
ATOM     13  O   UNL d   1       3.538   1.356  -0.062  0.00  0.00    -0.265 OA
ATOM     14  C   UNL d   1      -1.538   2.719  -0.505  0.00  0.00     0.163 C 
ATOM     15  C   UNL d   1      -3.679  -1.520   0.095  0.00  0.00     0.164 C 
ENDROOT
BRANCH   4  16
ATOM     16  C   UNL d   1       1.304   2.865   0.116  0.00  0.00     0.044 A 
ATOM     17  C   UNL d   1       1.956   3.598  -0.889  0.00  0.00     0.030 A 
ATOM     18  C   UNL d   1       2.005   4.991  -0.830  0.00  0.00     0.002 A 
ATOM     19  C   UNL d   1       1.423   5.660   0.244  0.00  0.00     0.000 A 
ATOM     20  C   UNL d   1       0.824   4.936   1.276  0.00  0.00     0.002 A 
ATOM     21  C   UNL d   1       0.776   3.540   1.223  0.00  0.00     0.030 A 
ENDBRANCH   4  16
BRANCH   5  22
ATOM     22  N   UNL d   1       3.637  -1.389  -0.008  0.00  0.00    -0.107 N 
ATOM     23  O   UNL d   1       4.144  -1.654   1.090  0.00  0.00    -0.531 OA
ATOM     24  O   UNL d   1       4.106  -1.691  -1.116  0.00  0.00    -0.531 OA
ENDBRANCH   5  22
BRANCH  10  25
ATOM     25  O   UNL d   1       1.260  -2.749   0.108  0.00  0.00    -0.357 OA
ATOM     26  H   UNL d   1       0.340  -3.100   0.071  0.00  0.00     0.217 HD
ENDBRANCH  10  25
TORSDOF 3
