REMARK  4 active torsions:
REMARK  status: ('A' for Active; 'I' for Inactive)
REMARK    1  A    between atoms: S_16  and  C_3 
REMARK    2  A    between atoms: C_7  and  O_12 
REMARK    3  A    between atoms: C_10  and  C_7 
REMARK    4  A    between atoms: O_12  and  N_8 
ROOT
ATOM      1  C   UNL d   1       0.120  -0.798   0.040  0.00  0.00     0.020 A 
ATOM      2  C   UNL d   1       0.371   0.632   0.017  0.00  0.00    -0.019 A 
ATOM      3  C   UNL d   1       1.283  -1.527  -0.142  0.00  0.00     0.054 A 
ATOM      4  S   UNL d   1       2.667  -0.511  -0.136  0.00  0.00    -0.074 SA
ATOM      5  C   UNL d   1       1.721   0.888  -0.047  0.00  0.00     0.060 A 
ATOM      6  C   UNL d   1      -1.248  -1.294   0.188  0.00  0.00     0.046 C 
ATOM      7  N   UNL d   1      -1.452  -2.435   0.774  0.00  0.00    -0.261 N 
ATOM      8  HN  UNL d   1      -0.711  -3.062   1.087  1.00  0.00     0.194 HD
ATOM      9  C   UNL d   1      -0.748   1.647   0.021  0.00  0.00     0.050 C 
ATOM     10  C   UNL d   1      -2.128   1.052   0.414  0.00  0.00    -0.038 C 
ATOM     11  C   UNL d   1      -2.332  -0.324  -0.262  0.00  0.00     0.069 C 
ATOM     12 BR   UNL d   1       2.481   2.605  -0.078  0.00  0.00    -0.042 Br
ATOM     13  C   UNL d   1      -3.241   2.003  -0.064  0.00  0.00     0.015 C 
ATOM     14  C   UNL d   1      -2.236   0.923   1.948  0.00  0.00     0.015 C 
ENDROOT
BRANCH   7  15
ATOM     15  O   UNL d   1      -2.831  -2.695   0.922  0.00  0.00    -0.194 OA
BRANCH  15  16
ATOM     16  C   UNL d   1      -3.062  -3.777   1.742  0.00  0.00     0.322 C 
ATOM     17  O   UNL d   1      -2.195  -4.455   2.291  0.00  0.00    -0.257 OA
BRANCH  16  18
ATOM     18  C   UNL d   1      -4.494  -4.024   1.880  0.00  0.00     0.082 A 
ATOM     19  S   UNL d   1      -5.684  -2.993   1.195  0.00  0.00    -0.096 SA
ATOM     20  C   UNL d   1      -6.969  -3.963   1.771  0.00  0.00     0.050 A 
ATOM     21  C   UNL d   1      -6.514  -5.046   2.486  0.00  0.00     0.009 A 
ATOM     22  C   UNL d   1      -5.091  -5.074   2.560  0.00  0.00     0.026 A 
ENDBRANCH  16  18
ENDBRANCH  15  16
ENDBRANCH   7  15
BRANCH   3  23
ATOM     23  S   UNL d   1       1.450  -3.243  -0.498  0.00  0.00    -0.126 SA
ATOM     24  C   UNL d   1       1.919  -3.888   1.119  0.00  0.00     0.096 C 
ENDBRANCH   3  23
TORSDOF 4
