REMARK  4 active torsions:
REMARK  status: ('A' for Active; 'I' for Inactive)
REMARK    1  A    between atoms: C_15  and  N_1 
REMARK    2  A    between atoms: C_7  and  C_4 
REMARK       I    between atoms: N_10  and  C_7 
REMARK       I    between atoms: C_9  and  N_11 
REMARK    3  A    between atoms: C_12  and  C_9 
REMARK    4  A    between atoms: N_11  and  N_10 
ROOT
ATOM      1  C   UNL d   1      -0.763   2.578  -0.010  0.00  0.00     0.289 C 
ATOM      2  N   UNL d   1       0.235   3.529   0.070  0.00  0.00    -0.262 N 
ATOM      3  O   UNL d   1      -1.950   2.882  -0.131  0.00  0.00    -0.264 OA
ATOM      4  H   UNL d   1       1.215   3.274   0.186  0.00  0.00     0.190 HD
ENDROOT
BRANCH   1   5
ATOM      5  C   UNL d   1      -0.305   1.193   0.021  0.00  0.00     0.136 A 
ATOM      6  N   UNL d   1       0.987   0.812   0.014  0.00  0.00    -0.273 N 
ATOM      7  N   UNL d   1       0.888  -0.553  -0.052  0.00  0.00    -0.197 N 
ATOM      8  HN  UNL d   1       1.826   1.392   0.048  1.00  0.00     0.189 HD
ATOM      9  N   UNL d   1      -0.376  -1.055  -0.022  0.00  0.00    -0.288 N 
ATOM     10  C   UNL d   1      -1.120   0.050   0.014  0.00  0.00     0.146 A 
ATOM     11  HN  UNL d   1      -0.677  -2.029  -0.027  1.00  0.00     0.188 HD
BRANCH   7  12
ATOM     12  C   UNL d   1       2.021  -1.399  -0.181  0.00  0.00     0.074 A 
ATOM     13  C   UNL d   1       3.314  -0.859  -0.185  0.00  0.00     0.033 A 
ATOM     14  C   UNL d   1       4.420  -1.701  -0.328  0.00  0.00     0.002 A 
ATOM     15  C   UNL d   1       4.242  -3.078  -0.472  0.00  0.00     0.000 A 
ATOM     16  C   UNL d   1       2.958  -3.620  -0.470  0.00  0.00     0.002 A 
ATOM     17  C   UNL d   1       1.847  -2.785  -0.322  0.00  0.00     0.033 A 
ENDBRANCH   7  12
ENDBRANCH   1   5
BRANCH   2  18
ATOM     18  N   UNL d   1      -0.099   4.878  -0.119  0.00  0.00    -0.263 N 
ATOM     19  C   UNL d   1       0.704   5.849   0.443  0.00  0.00     0.270 C 
ATOM     20  O   UNL d   1       1.731   5.606   1.067  0.00  0.00    -0.266 OA
ATOM     21  H   UNL d   1      -1.063   5.060  -0.397  0.00  0.00     0.190 HD
BRANCH  19  22
ATOM     22  C   UNL d   1       0.252   7.256   0.256  0.00  0.00     0.035 A 
ATOM     23  C   UNL d   1      -0.427   7.661  -0.900  0.00  0.00     0.042 A 
ATOM     24  C   UNL d   1      -0.785   9.004  -1.069  0.00  0.00     0.056 A 
ATOM     25 CL   UNL d   1      -1.602   9.435  -2.531  0.00  0.00    -0.083 Cl
ATOM     26  C   UNL d   1      -0.470   9.947  -0.084  0.00  0.00     0.055 A 
ATOM     27  C   UNL d   1       0.207   9.541   1.070  0.00  0.00     0.026 A 
ATOM     28 CL   UNL d   1      -0.874  11.619  -0.235  0.00  0.00    -0.083 Cl
ATOM     29  C   UNL d   1       0.575   8.202   1.237  0.00  0.00     0.019 A 
ENDBRANCH  19  22
ENDBRANCH   2  18
TORSDOF 4
