REMARK  4 active torsions:
REMARK  status: ('A' for Active; 'I' for Inactive)
REMARK    1  A    between atoms: N_2  and  S_1 
REMARK    2  A    between atoms: C_5  and  S_1 
REMARK    3  A    between atoms: S_4  and  N_2 
REMARK    4  A    between atoms: C_7  and  S_4 
ROOT
ATOM      1  N   UNL d   1       0.433   0.397   1.412  0.00  0.00    -0.236 N 
ATOM      2  HN  UNL d   1      -0.178   1.213   1.434  1.00  0.00     0.189 HD
ENDROOT
BRANCH   1   3
ATOM      3  S   UNL d   1       0.976  -0.174  -0.084  0.00  0.00     0.271 S 
ATOM      4  O   UNL d   1      -0.159  -0.336  -0.972  0.00  0.00    -0.200 OA
ATOM      5  O   UNL d   1       1.904  -1.270   0.095  0.00  0.00    -0.200 OA
BRANCH   3   6
ATOM      6  C   UNL d   1       1.907   1.217  -0.676  0.00  0.00     0.103 A 
ATOM      7  C   UNL d   1       3.279   1.045  -0.924  0.00  0.00     0.050 A 
ATOM      8  C   UNL d   1       4.037   2.120  -1.381  0.00  0.00     0.035 A 
ATOM      9 CL   UNL d   1       5.718   1.919  -1.680  0.00  0.00    -0.084 Cl
ATOM     10  C   UNL d   1       3.443   3.361  -1.598  0.00  0.00     0.025 A 
ATOM     11  C   UNL d   1       2.077   3.526  -1.363  0.00  0.00     0.027 A 
ATOM     12  C   UNL d   1       1.300   2.456  -0.903  0.00  0.00     0.057 A 
ATOM     13 CL   UNL d   1      -0.374   2.780  -0.630  0.00  0.00    -0.083 Cl
ENDBRANCH   3   6
ENDBRANCH   1   3
BRANCH   1  14
ATOM     14  S   UNL d   1       0.856  -0.320   2.842  0.00  0.00     0.061 S 
ATOM     15  O   UNL d   1       2.277  -0.282   3.085  0.00  0.00    -0.244 OA
ATOM     16  C   UNL d   1      -0.007   0.585   4.091  0.00  0.00     0.143 C 
BRANCH  14  17
ATOM     17  C   UNL d   1       0.222  -1.947   2.798  0.00  0.00     0.039 A 
ATOM     18  C   UNL d   1       1.102  -3.025   2.891  0.00  0.00     0.023 A 
ATOM     19  C   UNL d   1       0.601  -4.327   2.845  0.00  0.00     0.025 A 
ATOM     20  C   UNL d   1      -0.771  -4.539   2.709  0.00  0.00     0.034 A 
ATOM     21  C   UNL d   1      -1.649  -3.458   2.615  0.00  0.00     0.025 A 
ATOM     22 CL   UNL d   1      -1.387  -6.144   2.655  0.00  0.00    -0.084 Cl
ATOM     23  C   UNL d   1      -1.153  -2.153   2.657  0.00  0.00     0.023 A 
ENDBRANCH  14  17
ENDBRANCH   1  14
TORSDOF 4
