REMARK  2 active torsions:
REMARK  status: ('A' for Active; 'I' for Inactive)
REMARK    1  A    between atoms: C_4  and  C_1 
REMARK    2  A    between atoms: C_13  and  C_7 
ROOT
ATOM      1  N   UNL d   1      -2.803  -2.508   0.911  0.00  0.00    -0.348 N 
ATOM      2  HN  UNL d   1      -2.096  -2.816   1.579  1.00  0.00     0.166 HD
ATOM      3  C   UNL d   1      -2.640  -1.536   0.031  0.00  0.00     0.103 A 
ATOM      4  C   UNL d   1      -4.077  -3.047   0.794  0.00  0.00     0.050 A 
ATOM      5  S   UNL d   1      -3.978  -1.261  -1.014  0.00  0.00    -0.080 SA
ATOM      6  C   UNL d   1      -4.836  -2.519  -0.233  0.00  0.00     0.082 A 
ENDROOT
BRANCH   3   7
ATOM      7  C   UNL d   1      -1.370  -0.739  -0.047  0.00  0.00     0.091 A 
ATOM      8  N   UNL d   1      -1.196   0.298  -0.879  0.00  0.00    -0.258 N 
ATOM      9  O   UNL d   1       0.092   0.749  -0.654  0.00  0.00    -0.242 OA
ATOM     10  HN  UNL d   1      -1.873   0.675  -1.542  1.00  0.00     0.195 HD
ATOM     11  C   UNL d   1       0.682  -0.022   0.298  0.00  0.00     0.074 A 
ATOM     12  C   UNL d   1      -0.210  -0.972   0.728  0.00  0.00     0.068 A 
ATOM     13  C   UNL d   1       2.076   0.312   0.637  0.00  0.00     0.079 C 
ENDBRANCH   3   7
BRANCH   4  14
ATOM     14  C   UNL d   1      -4.543  -4.096   1.694  0.00  0.00    -0.009 A 
ATOM     15  C   UNL d   1      -5.902  -4.226   2.022  0.00  0.00     0.015 A 
ATOM     16  C   UNL d   1      -6.332  -5.229   2.895  0.00  0.00     0.024 A 
ATOM     17  C   UNL d   1      -5.406  -6.110   3.448  0.00  0.00     0.034 A 
ATOM     18  C   UNL d   1      -4.052  -5.992   3.140  0.00  0.00     0.024 A 
ATOM     19 CL   UNL d   1      -5.937  -7.345   4.521  0.00  0.00    -0.084 Cl
ATOM     20  C   UNL d   1      -3.623  -4.985   2.269  0.00  0.00     0.015 A 
ENDBRANCH   4  14
TORSDOF 2
