REMARK  5 active torsions:
REMARK  status: ('A' for Active; 'I' for Inactive)
REMARK    1  A    between atoms: C_5  and  C_1 
REMARK    2  A    between atoms: C_7  and  C_2 
REMARK       I    between atoms: N_9  and  C_7 
REMARK    3  A    between atoms: N_12  and  N_9 
REMARK    4  A    between atoms: C_17  and  N_12 
REMARK    5  A    between atoms: C_20  and  C_14 
ROOT
ATOM      1  C   UNL d   1       1.981  -1.499   1.728  0.00  0.00     0.088 A 
ATOM      2  C   UNL d   1       1.344  -2.670   1.172  0.00  0.00     0.094 A 
ATOM      3  N   UNL d   1       2.746  -1.857   2.776  0.00  0.00    -0.259 N 
ATOM      4  HN  UNL d   1       3.251  -1.227   3.400  1.00  0.00     0.195 HD
ATOM      5  O   UNL d   1       2.719  -3.219   2.847  0.00  0.00    -0.241 OA
ATOM      6  C   UNL d   1       1.901  -3.716   1.887  0.00  0.00     0.090 A 
ATOM      7  C   UNL d   1       1.858  -5.193   1.858  0.00  0.00     0.080 C 
ENDROOT
BRANCH   2   8
ATOM      8  C   UNL d   1       0.380  -2.751   0.084  0.00  0.00     0.271 C 
ATOM      9  N   UNL d   1      -0.529  -3.798   0.183  0.00  0.00    -0.282 N 
ATOM     10  H   UNL d   1      -0.526  -4.461   0.942  0.00  0.00     0.184 HD
ATOM     11  O   UNL d   1       0.345  -1.936  -0.835  0.00  0.00    -0.266 OA
BRANCH   9  12
ATOM     12  N   UNL d   1      -1.508  -3.946  -0.821  0.00  0.00    -0.203 NA
ATOM     13  H   UNL d   1      -1.639  -3.062  -1.328  0.00  0.00     0.153 HD
BRANCH  12  14
ATOM     14  C   UNL d   1      -2.743  -4.508  -0.403  0.00  0.00     0.027 A 
ATOM     15  C   UNL d   1      -3.919  -4.138  -1.074  0.00  0.00     0.026 A 
ATOM     16  C   UNL d   1      -5.148  -4.745  -0.784  0.00  0.00     0.009 A 
ATOM     17  C   UNL d   1      -5.241  -5.768   0.167  0.00  0.00    -0.055 A 
ATOM     18  C   UNL d   1      -4.067  -6.157   0.824  0.00  0.00     0.009 A 
ATOM     19  C   UNL d   1      -2.838  -5.547   0.531  0.00  0.00     0.026 A 
BRANCH  17  20
ATOM     20  C   UNL d   1      -6.553  -6.476   0.466  0.00  0.00     0.010 C 
ATOM     21  C   UNL d   1      -7.600  -5.520   1.044  0.00  0.00     0.015 C 
ATOM     22  C   UNL d   1      -7.098  -7.195  -0.772  0.00  0.00     0.015 C 
ENDBRANCH  17  20
ENDBRANCH  12  14
ENDBRANCH   9  12
ENDBRANCH   2   8
BRANCH   1  23
ATOM     23  C   UNL d   1       1.870  -0.079   1.379  0.00  0.00     0.054 A 
ATOM     24  C   UNL d   1       0.613   0.483   1.123  0.00  0.00     0.130 A 
ATOM     25  F   UNL d   1      -0.501  -0.262   1.218  0.00  0.00    -0.205 F 
ATOM     26  C   UNL d   1       0.457   1.836   0.805  0.00  0.00     0.043 A 
ATOM     27  C   UNL d   1       1.561   2.676   0.778  0.00  0.00     0.005 A 
ATOM     28  C   UNL d   1       2.822   2.155   1.056  0.00  0.00     0.025 A 
ATOM     29  C   UNL d   1       2.982   0.788   1.340  0.00  0.00     0.049 A 
ATOM     30 CL   UNL d   1       4.616   0.267   1.600  0.00  0.00    -0.083 Cl
ENDBRANCH   1  23
TORSDOF 5
