REMARK  6 active torsions:
REMARK  status: ('A' for Active; 'I' for Inactive)
REMARK    1  A    between atoms: C_2  and  C_1 
REMARK       I    between atoms: N_6  and  C_1 
REMARK    2  A    between atoms: O_11  and  C_3 
REMARK    3  A    between atoms: O_13  and  C_4 
REMARK    4  A    between atoms: O_12  and  C_5 
REMARK    5  A    between atoms: C_10  and  N_6 
REMARK    6  A    between atoms: O_19  and  C_14 
ROOT
ATOM      1  C   UNL d   1       0.234   0.246   1.271  0.00  0.00     0.037 A 
ATOM      2  C   UNL d   1      -1.222   0.978   3.558  0.00  0.00     0.135 A 
ATOM      3  C   UNL d   1      -1.636  -0.114   2.757  0.00  0.00     0.105 A 
ATOM      4  C   UNL d   1      -0.064   1.703   3.207  0.00  0.00     0.105 A 
ATOM      5  C   UNL d   1       0.654   1.317   2.071  0.00  0.00     0.057 A 
ATOM      6  C   UNL d   1      -0.918  -0.462   1.608  0.00  0.00     0.057 A 
ENDROOT
BRANCH   1   7
ATOM      7  C   UNL d   1       0.994  -0.018   0.020  0.00  0.00     0.256 C 
ATOM      8  N   UNL d   1       0.980  -1.320  -0.450  0.00  0.00    -0.323 N 
ATOM      9  H   UNL d   1       0.543  -2.027   0.125  0.00  0.00     0.169 HD
ATOM     10  O   UNL d   1       1.576   0.936  -0.489  0.00  0.00    -0.267 OA
BRANCH   8  11
ATOM     11  C   UNL d   1       1.523  -1.771  -1.674  0.00  0.00     0.035 A 
ATOM     12  C   UNL d   1       2.188  -0.938  -2.575  0.00  0.00     0.032 A 
ATOM     13  C   UNL d   1       2.654  -1.425  -3.800  0.00  0.00     0.039 A 
ATOM     14  C   UNL d   1       2.456  -2.757  -4.150  0.00  0.00     0.068 A 
ATOM     15  C   UNL d   1       1.820  -3.605  -3.241  0.00  0.00     0.039 A 
ATOM     16  C   UNL d   1       1.359  -3.119  -2.010  0.00  0.00     0.032 A 
BRANCH  14  17
ATOM     17  O   UNL d   1       2.829  -3.333  -5.332  0.00  0.00    -0.356 OA
ATOM     18  C   UNL d   1       3.381  -2.459  -6.313  0.00  0.00     0.210 C 
ENDBRANCH  14  17
ENDBRANCH   8  11
ENDBRANCH   1   7
BRANCH   4  19
ATOM     19  O   UNL d   1       0.292   2.784   3.970  0.00  0.00    -0.353 OA
ATOM     20  C   UNL d   1       1.455   3.517   3.600  0.00  0.00     0.210 C 
ENDBRANCH   4  19
BRANCH   3  21
ATOM     21  O   UNL d   1      -2.786  -0.765   3.142  0.00  0.00    -0.353 OA
ATOM     22  C   UNL d   1      -2.948  -2.099   2.674  0.00  0.00     0.210 C 
ENDBRANCH   3  21
BRANCH   2  23
ATOM     23  O   UNL d   1      -2.070   1.274   4.601  0.00  0.00    -0.351 OA
ATOM     24  C   UNL d   1      -1.512   1.869   5.764  0.00  0.00     0.210 C 
ENDBRANCH   2  23
TORSDOF 6
