REMARK  6 active torsions:
REMARK  status: ('A' for Active; 'I' for Inactive)
REMARK    1  A    between atoms: C_8  and  C_1 
REMARK    2  A    between atoms: N_7  and  C_2 
REMARK    3  A    between atoms: C_21  and  N_3 
REMARK    4  A    between atoms: S_10  and  C_8 
REMARK    5  A    between atoms: C_9  and  C_12 
REMARK    6  A    between atoms: C_20  and  S_10 
ROOT
ATOM      1  C   UNL d   1      -0.636  -2.630  -0.232  0.00  0.00     0.244 C 
ATOM      2  O   UNL d   1      -0.025  -3.498  -0.840  0.00  0.00    -0.278 OA
ENDROOT
BRANCH   1   3
ATOM      3  C   UNL d   1      -0.189  -1.261  -0.161  0.00  0.00     0.143 A 
ATOM      4  C   UNL d   1       1.127  -0.822  -0.040  0.00  0.00     0.159 A 
ATOM      5  C   UNL d   1       1.092   0.586  -0.089  0.00  0.00     0.057 A 
ATOM      6  C   UNL d   1       2.196   1.575   0.008  0.00  0.00     0.072 C 
ATOM      7  N   UNL d   1      -0.162   1.020  -0.250  0.00  0.00    -0.300 N 
ATOM      8  N   UNL d   1      -0.904  -0.104  -0.378  0.00  0.00    -0.286 N 
ATOM      9  HN  UNL d   1      -0.488   1.986  -0.272  1.00  0.00     0.187 HD
BRANCH   4  10
ATOM     10  N   UNL d   1       2.285  -1.648   0.097  0.00  0.00    -0.111 N 
ATOM     11  O   UNL d   1       2.252  -2.508   0.987  0.00  0.00    -0.532 OA
ATOM     12  O   UNL d   1       3.232  -1.407  -0.661  0.00  0.00    -0.532 OA
ENDBRANCH   4  10
BRANCH   8  13
ATOM     13  C   UNL d   1      -2.231   0.059  -0.953  0.00  0.00     0.145 C 
ATOM     14  C   UNL d   1      -3.169   0.866  -0.072  0.00  0.00     0.028 C 
ENDBRANCH   8  13
ENDBRANCH   1   3
BRANCH   1  15
ATOM     15  S   UNL d   1      -2.118  -3.028   0.628  0.00  0.00    -0.046 SA
BRANCH  15  16
ATOM     16  C   UNL d   1      -1.533  -3.605   2.214  0.00  0.00     0.008 A 
ATOM     17  C   UNL d   1      -2.386  -3.466   3.317  0.00  0.00     0.020 A 
ATOM     18  C   UNL d   1      -1.928  -3.728   4.613  0.00  0.00     0.017 A 
ATOM     19  C   UNL d   1      -0.606  -4.135   4.827  0.00  0.00     0.048 A 
ATOM     20  C   UNL d   1       0.205  -4.392   3.714  0.00  0.00     0.017 A 
ATOM     21  C   UNL d   1      -0.261  -4.143   2.419  0.00  0.00     0.020 A 
BRANCH  19  22
ATOM     22  C   UNL d   1      -0.026  -4.226   6.218  0.00  0.00     0.417 C 
ATOM     23  F   UNL d   1      -0.920  -3.924   7.201  0.00  0.00    -0.166 F 
ATOM     24  F   UNL d   1       0.460  -5.460   6.516  0.00  0.00    -0.166 F 
ATOM     25  F   UNL d   1       1.014  -3.361   6.391  0.00  0.00    -0.166 F 
ENDBRANCH  19  22
ENDBRANCH  15  16
ENDBRANCH   1  15
TORSDOF 6
