REMARK  6 active torsions:
REMARK  status: ('A' for Active; 'I' for Inactive)
REMARK    1  A    between atoms: N_4  and  C_3 
REMARK    2  A    between atoms: C_12  and  C_5 
REMARK    3  A    between atoms: C_8  and  C_13 
REMARK    4  A    between atoms: C_9  and  C_14 
REMARK    5  A    between atoms: C_22  and  C_11 
REMARK    6  A    between atoms: C_17  and  C_23 
ROOT
ATOM      1  N   UNL d   1       1.294   0.124  -0.026  0.00  0.00    -0.319 N 
ATOM      2  HN  UNL d   1       2.302   0.258  -0.113  1.00  0.00     0.169 HD
ATOM      3  C   UNL d   1       0.314   1.086   0.061  0.00  0.00     0.138 A 
ATOM      4  N   UNL d   1      -0.922   0.585   0.174  0.00  0.00    -0.242 N 
ATOM      5  HN  UNL d   1      -1.802   1.095   0.256  1.00  0.00     0.196 HD
ATOM      6  C   UNL d   1       0.626  -1.015   0.030  0.00  0.00     0.171 A 
ATOM      7  O   UNL d   1      -0.728  -0.784   0.152  0.00  0.00    -0.218 OA
ENDROOT
BRANCH   3   8
ATOM      8  C   UNL d   1       0.600   2.514  -0.012  0.00  0.00     0.011 A 
ATOM      9  C   UNL d   1       1.915   2.975  -0.171  0.00  0.00     0.031 A 
ATOM     10  C   UNL d   1       2.188   4.348  -0.311  0.00  0.00     0.049 A 
ATOM     11  C   UNL d   1       1.121   5.260  -0.276  0.00  0.00     0.032 A 
ATOM     12  C   UNL d   1      -0.202   4.822  -0.123  0.00  0.00     0.049 A 
ATOM     13  C   UNL d   1      -0.447   3.448   0.024  0.00  0.00     0.031 A 
BRANCH  10  14
ATOM     14  C   UNL d   1       3.604   4.823  -0.544  0.00  0.00     0.417 C 
ATOM     15  F   UNL d   1       3.697   6.171  -0.717  0.00  0.00    -0.166 F 
ATOM     16  F   UNL d   1       4.436   4.520   0.488  0.00  0.00    -0.166 F 
ATOM     17  F   UNL d   1       4.159   4.267  -1.655  0.00  0.00    -0.166 F 
ENDBRANCH  10  14
BRANCH  12  18
ATOM     18  C   UNL d   1      -1.360   5.790  -0.167  0.00  0.00     0.417 C 
ATOM     19  F   UNL d   1      -0.977   7.079  -0.380  0.00  0.00    -0.166 F 
ATOM     20  F   UNL d   1      -2.238   5.492  -1.164  0.00  0.00    -0.166 F 
ATOM     21  F   UNL d   1      -2.083   5.796   0.985  0.00  0.00    -0.166 F 
ENDBRANCH  12  18
ENDBRANCH   3   8
BRANCH   6  22
ATOM     22  C   UNL d   1       1.140  -2.336  -0.019  0.00  0.00     0.059 C 
ATOM     23  C   UNL d   1       2.453  -2.591  -0.137  0.00  0.00     0.016 C 
BRANCH  23  24
ATOM     24  C   UNL d   1       3.027  -3.905  -0.179  0.00  0.00    -0.027 A 
ATOM     25  C   UNL d   1       2.316  -5.144  -0.106  0.00  0.00     0.055 A 
ATOM     26  C   UNL d   1       3.164  -6.228  -0.168  0.00  0.00     0.144 A 
ATOM     27  S   UNL d   1       4.795  -5.779  -0.311  0.00  0.00    -0.077 SA
ATOM     28  C   UNL d   1       4.389  -4.111  -0.295  0.00  0.00     0.063 A 
BRANCH  26  29
ATOM     29  N   UNL d   1       2.775  -7.612  -0.123  0.00  0.00    -0.108 N 
ATOM     30  O   UNL d   1       1.558  -7.835  -0.016  0.00  0.00    -0.531 OA
ATOM     31  O   UNL d   1       3.656  -8.475  -0.186  0.00  0.00    -0.531 OA
ENDBRANCH  26  29
ENDBRANCH  23  24
ENDBRANCH   6  22
TORSDOF 6
