REMARK  3 active torsions:
REMARK  status: ('A' for Active; 'I' for Inactive)
REMARK       I    between atoms: C_4  and  N_1 
REMARK       I    between atoms: N_13  and  C_4 
REMARK    1  A    between atoms: C_20  and  C_9 
REMARK    2  A    between atoms: C_10  and  C_15 
REMARK    3  A    between atoms: C_18  and  N_13 
ROOT
ATOM      1  N   UNL d   1       0.923  -0.908  -0.292  0.00  0.00    -0.203 N 
ATOM      2  C   UNL d   1      -0.361  -1.223   0.146  0.00  0.00     0.098 C 
ATOM      3  C   UNL d   1      -0.808  -2.501   0.616  0.00  0.00     0.130 C 
ATOM      4  C   UNL d   1       2.133  -1.637  -0.165  0.00  0.00     0.346 C 
ATOM      5  C   UNL d   1      -0.257  -3.396   1.505  0.00  0.00     0.074 C 
ATOM      6  N   UNL d   1      -2.104  -4.353   0.627  0.00  0.00    -0.260 N 
ATOM      7  HN  UNL d   1      -2.865  -5.002   0.430  1.00  0.00     0.195 HD
ATOM      8  O   UNL d   1      -1.967  -3.066   0.147  0.00  0.00    -0.235 OA
ATOM      9  C   UNL d   1      -1.035  -4.576   1.403  0.00  0.00     0.068 C 
ATOM     10  N   UNL d   1       0.938   0.287  -0.979  0.00  0.00    -0.301 N 
ATOM     11  HN  UNL d   1       1.712   0.704  -1.495  1.00  0.00     0.186 HD
ATOM     12  N   UNL d   1       3.060  -1.226  -1.102  0.00  0.00    -0.307 N 
ATOM     13  C   UNL d   1      -1.142  -0.120  -0.140  0.00  0.00     0.053 C 
ATOM     14  C   UNL d   1      -0.296   0.772  -0.811  0.00  0.00     0.110 C 
ATOM     15  O   UNL d   1       2.233  -2.530   0.661  0.00  0.00    -0.245 OA
ATOM     16  H   UNL d   1       2.731  -0.524  -1.764  0.00  0.00     0.170 HD
ENDROOT
BRANCH  12  17
ATOM     17  C   UNL d   1       4.318  -1.825  -1.309  0.00  0.00     0.037 A 
ATOM     18  C   UNL d   1       4.924  -2.661  -0.364  0.00  0.00     0.045 A 
ATOM     19  C   UNL d   1       6.162  -3.272  -0.617  0.00  0.00     0.050 A 
ATOM     20  C   UNL d   1       6.795  -3.031  -1.843  0.00  0.00     0.016 A 
ATOM     21  C   UNL d   1       6.204  -2.190  -2.786  0.00  0.00     0.003 A 
ATOM     22  C   UNL d   1       4.976  -1.579  -2.515  0.00  0.00     0.029 A 
BRANCH  19  23
ATOM     23  C   UNL d   1       6.813  -4.152   0.423  0.00  0.00     0.417 C 
ATOM     24  F   UNL d   1       6.009  -4.436   1.485  0.00  0.00    -0.166 F 
ATOM     25  F   UNL d   1       7.201  -5.357  -0.080  0.00  0.00    -0.166 F 
ATOM     26  F   UNL d   1       7.935  -3.587   0.948  0.00  0.00    -0.166 F 
ENDBRANCH  19  23
ENDBRANCH  12  17
BRANCH   9  27
ATOM     27  C   UNL d   1      -0.756  -5.878   2.002  0.00  0.00    -0.007 A 
ATOM     28  C   UNL d   1      -1.800  -6.711   2.423  0.00  0.00     0.014 A 
ATOM     29  C   UNL d   1      -1.526  -7.955   2.994  0.00  0.00     0.001 A 
ATOM     30  C   UNL d   1      -0.209  -8.384   3.141  0.00  0.00     0.000 A 
ATOM     31  C   UNL d   1       0.840  -7.571   2.714  0.00  0.00     0.001 A 
ATOM     32  C   UNL d   1       0.568  -6.322   2.148  0.00  0.00     0.014 A 
ENDBRANCH   9  27
TORSDOF 3
