REMARK  1 active torsions:
REMARK  status: ('A' for Active; 'I' for Inactive)
REMARK    1  A    between atoms: O_13  and  C_10 
ROOT
ATOM      1  C   UNL d   1       0.197  -0.545  -0.019  0.00  0.00     0.092 A 
ATOM      2  C   UNL d   1      -1.281   1.433  -0.009  0.00  0.00    -0.043 A 
ATOM      3  O   UNL d   1      -0.932  -1.389  -0.036  0.00  0.00    -0.275 OA
ATOM      4  C   UNL d   1      -2.213  -0.869  -0.018  0.00  0.00     0.288 A 
ATOM      5  C   UNL d   1       0.070   0.850   0.004  0.00  0.00     0.004 A 
ATOM      6  C   UNL d   1      -2.331   0.596  -0.016  0.00  0.00     0.090 A 
ATOM      7  C   UNL d   1       1.435  -1.191  -0.021  0.00  0.00     0.074 A 
ATOM      8  C   UNL d   1       1.254   1.598   0.037  0.00  0.00     0.017 A 
ATOM      9  O   UNL d   1      -3.211  -1.579  -0.009  0.00  0.00    -0.260 OA
ATOM     10  C   UNL d   1       2.586  -0.420   0.007  0.00  0.00     0.068 A 
ATOM     11  C   UNL d   1       2.505   0.966   0.039  0.00  0.00     0.037 A 
ATOM     12  C   UNL d   1      -1.527   2.913  -0.020  0.00  0.00     0.049 C 
ENDROOT
BRANCH  10  13
ATOM     13  O   UNL d   1       3.826  -0.984   0.007  0.00  0.00    -0.361 OA
ATOM     14  H   UNL d   1       3.731  -1.950  -0.023  0.00  0.00     0.217 HD
ENDBRANCH  10  13
TORSDOF 1
