REMARK  3 active torsions:
REMARK  status: ('A' for Active; 'I' for Inactive)
REMARK       I    between atoms: C_4  and  N_1 
REMARK    1  A    between atoms: C_14  and  C_4 
REMARK    2  A    between atoms: C_18  and  C_9 
REMARK    3  A    between atoms: C_10  and  C_15 
ROOT
ATOM      1  N   UNL d   1       0.911  -0.669  -0.063  0.00  0.00    -0.217 N 
ATOM      2  C   UNL d   1      -0.367  -1.191   0.078  0.00  0.00     0.097 C 
ATOM      3  C   UNL d   1      -0.599  -2.551   0.448  0.00  0.00     0.130 A 
ATOM      4  C   UNL d   1       2.128  -1.365  -0.226  0.00  0.00     0.277 C 
ATOM      5  C   UNL d   1      -1.639  -3.413   0.170  0.00  0.00     0.074 A 
ATOM      6  N   UNL d   1      -0.143  -4.490   1.486  0.00  0.00    -0.260 N 
ATOM      7  HN  UNL d   1       0.326  -5.197   2.052  1.00  0.00     0.195 HD
ATOM      8  O   UNL d   1       0.281  -3.211   1.257  0.00  0.00    -0.235 OA
ATOM      9  C   UNL d   1      -1.298  -4.631   0.822  0.00  0.00     0.068 A 
ATOM     10  N   UNL d   1       0.890   0.696  -0.090  0.00  0.00    -0.302 N 
ATOM     11  HN  UNL d   1       1.683   1.337  -0.061  1.00  0.00     0.186 HD
ATOM     12  C   UNL d   1      -1.237  -0.135  -0.082  0.00  0.00     0.053 C 
ATOM     13  C   UNL d   1      -0.408   0.998  -0.166  0.00  0.00     0.110 C 
ATOM     14  O   UNL d   1       2.081  -2.456  -0.794  0.00  0.00    -0.265 OA
ENDROOT
BRANCH   4  15
ATOM     15  C   UNL d   1       3.446  -0.874   0.248  0.00  0.00     0.034 A 
ATOM     16  C   UNL d   1       3.549  -0.030   1.359  0.00  0.00     0.018 A 
ATOM     17  C   UNL d   1       4.807   0.341   1.841  0.00  0.00     0.017 A 
ATOM     18  C   UNL d   1       5.976  -0.128   1.224  0.00  0.00     0.048 A 
ATOM     19  C   UNL d   1       5.864  -0.990   0.121  0.00  0.00     0.017 A 
ATOM     20  C   UNL d   1       4.608  -1.366  -0.358  0.00  0.00     0.018 A 
BRANCH  18  21
ATOM     21  C   UNL d   1       7.341   0.274   1.729  0.00  0.00     0.417 C 
ATOM     22  F   UNL d   1       7.300   1.113   2.801  0.00  0.00    -0.166 F 
ATOM     23  F   UNL d   1       8.088  -0.795   2.120  0.00  0.00    -0.166 F 
ATOM     24  F   UNL d   1       8.075   0.917   0.779  0.00  0.00    -0.166 F 
ENDBRANCH  18  21
ENDBRANCH   4  15
BRANCH   9  25
ATOM     25  C   UNL d   1      -2.011  -5.904   0.861  0.00  0.00    -0.007 A 
ATOM     26  C   UNL d   1      -1.285  -7.101   0.976  0.00  0.00     0.014 A 
ATOM     27  C   UNL d   1      -1.942  -8.326   1.091  0.00  0.00     0.001 A 
ATOM     28  C   UNL d   1      -3.334  -8.366   1.091  0.00  0.00     0.000 A 
ATOM     29  C   UNL d   1      -4.066  -7.186   0.961  0.00  0.00     0.001 A 
ATOM     30  C   UNL d   1      -3.409  -5.957   0.841  0.00  0.00     0.014 A 
ENDBRANCH   9  25
TORSDOF 3
