REMARK  4 active torsions:
REMARK  status: ('A' for Active; 'I' for Inactive)
REMARK    1  A    between atoms: C_2  and  C_1 
REMARK       I    between atoms: N_8  and  C_2 
REMARK    2  A    between atoms: C_7  and  C_3 
REMARK    3  A    between atoms: O_14  and  C_9 
REMARK    4  A    between atoms: C_15  and  O_14 
ROOT
ATOM      1  C   UNL d   1       0.880  -0.607  -0.625  0.00  0.00     0.112 C 
ATOM      2  C   UNL d   1       0.221   0.558  -0.778  0.00  0.00     0.039 C 
ATOM      3  C   UNL d   1       0.220  -1.862  -0.514  0.00  0.00     0.105 C 
ATOM      4  N   UNL d   1      -0.265  -2.911  -0.417  0.00  0.00    -0.191 NA
ENDROOT
BRANCH   1   5
ATOM      5  C   UNL d   1       2.370  -0.536  -0.543  0.00  0.00     0.260 C 
ATOM      6  O   UNL d   1       2.992   0.520  -0.618  0.00  0.00    -0.267 OA
ATOM      7  N   UNL d   1       3.045  -1.705  -0.361  0.00  0.00    -0.365 N 
ATOM      8  H   UNL d   1       2.622  -2.621  -0.277  0.00  0.00     0.159 HD
ATOM      9  H   UNL d   1       4.054  -1.648  -0.287  0.00  0.00     0.159 HD
ENDBRANCH   1   5
BRANCH   2  10
ATOM     10  C   UNL d   1      -1.238   0.690  -0.798  0.00  0.00    -0.034 A 
ATOM     11  C   UNL d   1      -1.926   0.865   0.405  0.00  0.00     0.014 A 
ATOM     12  C   UNL d   1      -3.320   0.972   0.415  0.00  0.00     0.037 A 
ATOM     13  C   UNL d   1      -4.036   0.901  -0.780  0.00  0.00     0.068 A 
ATOM     14  C   UNL d   1      -3.346   0.759  -1.986  0.00  0.00     0.037 A 
ATOM     15  C   UNL d   1      -1.952   0.644  -1.998  0.00  0.00     0.014 A 
BRANCH  13  16
ATOM     16  O   UNL d   1      -5.398   1.006  -0.882  0.00  0.00    -0.352 OA
BRANCH  16  17
ATOM     17  C   UNL d   1      -6.136   0.519   0.241  0.00  0.00     0.171 C 
ATOM     18  C   UNL d   1      -7.617   0.633  -0.069  0.00  0.00     0.034 C 
ENDBRANCH  16  17
ENDBRANCH  13  16
ENDBRANCH   2  10
TORSDOF 4
