REMARK  5 active torsions:
REMARK  status: ('A' for Active; 'I' for Inactive)
REMARK    1  A    between atoms: C_2  and  C_1 
REMARK    2  A    between atoms: C_3  and  C_1 
REMARK    3  A    between atoms: N_4  and  C_1 
REMARK    4  A    between atoms: N_5  and  C_1 
REMARK       I    between atoms: C_6  and  N_4 
REMARK    5  A    between atoms: C_7  and  N_5 
ROOT
ATOM      1  C   UNL d   1       0.695   0.137  -0.060  0.00  0.00     0.290 C 
ENDROOT
BRANCH   1   2
ATOM      2  C   UNL d   1      -0.083   1.401   0.476  0.00  0.00     0.435 C 
ATOM      3  F   UNL d   1      -1.155   1.746  -0.265  0.00  0.00    -0.167 F 
ATOM      4  F   UNL d   1      -0.521   1.211   1.754  0.00  0.00    -0.167 F 
ATOM      5  F   UNL d   1       0.704   2.506   0.553  0.00  0.00    -0.167 F 
ENDBRANCH   1   2
BRANCH   1   6
ATOM      6  C   UNL d   1       0.303  -0.099  -1.561  0.00  0.00     0.435 C 
ATOM      7  F   UNL d   1       0.013   1.031  -2.240  0.00  0.00    -0.167 F 
ATOM      8  F   UNL d   1       1.350  -0.681  -2.221  0.00  0.00    -0.167 F 
ATOM      9  F   UNL d   1      -0.728  -0.953  -1.743  0.00  0.00    -0.167 F 
ENDBRANCH   1   6
BRANCH   1  10
ATOM     10  N   UNL d   1       0.438  -1.057   0.803  0.00  0.00    -0.324 N 
ATOM     11  C   UNL d   1      -0.862  -1.447   1.039  0.00  0.00     0.215 C 
ATOM     12  O   UNL d   1      -1.821  -0.906   0.490  0.00  0.00    -0.274 OA
ATOM     13  C   UNL d   1      -1.029  -2.547   2.044  0.00  0.00     0.117 C 
ATOM     14  H   UNL d   1       1.080  -1.160   1.580  0.00  0.00     0.165 HD
ENDBRANCH   1  10
BRANCH   1  15
ATOM     15  N   UNL d   1       2.195   0.191   0.155  0.00  0.00    -0.251 NA
ATOM     16  H   UNL d   1       2.571  -0.749   0.017  0.00  0.00     0.130 HD
BRANCH  15  17
ATOM     17  C   UNL d   1       3.056   1.081  -0.504  0.00  0.00     0.012 A 
ATOM     18  C   UNL d   1       2.666   2.142  -1.326  0.00  0.00     0.047 A 
ATOM     19  C   UNL d   1       3.611   2.987  -1.918  0.00  0.00     0.035 A 
ATOM     20 CL   UNL d   1       3.082   4.259  -2.952  0.00  0.00    -0.084 Cl
ATOM     21  C   UNL d   1       4.969   2.811  -1.681  0.00  0.00     0.024 A 
ATOM     22  C   UNL d   1       5.381   1.784  -0.843  0.00  0.00     0.003 A 
ATOM     23  C   UNL d   1       4.434   0.934  -0.261  0.00  0.00     0.023 A 
ENDBRANCH  15  17
ENDBRANCH   1  15
TORSDOF 5
