REMARK  5 active torsions:
REMARK  status: ('A' for Active; 'I' for Inactive)
REMARK    1  A    between atoms: C_3  and  C_1 
REMARK    2  A    between atoms: S_4  and  C_2 
REMARK    3  A    between atoms: N_11  and  C_3 
REMARK    4  A    between atoms: C_12  and  S_4 
REMARK    5  A    between atoms: O_14  and  N_9 
ROOT
ATOM      1  C   UNL d   1      -0.688  -1.099   0.318  0.00  0.00     0.106 A 
ATOM      2  C   UNL d   1       0.681  -1.400   0.258  0.00  0.00     0.105 A 
ATOM      3  N   UNL d   1      -1.150   0.195   0.378  0.00  0.00    -0.360 N 
ATOM      4  HN  UNL d   1      -2.145   0.412   0.440  1.00  0.00     0.165 HD
ATOM      5  N   UNL d   1       1.609  -0.400   0.245  0.00  0.00    -0.357 N 
ATOM      6  HN  UNL d   1       2.608  -0.599   0.205  1.00  0.00     0.166 HD
ATOM      7  C   UNL d   1      -0.206   1.161   0.352  0.00  0.00     0.105 A 
ATOM      8  C   UNL d   1       1.142   0.868   0.287  0.00  0.00     0.106 A 
ENDROOT
BRANCH   1   9
ATOM      9  C   UNL d   1      -1.794  -2.128   0.266  0.00  0.00     0.127 C 
ATOM     10  N   UNL d   1      -2.924  -2.045   0.931  0.00  0.00    -0.256 N 
ATOM     11  HN  UNL d   1      -3.658  -2.748   0.853  1.00  0.00     0.195 HD
BRANCH  10  12
ATOM     12  O   UNL d   1      -3.046  -0.915   1.757  0.00  0.00    -0.288 OA
ATOM     13  H   UNL d   1      -2.715  -0.169   1.213  0.00  0.00     0.244 HD
ENDBRANCH  10  12
BRANCH   9  14
ATOM     14  N   UNL d   1      -1.692  -3.236  -0.544  0.00  0.00    -0.285 NA
ATOM     15  H   UNL d   1      -0.788  -3.696  -0.576  0.00  0.00     0.125 HD
ATOM     16  H   UNL d   1      -2.448  -3.891  -0.358  0.00  0.00     0.125 HD
ENDBRANCH   9  14
ENDBRANCH   1   9
BRANCH   2  17
ATOM     17  S   UNL d   1       1.346  -3.041   0.106  0.00  0.00    -0.070 SA
BRANCH  17  18
ATOM     18  C   UNL d   1       2.343  -3.335   1.556  0.00  0.00     0.007 A 
ATOM     19  C   UNL d   1       2.454  -2.476   2.655  0.00  0.00     0.020 A 
ATOM     20  C   UNL d   1       3.227  -2.834   3.768  0.00  0.00     0.025 A 
ATOM     21  C   UNL d   1       3.894  -4.057   3.792  0.00  0.00     0.034 A 
ATOM     22  C   UNL d   1       3.807  -4.919   2.705  0.00  0.00     0.025 A 
ATOM     23 CL   UNL d   1       4.817  -4.507   5.170  0.00  0.00    -0.084 Cl
ATOM     24  C   UNL d   1       3.037  -4.557   1.595  0.00  0.00     0.020 A 
ENDBRANCH  17  18
ENDBRANCH   2  17
TORSDOF 5
