REMARK  5 active torsions:
REMARK  status: ('A' for Active; 'I' for Inactive)
REMARK    1  A    between atoms: N_7  and  S_1 
REMARK    2  A    between atoms: C_10  and  S_1 
REMARK    3  A    between atoms: C_3  and  N_8 
REMARK    4  A    between atoms: C_11  and  C_4 
REMARK    5  A    between atoms: C_17  and  C_5 
REMARK       I    between atoms: C_9  and  N_7 
REMARK       I    between atoms: N_8  and  C_9 
ROOT
ATOM      1  C   UNL d   1       3.114   3.268   0.054  0.00  0.00     0.096 A 
ATOM      2  C   UNL d   1       2.511   1.945  -1.642  0.00  0.00     0.165 A 
ATOM      3  C   UNL d   1       3.480   1.964   0.345  0.00  0.00     0.133 A 
ATOM      4  C   UNL d   1       2.483   3.271  -1.232  0.00  0.00     0.049 A 
ATOM      5  O   UNL d   1       3.167   1.176  -0.735  0.00  0.00    -0.288 OA
ATOM      6  C   UNL d   1       3.321   4.384   0.924  0.00  0.00     0.103 C 
ATOM      7  N   UNL d   1       3.443   5.320   1.599  0.00  0.00    -0.191 NA
ENDROOT
BRANCH   4   8
ATOM      8  C   UNL d   1       1.926   4.391  -1.999  0.00  0.00    -0.020 A 
ATOM      9  C   UNL d   1       2.031   4.443  -3.399  0.00  0.00     0.014 A 
ATOM     10  C   UNL d   1       1.553   5.548  -4.118  0.00  0.00     0.023 A 
ATOM     11  C   UNL d   1       0.990   6.636  -3.447  0.00  0.00     0.044 A 
ATOM     12  C   UNL d   1       0.534   7.784  -4.177  0.00  0.00     0.099 C 
ATOM     13  C   UNL d   1       0.884   6.601  -2.057  0.00  0.00     0.023 A 
ATOM     14  N   UNL d   1       0.169   8.712  -4.769  0.00  0.00    -0.191 NA
ATOM     15  C   UNL d   1       1.332   5.481  -1.344  0.00  0.00     0.014 A 
ENDBRANCH   4   8
BRANCH   3  16
ATOM     16  C   UNL d   1       4.043   1.436   1.555  0.00  0.00     0.110 A 
ATOM     17  O   UNL d   1       4.253   2.206   2.669  0.00  0.00    -0.320 OA
ATOM     18  C   UNL d   1       4.728   1.404   3.652  0.00  0.00     0.142 A 
ATOM     19  C   UNL d   1       4.844   0.115   3.197  0.00  0.00     0.027 A 
ATOM     20  C   UNL d   1       4.408   0.132   1.847  0.00  0.00     0.042 A 
ENDBRANCH   3  16
BRANCH   2  21
ATOM     21  N   UNL d   1       1.928   1.329  -2.717  0.00  0.00    -0.287 N 
ATOM     22  C   UNL d   1       2.113   0.055  -3.174  0.00  0.00     0.335 C 
ATOM     23  N   UNL d   1       3.203  -0.684  -2.732  0.00  0.00    -0.232 N 
ATOM     24  O   UNL d   1       1.348  -0.353  -4.041  0.00  0.00    -0.246 OA
ATOM     25  H   UNL d   1       3.884  -0.274  -2.104  0.00  0.00     0.183 HD
ATOM     26  H   UNL d   1       1.196   1.825  -3.210  0.00  0.00     0.172 HD
BRANCH  23  27
ATOM     27  S   UNL d   1       3.601  -2.192  -3.310  0.00  0.00     0.268 S 
ATOM     28  O   UNL d   1       2.517  -3.092  -2.973  0.00  0.00    -0.200 OA
ATOM     29  O   UNL d   1       4.935  -2.485  -2.832  0.00  0.00    -0.200 OA
BRANCH  27  30
ATOM     30  C   UNL d   1       3.651  -1.987  -5.071  0.00  0.00     0.101 A 
ATOM     31  C   UNL d   1       4.664  -1.275  -5.714  0.00  0.00     0.057 A 
ATOM     32 CL   UNL d   1       6.040  -0.606  -4.917  0.00  0.00    -0.083 Cl
ATOM     33  C   UNL d   1       4.560  -1.027  -7.091  0.00  0.00     0.025 A 
ATOM     34  C   UNL d   1       3.456  -1.478  -7.817  0.00  0.00     0.002 A 
ATOM     35  C   UNL d   1       2.467  -2.222  -7.182  0.00  0.00     0.002 A 
ATOM     36  C   UNL d   1       2.572  -2.494  -5.817  0.00  0.00     0.027 A 
ENDBRANCH  27  30
ENDBRANCH  23  27
ENDBRANCH   2  21
TORSDOF 5
