REMARK  5 active torsions:
REMARK  status: ('A' for Active; 'I' for Inactive)
REMARK    1  A    between atoms: O_3  and  S_1 
REMARK    2  A    between atoms: C_4  and  S_1 
REMARK    3  A    between atoms: C_2  and  O_3 
REMARK    4  A    between atoms: C_5  and  C_8 
REMARK    5  A    between atoms: C_6  and  C_7 
ROOT
ATOM      1  C   UNL d   1       0.461  -1.558  -0.562  0.00  0.00     0.088 A 
ATOM      2  C   UNL d   1      -1.100  -3.422  -0.587  0.00  0.00     0.050 A 
ATOM      3  C   UNL d   1       1.157  -3.684  -1.514  0.00  0.00     0.050 A 
ATOM      4  C   UNL d   1       1.437  -2.349  -1.182  0.00  0.00     0.042 A 
ATOM      5  C   UNL d   1      -0.801  -2.088  -0.269  0.00  0.00     0.042 A 
ATOM      6  C   UNL d   1      -0.117  -4.206  -1.219  0.00  0.00     0.032 A 
ENDROOT
BRANCH   1   7
ATOM      7  S   UNL d   1       0.938   0.024   0.150  0.00  0.00     0.303 S 
ATOM      8  O   UNL d   1      -0.015   0.252   1.222  0.00  0.00    -0.193 OA
ATOM      9  O   UNL d   1       2.363  -0.092   0.383  0.00  0.00    -0.193 OA
BRANCH   7  10
ATOM     10  O   UNL d   1       0.675   1.121  -1.036  0.00  0.00    -0.225 OA
BRANCH  10  11
ATOM     11  C   UNL d   1       0.979   2.450  -0.849  0.00  0.00     0.137 A 
ATOM     12  C   UNL d   1       0.879   3.442  -1.747  0.00  0.00    -0.045 A 
ATOM     13  C   UNL d   1       1.341   4.778  -1.233  0.00  0.00     0.044 A 
ATOM     14  C   UNL d   1       0.382   3.360  -3.149  0.00  0.00     0.046 C 
ATOM     15  C   UNL d   1       1.662   4.558   0.235  0.00  0.00     0.090 A 
ATOM     16  C   UNL d   1       1.498   3.078   0.396  0.00  0.00     0.184 A 
ATOM     17  O   UNL d   1       1.743   2.490   1.433  0.00  0.00    -0.290 OA
ENDBRANCH  10  11
ENDBRANCH   7  10
ENDBRANCH   1   7
BRANCH   3  18
ATOM     18  C   UNL d   1       2.217  -4.579  -2.119  0.00  0.00     0.417 C 
ATOM     19  F   UNL d   1       3.419  -3.963  -2.284  0.00  0.00    -0.166 F 
ATOM     20  F   UNL d   1       2.459  -5.680  -1.357  0.00  0.00    -0.166 F 
ATOM     21  F   UNL d   1       1.860  -5.043  -3.348  0.00  0.00    -0.166 F 
ENDBRANCH   3  18
BRANCH   2  22
ATOM     22  C   UNL d   1      -2.426  -4.039  -0.198  0.00  0.00     0.417 C 
ATOM     23  F   UNL d   1      -3.250  -3.184   0.465  0.00  0.00    -0.166 F 
ATOM     24  F   UNL d   1      -3.128  -4.479  -1.278  0.00  0.00    -0.166 F 
ATOM     25  F   UNL d   1      -2.272  -5.119   0.616  0.00  0.00    -0.166 F 
ENDBRANCH   2  22
TORSDOF 5
