REMARK  9 active torsions:
REMARK  status: ('A' for Active; 'I' for Inactive)
REMARK    1  A    between atoms: N_3  and  C_1 
REMARK       I    between atoms: C_9  and  N_3 
REMARK    2  A    between atoms: S_13  and  C_4 
REMARK    3  A    between atoms: C_12  and  C_9 
REMARK    4  A    between atoms: C_10  and  C_15 
REMARK    5  A    between atoms: C_11  and  C_10 
REMARK    6  A    between atoms: O_21  and  C_11 
REMARK    7  A    between atoms: C_20  and  S_13 
REMARK    8  A    between atoms: C_15  and  C_20 
REMARK    9  A    between atoms: C_25  and  O_21 
ROOT
ATOM      1  C   UNL d   1       0.142   1.238   0.162  0.00  0.00     0.168 C 
ATOM      2  S   UNL d   1       1.376   0.093   0.417  0.00  0.00    -0.026 SA
ATOM      3  C   UNL d   1       0.333  -1.080  -0.260  0.00  0.00     0.130 C 
ATOM      4  N   UNL d   1      -1.029   0.697  -0.094  0.00  0.00    -0.278 N 
ATOM      5  HN  UNL d   1      -1.912   1.209  -0.087  1.00  0.00     0.189 HD
ATOM      6  N   UNL d   1      -0.912  -0.662  -0.374  0.00  0.00    -0.286 N 
ATOM      7  HN  UNL d   1      -1.695  -1.262  -0.636  1.00  0.00     0.188 HD
ENDROOT
BRANCH   1   8
ATOM      8  N   UNL d   1       0.367   2.596   0.250  0.00  0.00    -0.302 N 
ATOM      9  C   UNL d   1       1.618   3.171   0.116  0.00  0.00     0.257 C 
ATOM     10  O   UNL d   1       2.666   2.552  -0.058  0.00  0.00    -0.267 OA
ATOM     11  H   UNL d   1      -0.472   3.148   0.166  0.00  0.00     0.171 HD
BRANCH   9  12
ATOM     12  C   UNL d   1       1.714   4.665   0.136  0.00  0.00     0.032 A 
ATOM     13  C   UNL d   1       0.632   5.528   0.337  0.00  0.00     0.017 A 
ATOM     14  C   UNL d   1       0.839   6.915   0.358  0.00  0.00     0.007 A 
ATOM     15  C   UNL d   1       2.120   7.457   0.191  0.00  0.00    -0.062 A 
ATOM     16  C   UNL d   1       3.197   6.597  -0.023  0.00  0.00     0.007 A 
ATOM     17  C   UNL d   1       2.329   8.942   0.232  0.00  0.00     0.048 C 
ATOM     18  C   UNL d   1       2.994   5.218  -0.049  0.00  0.00     0.017 A 
ENDBRANCH   9  12
ENDBRANCH   1   8
BRANCH   3  19
ATOM     19  S   UNL d   1       0.835  -2.683  -0.783  0.00  0.00    -0.096 SA
BRANCH  19  20
ATOM     20  C   UNL d   1       2.628  -2.451  -0.961  0.00  0.00     0.160 C 
BRANCH  20  21
ATOM     21  C   UNL d   1       3.249  -3.561  -1.781  0.00  0.00     0.145 C 
ATOM     22  O   UNL d   1       3.437  -3.416  -2.993  0.00  0.00    -0.297 OA
BRANCH  21  23
ATOM     23  C   UNL d   1       3.573  -4.875  -1.121  0.00  0.00     0.190 C 
BRANCH  23  24
ATOM     24  C   UNL d   1       4.569  -4.784  -0.003  0.00  0.00     0.265 C 
ATOM     25  O   UNL d   1       4.989  -3.749   0.485  0.00  0.00    -0.265 OA
BRANCH  24  26
ATOM     26  O   UNL d   1       4.910  -6.040   0.405  0.00  0.00    -0.322 OA
BRANCH  26  27
ATOM     27  C   UNL d   1       5.815  -6.124   1.516  0.00  0.00     0.174 C 
ATOM     28  C   UNL d   1       7.255  -6.009   1.050  0.00  0.00     0.034 C 
ENDBRANCH  26  27
ENDBRANCH  24  26
ENDBRANCH  23  24
ENDBRANCH  21  23
ENDBRANCH  20  21
ENDBRANCH  19  20
ENDBRANCH   3  19
TORSDOF 9
