REMARK  9 active torsions:
REMARK  status: ('A' for Active; 'I' for Inactive)
REMARK       I    between atoms: N_3  and  C_1 
REMARK    1  A    between atoms: C_6  and  C_1 
REMARK    2  A    between atoms: C_5  and  C_2 
REMARK    3  A    between atoms: C_4  and  N_3 
REMARK    4  A    between atoms: C_16  and  N_3 
REMARK       I    between atoms: N_7  and  C_5 
REMARK    5  A    between atoms: C_13  and  N_7 
REMARK    6  A    between atoms: C_8  and  C_13 
REMARK    7  A    between atoms: O_19  and  C_8 
REMARK    8  A    between atoms: C_14  and  C_16 
REMARK    9  A    between atoms: C_24  and  O_19 
ROOT
ATOM      1  C   UNL d   1      -1.914  -0.039   1.187  0.00  0.00     0.059 A 
ATOM      2  C   UNL d   1      -1.157   1.090   0.804  0.00  0.00     0.053 A 
ATOM      3  C   UNL d   1      -3.315   0.059   1.251  0.00  0.00     0.019 A 
ATOM      4  C   UNL d   1      -1.831   2.292   0.517  0.00  0.00     0.031 A 
ATOM      5  C   UNL d   1      -3.964   1.256   0.934  0.00  0.00     0.001 A 
ATOM      6  C   UNL d   1      -3.220   2.374   0.571  0.00  0.00     0.002 A 
ENDROOT
BRANCH   2   7
ATOM      7  N   UNL d   1       0.259   1.113   0.621  0.00  0.00    -0.309 N 
ATOM      8  C   UNL d   1       1.006   0.282  -0.233  0.00  0.00     0.258 C 
ATOM      9  O   UNL d   1       2.241   0.353  -0.288  0.00  0.00    -0.267 OA
BRANCH   8  10
ATOM     10  C   UNL d   1       0.362  -0.735  -1.121  0.00  0.00     0.033 A 
ATOM     11  C   UNL d   1       1.070  -1.931  -1.329  0.00  0.00     0.023 A 
ATOM     12  C   UNL d   1       0.500  -2.995  -2.039  0.00  0.00    -0.061 A 
ATOM     13  C   UNL d   1       1.265  -4.266  -2.262  0.00  0.00     0.048 C 
ATOM     14  C   UNL d   1      -0.801  -2.861  -2.532  0.00  0.00     0.007 A 
ATOM     15  C   UNL d   1      -1.487  -1.656  -2.388  0.00  0.00     0.002 A 
ATOM     16  C   UNL d   1      -0.890  -0.581  -1.725  0.00  0.00     0.017 A 
ENDBRANCH   8  10
BRANCH   7  17
ATOM     17  C   UNL d   1       1.003   1.872   1.637  0.00  0.00     0.159 C 
BRANCH  17  18
ATOM     18  C   UNL d   1       1.405   3.222   1.113  0.00  0.00    -0.017 C 
ATOM     19  C   UNL d   1       1.089   4.385   1.700  0.00  0.00     0.008 C 
ENDBRANCH  17  18
ENDBRANCH   7  17
ENDBRANCH   2   7
BRANCH   1  20
ATOM     20  C   UNL d   1      -1.271  -1.316   1.606  0.00  0.00     0.254 C 
ATOM     21  N   UNL d   1      -1.925  -2.482   1.247  0.00  0.00    -0.347 N 
ATOM     22  H   UNL d   1      -2.697  -2.463   0.590  0.00  0.00     0.163 HD
ATOM     23  O   UNL d   1      -0.219  -1.314   2.229  0.00  0.00    -0.268 OA
BRANCH  21  24
ATOM     24  C   UNL d   1      -1.304  -3.769   1.512  0.00  0.00     0.233 C 
BRANCH  24  25
ATOM     25  C   UNL d   1      -2.255  -4.940   1.312  0.00  0.00     0.276 C 
ATOM     26  O   UNL d   1      -3.412  -4.850   0.924  0.00  0.00    -0.263 OA
BRANCH  25  27
ATOM     27  O   UNL d   1      -1.625  -6.089   1.695  0.00  0.00    -0.321 OA
BRANCH  27  28
ATOM     28  C   UNL d   1      -2.466  -7.224   1.943  0.00  0.00     0.174 C 
ATOM     29  C   UNL d   1      -2.901  -7.177   3.397  0.00  0.00     0.034 C 
ENDBRANCH  27  28
ENDBRANCH  25  27
ENDBRANCH  24  25
ENDBRANCH  21  24
ENDBRANCH   1  20
TORSDOF 9
