REMARK  6 active torsions:
REMARK  status: ('A' for Active; 'I' for Inactive)
REMARK    1  A    between atoms: C_2  and  S_1 
REMARK    2  A    between atoms: C_3  and  S_1 
REMARK    3  A    between atoms: C_4  and  C_7 
REMARK    4  A    between atoms: C_5  and  C_8 
REMARK    5  A    between atoms: N_15  and  C_6 
REMARK    6  A    between atoms: N_12  and  N_15 
ROOT
ATOM      1  C   UNL d   1       0.434   0.057   1.589  0.00  0.00     0.155 C 
ATOM      2  C   UNL d   1      -0.300   1.061   2.084  0.00  0.00     0.109 C 
ATOM      3  C   UNL d   1       0.905   0.028   0.257  0.00  0.00     0.113 C 
ATOM      4  N   UNL d   1       1.302  -0.035  -0.832  0.00  0.00    -0.191 NA
ENDROOT
BRANCH   1   5
ATOM      5  S   UNL d   1       0.760  -1.307   2.592  0.00  0.00     0.217 S 
ATOM      6  O   UNL d   1       0.154  -2.496   2.019  0.00  0.00    -0.216 OA
ATOM      7  O   UNL d   1       0.512  -0.985   3.989  0.00  0.00    -0.216 OA
BRANCH   5   8
ATOM      8  C   UNL d   1       2.531  -1.512   2.450  0.00  0.00     0.066 A 
ATOM      9  C   UNL d   1       3.378  -0.860   3.353  0.00  0.00     0.040 A 
ATOM     10  C   UNL d   1       4.766  -1.055   3.274  0.00  0.00     0.050 A 
ATOM     11  C   UNL d   1       5.276  -1.911   2.281  0.00  0.00     0.032 A 
ATOM     12  C   UNL d   1       4.427  -2.585   1.384  0.00  0.00     0.050 A 
ATOM     13  C   UNL d   1       3.044  -2.380   1.478  0.00  0.00     0.040 A 
BRANCH  10  14
ATOM     14  C   UNL d   1       5.712  -0.383   4.245  0.00  0.00     0.417 C 
ATOM     15  F   UNL d   1       5.081   0.384   5.176  0.00  0.00    -0.166 F 
ATOM     16  F   UNL d   1       6.459  -1.283   4.942  0.00  0.00    -0.166 F 
ATOM     17  F   UNL d   1       6.597   0.437   3.619  0.00  0.00    -0.166 F 
ENDBRANCH  10  14
BRANCH  12  18
ATOM     18  C   UNL d   1       5.008  -3.531   0.356  0.00  0.00     0.417 C 
ATOM     19  F   UNL d   1       4.068  -4.137  -0.418  0.00  0.00    -0.166 F 
ATOM     20  F   UNL d   1       5.860  -2.905  -0.500  0.00  0.00    -0.166 F 
ATOM     21  F   UNL d   1       5.723  -4.534   0.934  0.00  0.00    -0.166 F 
ENDBRANCH  12  18
ENDBRANCH   5   8
ENDBRANCH   1   5
BRANCH   2  22
ATOM     22  N   UNL d   1      -0.657   2.241   1.461  0.00  0.00    -0.233 NA
ATOM     23  H   UNL d   1      -1.585   2.558   1.759  0.00  0.00     0.146 HD
BRANCH  22  24
ATOM     24  N   UNL d   1       0.343   3.256   1.488  0.00  0.00    -0.244 NA
ATOM     25  C   UNL d   1       0.147   4.169   2.642  0.00  0.00     0.134 C 
ATOM     26  C   UNL d   1      -1.111   5.044   2.523  0.00  0.00     0.183 C 
ATOM     27  O   UNL d   1      -1.110   5.795   1.306  0.00  0.00    -0.389 OA
ATOM     28  C   UNL d   1      -0.990   4.936   0.163  0.00  0.00     0.183 C 
ATOM     29  C   UNL d   1       0.266   4.056   0.243  0.00  0.00     0.134 C 
ENDBRANCH  22  24
ENDBRANCH   2  22
TORSDOF 6
