REMARK  5 active torsions:
REMARK  status: ('A' for Active; 'I' for Inactive)
REMARK    1  A    between atoms: C_3  and  S_1 
REMARK    2  A    between atoms: O_4  and  S_1 
REMARK    3  A    between atoms: S_2  and  C_3 
REMARK    4  A    between atoms: C_9  and  O_4 
REMARK    5  A    between atoms: O_16  and  C_11 
ROOT
ATOM      1  O   UNL d   1       0.175  -1.433   0.182  0.00  0.00    -0.232 OA
ENDROOT
BRANCH   1   2
ATOM      2  S   UNL d   1       0.997  -0.026   0.098  0.00  0.00     0.283 S 
ATOM      3  O   UNL d   1       1.907   0.023   1.219  0.00  0.00    -0.197 OA
ATOM      4  O   UNL d   1       1.443   0.175  -1.268  0.00  0.00    -0.197 OA
BRANCH   2   5
ATOM      5  C   UNL d   1      -0.386   1.015   0.376  0.00  0.00     0.310 C 
BRANCH   5   6
ATOM      6  S   UNL d   1       0.022   2.721   0.291  0.00  0.00     0.156 S 
ATOM      7  O   UNL d   1      -1.215   3.443   0.536  0.00  0.00    -0.227 OA
ATOM      8  O   UNL d   1       1.179   2.987   1.121  0.00  0.00    -0.227 OA
ATOM      9  C   UNL d   1       0.461   3.050  -1.402  0.00  0.00     0.162 C 
ENDBRANCH   5   6
ENDBRANCH   2   5
ENDBRANCH   1   2
BRANCH   1  10
ATOM     10  C   UNL d   1       0.604  -2.566  -0.458  0.00  0.00     0.089 A 
ATOM     11  C   UNL d   1       1.924  -2.838  -0.820  0.00  0.00     0.041 A 
ATOM     12  C   UNL d   1       2.234  -4.012  -1.522  0.00  0.00     0.039 A 
ATOM     13  C   UNL d   1       1.229  -4.920  -1.853  0.00  0.00     0.068 A 
ATOM     14  C   UNL d   1      -0.081  -4.665  -1.443  0.00  0.00     0.039 A 
ATOM     15  C   UNL d   1      -0.393  -3.500  -0.745  0.00  0.00     0.041 A 
BRANCH  13  16
ATOM     16  O   UNL d   1       1.383  -6.076  -2.567  0.00  0.00    -0.356 OA
ATOM     17  C   UNL d   1       2.689  -6.375  -3.044  0.00  0.00     0.210 C 
ENDBRANCH  13  16
ENDBRANCH   1  10
TORSDOF 5
