REMARK  6 active torsions:
REMARK  status: ('A' for Active; 'I' for Inactive)
REMARK    1  A    between atoms: C_9  and  C_3 
REMARK    2  A    between atoms: C_7  and  C_5 
REMARK    3  A    between atoms: N_6  and  C_10 
REMARK    4  A    between atoms: C_12  and  C_7 
REMARK    5  A    between atoms: O_18  and  C_12 
REMARK    6  A    between atoms: C_22  and  O_18 
ROOT
ATOM      1  N   UNL d   1       0.847  -0.528   0.942  0.00  0.00    -0.352 N 
ATOM      2  HN  UNL d   1       1.252  -0.999   1.751  1.00  0.00     0.166 HD
ATOM      3  C   UNL d   1       0.140  -1.132   0.002  0.00  0.00     0.084 A 
ATOM      4  S   UNL d   1      -0.477  -0.061  -1.207  0.00  0.00    -0.081 SA
ATOM      5  C   UNL d   1       0.965   0.831   0.681  0.00  0.00     0.025 A 
ATOM      6  C   UNL d   1       0.290   1.259  -0.445  0.00  0.00     0.077 A 
ENDROOT
BRANCH   3   7
ATOM      7  C   UNL d   1      -0.121  -2.590  -0.040  0.00  0.00    -0.000 A 
ATOM      8  C   UNL d   1       0.331  -3.402   1.024  0.00  0.00     0.044 A 
ATOM      9  C   UNL d   1       0.119  -4.794   1.033  0.00  0.00     0.039 A 
ATOM     10  C   UNL d   1      -0.548  -5.378  -0.051  0.00  0.00     0.030 A 
ATOM     11  C   UNL d   1      -1.001  -4.590  -1.106  0.00  0.00     0.003 A 
ATOM     12  C   UNL d   1      -0.793  -3.213  -1.101  0.00  0.00     0.014 A 
BRANCH   9  13
ATOM     13  N   UNL d   1       0.561  -5.602   2.130  0.00  0.00    -0.333 N 
ATOM     14  C   UNL d   1       1.190  -5.165   3.283  0.00  0.00     0.096 A 
ATOM     15  C   UNL d   1       1.417  -6.239   4.119  0.00  0.00     0.019 A 
ATOM     16  C   UNL d   1       0.933  -7.384   3.465  0.00  0.00     0.019 A 
ATOM     17  C   UNL d   1       0.428  -6.975   2.250  0.00  0.00     0.096 A 
ENDBRANCH   9  13
ENDBRANCH   3   7
BRANCH   5  18
ATOM     18  C   UNL d   1       1.767   1.680   1.609  0.00  0.00     0.168 C 
BRANCH  18  19
ATOM     19  C   UNL d   1       3.031   2.198   0.963  0.00  0.00     0.264 C 
ATOM     20  O   UNL d   1       3.365   2.054  -0.205  0.00  0.00    -0.265 OA
BRANCH  19  21
ATOM     21  O   UNL d   1       3.777   2.843   1.910  0.00  0.00    -0.322 OA
BRANCH  21  22
ATOM     22  C   UNL d   1       5.149   3.071   1.556  0.00  0.00     0.174 C 
ATOM     23  C   UNL d   1       5.947   1.853   1.986  0.00  0.00     0.034 C 
ENDBRANCH  21  22
ENDBRANCH  19  21
ENDBRANCH  18  19
ENDBRANCH   5  18
TORSDOF 6
