REMARK  19 active torsions:
REMARK  status: ('A' for Active; 'I' for Inactive)
REMARK    1  A    between atoms: C_2  and  C_1 
REMARK    2  A    between atoms: C_3  and  C_1 
REMARK    3  A    between atoms: C_1  and  O_7 
REMARK    4  A    between atoms: C_4  and  C_2 
REMARK    5  A    between atoms: C_2  and  O_8 
REMARK    6  A    between atoms: C_5  and  C_3 
REMARK    7  A    between atoms: C_3  and  O_9 
REMARK    8  A    between atoms: O_6  and  C_4 
REMARK    9  A    between atoms: S_25  and  C_4 
REMARK   10  A    between atoms: C_5  and  O_10 
REMARK   11  A    between atoms: C_17  and  C_5 
REMARK   12  A    between atoms: C_11  and  O_6 
REMARK   13  A    between atoms: C_13  and  O_7 
REMARK   14  A    between atoms: C_12  and  O_8 
REMARK   15  A    between atoms: C_14  and  O_9 
REMARK   16  A    between atoms: C_15  and  O_10 
REMARK   17  A    between atoms: C_16  and  O_18 
REMARK   18  A    between atoms: O_18  and  C_17 
REMARK   19  A    between atoms: C_32  and  S_25 
ROOT
ATOM      1  C   UNL d   1       0.991  -0.251   0.219  0.00  0.00     0.197 C 
ENDROOT
BRANCH   1   2
ATOM      2  C   UNL d   1       0.486  -1.729   0.318  0.00  0.00     0.203 C 
BRANCH   2   3
ATOM      3  C   UNL d   1      -1.034  -2.029   0.246  0.00  0.00     0.225 C 
BRANCH   3   4
ATOM      4  O   UNL d   1      -1.749  -1.393  -0.839  0.00  0.00    -0.303 OA
BRANCH   4   5
ATOM      5  C   UNL d   1      -1.761  -2.006  -2.066  0.00  0.00     0.256 C 
ATOM      6  O   UNL d   1      -0.917  -2.772  -2.505  0.00  0.00    -0.266 OA
ATOM      7  C   UNL d   1      -3.058  -1.722  -2.759  0.00  0.00     0.126 C 
ENDBRANCH   4   5
ENDBRANCH   3   4
BRANCH   3   8
ATOM      8  S   UNL d   1      -1.549  -3.804   0.409  0.00  0.00    -0.134 SA
BRANCH   8   9
ATOM      9  C   UNL d   1      -0.979  -4.183   2.088  0.00  0.00     0.072 C 
ATOM     10  C   UNL d   1      -1.294  -5.641   2.388  0.00  0.00     0.016 C 
ENDBRANCH   8   9
ENDBRANCH   3   8
ENDBRANCH   2   3
BRANCH   2  11
ATOM     11  O   UNL d   1       1.094  -2.402  -0.818  0.00  0.00    -0.310 OA
BRANCH  11  12
ATOM     12  C   UNL d   1       1.766  -3.556  -0.587  0.00  0.00     0.255 C 
ATOM     13  O   UNL d   1       2.105  -3.972   0.507  0.00  0.00    -0.266 OA
ATOM     14  C   UNL d   1       1.967  -4.295  -1.875  0.00  0.00     0.126 C 
ENDBRANCH  11  12
ENDBRANCH   2  11
ENDBRANCH   1   2
BRANCH   1  15
ATOM     15  C   UNL d   1       0.495   0.849   1.212  0.00  0.00     0.195 C 
BRANCH  15  16
ATOM     16  C   UNL d   1       1.137   2.248   0.916  0.00  0.00     0.188 C 
BRANCH  16  17
ATOM     17  O   UNL d   1       0.606   2.763  -0.338  0.00  0.00    -0.311 OA
BRANCH  17  18
ATOM     18  C   UNL d   1       1.363   2.611  -1.455  0.00  0.00     0.255 C 
ATOM     19  O   UNL d   1       2.475   2.111  -1.501  0.00  0.00    -0.266 OA
ATOM     20  C   UNL d   1       0.606   3.103  -2.650  0.00  0.00     0.126 C 
ENDBRANCH  17  18
ENDBRANCH  16  17
BRANCH  16  21
ATOM     21  C   UNL d   1       0.774   3.288   1.998  0.00  0.00     0.213 C 
BRANCH  21  22
ATOM     22  O   UNL d   1       1.395   4.571   1.733  0.00  0.00    -0.319 OA
BRANCH  22  23
ATOM     23  C   UNL d   1       2.675   4.721   2.166  0.00  0.00     0.254 C 
ATOM     24  O   UNL d   1       3.332   3.847   2.715  0.00  0.00    -0.266 OA
ATOM     25  C   UNL d   1       3.185   6.106   1.893  0.00  0.00     0.126 C 
ENDBRANCH  22  23
ENDBRANCH  21  22
ENDBRANCH  16  21
ENDBRANCH  15  16
BRANCH  15  26
ATOM     26  O   UNL d   1      -0.937   0.981   1.068  0.00  0.00    -0.311 OA
BRANCH  26  27
ATOM     27  C   UNL d   1      -1.723   0.530   2.088  0.00  0.00     0.255 C 
ATOM     28  O   UNL d   1      -1.314   0.124   3.162  0.00  0.00    -0.266 OA
ATOM     29  C   UNL d   1      -3.147   0.448   1.636  0.00  0.00     0.126 C 
ENDBRANCH  26  27
ENDBRANCH  15  26
ENDBRANCH   1  15
BRANCH   1  30
ATOM     30  O   UNL d   1       2.458  -0.289   0.207  0.00  0.00    -0.311 OA
BRANCH  30  31
ATOM     31  C   UNL d   1       3.106  -0.721   1.322  0.00  0.00     0.255 C 
ATOM     32  O   UNL d   1       2.570  -0.943   2.397  0.00  0.00    -0.266 OA
ATOM     33  C   UNL d   1       4.575  -0.854   1.070  0.00  0.00     0.126 C 
ENDBRANCH  30  31
ENDBRANCH   1  30
TORSDOF 19
