REMARK  5 active torsions:
REMARK  status: ('A' for Active; 'I' for Inactive)
REMARK    1  A    between atoms: C_6  and  C_1 
REMARK       I    between atoms: N_9  and  C_6 
REMARK       I    between atoms: C_8  and  N_11 
REMARK    2  A    between atoms: C_17  and  C_8 
REMARK    3  A    between atoms: N_11  and  N_9 
REMARK    4  A    between atoms: C_13  and  O_15 
REMARK    5  A    between atoms: O_15  and  C_17 
ROOT
ATOM      1  C   UNL d   1      -5.226  -1.496   0.177  0.00  0.00     0.260 C 
ATOM      2  N   UNL d   1      -3.928  -1.521   0.649  0.00  0.00    -0.265 N 
ATOM      3  O   UNL d   1      -5.664  -2.405  -0.534  0.00  0.00    -0.269 OA
ATOM      4  H   UNL d   1      -3.502  -0.807   1.237  0.00  0.00     0.190 HD
ENDROOT
BRANCH   2   5
ATOM      5  N   UNL d   1      -3.109  -2.572   0.194  0.00  0.00    -0.263 N 
ATOM      6  C   UNL d   1      -1.757  -2.623   0.495  0.00  0.00     0.279 C 
ATOM      7  O   UNL d   1      -1.252  -1.782   1.243  0.00  0.00    -0.265 OA
ATOM      8  H   UNL d   1      -3.541  -3.232  -0.451  0.00  0.00     0.190 HD
BRANCH   6   9
ATOM      9  C   UNL d   1      -1.010  -3.708  -0.132  0.00  0.00     0.098 A 
ATOM     10  C   UNL d   1       0.325  -4.069   0.009  0.00  0.00     0.028 A 
ATOM     11  N   UNL d   1       0.720  -5.166  -0.749  0.00  0.00    -0.357 N 
ATOM     12  C   UNL d   1       1.375  -3.452   0.866  0.00  0.00     0.070 C 
ATOM     13  C   UNL d   1      -0.283  -5.620  -1.464  0.00  0.00     0.048 A 
ATOM     14  HN  UNL d   1       1.659  -5.563  -0.750  1.00  0.00     0.166 HD
ATOM     15  S   UNL d   1      -1.760  -4.784  -1.256  0.00  0.00    -0.070 SA
ATOM     16  C   UNL d   1      -0.177  -6.773  -2.399  0.00  0.00     0.076 C 
ENDBRANCH   6   9
ENDBRANCH   2   5
BRANCH   1  17
ATOM     17  C   UNL d   1      -6.062  -0.263   0.525  0.00  0.00     0.280 C 
BRANCH  17  18
ATOM     18  O   UNL d   1      -6.662  -0.368   1.802  0.00  0.00    -0.340 OA
BRANCH  18  19
ATOM     19  C   UNL d   1      -7.509   0.615   2.254  0.00  0.00     0.091 A 
ATOM     20  C   UNL d   1      -8.190   1.631   1.563  0.00  0.00     0.069 A 
ATOM     21  C   UNL d   1      -9.036   2.518   2.258  0.00  0.00     0.050 A 
ATOM     22 CL   UNL d   1      -8.125   1.910  -0.141  0.00  0.00    -0.081 Cl
ATOM     23  C   UNL d   1      -9.206   2.403   3.632  0.00  0.00     0.035 A 
ATOM     24  C   UNL d   1      -8.546   1.402   4.332  0.00  0.00     0.026 A 
ATOM     25 CL   UNL d   1     -10.240   3.497   4.463  0.00  0.00    -0.084 Cl
ATOM     26  C   UNL d   1      -7.713   0.515   3.643  0.00  0.00     0.040 A 
ENDBRANCH  18  19
ENDBRANCH  17  18
ENDBRANCH   1  17
TORSDOF 5
