REMARK  9 active torsions:
REMARK  status: ('A' for Active; 'I' for Inactive)
REMARK    1  A    between atoms: N_3  and  S_1 
REMARK    2  A    between atoms: C_6  and  S_1 
REMARK    3  A    between atoms: C_2  and  N_3 
REMARK    4  A    between atoms: C_23  and  N_3 
REMARK    5  A    between atoms: C_7  and  C_4 
REMARK    6  A    between atoms: C_5  and  C_9 
REMARK    7  A    between atoms: O_22  and  C_7 
REMARK    8  A    between atoms: C_30  and  C_23 
REMARK    9  A    between atoms: C_28  and  C_30 
ROOT
ATOM      1  N   UNL d   1       1.203  -3.176   5.610  0.00  0.00    -0.197 NA
ATOM      2  C   UNL d   1       1.640  -3.206   4.532  0.00  0.00     0.059 C 
ATOM      3  C   UNL d   1       2.160  -3.217   3.174  0.00  0.00     0.125 C 
ENDROOT
BRANCH   3   4
ATOM      4  C   UNL d   1       1.963  -1.878   2.472  0.00  0.00     0.035 C 
BRANCH   4   5
ATOM      5  C   UNL d   1       0.508  -1.444   2.277  0.00  0.00     0.143 C 
BRANCH   5   6
ATOM      6  N   UNL d   1       0.374  -0.170   1.520  0.00  0.00    -0.271 N 
BRANCH   6   7
ATOM      7  C   UNL d   1      -0.279   0.965   2.128  0.00  0.00     0.063 A 
ATOM      8  C   UNL d   1      -1.656   1.271   2.005  0.00  0.00     0.067 A 
ATOM      9  C   UNL d   1      -2.151   2.445   2.618  0.00  0.00     0.022 A 
ATOM     10  C   UNL d   1      -1.318   3.291   3.350  0.00  0.00     0.025 A 
ATOM     11  C   UNL d   1       0.024   2.967   3.486  0.00  0.00     0.036 A 
ATOM     12  C   UNL d   1       0.541   1.818   2.884  0.00  0.00     0.055 A 
ATOM     13 CL   UNL d   1       1.060   3.994   4.396  0.00  0.00    -0.084 Cl
BRANCH   8  14
ATOM     14  C   UNL d   1      -2.701   0.481   1.284  0.00  0.00     0.295 C 
ATOM     15  O   UNL d   1      -3.889   0.765   1.342  0.00  0.00    -0.259 OA
BRANCH  14  16
ATOM     16  O   UNL d   1      -2.193  -0.544   0.569  0.00  0.00    -0.322 OA
ATOM     17  C   UNL d   1      -3.151  -1.212  -0.254  0.00  0.00     0.213 C 
ENDBRANCH  14  16
ENDBRANCH   8  14
ENDBRANCH   6   7
BRANCH   6  18
ATOM     18  S   UNL d   1       0.995  -0.001  -0.059  0.00  0.00     0.265 S 
ATOM     19  O   UNL d   1       0.260   1.040  -0.748  0.00  0.00    -0.200 OA
ATOM     20  O   UNL d   1       1.141  -1.323  -0.632  0.00  0.00    -0.200 OA
BRANCH  18  21
ATOM     21  C   UNL d   1       2.659   0.642   0.187  0.00  0.00     0.080 A 
ATOM     22  C   UNL d   1       2.876   2.023   0.231  0.00  0.00     0.041 A 
ATOM     23  C   UNL d   1       4.170   2.527   0.463  0.00  0.00     0.049 A 
ATOM     24  C   UNL d   1       5.238   1.628   0.628  0.00  0.00     0.016 A 
ATOM     25  C   UNL d   1       5.031   0.256   0.516  0.00  0.00     0.002 A 
ATOM     26  C   UNL d   1       3.752  -0.231   0.253  0.00  0.00     0.025 A 
BRANCH  23  27
ATOM     27  C   UNL d   1       4.435   4.011   0.560  0.00  0.00     0.417 C 
ATOM     28  F   UNL d   1       3.323   4.774   0.378  0.00  0.00    -0.166 F 
ATOM     29  F   UNL d   1       4.935   4.359   1.777  0.00  0.00    -0.166 F 
ATOM     30  F   UNL d   1       5.344   4.441  -0.356  0.00  0.00    -0.166 F 
ENDBRANCH  23  27
ENDBRANCH  18  21
ENDBRANCH   6  18
ENDBRANCH   5   6
ENDBRANCH   4   5
ENDBRANCH   3   4
TORSDOF 9
