REMARK  4 active torsions:
REMARK  status: ('A' for Active; 'I' for Inactive)
REMARK    1  A    between atoms: C_2  and  C_1 
REMARK    2  A    between atoms: C_6  and  C_2 
REMARK    3  A    between atoms: N_8  and  C_3 
REMARK    4  A    between atoms: O_14  and  C_11 
ROOT
ATOM      1  C   UNL d   1       1.051  -0.162  -0.066  0.00  0.00     0.110 C 
ATOM      2  C   UNL d   1       0.451  -1.349   0.162  0.00  0.00     0.111 C 
ATOM      3  C   UNL d   1       0.343   1.031  -0.344  0.00  0.00     0.105 C 
ATOM      4  N   UNL d   1      -0.209   2.037  -0.536  0.00  0.00    -0.191 NA
ENDROOT
BRANCH   1   5
ATOM      5  C   UNL d   1       2.557  -0.137  -0.067  0.00  0.00     0.204 C 
ATOM      6  O   UNL d   1       3.214  -1.158  -0.266  0.00  0.00    -0.286 OA
BRANCH   5   7
ATOM      7  C   UNL d   1       3.293   1.149   0.140  0.00  0.00     0.016 A 
ATOM      8  C   UNL d   1       2.825   2.173   0.972  0.00  0.00     0.018 A 
ATOM      9  C   UNL d   1       3.544   3.369   1.109  0.00  0.00     0.037 A 
ATOM     10  C   UNL d   1       4.761   3.539   0.453  0.00  0.00     0.068 A 
ATOM     11  C   UNL d   1       5.257   2.500  -0.337  0.00  0.00     0.037 A 
ATOM     12  C   UNL d   1       4.531   1.313  -0.494  0.00  0.00     0.018 A 
BRANCH  10  13
ATOM     13  O   UNL d   1       5.555   4.652   0.509  0.00  0.00    -0.356 OA
ATOM     14  C   UNL d   1       5.083   5.740   1.295  0.00  0.00     0.210 C 
ENDBRANCH  10  13
ENDBRANCH   5   7
ENDBRANCH   1   5
BRANCH   2  15
ATOM     15  N   UNL d   1      -0.876  -1.789   0.238  0.00  0.00    -0.397 N 
ATOM     16  C   UNL d   1      -2.082  -0.970   0.103  0.00  0.00     0.148 C 
ATOM     17  C   UNL d   1      -1.192  -3.197   0.527  0.00  0.00     0.148 C 
ENDBRANCH   2  15
TORSDOF 4
