REMARK  8 active torsions:
REMARK  status: ('A' for Active; 'I' for Inactive)
REMARK    1  A    between atoms: N_9  and  C_1 
REMARK    2  A    between atoms: C_15  and  N_2 
REMARK    3  A    between atoms: C_3  and  C_15 
REMARK    4  A    between atoms: S_17  and  C_10 
REMARK    5  A    between atoms: C_16  and  C_18 
REMARK    6  A    between atoms: C_29  and  S_17 
REMARK    7  A    between atoms: C_20  and  C_29 
REMARK       I    between atoms: N_22  and  C_20 
REMARK    8  A    between atoms: C_24  and  N_22 
ROOT
ATOM      1  C   UNL d   1       3.284   0.847  -0.248  0.00  0.00     0.120 A 
ATOM      2  N   UNL d   1       3.535   0.236  -1.459  0.00  0.00    -0.318 N 
ATOM      3  C   UNL d   1       4.824  -0.215  -1.377  0.00  0.00     0.162 A 
ATOM      4  N   UNL d   1       4.351   0.719   0.518  0.00  0.00    -0.285 N 
ATOM      5  HN  UNL d   1       4.448   1.072   1.470  1.00  0.00     0.188 HD
ATOM      6  N   UNL d   1       5.302   0.036  -0.181  0.00  0.00    -0.278 N 
ATOM      7  HN  UNL d   1       6.223  -0.233   0.165  1.00  0.00     0.189 HD
ATOM      8  C   UNL d   1       2.635   0.045  -2.568  0.00  0.00     0.160 C 
ENDROOT
BRANCH   3   9
ATOM      9  S   UNL d   1       5.714  -0.873  -2.698  0.00  0.00    -0.083 SA
BRANCH   9  10
ATOM     10  C   UNL d   1       7.224  -1.469  -1.896  0.00  0.00     0.185 C 
BRANCH  10  11
ATOM     11  C   UNL d   1       8.264  -0.405  -1.583  0.00  0.00     0.231 C 
ATOM     12  N   UNL d   1       7.817   0.728  -0.933  0.00  0.00    -0.327 N 
ATOM     13  H   UNL d   1       6.853   0.713  -0.608  0.00  0.00     0.169 HD
ATOM     14  O   UNL d   1       9.453  -0.657  -1.822  0.00  0.00    -0.272 OA
BRANCH  12  15
ATOM     15  C   UNL d   1       8.604   1.769  -0.405  0.00  0.00     0.035 A 
ATOM     16  C   UNL d   1       9.958   1.919  -0.701  0.00  0.00     0.045 A 
ATOM     17  C   UNL d   1      10.752   2.837  -0.001  0.00  0.00     0.050 A 
ATOM     18  C   UNL d   1      10.147   3.672   0.949  0.00  0.00     0.016 A 
ATOM     19  C   UNL d   1       8.774   3.590   1.188  0.00  0.00     0.003 A 
ATOM     20  C   UNL d   1       8.007   2.639   0.514  0.00  0.00     0.029 A 
BRANCH  17  21
ATOM     21  C   UNL d   1      12.240   2.866  -0.225  0.00  0.00     0.417 C 
ATOM     22  F   UNL d   1      12.673   2.007  -1.190  0.00  0.00    -0.166 F 
ATOM     23  F   UNL d   1      12.693   4.096  -0.595  0.00  0.00    -0.166 F 
ATOM     24  F   UNL d   1      12.934   2.536   0.901  0.00  0.00    -0.166 F 
ENDBRANCH  17  21
ENDBRANCH  12  15
ENDBRANCH  10  11
ENDBRANCH   9  10
ENDBRANCH   3   9
BRANCH   1  25
ATOM     25  C   UNL d   1       2.000   1.463   0.172  0.00  0.00     0.227 C 
BRANCH  25  26
ATOM     26  N   UNL d   1       1.865   2.840  -0.300  0.00  0.00    -0.287 N 
ATOM     27  C   UNL d   1       2.141   4.006   0.379  0.00  0.00     0.060 A 
ATOM     28  C   UNL d   1       1.534   5.015  -0.362  0.00  0.00     0.150 A 
ATOM     29  C   UNL d   1       2.911   4.061   1.652  0.00  0.00     0.072 C 
ATOM     30  C   UNL d   1       1.035   4.374  -1.524  0.00  0.00     0.057 A 
ATOM     31  N   UNL d   1       1.246   3.052  -1.483  0.00  0.00    -0.300 N 
ATOM     32  C   UNL d   1       0.342   4.971  -2.697  0.00  0.00     0.072 C 
ATOM     33  HN  UNL d   1       0.995   2.359  -2.188  1.00  0.00     0.187 HD
BRANCH  28  34
ATOM     34  N   UNL d   1       1.435   6.411  -0.017  0.00  0.00    -0.112 N 
ATOM     35  O   UNL d   1       1.877   6.763   1.082  0.00  0.00    -0.532 OA
ATOM     36  O   UNL d   1       0.885   7.157  -0.838  0.00  0.00    -0.532 OA
ENDBRANCH  28  34
ENDBRANCH  25  26
ENDBRANCH   1  25
TORSDOF 8
