REMARK  6 active torsions:
REMARK  status: ('A' for Active; 'I' for Inactive)
REMARK    1  A    between atoms: O_6  and  C_1 
REMARK    2  A    between atoms: C_8  and  C_1 
REMARK    3  A    between atoms: N_2  and  C_7 
REMARK    4  A    between atoms: N_3  and  O_6 
REMARK    5  A    between atoms: C_9  and  C_5 
REMARK    6  A    between atoms: N_16  and  C_5 
ROOT
ATOM      1  N   UNL d   1      -3.145  -2.002   1.315  0.00  0.00    -0.246 N 
ATOM      2  HN  UNL d   1      -3.576  -2.853   1.676  1.00  0.00     0.196 HD
ATOM      3  C   UNL d   1      -1.895  -1.691   1.480  0.00  0.00     0.109 C 
ENDROOT
BRANCH   3   4
ATOM      4  C   UNL d   1      -1.037  -2.638   2.259  0.00  0.00     0.006 A 
ATOM      5  C   UNL d   1       0.063  -2.151   2.980  0.00  0.00     0.044 A 
ATOM      6  C   UNL d   1       0.932  -3.036   3.637  0.00  0.00     0.039 A 
ATOM      7  C   UNL d   1       0.661  -4.412   3.586  0.00  0.00     0.030 A 
ATOM      8  C   UNL d   1      -0.457  -4.892   2.894  0.00  0.00     0.003 A 
ATOM      9  C   UNL d   1      -1.306  -4.008   2.231  0.00  0.00     0.015 A 
BRANCH   6  10
ATOM     10  N   UNL d   1       2.090  -2.539   4.316  0.00  0.00    -0.333 N 
ATOM     11  C   UNL d   1       2.446  -1.211   4.479  0.00  0.00     0.096 A 
ATOM     12  C   UNL d   1       3.659  -1.135   5.128  0.00  0.00     0.019 A 
ATOM     13  C   UNL d   1       4.068  -2.453   5.398  0.00  0.00     0.019 A 
ATOM     14  C   UNL d   1       3.089  -3.292   4.909  0.00  0.00     0.096 A 
ENDBRANCH   6  10
ENDBRANCH   3   4
BRANCH   3  15
ATOM     15  N   UNL d   1      -1.305  -0.561   0.956  0.00  0.00    -0.286 NA
ATOM     16  H   UNL d   1      -1.844  -0.148   0.203  0.00  0.00     0.125 HD
ATOM     17  H   UNL d   1      -0.327  -0.661   0.706  0.00  0.00     0.125 HD
ENDBRANCH   3  15
BRANCH   1  18
ATOM     18  O   UNL d   1      -3.833  -1.022   0.576  0.00  0.00    -0.196 OA
BRANCH  18  19
ATOM     19  C   UNL d   1      -5.137  -1.422   0.363  0.00  0.00     0.314 C 
ATOM     20  O   UNL d   1      -5.627  -2.480   0.753  0.00  0.00    -0.260 OA
BRANCH  19  21
ATOM     21  C   UNL d   1      -5.913  -0.310  -0.321  0.00  0.00     0.279 C 
ATOM     22 CL   UNL d   1      -4.945   0.495  -1.584  0.00  0.00    -0.097 Cl
ATOM     23 CL   UNL d   1      -7.406  -0.943  -1.059  0.00  0.00    -0.097 Cl
ENDBRANCH  19  21
ENDBRANCH  18  19
ENDBRANCH   1  18
TORSDOF 6
