REMARK  2 active torsions:
REMARK  status: ('A' for Active; 'I' for Inactive)
REMARK       I    between atoms: C_2  and  N_1 
REMARK    1  A    between atoms: C_3  and  N_1 
REMARK       I    between atoms: N_9  and  C_2 
REMARK    2  A    between atoms: C_13  and  N_9 
ROOT
ATOM      1  N   UNL d   1       0.985   0.064  -0.328  0.00  0.00    -0.293 N 
ATOM      2  C   UNL d   1       0.256  -1.086  -0.242  0.00  0.00     0.326 C 
ATOM      3  N   UNL d   1       0.933  -2.262  -0.358  0.00  0.00    -0.309 N 
ATOM      4  O   UNL d   1      -0.957  -0.956  -0.070  0.00  0.00    -0.247 OA
ATOM      5  H   UNL d   1       0.391   0.873  -0.224  0.00  0.00     0.172 HD
ATOM      6  H   UNL d   1       1.923  -2.155  -0.565  0.00  0.00     0.170 HD
ENDROOT
BRANCH   1   7
ATOM      7  C   UNL d   1       2.369   0.256  -0.409  0.00  0.00     0.131 A 
ATOM      8  N   UNL d   1       3.185  -0.824  -0.484  0.00  0.00    -0.349 N 
ATOM      9  C   UNL d   1       4.516  -0.567  -0.445  0.00  0.00     0.114 A 
ATOM     10  HN  UNL d   1       2.819  -1.772  -0.565  1.00  0.00     0.167 HD
ATOM     11  C   UNL d   1       5.041   0.714  -0.343  0.00  0.00     0.021 A 
ATOM     12  N   UNL d   1       4.232   1.796  -0.316  0.00  0.00    -0.359 N 
ATOM     13  C   UNL d   1       6.509   0.937  -0.168  0.00  0.00     0.069 C 
ATOM     14  C   UNL d   1       2.892   1.560  -0.362  0.00  0.00     0.050 A 
ATOM     15  HN  UNL d   1       4.607   2.743  -0.263  1.00  0.00     0.165 HD
ATOM     16  C   UNL d   1       2.019   2.778  -0.324  0.00  0.00     0.072 C 
ENDBRANCH   1   7
BRANCH   3  17
ATOM     17  C   UNL d   1       0.429  -3.573  -0.238  0.00  0.00     0.036 A 
ATOM     18  C   UNL d   1      -0.883  -3.868   0.140  0.00  0.00     0.029 A 
ATOM     19  C   UNL d   1      -1.309  -5.194   0.263  0.00  0.00     0.002 A 
ATOM     20  C   UNL d   1      -0.426  -6.239   0.004  0.00  0.00     0.000 A 
ATOM     21  C   UNL d   1       0.883  -5.958  -0.379  0.00  0.00     0.002 A 
ATOM     22  C   UNL d   1       1.309  -4.631  -0.495  0.00  0.00     0.029 A 
ENDBRANCH   3  17
TORSDOF 2
