REMARK  2 active torsions:
REMARK  status: ('A' for Active; 'I' for Inactive)
REMARK    1  A    between atoms: C_12  and  C_8 
REMARK    2  A    between atoms: C_13  and  C_9 
ROOT
ATOM      1  C   UNL d   1      -0.250   0.747   0.010  0.00  0.00     0.129 A 
ATOM      2  N   UNL d   1      -0.294  -0.650   0.038  0.00  0.00    -0.244 N 
ATOM      3  N   UNL d   1      -1.573  -1.103   0.065  0.00  0.00    -0.292 N 
ATOM      4  HN  UNL d   1      -1.882  -2.073   0.120  1.00  0.00     0.187 HD
ATOM      5  N   UNL d   1       0.918   1.454   0.005  0.00  0.00    -0.337 N 
ATOM      6  HN  UNL d   1       0.924   2.474  -0.002  1.00  0.00     0.167 HD
ATOM      7  C   UNL d   1      -1.557   1.166  -0.020  0.00  0.00     0.082 A 
ATOM      8  C   UNL d   1       2.030   0.763   0.011  0.00  0.00     0.120 A 
ATOM      9  C   UNL d   1      -2.345  -0.009   0.004  0.00  0.00     0.062 A 
ATOM     10  C   UNL d   1       0.895  -1.394   0.033  0.00  0.00     0.034 A 
ATOM     11  C   UNL d   1       2.074  -0.743   0.017  0.00  0.00     0.061 A 
ATOM     12  C   UNL d   1       0.831  -2.891   0.033  0.00  0.00     0.070 C 
ENDROOT
BRANCH   9  13
ATOM     13  C   UNL d   1      -3.806  -0.100  -0.028  0.00  0.00    -0.008 A 
ATOM     14  C   UNL d   1      -4.568   0.872  -0.695  0.00  0.00     0.015 A 
ATOM     15  C   UNL d   1      -5.963   0.785  -0.725  0.00  0.00     0.024 A 
ATOM     16  C   UNL d   1      -6.605  -0.272  -0.084  0.00  0.00     0.034 A 
ATOM     17  C   UNL d   1      -5.865  -1.246   0.582  0.00  0.00     0.024 A 
ATOM     18 CL   UNL d   1      -8.322  -0.376  -0.120  0.00  0.00    -0.084 Cl
ATOM     19  C   UNL d   1      -4.469  -1.162   0.606  0.00  0.00     0.015 A 
ENDBRANCH   9  13
BRANCH   8  20
ATOM     20  C   UNL d   1       3.377   1.492   0.011  0.00  0.00     0.432 C 
ATOM     21  F   UNL d   1       4.439   0.636   0.007  0.00  0.00    -0.165 F 
ATOM     22  F   UNL d   1       3.533   2.292  -1.079  0.00  0.00    -0.165 F 
ATOM     23  F   UNL d   1       3.536   2.284   1.106  0.00  0.00    -0.165 F 
ENDBRANCH   8  20
TORSDOF 2
