REMARK  8 active torsions:
REMARK  status: ('A' for Active; 'I' for Inactive)
REMARK    1  A    between atoms: N_3  and  C_1 
REMARK    2  A    between atoms: N_7  and  C_1 
REMARK    3  A    between atoms: C_6  and  C_2 
REMARK    4  A    between atoms: C_10  and  C_5 
REMARK    5  A    between atoms: N_13  and  C_5 
REMARK    6  A    between atoms: O_15  and  C_6 
REMARK    7  A    between atoms: C_14  and  N_7 
REMARK    8  A    between atoms: C_26  and  O_15 
ROOT
ATOM      1  C   UNL d   1       0.796   1.741  -2.217  0.00  0.00     0.134 C 
ATOM      2  C   UNL d   1       0.324   3.015  -2.219  0.00  0.00     0.163 C 
ATOM      3  C   UNL d   1       1.041   4.125  -2.745  0.00  0.00     0.109 C 
ATOM      4  N   UNL d   1       1.579   5.029  -3.240  0.00  0.00    -0.191 NA
ENDROOT
BRANCH   2   5
ATOM      5  C   UNL d   1      -0.925   3.295  -1.476  0.00  0.00     0.307 C 
ATOM      6  O   UNL d   1      -1.187   2.796  -0.387  0.00  0.00    -0.258 OA
BRANCH   5   7
ATOM      7  O   UNL d   1      -1.667   4.252  -2.079  0.00  0.00    -0.317 OA
BRANCH   7   8
ATOM      8  C   UNL d   1      -2.681   4.841  -1.243  0.00  0.00     0.174 C 
ATOM      9  C   UNL d   1      -3.888   3.941  -1.035  0.00  0.00     0.034 C 
ENDBRANCH   7   8
ENDBRANCH   5   7
ENDBRANCH   2   5
BRANCH   1  10
ATOM     10  N   UNL d   1      -0.017   0.645  -2.001  0.00  0.00    -0.331 N 
ATOM     11  C   UNL d   1      -1.115   0.393  -2.671  0.00  0.00     0.089 C 
ATOM     12  HN  UNL d   1       0.257  -0.012  -1.271  1.00  0.00     0.168 HD
BRANCH  11  13
ATOM     13  C   UNL d   1      -1.739   1.195  -3.789  0.00  0.00     0.003 A 
ATOM     14  C   UNL d   1      -0.961   1.819  -4.770  0.00  0.00     0.021 A 
ATOM     15  C   UNL d   1      -1.522   2.755  -5.651  0.00  0.00    -0.061 A 
ATOM     16  C   UNL d   1      -0.655   3.586  -6.554  0.00  0.00     0.048 C 
ATOM     17  C   UNL d   1      -2.902   2.980  -5.617  0.00  0.00     0.007 A 
ATOM     18  C   UNL d   1      -3.703   2.281  -4.716  0.00  0.00     0.002 A 
ATOM     19  C   UNL d   1      -3.124   1.400  -3.797  0.00  0.00     0.014 A 
ENDBRANCH  11  13
BRANCH  11  20
ATOM     20  N   UNL d   1      -1.770  -0.735  -2.236  0.00  0.00    -0.288 NA
ATOM     21  H   UNL d   1      -1.285  -1.113  -1.424  0.00  0.00     0.125 HD
ATOM     22  H   UNL d   1      -2.746  -0.600  -2.004  0.00  0.00     0.125 HD
ENDBRANCH  11  20
ENDBRANCH   1  10
BRANCH   1  23
ATOM     23  N   UNL d   1       2.163   1.464  -2.154  0.00  0.00    -0.341 N 
ATOM     24  H   UNL d   1       2.272   0.485  -1.893  0.00  0.00     0.167 HD
BRANCH  23  25
ATOM     25  C   UNL d   1       3.196   1.867  -3.014  0.00  0.00     0.033 A 
ATOM     26  C   UNL d   1       3.124   1.709  -4.397  0.00  0.00     0.031 A 
ATOM     27  C   UNL d   1       4.214   2.029  -5.206  0.00  0.00     0.026 A 
ATOM     28  C   UNL d   1       5.401   2.477  -4.633  0.00  0.00     0.034 A 
ATOM     29  C   UNL d   1       5.514   2.580  -3.251  0.00  0.00     0.026 A 
ATOM     30 CL   UNL d   1       6.740   2.878  -5.636  0.00  0.00    -0.084 Cl
ATOM     31  C   UNL d   1       4.420   2.259  -2.446  0.00  0.00     0.031 A 
ENDBRANCH  23  25
ENDBRANCH   1  23
TORSDOF 8
