REMARK  5 active torsions:
REMARK  status: ('A' for Active; 'I' for Inactive)
REMARK    1  A    between atoms: C_7  and  N_1 
REMARK    2  A    between atoms: C_15  and  C_8 
REMARK    3  A    between atoms: O_16  and  C_18 
REMARK    4  A    between atoms: C_20  and  O_16 
REMARK    5  A    between atoms: C_26  and  C_20 
ROOT
ATOM      1  N   UNL d   1      -1.273   0.910  -1.043  0.00  0.00    -0.220 N 
ATOM      2  C   UNL d   1      -0.016  -0.856  -0.440  0.00  0.00     0.058 A 
ATOM      3  C   UNL d   1      -1.385  -0.305  -0.358  0.00  0.00     0.279 A 
ATOM      4  N   UNL d   1       0.005   1.167  -1.539  0.00  0.00    -0.294 N 
ATOM      5  HN  UNL d   1       0.301   1.986  -2.071  1.00  0.00     0.187 HD
ATOM      6  C   UNL d   1       0.750   0.152  -1.186  0.00  0.00     0.038 A 
ATOM      7  C   UNL d   1       0.275  -2.040   0.111  0.00  0.00     0.030 C 
ATOM      8  O   UNL d   1      -2.330  -0.846   0.188  0.00  0.00    -0.265 OA
ATOM      9  C   UNL d   1       2.206   0.065  -1.506  0.00  0.00     0.071 C 
ENDROOT
BRANCH   7  10
ATOM     10  C   UNL d   1       1.584  -2.671   0.114  0.00  0.00    -0.035 A 
ATOM     11  C   UNL d   1       2.452  -2.467   1.188  0.00  0.00     0.014 A 
ATOM     12  C   UNL d   1       3.695  -3.100   1.209  0.00  0.00     0.037 A 
ATOM     13  C   UNL d   1       4.068  -3.946   0.164  0.00  0.00     0.069 A 
ATOM     14  C   UNL d   1       3.214  -4.115  -0.929  0.00  0.00     0.037 A 
ATOM     15  C   UNL d   1       1.967  -3.492  -0.948  0.00  0.00     0.014 A 
BRANCH  13  16
ATOM     16  O   UNL d   1       5.279  -4.568   0.314  0.00  0.00    -0.347 OA
BRANCH  16  17
ATOM     17  C   UNL d   1       5.431  -5.765  -0.452  0.00  0.00     0.214 C 
BRANCH  17  18
ATOM     18  C   UNL d   1       6.539  -6.630   0.098  0.00  0.00    -0.034 A 
ATOM     19  C   UNL d   1       6.402  -8.026   0.054  0.00  0.00     0.009 A 
ATOM     20  C   UNL d   1       7.427  -8.854   0.510  0.00  0.00     0.001 A 
ATOM     21  C   UNL d   1       8.601  -8.294   1.006  0.00  0.00     0.000 A 
ATOM     22  C   UNL d   1       8.754  -6.909   1.044  0.00  0.00     0.001 A 
ATOM     23  C   UNL d   1       7.729  -6.078   0.587  0.00  0.00     0.009 A 
ENDBRANCH  17  18
ENDBRANCH  16  17
ENDBRANCH  13  16
ENDBRANCH   7  10
BRANCH   1  24
ATOM     24  C   UNL d   1      -2.290   1.869  -1.259  0.00  0.00     0.061 A 
ATOM     25  C   UNL d   1      -3.555   1.741  -0.672  0.00  0.00     0.057 A 
ATOM     26  C   UNL d   1      -4.554   2.698  -0.894  0.00  0.00     0.058 A 
ATOM     27 CL   UNL d   1      -6.076   2.465  -0.107  0.00  0.00    -0.082 Cl
ATOM     28  C   UNL d   1      -4.302   3.796  -1.720  0.00  0.00     0.055 A 
ATOM     29  C   UNL d   1      -3.045   3.937  -2.308  0.00  0.00     0.028 A 
ATOM     30 CL   UNL d   1      -5.491   5.002  -2.053  0.00  0.00    -0.083 Cl
ATOM     31  C   UNL d   1      -2.046   2.986  -2.073  0.00  0.00     0.033 A 
ENDBRANCH   1  24
TORSDOF 5
