REMARK  8 active torsions:
REMARK  status: ('A' for Active; 'I' for Inactive)
REMARK    1  A    between atoms: C_2  and  C_27 
REMARK    2  A    between atoms: C_4  and  C_2 
REMARK    3  A    between atoms: S_10  and  C_28 
REMARK    4  A    between atoms: C_27  and  S_10 
REMARK    5  A    between atoms: O_11  and  C_13 
REMARK    6  A    between atoms: C_18  and  O_11 
REMARK    7  A    between atoms: C_28  and  C_14 
REMARK    8  A    between atoms: C_17  and  C_18 
ROOT
ATOM      1  C   UNL d   1      -3.526   6.100  -0.325  0.00  0.00     0.011 A 
ATOM      2  C   UNL d   1      -2.600   5.537  -1.210  0.00  0.00     0.018 A 
ATOM      3  C   UNL d   1      -3.172   7.232   0.416  0.00  0.00     0.018 A 
ATOM      4  C   UNL d   1      -0.967   7.216  -0.587  0.00  0.00     0.069 A 
ATOM      5  C   UNL d   1      -1.319   6.093  -1.337  0.00  0.00     0.037 A 
ATOM      6  C   UNL d   1      -1.894   7.775   0.294  0.00  0.00     0.037 A 
ENDROOT
BRANCH   1   7
ATOM      7  C   UNL d   1      -4.879   5.520  -0.100  0.00  0.00     0.168 C 
ATOM      8  O   UNL d   1      -5.792   6.256   0.279  0.00  0.00    -0.292 OA
BRANCH   7   9
ATOM      9  C   UNL d   1      -5.107   4.034  -0.288  0.00  0.00     0.158 C 
BRANCH   9  10
ATOM     10  S   UNL d   1      -4.084   3.032   0.838  0.00  0.00    -0.157 SA
BRANCH  10  11
ATOM     11  C   UNL d   1      -4.693   3.665   2.434  0.00  0.00     0.112 C 
BRANCH  11  12
ATOM     12  C   UNL d   1      -4.031   2.957   3.593  0.00  0.00    -0.047 A 
ATOM     13  C   UNL d   1      -2.855   3.469   4.164  0.00  0.00     0.033 A 
ATOM     14  C   UNL d   1      -2.247   2.825   5.249  0.00  0.00     0.056 A 
ATOM     15  C   UNL d   1      -2.810   1.655   5.768  0.00  0.00     0.055 A 
ATOM     16 CL   UNL d   1      -0.814   3.533   5.905  0.00  0.00    -0.083 Cl
ATOM     17  C   UNL d   1      -3.969   1.128   5.194  0.00  0.00     0.026 A 
ATOM     18 CL   UNL d   1      -2.129   0.816   7.117  0.00  0.00    -0.083 Cl
ATOM     19  C   UNL d   1      -4.574   1.773   4.111  0.00  0.00     0.010 A 
ENDBRANCH  11  12
ENDBRANCH  10  11
ENDBRANCH   9  10
ENDBRANCH   7   9
ENDBRANCH   1   7
BRANCH   4  20
ATOM     20  O   UNL d   1       0.247   7.838  -0.601  0.00  0.00    -0.347 OA
BRANCH  20  21
ATOM     21  C   UNL d   1       1.050   7.665  -1.766  0.00  0.00     0.214 C 
BRANCH  21  22
ATOM     22  C   UNL d   1       1.990   8.844  -1.834  0.00  0.00    -0.034 A 
ATOM     23  C   UNL d   1       3.289   8.765  -1.308  0.00  0.00     0.012 A 
ATOM     24  C   UNL d   1       4.133   9.877  -1.347  0.00  0.00     0.043 A 
ATOM     25  C   UNL d   1       3.676  11.067  -1.902  0.00  0.00     0.116 A 
ATOM     26  C   UNL d   1       2.390  11.170  -2.415  0.00  0.00     0.043 A 
ATOM     27  F   UNL d   1       4.487  12.134  -1.935  0.00  0.00    -0.206 F 
ATOM     28  C   UNL d   1       1.545  10.061  -2.378  0.00  0.00     0.012 A 
ENDBRANCH  21  22
ENDBRANCH  20  21
ENDBRANCH   4  20
TORSDOF 8
