REMARK  12 active torsions:
REMARK  status: ('A' for Active; 'I' for Inactive)
REMARK    1  A    between atoms: C_2  and  S_1 
REMARK    2  A    between atoms: N_9  and  S_1 
REMARK    3  A    between atoms: C_3  and  C_11 
REMARK    4  A    between atoms: C_4  and  C_13 
REMARK    5  A    between atoms: O_10  and  C_6 
REMARK    6  A    between atoms: C_25  and  N_9 
REMARK    7  A    between atoms: C_11  and  O_10 
REMARK    8  A    between atoms: O_21  and  C_12 
REMARK    9  A    between atoms: C_13  and  O_21 
REMARK   10  A    between atoms: N_22  and  C_26 
REMARK   11  A    between atoms: C_24  and  C_25 
REMARK   12  A    between atoms: C_26  and  C_24 
ROOT
ATOM      1  C   UNL d   1       0.413   0.744  -1.512  0.00  0.00     0.110 A 
ATOM      2  C   UNL d   1      -0.265  -0.065  -2.449  0.00  0.00     0.064 A 
ATOM      3  C   UNL d   1       0.627   2.098  -1.769  0.00  0.00     0.092 A 
ATOM      4  C   UNL d   1      -0.722   0.475  -3.645  0.00  0.00     0.070 A 
ATOM      5  C   UNL d   1       0.240   2.597  -3.031  0.00  0.00     0.041 A 
ATOM      6  C   UNL d   1      -0.441   1.797  -3.946  0.00  0.00     0.039 A 
ENDROOT
BRANCH   1   7
ATOM      7  S   UNL d   1       0.880  -0.068   0.001  0.00  0.00     0.244 S 
ATOM      8  O   UNL d   1       0.495  -1.462  -0.086  0.00  0.00    -0.206 OA
ATOM      9  O   UNL d   1       0.437   0.740   1.113  0.00  0.00    -0.206 OA
BRANCH   7  10
ATOM     10  N   UNL d   1       2.571  -0.042   0.005  0.00  0.00    -0.215 NA
ATOM     11  H   UNL d   1       2.909  -0.108   0.962  0.00  0.00     0.139 HD
BRANCH  10  12
ATOM     12  C   UNL d   1       3.258  -0.868  -1.002  0.00  0.00     0.106 C 
BRANCH  12  13
ATOM     13  C   UNL d   1       4.767  -0.709  -0.834  0.00  0.00     0.045 C 
BRANCH  13  14
ATOM     14  C   UNL d   1       5.547  -1.472  -1.912  0.00  0.00     0.272 C 
BRANCH  14  15
ATOM     15  N   UNL d   1       5.232  -1.066  -3.293  0.00  0.00     0.080 N 
ATOM     16  C   UNL d   1       5.556   0.340  -3.547  0.00  0.00     0.309 C 
ATOM     17  C   UNL d   1       5.957  -1.918  -4.242  0.00  0.00     0.309 C 
ENDBRANCH  14  15
ENDBRANCH  13  14
ENDBRANCH  12  13
ENDBRANCH  10  12
ENDBRANCH   7  10
ENDBRANCH   1   7
BRANCH   3  18
ATOM     18  O   UNL d   1       1.182   2.932  -0.818  0.00  0.00    -0.341 OA
BRANCH  18  19
ATOM     19  C   UNL d   1       0.973   4.340  -1.049  0.00  0.00     0.293 C 
BRANCH  19  20
ATOM     20  C   UNL d   1       1.208   5.242   0.152  0.00  0.00     0.408 C 
ATOM     21  F   UNL d   1       1.832   4.631   1.180  0.00  0.00    -0.169 F 
ATOM     22  F   UNL d   1       1.966   6.309  -0.204  0.00  0.00    -0.169 F 
ATOM     23  F   UNL d   1       0.034   5.740   0.616  0.00  0.00    -0.169 F 
ENDBRANCH  19  20
ENDBRANCH  18  19
ENDBRANCH   3  18
BRANCH   4  24
ATOM     24  O   UNL d   1      -1.428  -0.196  -4.598  0.00  0.00    -0.342 OA
BRANCH  24  25
ATOM     25  C   UNL d   1      -2.231  -1.291  -4.139  0.00  0.00     0.293 C 
BRANCH  25  26
ATOM     26  C   UNL d   1      -3.425  -1.506  -5.064  0.00  0.00     0.408 C 
ATOM     27  F   UNL d   1      -3.445  -0.646  -6.106  0.00  0.00    -0.169 F 
ATOM     28  F   UNL d   1      -3.424  -2.760  -5.572  0.00  0.00    -0.169 F 
ATOM     29  F   UNL d   1      -4.588  -1.345  -4.389  0.00  0.00    -0.169 F 
ENDBRANCH  25  26
ENDBRANCH  24  25
ENDBRANCH   4  24
TORSDOF 12
