REMARK  6 active torsions:
REMARK  status: ('A' for Active; 'I' for Inactive)
REMARK    1  A    between atoms: C_9  and  C_1 
REMARK    2  A    between atoms: C_4  and  C_2 
REMARK    3  A    between atoms: O_18  and  C_9 
REMARK    4  A    between atoms: C_10  and  C_11 
REMARK    5  A    between atoms: C_17  and  C_12 
REMARK    6  A    between atoms: C_20  and  O_18 
ROOT
ATOM      1  C   UNL d   1       1.447   1.054   0.012  0.00  0.00     0.067 C 
ATOM      2  C   UNL d   1       0.191   1.897  -0.072  0.00  0.00     0.168 C 
ATOM      3  C   UNL d   1       1.374  -0.296  -0.016  0.00  0.00     0.024 C 
ATOM      4  C   UNL d   1      -1.062  -0.243  -0.002  0.00  0.00     0.321 C 
ATOM      5  N   UNL d   1       0.130  -0.885  -0.104  0.00  0.00    -0.312 N 
ATOM      6  N   UNL d   1      -1.000   1.096   0.164  0.00  0.00    -0.329 N 
ATOM      7  O   UNL d   1      -2.128  -0.846  -0.013  0.00  0.00    -0.247 OA
ATOM      8  C   UNL d   1       2.495  -1.301   0.035  0.00  0.00     0.069 C 
ATOM      9  H   UNL d   1       0.054  -1.896  -0.159  0.00  0.00     0.170 HD
ATOM     10  H   UNL d   1      -1.899   1.556   0.222  0.00  0.00     0.165 HD
ENDROOT
BRANCH   2  11
ATOM     11  C   UNL d   1       0.082   3.044   0.902  0.00  0.00     0.011 A 
ATOM     12  S   UNL d   1      -0.120   4.649   0.328  0.00  0.00    -0.083 SA
ATOM     13  C   UNL d   1       0.001   5.295   1.900  0.00  0.00     0.059 A 
ATOM     14  C   UNL d   1       0.098   4.309   2.858  0.00  0.00     0.029 A 
ATOM     15  C   UNL d   1       0.129   3.008   2.283  0.00  0.00     0.019 A 
BRANCH  13  16
ATOM     16  C   UNL d   1       0.003   6.688   2.173  0.00  0.00    -0.054 C 
ATOM     17  C   UNL d   1       0.015   7.866   2.417  0.00  0.00    -0.061 C 
BRANCH  17  18
ATOM     18  C   UNL d   1       0.013   9.260   2.719  0.00  0.00     0.018 A 
ATOM     19  C   UNL d   1      -0.047  10.199   1.688  0.00  0.00     0.020 A 
ATOM     20  C   UNL d   1      -0.084  11.561   1.989  0.00  0.00     0.001 A 
ATOM     21  C   UNL d   1      -0.058  11.985   3.318  0.00  0.00     0.000 A 
ATOM     22  C   UNL d   1       0.014  11.045   4.348  0.00  0.00     0.001 A 
ATOM     23  C   UNL d   1       0.051   9.683   4.050  0.00  0.00     0.020 A 
ENDBRANCH  17  18
ENDBRANCH  13  16
ENDBRANCH   2  11
BRANCH   1  24
ATOM     24  C   UNL d   1       2.757   1.748   0.123  0.00  0.00     0.293 C 
ATOM     25  O   UNL d   1       3.764   1.242   0.598  0.00  0.00    -0.259 OA
BRANCH  24  26
ATOM     26  O   UNL d   1       2.705   3.020  -0.350  0.00  0.00    -0.318 OA
BRANCH  26  27
ATOM     27  C   UNL d   1       3.930   3.769  -0.230  0.00  0.00     0.174 C 
ATOM     28  C   UNL d   1       4.176   4.233   1.198  0.00  0.00     0.034 C 
ENDBRANCH  26  27
ENDBRANCH  24  26
ENDBRANCH   1  24
TORSDOF 6
