REMARK  2 active torsions:
REMARK  status: ('A' for Active; 'I' for Inactive)
REMARK    1  A    between atoms: C_3  and  C_7 
REMARK       I    between atoms: N_4  and  C_3 
REMARK    2  A    between atoms: C_6  and  N_4 
ROOT
ATOM      1  N   UNL d   1       6.229   2.540  -3.040  0.00  0.00    -0.197 NA
ATOM      2  C   UNL d   1       5.946   1.574  -2.470  0.00  0.00     0.068 C 
ATOM      3  C   UNL d   1       5.576   0.332  -1.793  0.00  0.00     0.226 C 
ENDROOT
BRANCH   3   4
ATOM      4  C   UNL d   1       4.088   0.257  -1.557  0.00  0.00     0.231 C 
ATOM      5  N   UNL d   1       3.288   0.373  -2.683  0.00  0.00    -0.356 N 
ATOM      6  H   UNL d   1       3.710   0.652  -3.561  0.00  0.00     0.162 HD
ATOM      7  O   UNL d   1       3.646   0.040  -0.431  0.00  0.00    -0.273 OA
BRANCH   5   8
ATOM      8  C   UNL d   1       1.821   0.368  -2.639  0.00  0.00     0.085 C 
ATOM      9  C   UNL d   1       1.284   1.565  -1.840  0.00  0.00     0.034 C 
ATOM     10  C   UNL d   1      -0.248   1.573  -1.672  0.00  0.00    -0.045 C 
ATOM     11  C   UNL d   1      -0.628   2.684  -0.672  0.00  0.00     0.015 C 
ATOM     12  C   UNL d   1      -0.949   1.879  -3.008  0.00  0.00     0.015 C 
ATOM     13  C   UNL d   1      -0.709   0.217  -1.099  0.00  0.00     0.013 C 
ATOM     14  C   UNL d   1      -0.237  -1.000  -1.907  0.00  0.00    -0.016 C 
ATOM     15  C   UNL d   1       1.277  -0.982  -2.155  0.00  0.00     0.029 C 
ATOM     16  C   UNL d   1      -0.617  -2.287  -1.166  0.00  0.00     0.010 C 
ENDBRANCH   5   8
ENDBRANCH   3   4
TORSDOF 2
