REMARK  11 active torsions:
REMARK  status: ('A' for Active; 'I' for Inactive)
REMARK    1  A    between atoms: C_6  and  C_1 
REMARK    2  A    between atoms: N_11  and  C_2 
REMARK    3  A    between atoms: C_8  and  C_4 
REMARK    4  A    between atoms: C_9  and  C_4 
REMARK    5  A    between atoms: O_16  and  C_6 
REMARK    6  A    between atoms: O_18  and  C_8 
REMARK    7  A    between atoms: O_17  and  C_9 
REMARK    8  A    between atoms: C_10  and  N_12 
REMARK    9  A    between atoms: N_12  and  N_11 
REMARK   10  A    between atoms: C_21  and  O_17 
REMARK   11  A    between atoms: C_20  and  O_18 
ROOT
ATOM      1  N   UNL d   1       2.725   2.372  -0.028  0.00  0.00    -0.215 NA
ATOM      2  H   UNL d   1       3.193   1.554  -0.441  0.00  0.00     0.152 HD
ENDROOT
BRANCH   1   3
ATOM      3  C   UNL d   1       3.597   3.453   0.053  0.00  0.00     0.103 C 
ATOM      4  C   UNL d   1       4.945   3.495   0.004  0.00  0.00     0.126 C 
BRANCH   4   5
ATOM      5  C   UNL d   1       5.775   2.273  -0.043  0.00  0.00     0.300 C 
ATOM      6  O   UNL d   1       6.907   2.194   0.422  0.00  0.00    -0.259 OA
BRANCH   5   7
ATOM      7  O   UNL d   1       5.140   1.278  -0.715  0.00  0.00    -0.318 OA
BRANCH   7   8
ATOM      8  C   UNL d   1       5.979   0.190  -1.127  0.00  0.00     0.174 C 
ATOM      9  C   UNL d   1       6.420   0.477  -2.550  0.00  0.00     0.034 C 
ENDBRANCH   7   8
ENDBRANCH   5   7
ENDBRANCH   4   5
BRANCH   4  10
ATOM     10  C   UNL d   1       5.590   4.830   0.080  0.00  0.00     0.300 C 
ATOM     11  O   UNL d   1       5.024   5.853   0.424  0.00  0.00    -0.259 OA
BRANCH  10  12
ATOM     12  O   UNL d   1       6.877   4.756  -0.351  0.00  0.00    -0.318 OA
BRANCH  12  13
ATOM     13  C   UNL d   1       7.640   5.970  -0.341  0.00  0.00     0.174 C 
ATOM     14  C   UNL d   1       8.159   6.277   1.052  0.00  0.00     0.034 C 
ENDBRANCH  12  13
ENDBRANCH  10  12
ENDBRANCH   4  10
ENDBRANCH   1   3
BRANCH   1  15
ATOM     15  N   UNL d   1       1.935   2.023   1.040  0.00  0.00    -0.316 N 
ATOM     16  H   UNL d   1       2.458   1.931   1.924  0.00  0.00     0.181 HD
BRANCH  15  17
ATOM     17  C   UNL d   1       0.764   1.318   0.951  0.00  0.00     0.072 A 
ATOM     18  C   UNL d   1       0.265   0.619   2.049  0.00  0.00     0.108 A 
ATOM     19  S   UNL d   1      -1.234  -0.132   1.692  0.00  0.00    -0.093 SA
ATOM     20  C   UNL d   1      -1.229   0.462   0.105  0.00  0.00     0.059 A 
ATOM     21  C   UNL d   1      -0.111   1.220  -0.196  0.00  0.00    -0.026 A 
ATOM     22  C   UNL d   1       0.053   1.827  -1.551  0.00  0.00     0.051 C 
BRANCH  18  23
ATOM     23  C   UNL d   1       0.872   0.476   3.366  0.00  0.00     0.302 C 
ATOM     24  O   UNL d   1       1.969   0.931   3.679  0.00  0.00    -0.259 OA
BRANCH  23  25
ATOM     25  O   UNL d   1       0.071  -0.235   4.215  0.00  0.00    -0.322 OA
ATOM     26  C   UNL d   1       0.585  -0.420   5.533  0.00  0.00     0.213 C 
ENDBRANCH  23  25
ENDBRANCH  18  23
ENDBRANCH  15  17
ENDBRANCH   1  15
TORSDOF 11
