REMARK  4 active torsions:
REMARK  status: ('A' for Active; 'I' for Inactive)
REMARK    1  A    between atoms: C_12  and  C_2 
REMARK    2  A    between atoms: N_11  and  C_6 
REMARK    3  A    between atoms: C_21  and  N_11 
REMARK    4  A    between atoms: C_14  and  C_21 
ROOT
ATOM      1  C   UNL d   1       0.273   0.959   0.008  0.00  0.00     0.053 A 
ATOM      2  C   UNL d   1      -0.979   1.716  -0.032  0.00  0.00    -0.003 A 
ATOM      3  C   UNL d   1      -2.072   0.865  -0.052  0.00  0.00     0.065 A 
ATOM      4  C   UNL d   1       0.010  -0.406  -0.061  0.00  0.00     0.089 A 
ATOM      5  S   UNL d   1      -1.648  -0.783  -0.049  0.00  0.00    -0.082 SA
ATOM      6  C   UNL d   1       1.646   1.292   0.085  0.00  0.00     0.116 A 
ATOM      7  N   UNL d   1       0.904  -1.406  -0.121  0.00  0.00    -0.346 N 
ATOM      8  HN  UNL d   1       0.650  -2.393  -0.158  1.00  0.00     0.167 HD
ATOM      9  N   UNL d   1       2.568   0.306  -0.038  0.00  0.00    -0.338 N 
ATOM     10  HN  UNL d   1       3.563   0.529  -0.064  1.00  0.00     0.168 HD
ATOM     11  C   UNL d   1       2.157  -0.964  -0.125  0.00  0.00     0.182 A 
ENDROOT
BRANCH   6  12
ATOM     12  N   UNL d   1       2.120   2.563   0.374  0.00  0.00    -0.369 N 
ATOM     13  H   UNL d   1       1.399   3.259   0.526  0.00  0.00     0.161 HD
BRANCH  12  14
ATOM     14  C   UNL d   1       3.221   3.050  -0.445  0.00  0.00     0.186 C 
BRANCH  14  15
ATOM     15  C   UNL d   1       3.752   4.334   0.092  0.00  0.00     0.070 A 
ATOM     16  O   UNL d   1       3.254   5.487  -0.441  0.00  0.00    -0.325 OA
ATOM     17  C   UNL d   1       3.807   6.511   0.264  0.00  0.00     0.142 A 
ATOM     18  C   UNL d   1       4.648   6.030   1.238  0.00  0.00     0.027 A 
ATOM     19  C   UNL d   1       4.622   4.621   1.125  0.00  0.00     0.036 A 
ENDBRANCH  14  15
ENDBRANCH  12  14
ENDBRANCH   6  12
BRANCH   2  20
ATOM     20  C   UNL d   1      -1.205   3.167  -0.129  0.00  0.00    -0.024 A 
ATOM     21  C   UNL d   1      -0.397   3.967  -0.946  0.00  0.00     0.013 A 
ATOM     22  C   UNL d   1      -0.606   5.348  -1.038  0.00  0.00     0.007 A 
ATOM     23  C   UNL d   1      -1.682   5.949  -0.380  0.00  0.00    -0.062 A 
ATOM     24  C   UNL d   1      -2.519   5.153   0.406  0.00  0.00     0.007 A 
ATOM     25  C   UNL d   1      -1.915   7.424  -0.514  0.00  0.00     0.048 C 
ATOM     26  C   UNL d   1      -2.274   3.781   0.541  0.00  0.00     0.013 A 
ENDBRANCH   2  20
TORSDOF 4
