REMARK  4 active torsions:
REMARK  status: ('A' for Active; 'I' for Inactive)
REMARK       I    between atoms: N_2  and  C_1 
REMARK       I    between atoms: N_5  and  C_1 
REMARK    1  A    between atoms: C_3  and  N_2 
REMARK    2  A    between atoms: C_7  and  N_5 
REMARK    3  A    between atoms: C_10  and  C_7 
REMARK    4  A    between atoms: C_8  and  C_10 
ROOT
ATOM      1  C   UNL d   1       1.177  -0.165  -0.215  0.00  0.00     0.320 C 
ATOM      2  N   UNL d   1       0.516   0.465   0.816  0.00  0.00    -0.308 N 
ATOM      3  O   UNL d   1       0.645  -0.793  -1.123  0.00  0.00    -0.247 OA
ATOM      4  N   UNL d   1       2.542   0.005  -0.121  0.00  0.00    -0.343 N 
ATOM      5  H   UNL d   1       0.995   1.256   1.213  0.00  0.00     0.170 HD
ATOM      6  H   UNL d   1       2.913   0.585   0.617  0.00  0.00     0.164 HD
ENDROOT
BRANCH   2   7
ATOM      7  C   UNL d   1      -0.872   0.380   1.047  0.00  0.00     0.042 A 
ATOM      8  C   UNL d   1      -1.565   1.527   1.476  0.00  0.00    -0.035 A 
ATOM      9  C   UNL d   1      -0.939   2.892   1.459  0.00  0.00     0.050 C 
ATOM     10  C   UNL d   1      -2.902   1.403   1.899  0.00  0.00     0.009 A 
ATOM     11  C   UNL d   1      -3.550   0.171   1.850  0.00  0.00     0.001 A 
ATOM     12  C   UNL d   1      -2.878  -0.946   1.355  0.00  0.00     0.002 A 
ATOM     13  C   UNL d   1      -1.543  -0.836   0.952  0.00  0.00     0.030 A 
ENDBRANCH   2   7
BRANCH   4  14
ATOM     14  C   UNL d   1       3.439  -0.452  -1.168  0.00  0.00     0.129 C 
BRANCH  14  15
ATOM     15  C   UNL d   1       4.767  -1.021  -0.650  0.00  0.00     0.058 C 
BRANCH  15  16
ATOM     16  C   UNL d   1       4.747  -2.320   0.129  0.00  0.00    -0.057 A 
ATOM     17  C   UNL d   1       3.580  -3.031   0.426  0.00  0.00     0.007 A 
ATOM     18  C   UNL d   1       3.634  -4.221   1.162  0.00  0.00     0.001 A 
ATOM     19  C   UNL d   1       4.857  -4.720   1.601  0.00  0.00     0.000 A 
ATOM     20  C   UNL d   1       6.030  -4.033   1.303  0.00  0.00     0.001 A 
ATOM     21  C   UNL d   1       5.975  -2.842   0.575  0.00  0.00     0.007 A 
ENDBRANCH  15  16
ENDBRANCH  14  15
ENDBRANCH   4  14
TORSDOF 4
