REMARK  8 active torsions:
REMARK  status: ('A' for Active; 'I' for Inactive)
REMARK    1  A    between atoms: C_5  and  C_1 
REMARK    2  A    between atoms: C_2  and  C_6 
REMARK    3  A    between atoms: C_12  and  C_3 
REMARK    4  A    between atoms: C_4  and  C_12 
REMARK    5  A    between atoms: O_22  and  C_7 
REMARK    6  A    between atoms: O_23  and  C_8 
REMARK    7  A    between atoms: O_24  and  C_9 
REMARK    8  A    between atoms: O_25  and  C_12 
ROOT
ATOM      1  C   UNL d   1      -0.250   2.366   4.247  0.00  0.00     0.184 C 
ENDROOT
BRANCH   1   2
ATOM      2  C   UNL d   1       0.792   2.395   5.350  0.00  0.00    -0.020 A 
ATOM      3  C   UNL d   1       2.150   2.196   5.070  0.00  0.00     0.050 A 
ATOM      4  C   UNL d   1       3.126   2.258   6.079  0.00  0.00     0.104 A 
ATOM      5  C   UNL d   1       2.738   2.509   7.417  0.00  0.00     0.135 A 
ATOM      6  C   UNL d   1       1.371   2.729   7.694  0.00  0.00     0.104 A 
ATOM      7  C   UNL d   1       0.418   2.659   6.668  0.00  0.00     0.050 A 
BRANCH   4   8
ATOM      8  O   UNL d   1       4.460   2.091   5.806  0.00  0.00    -0.353 OA
ATOM      9  C   UNL d   1       4.861   1.850   4.462  0.00  0.00     0.210 C 
ENDBRANCH   4   8
BRANCH   5  10
ATOM     10  O   UNL d   1       3.566   2.543   8.509  0.00  0.00    -0.351 OA
ATOM     11  C   UNL d   1       4.948   2.256   8.382  0.00  0.00     0.210 C 
ENDBRANCH   5  10
BRANCH   6  12
ATOM     12  O   UNL d   1       0.793   2.971   8.919  0.00  0.00    -0.353 OA
ATOM     13  C   UNL d   1       1.568   3.667   9.886  0.00  0.00     0.210 C 
ENDBRANCH   6  12
ENDBRANCH   1   2
BRANCH   1  14
ATOM     14  C   UNL d   1      -0.368   1.030   3.522  0.00  0.00    -0.024 A 
ATOM     15  C   UNL d   1      -0.658  -0.144   4.235  0.00  0.00     0.026 A 
ATOM     16  C   UNL d   1      -0.821  -1.377   3.578  0.00  0.00     0.049 A 
ATOM     17  C   UNL d   1      -0.690  -1.425   2.179  0.00  0.00     0.032 A 
ATOM     18  C   UNL d   1      -0.411  -0.266   1.440  0.00  0.00     0.049 A 
ATOM     19  C   UNL d   1      -0.252   0.948   2.124  0.00  0.00     0.026 A 
BRANCH  16  20
ATOM     20  C   UNL d   1      -1.158  -2.636   4.343  0.00  0.00     0.417 C 
ATOM     21  F   UNL d   1      -1.294  -2.441   5.685  0.00  0.00    -0.166 F 
ATOM     22  F   UNL d   1      -0.213  -3.604   4.198  0.00  0.00    -0.166 F 
ATOM     23  F   UNL d   1      -2.330  -3.193   3.928  0.00  0.00    -0.166 F 
ENDBRANCH  16  20
BRANCH  18  24
ATOM     24  C   UNL d   1      -0.313  -0.326  -0.066  0.00  0.00     0.417 C 
ATOM     25  F   UNL d   1      -0.052   0.878  -0.647  0.00  0.00    -0.166 F 
ATOM     26  F   UNL d   1       0.673  -1.165  -0.489  0.00  0.00    -0.166 F 
ATOM     27  F   UNL d   1      -1.462  -0.777  -0.642  0.00  0.00    -0.166 F 
ENDBRANCH  18  24
ENDBRANCH   1  14
BRANCH   1  28
ATOM     28  O   UNL d   1       0.025   3.409   3.309  0.00  0.00    -0.386 OA
ATOM     29  H   UNL d   1       0.764   3.941   3.654  0.00  0.00     0.210 HD
ENDBRANCH   1  28
TORSDOF 8
