REMARK  11 active torsions:
REMARK  status: ('A' for Active; 'I' for Inactive)
REMARK    1  A    between atoms: C_3  and  S_23 
REMARK    2  A    between atoms: S_22  and  C_4 
REMARK    3  A    between atoms: C_28  and  C_5 
REMARK    4  A    between atoms: C_29  and  C_6 
REMARK    5  A    between atoms: C_19  and  S_22 
REMARK    6  A    between atoms: S_23  and  C_20 
REMARK    7  A    between atoms: S_41  and  C_21 
REMARK    8  A    between atoms: C_24  and  C_33 
REMARK    9  A    between atoms: C_25  and  C_32 
REMARK   10  A    between atoms: C_26  and  C_30 
REMARK   11  A    between atoms: C_27  and  C_31 
ROOT
ATOM      1  N   UNL d   1      -3.339   3.313  -1.162  0.00  0.00    -0.331 N 
ATOM      2  HN  UNL d   1      -2.850   3.678  -1.979  1.00  0.00     0.168 HD
ATOM      3  N   UNL d   1      -5.375   2.973   0.017  0.00  0.00    -0.331 N 
ATOM      4  HN  UNL d   1      -6.385   3.104   0.077  1.00  0.00     0.168 HD
ATOM      5  C   UNL d   1      -2.683   2.709  -0.153  0.00  0.00     0.082 A 
ATOM      6  C   UNL d   1      -4.680   2.352   0.994  0.00  0.00     0.082 A 
ATOM      7  C   UNL d   1      -4.668   3.408  -1.036  0.00  0.00     0.145 A 
ATOM      8  C   UNL d   1      -3.315   2.193   0.956  0.00  0.00     0.074 A 
ENDROOT
BRANCH   5   9
ATOM      9  S   UNL d   1      -0.904   2.725  -0.214  0.00  0.00    -0.035 SA
BRANCH   9  10
ATOM     10  C   UNL d   1      -0.642   1.846  -1.668  0.00  0.00     0.167 A 
ATOM     11  N   UNL d   1      -1.067   2.274  -2.889  0.00  0.00    -0.320 N 
ATOM     12  C   UNL d   1      -0.545   1.398  -3.810  0.00  0.00     0.132 A 
ATOM     13  H   UNL d   1      -1.633   3.093  -3.056  0.00  0.00     0.169 HD
ATOM     14  N   UNL d   1       0.128   0.471  -3.146  0.00  0.00    -0.283 N 
ATOM     15  N   UNL d   1       0.078   0.760  -1.802  0.00  0.00    -0.278 N 
ATOM     16  HN  UNL d   1       0.605  -0.328  -3.563  1.00  0.00     0.188 HD
ATOM     17  HN  UNL d   1       0.519   0.228  -1.051  1.00  0.00     0.189 HD
BRANCH  12  18
ATOM     18  C   UNL d   1      -0.672   1.480  -5.268  0.00  0.00     0.011 A 
ATOM     19  C   UNL d   1      -1.444   2.453  -5.916  0.00  0.00     0.031 A 
ATOM     20  C   UNL d   1      -1.515   2.509  -7.323  0.00  0.00     0.049 A 
ATOM     21  C   UNL d   1      -0.805   1.568  -8.085  0.00  0.00     0.032 A 
ATOM     22  C   UNL d   1      -0.025   0.584  -7.464  0.00  0.00     0.049 A 
ATOM     23  C   UNL d   1       0.028   0.552  -6.060  0.00  0.00     0.031 A 
BRANCH  20  24
ATOM     24  C   UNL d   1      -2.343   3.584  -7.991  0.00  0.00     0.417 C 
ATOM     25  F   UNL d   1      -2.293   3.546  -9.351  0.00  0.00    -0.166 F 
ATOM     26  F   UNL d   1      -3.660   3.500  -7.659  0.00  0.00    -0.166 F 
ATOM     27  F   UNL d   1      -1.944   4.835  -7.633  0.00  0.00    -0.166 F 
ENDBRANCH  20  24
BRANCH  22  28
ATOM     28  C   UNL d   1       0.761  -0.425  -8.271  0.00  0.00     0.417 C 
ATOM     29  F   UNL d   1       0.630  -0.256  -9.617  0.00  0.00    -0.166 F 
ATOM     30  F   UNL d   1       2.096  -0.367  -8.018  0.00  0.00    -0.166 F 
ATOM     31  F   UNL d   1       0.381  -1.706  -8.018  0.00  0.00    -0.166 F 
ENDBRANCH  22  28
ENDBRANCH  12  18
ENDBRANCH   9  10
ENDBRANCH   5   9
BRANCH   7  32
ATOM     32  S   UNL d   1      -5.516   4.307  -2.307  0.00  0.00    -0.098 SA
ATOM     33  C   UNL d   1      -7.104   3.438  -2.308  0.00  0.00     0.099 C 
ENDBRANCH   7  32
BRANCH   6  34
ATOM     34  S   UNL d   1      -5.603   1.736   2.392  0.00  0.00    -0.035 SA
BRANCH  34  35
ATOM     35  C   UNL d   1      -6.290   3.201   2.992  0.00  0.00     0.167 A 
ATOM     36  N   UNL d   1      -6.673   4.227   2.185  0.00  0.00    -0.320 N 
ATOM     37  C   UNL d   1      -7.140   5.224   2.999  0.00  0.00     0.132 A 
ATOM     38  H   UNL d   1      -6.582   4.234   1.180  0.00  0.00     0.169 HD
ATOM     39  N   UNL d   1      -7.099   4.775   4.242  0.00  0.00    -0.283 N 
ATOM     40  N   UNL d   1      -6.569   3.499   4.236  0.00  0.00    -0.278 N 
ATOM     41  HN  UNL d   1      -7.408   5.286   5.069  1.00  0.00     0.188 HD
ATOM     42  HN  UNL d   1      -6.422   2.901   5.049  1.00  0.00     0.189 HD
BRANCH  37  43
ATOM     43  C   UNL d   1      -7.598   6.539   2.547  0.00  0.00     0.011 A 
ATOM     44  C   UNL d   1      -7.524   6.933   1.202  0.00  0.00     0.031 A 
ATOM     45  C   UNL d   1      -7.976   8.197   0.783  0.00  0.00     0.049 A 
ATOM     46  C   UNL d   1      -8.503   9.082   1.736  0.00  0.00     0.032 A 
ATOM     47  C   UNL d   1      -8.589   8.716   3.087  0.00  0.00     0.049 A 
ATOM     48  C   UNL d   1      -8.130   7.445   3.478  0.00  0.00     0.031 A 
BRANCH  45  49
ATOM     49  C   UNL d   1      -7.898   8.572  -0.678  0.00  0.00     0.417 C 
ATOM     50  F   UNL d   1      -8.390   9.809  -0.954  0.00  0.00    -0.166 F 
ATOM     51  F   UNL d   1      -6.621   8.558  -1.147  0.00  0.00    -0.166 F 
ATOM     52  F   UNL d   1      -8.593   7.704  -1.465  0.00  0.00    -0.166 F 
ENDBRANCH  45  49
BRANCH  47  53
ATOM     53  C   UNL d   1      -9.170   9.659   4.116  0.00  0.00     0.417 C 
ATOM     54  F   UNL d   1      -9.629  10.823   3.576  0.00  0.00    -0.166 F 
ATOM     55  F   UNL d   1     -10.225   9.117   4.782  0.00  0.00    -0.166 F 
ATOM     56  F   UNL d   1      -8.265  10.019   5.064  0.00  0.00    -0.166 F 
ENDBRANCH  47  53
ENDBRANCH  37  43
ENDBRANCH  34  35
ENDBRANCH   6  34
TORSDOF 11
