REMARK  5 active torsions:
REMARK  status: ('A' for Active; 'I' for Inactive)
REMARK    1  A    between atoms: C_10  and  N_1 
REMARK    2  A    between atoms: C_4  and  O_12 
REMARK       I    between atoms: N_11  and  C_4 
REMARK    3  A    between atoms: O_12  and  N_8 
REMARK    4  A    between atoms: C_15  and  C_10 
REMARK    5  A    between atoms: C_14  and  N_11 
ROOT
ATOM      1  N   UNL d   1      -0.034   0.026   1.329  0.00  0.00     0.102 N 
ATOM      2  C   UNL d   1      -0.036  -1.188   0.498  0.00  0.00     0.229 C 
ATOM      3  C   UNL d   1       0.043   1.217   0.468  0.00  0.00     0.229 C 
ATOM      4  C   UNL d   1      -1.655   0.055  -1.083  0.00  0.00     0.015 C 
ATOM      5  C   UNL d   1      -1.202  -1.268  -0.495  0.00  0.00     0.090 C 
ATOM      6  C   UNL d   1      -1.159   1.357  -0.471  0.00  0.00     0.090 C 
ATOM      7  N   UNL d   1      -2.575   0.014  -2.012  0.00  0.00    -0.264 N 
ATOM      8  HN  UNL d   1      -2.907  -0.832  -2.474  1.00  0.00     0.194 HD
ATOM      9  C   UNL d   1       1.336  -1.294  -0.196  0.00  0.00     0.036 C 
ATOM     10  C   UNL d   1       1.388   1.226  -0.285  0.00  0.00     0.036 C 
ATOM     11  C   UNL d   1       1.690  -0.069  -1.029  0.00  0.00     0.004 C 
ENDROOT
BRANCH   7  12
ATOM     12  O   UNL d   1      -3.037   1.326  -2.278  0.00  0.00    -0.181 OA
BRANCH  12  13
ATOM     13  C   UNL d   1      -4.136   1.384  -3.120  0.00  0.00     0.387 C 
ATOM     14  N   UNL d   1      -4.393   0.211  -3.788  0.00  0.00    -0.301 N 
ATOM     15  H   UNL d   1      -3.745  -0.526  -3.535  0.00  0.00     0.171 HD
ATOM     16  O   UNL d   1      -4.748   2.440  -3.229  0.00  0.00    -0.236 OA
BRANCH  14  17
ATOM     17  C   UNL d   1      -5.369  -0.026  -4.775  0.00  0.00     0.036 A 
ATOM     18  C   UNL d   1      -6.314   0.923  -5.175  0.00  0.00     0.029 A 
ATOM     19  C   UNL d   1      -7.245   0.631  -6.179  0.00  0.00     0.002 A 
ATOM     20  C   UNL d   1      -7.240  -0.617  -6.795  0.00  0.00     0.000 A 
ATOM     21  C   UNL d   1      -6.307  -1.574  -6.402  0.00  0.00     0.002 A 
ATOM     22  C   UNL d   1      -5.380  -1.282  -5.396  0.00  0.00     0.029 A 
ENDBRANCH  14  17
ENDBRANCH  12  13
ENDBRANCH   7  12
BRANCH   1  23
ATOM     23  C   UNL d   1      -1.146   0.120   2.292  0.00  0.00     0.312 C 
BRANCH  23  24
ATOM     24  C   UNL d   1      -1.194  -1.000   3.308  0.00  0.00    -0.030 A 
ATOM     25  C   UNL d   1      -0.120  -1.234   4.176  0.00  0.00     0.009 A 
ATOM     26  C   UNL d   1      -0.190  -2.251   5.130  0.00  0.00     0.001 A 
ATOM     27  C   UNL d   1      -1.334  -3.042   5.226  0.00  0.00     0.000 A 
ATOM     28  C   UNL d   1      -2.409  -2.819   4.368  0.00  0.00     0.001 A 
ATOM     29  C   UNL d   1      -2.341  -1.802   3.415  0.00  0.00     0.009 A 
ENDBRANCH  23  24
ENDBRANCH   1  23
TORSDOF 5
