REMARK  6 active torsions:
REMARK  status: ('A' for Active; 'I' for Inactive)
REMARK    1  A    between atoms: C_7  and  C_1 
REMARK    2  A    between atoms: S_13  and  C_6 
REMARK    3  A    between atoms: C_12  and  C_7 
REMARK    4  A    between atoms: C_14  and  C_12 
REMARK    5  A    between atoms: C_16  and  S_13 
REMARK    6  A    between atoms: C_18  and  C_16 
ROOT
ATOM      1  C   UNL d   1       7.655   2.505   0.819  0.00  0.00     0.144 A 
ATOM      2  N   UNL d   1       6.324   2.342   0.821  0.00  0.00    -0.337 N 
ATOM      3  HN  UNL d   1       5.725   2.880   1.448  1.00  0.00     0.168 HD
ATOM      4  N   UNL d   1       8.505   1.835   0.026  0.00  0.00    -0.347 N 
ATOM      5  HN  UNL d   1       9.512   1.998   0.054  1.00  0.00     0.167 HD
ATOM      6  C   UNL d   1       5.808   1.442  -0.036  0.00  0.00     0.035 A 
ATOM      7  C   UNL d   1       7.952   0.935  -0.809  0.00  0.00     0.092 A 
ATOM      8  C   UNL d   1       6.600   0.693  -0.881  0.00  0.00     0.046 A 
ENDROOT
BRANCH   6   9
ATOM      9  C   UNL d   1       4.342   1.287  -0.058  0.00  0.00     0.031 C 
BRANCH   9  10
ATOM     10  C   UNL d   1       3.523   1.982   0.749  0.00  0.00     0.021 C 
BRANCH  10  11
ATOM     11  C   UNL d   1       2.096   1.890   0.707  0.00  0.00     0.012 A 
ATOM     12  S   UNL d   1       1.244   3.360   1.013  0.00  0.00    -0.089 SA
ATOM     13  C   UNL d   1      -0.293   2.631   0.859  0.00  0.00     0.016 A 
ATOM     14  C   UNL d   1      -1.546   3.266   0.988  0.00  0.00     0.019 A 
ATOM     15  C   UNL d   1      -0.183   1.270   0.589  0.00  0.00    -0.012 A 
ATOM     16  C   UNL d   1      -2.709   2.508   0.850  0.00  0.00     0.001 A 
ATOM     17  C   UNL d   1      -2.633   1.149   0.591  0.00  0.00     0.001 A 
ATOM     18  C   UNL d   1      -1.387   0.528   0.459  0.00  0.00     0.013 A 
ATOM     19  C   UNL d   1       1.206   0.840   0.496  0.00  0.00    -0.033 A 
ATOM     20  C   UNL d   1       1.552  -0.595   0.237  0.00  0.00     0.050 C 
ENDBRANCH  10  11
ENDBRANCH   9  10
ENDBRANCH   6   9
BRANCH   1  21
ATOM     21  S   UNL d   1       8.307   3.658   1.999  0.00  0.00    -0.089 SA
BRANCH  21  22
ATOM     22  C   UNL d   1       9.727   4.284   1.059  0.00  0.00     0.121 C 
BRANCH  22  23
ATOM     23  C   UNL d   1      10.453   5.371   1.821  0.00  0.00    -0.048 A 
ATOM     24  C   UNL d   1      11.460   5.040   2.744  0.00  0.00     0.011 A 
ATOM     25  C   UNL d   1      12.128   6.041   3.454  0.00  0.00     0.043 A 
ATOM     26  C   UNL d   1      11.787   7.372   3.249  0.00  0.00     0.116 A 
ATOM     27  C   UNL d   1      10.785   7.721   2.353  0.00  0.00     0.043 A 
ATOM     28  F   UNL d   1      12.430   8.331   3.928  0.00  0.00    -0.206 F 
ATOM     29  C   UNL d   1      10.116   6.724   1.640  0.00  0.00     0.011 A 
ENDBRANCH  22  23
ENDBRANCH  21  22
ENDBRANCH   1  21
TORSDOF 6
