REMARK  8 active torsions:
REMARK  status: ('A' for Active; 'I' for Inactive)
REMARK    1  A    between atoms: N_2  and  C_1 
REMARK    2  A    between atoms: C_3  and  C_1 
REMARK    3  A    between atoms: N_4  and  C_1 
REMARK    4  A    between atoms: C_6  and  C_1 
REMARK       I    between atoms: C_5  and  N_2 
REMARK    5  A    between atoms: C_7  and  N_4 
REMARK    6  A    between atoms: C_9  and  C_5 
REMARK    7  A    between atoms: O_21  and  C_6 
REMARK    8  A    between atoms: C_28  and  O_21 
ROOT
ATOM      1  C   UNL d   1       0.941  -0.135  -0.052  0.00  0.00     0.297 C 
ENDROOT
BRANCH   1   2
ATOM      2  N   UNL d   1       0.505   0.638  -1.208  0.00  0.00    -0.315 N 
ATOM      3  C   UNL d   1       0.320   0.173  -2.474  0.00  0.00     0.254 C 
ATOM      4  O   UNL d   1       0.485  -1.000  -2.784  0.00  0.00    -0.268 OA
ATOM      5  H   UNL d   1       0.663   1.621  -1.090  0.00  0.00     0.166 HD
BRANCH   3   6
ATOM      6  C   UNL d   1      -0.088   1.209  -3.484  0.00  0.00     0.033 A 
ATOM      7  C   UNL d   1      -0.066   0.872  -4.842  0.00  0.00     0.041 A 
ATOM      8  C   UNL d   1      -0.409   1.828  -5.800  0.00  0.00     0.035 A 
ATOM      9 CL   UNL d   1      -0.383   1.416  -7.470  0.00  0.00    -0.084 Cl
ATOM     10  C   UNL d   1      -0.774   3.121  -5.422  0.00  0.00     0.024 A 
ATOM     11  C   UNL d   1      -0.824   3.457  -4.072  0.00  0.00     0.003 A 
ATOM     12  C   UNL d   1      -0.497   2.502  -3.107  0.00  0.00     0.017 A 
ENDBRANCH   3   6
ENDBRANCH   1   2
BRANCH   1  13
ATOM     13  C   UNL d   1       0.370  -1.598   0.071  0.00  0.00     0.442 C 
ATOM     14  F   UNL d   1      -0.852  -1.738  -0.502  0.00  0.00    -0.166 F 
ATOM     15  F   UNL d   1       1.178  -2.559  -0.429  0.00  0.00    -0.166 F 
ATOM     16  F   UNL d   1       0.183  -1.900   1.394  0.00  0.00    -0.166 F 
ENDBRANCH   1  13
BRANCH   1  17
ATOM     17  N   UNL d   1       0.432   0.722   1.084  0.00  0.00    -0.345 N 
ATOM     18  H   UNL d   1       0.240   0.131   1.896  0.00  0.00     0.163 HD
BRANCH  17  19
ATOM     19  C   UNL d   1       0.892   1.982   1.471  0.00  0.00     0.069 A 
ATOM     20  C   UNL d   1       1.768   2.806   0.741  0.00  0.00     0.145 A 
ATOM     21  C   UNL d   1       2.085   4.101   1.139  0.00  0.00     0.086 A 
ATOM     22  F   UNL d   1       2.309   2.374  -0.408  0.00  0.00    -0.204 F 
ATOM     23  C   UNL d   1       1.501   4.612   2.284  0.00  0.00     0.119 A 
ATOM     24  C   UNL d   1       0.609   3.851   3.026  0.00  0.00     0.044 A 
ATOM     25  F   UNL d   1       1.778   5.865   2.666  0.00  0.00    -0.206 F 
ATOM     26  C   UNL d   1       0.306   2.549   2.616  0.00  0.00     0.035 A 
ENDBRANCH  17  19
ENDBRANCH   1  17
BRANCH   1  27
ATOM     27  C   UNL d   1       2.464  -0.385   0.089  0.00  0.00     0.318 C 
ATOM     28  O   UNL d   1       3.011  -0.683   1.146  0.00  0.00    -0.260 OA
BRANCH  27  29
ATOM     29  O   UNL d   1       3.108  -0.286  -1.109  0.00  0.00    -0.318 OA
BRANCH  29  30
ATOM     30  C   UNL d   1       4.511  -0.586  -1.105  0.00  0.00     0.174 C 
ATOM     31  C   UNL d   1       5.304   0.685  -0.871  0.00  0.00     0.034 C 
ENDBRANCH  29  30
ENDBRANCH  27  29
ENDBRANCH   1  27
TORSDOF 8
