REMARK  7 active torsions:
REMARK  status: ('A' for Active; 'I' for Inactive)
REMARK    1  A    between atoms: C_9  and  C_1 
REMARK    2  A    between atoms: C_8  and  C_2 
REMARK    3  A    between atoms: C_7  and  C_3 
REMARK    4  A    between atoms: O_15  and  C_8 
REMARK    5  A    between atoms: O_14  and  C_9 
REMARK    6  A    between atoms: C_22  and  O_14 
REMARK    7  A    between atoms: C_23  and  O_15 
ROOT
ATOM      1  C   UNL d   1       1.308  -1.000   0.074  0.00  0.00     0.052 C 
ATOM      2  C   UNL d   1      -1.256  -1.034   0.101  0.00  0.00     0.052 C 
ATOM      3  C   UNL d   1       0.034  -1.836  -0.105  0.00  0.00     0.100 C 
ATOM      4  C   UNL d   1       1.236   0.353   0.037  0.00  0.00     0.018 C 
ATOM      5  C   UNL d   1      -1.222   0.319   0.046  0.00  0.00     0.018 C 
ATOM      6  N   UNL d   1      -0.004   0.961  -0.106  0.00  0.00    -0.362 N 
ATOM      7  C   UNL d   1      -2.433   1.211   0.141  0.00  0.00     0.069 C 
ATOM      8  C   UNL d   1       2.388   1.320   0.140  0.00  0.00     0.069 C 
ATOM      9  H   UNL d   1      -0.015   1.981  -0.066  0.00  0.00     0.165 HD
ENDROOT
BRANCH   3  10
ATOM     10  C   UNL d   1       0.023  -2.504  -1.489  0.00  0.00    -0.043 A 
ATOM     11  C   UNL d   1       0.032  -3.902  -1.610  0.00  0.00     0.032 A 
ATOM     12  C   UNL d   1       0.024  -4.500  -2.871  0.00  0.00     0.034 A 
ATOM     13 CL   UNL d   1       0.058  -6.216  -3.002  0.00  0.00    -0.084 Cl
ATOM     14  C   UNL d   1      -0.005  -3.723  -4.026  0.00  0.00     0.024 A 
ATOM     15  C   UNL d   1      -0.022  -2.333  -3.922  0.00  0.00     0.002 A 
ATOM     16  C   UNL d   1      -0.005  -1.729  -2.664  0.00  0.00     0.008 A 
ENDBRANCH   3  10
BRANCH   2  17
ATOM     17  C   UNL d   1      -2.499  -1.780   0.447  0.00  0.00     0.292 C 
ATOM     18  O   UNL d   1      -3.571  -1.267   0.735  0.00  0.00    -0.259 OA
BRANCH  17  19
ATOM     19  O   UNL d   1      -2.231  -3.107   0.533  0.00  0.00    -0.318 OA
BRANCH  19  20
ATOM     20  C   UNL d   1      -3.168  -3.898   1.274  0.00  0.00     0.174 C 
ATOM     21  C   UNL d   1      -2.735  -3.893   2.729  0.00  0.00     0.034 C 
ENDBRANCH  19  20
ENDBRANCH  17  19
ENDBRANCH   2  17
BRANCH   1  22
ATOM     22  C   UNL d   1       2.589  -1.744   0.216  0.00  0.00     0.292 C 
ATOM     23  O   UNL d   1       3.685  -1.317  -0.111  0.00  0.00    -0.259 OA
BRANCH  22  24
ATOM     24  O   UNL d   1       2.361  -2.994   0.701  0.00  0.00    -0.318 OA
BRANCH  24  25
ATOM     25  C   UNL d   1       3.475  -3.896   0.607  0.00  0.00     0.174 C 
ATOM     26  C   UNL d   1       3.493  -4.518  -0.778  0.00  0.00     0.034 C 
ENDBRANCH  24  25
ENDBRANCH  22  24
ENDBRANCH   1  22
TORSDOF 7
