REMARK  3 active torsions:
REMARK  status: ('A' for Active; 'I' for Inactive)
REMARK    1  A    between atoms: C_2  and  C_1 
REMARK    2  A    between atoms: O_3  and  C_1 
REMARK    3  A    between atoms: C_4  and  O_3 
ROOT
ATOM      1  C   UNL d   1       0.947   0.122  -0.269  0.00  0.00     0.298 C 
ATOM      2  O   UNL d   1       0.437   1.069  -0.848  0.00  0.00    -0.259 OA
ENDROOT
BRANCH   1   3
ATOM      3  C   UNL d   1       2.415   0.042  -0.044  0.00  0.00     0.041 A 
ATOM      4  C   UNL d   1       3.217   1.019  -0.656  0.00  0.00     0.043 A 
ATOM      5  C   UNL d   1       4.598   1.043  -0.440  0.00  0.00     0.056 A 
ATOM      6 CL   UNL d   1       5.510   2.285  -1.220  0.00  0.00    -0.083 Cl
ATOM      7  C   UNL d   1       5.189   0.087   0.392  0.00  0.00     0.055 A 
ATOM      8  C   UNL d   1       4.395  -0.896   0.993  0.00  0.00     0.026 A 
ATOM      9 CL   UNL d   1       6.883   0.070   0.725  0.00  0.00    -0.083 Cl
ATOM     10  C   UNL d   1       3.012  -0.922   0.777  0.00  0.00     0.019 A 
ENDBRANCH   1   3
BRANCH   1  11
ATOM     11  O   UNL d   1       0.305  -0.979   0.275  0.00  0.00    -0.275 OA
BRANCH  11  12
ATOM     12  C   UNL d   1      -1.104  -1.032   0.245  0.00  0.00     0.080 A 
ATOM     13  C   UNL d   1      -1.855  -0.640  -0.864  0.00  0.00     0.044 A 
ATOM     14  C   UNL d   1      -3.253  -0.691  -0.812  0.00  0.00    -0.059 A 
ATOM     15  C   UNL d   1      -4.079  -0.198  -1.963  0.00  0.00     0.048 C 
ATOM     16  C   UNL d   1      -3.878  -1.184   0.340  0.00  0.00     0.013 A 
ATOM     17  C   UNL d   1      -3.126  -1.623   1.439  0.00  0.00    -0.059 A 
ATOM     18  C   UNL d   1      -1.729  -1.544   1.385  0.00  0.00     0.044 A 
ATOM     19  C   UNL d   1      -3.827  -2.151   2.655  0.00  0.00     0.048 C 
ENDBRANCH  11  12
ENDBRANCH   1  11
TORSDOF 3
