REMARK  8 active torsions:
REMARK  status: ('A' for Active; 'I' for Inactive)
REMARK    1  A    between atoms: N_8  and  C_1 
REMARK    2  A    between atoms: C_6  and  C_3 
REMARK    3  A    between atoms: C_12  and  C_11 
REMARK    4  A    between atoms: O_26  and  C_12 
REMARK    5  A    between atoms: C_13  and  C_16 
REMARK    6  A    between atoms: O_27  and  C_13 
REMARK    7  A    between atoms: C_28  and  O_26 
REMARK    8  A    between atoms: C_29  and  O_27 
ROOT
ATOM      1  C   UNL d   1      -1.249  -1.473  -0.079  0.00  0.00     0.025 A 
ATOM      2  C   UNL d   1       0.002  -0.798  -0.071  0.00  0.00     0.013 A 
ATOM      3  C   UNL d   1      -2.329   0.692  -0.067  0.00  0.00     0.118 A 
ATOM      4  N   UNL d   1      -1.136   1.338  -0.084  0.00  0.00    -0.352 N 
ATOM      5  HN  UNL d   1      -1.098   2.357  -0.095  1.00  0.00     0.166 HD
ATOM      6  C   UNL d   1      -2.413  -0.699  -0.077  0.00  0.00     0.059 A 
ATOM      7  C   UNL d   1      -0.011   0.616  -0.085  0.00  0.00     0.044 A 
ATOM      8  C   UNL d   1       1.255  -1.457  -0.010  0.00  0.00     0.033 A 
ATOM      9  C   UNL d   1       2.459  -0.744   0.009  0.00  0.00     0.040 A 
ATOM     10  C   UNL d   1       1.191   1.308  -0.075  0.00  0.00     0.031 A 
ATOM     11  C   UNL d   1       2.421   0.649  -0.035  0.00  0.00     0.020 A 
ENDROOT
BRANCH   1  12
ATOM     12  N   UNL d   1      -1.303  -2.890  -0.067  0.00  0.00    -0.282 NA
ATOM     13  C   UNL d   1      -2.435  -3.497   0.648  0.00  0.00     0.096 C 
ATOM     14  C   UNL d   1      -2.147  -4.981   0.871  0.00  0.00     0.029 C 
ATOM     15  C   UNL d   1      -1.904  -5.702  -0.463  0.00  0.00     0.088 C 
ATOM     16  C   UNL d   1      -0.780  -4.988  -1.232  0.00  0.00     0.029 C 
ATOM     17  C   UNL d   1      -1.048  -3.486  -1.395  0.00  0.00     0.096 C 
BRANCH  15  18
ATOM     18  C   UNL d   1      -3.176  -5.788  -1.302  0.00  0.00     0.263 C 
ATOM     19  O   UNL d   1      -3.238  -5.539  -2.498  0.00  0.00    -0.265 OA
BRANCH  18  20
ATOM     20  O   UNL d   1      -4.229  -6.187  -0.536  0.00  0.00    -0.322 OA
BRANCH  20  21
ATOM     21  C   UNL d   1      -5.527  -6.128  -1.148  0.00  0.00     0.174 C 
ATOM     22  C   UNL d   1      -5.965  -7.507  -1.599  0.00  0.00     0.034 C 
ENDBRANCH  20  21
ENDBRANCH  18  20
ENDBRANCH  15  18
ENDBRANCH   1  12
BRANCH   3  23
ATOM     23  C   UNL d   1      -3.618   1.499  -0.015  0.00  0.00     0.432 C 
ATOM     24  F   UNL d   1      -3.439   2.849   0.013  0.00  0.00    -0.165 F 
ATOM     25  F   UNL d   1      -4.431   1.252  -1.084  0.00  0.00    -0.165 F 
ATOM     26  F   UNL d   1      -4.370   1.202   1.087  0.00  0.00    -0.165 F 
ENDBRANCH   3  23
BRANCH   9  27
ATOM     27  C   UNL d   1       3.733  -1.500   0.141  0.00  0.00     0.293 C 
ATOM     28  O   UNL d   1       3.795  -2.716   0.216  0.00  0.00    -0.259 OA
BRANCH  27  29
ATOM     29  O   UNL d   1       4.771  -0.635   0.249  0.00  0.00    -0.318 OA
BRANCH  29  30
ATOM     30  C   UNL d   1       6.011  -1.197   0.698  0.00  0.00     0.174 C 
ATOM     31  C   UNL d   1       6.052  -1.114   2.213  0.00  0.00     0.034 C 
ENDBRANCH  29  30
ENDBRANCH  27  29
ENDBRANCH   9  27
TORSDOF 8
