REMARK  5 active torsions:
REMARK  status: ('A' for Active; 'I' for Inactive)
REMARK    1  A    between atoms: S_10  and  C_3 
REMARK    2  A    between atoms: C_11  and  C_4 
REMARK    3  A    between atoms: C_6  and  C_12 
REMARK    4  A    between atoms: C_12  and  S_10 
REMARK    5  A    between atoms: O_25  and  C_20 
ROOT
ATOM      1  N   UNL d   1       1.200   0.528  -0.021  0.00  0.00    -0.336 N 
ATOM      2  HN  UNL d   1       2.128   0.950  -0.036  1.00  0.00     0.168 HD
ATOM      3  C   UNL d   1       0.095   1.291  -0.041  0.00  0.00     0.144 A 
ATOM      4  C   UNL d   1       1.048  -0.815   0.021  0.00  0.00     0.045 A 
ATOM      5  N   UNL d   1      -1.159   0.812  -0.026  0.00  0.00    -0.347 N 
ATOM      6  HN  UNL d   1      -1.973   1.426  -0.045  1.00  0.00     0.167 HD
ATOM      7  C   UNL d   1      -0.206  -1.393   0.040  0.00  0.00     0.047 A 
ATOM      8  C   UNL d   1      -1.277  -0.528   0.015  0.00  0.00     0.092 A 
ENDROOT
BRANCH   3   9
ATOM      9  S   UNL d   1       0.377   3.043  -0.131  0.00  0.00    -0.089 SA
BRANCH   9  10
ATOM     10  C   UNL d   1      -1.326   3.672  -0.214  0.00  0.00     0.122 C 
BRANCH  10  11
ATOM     11  C   UNL d   1      -1.348   5.185  -0.333  0.00  0.00    -0.027 A 
ATOM     12  C   UNL d   1      -1.350   6.036   0.787  0.00  0.00     0.042 A 
ATOM     13  C   UNL d   1      -1.375   7.426   0.632  0.00  0.00     0.048 A 
ATOM     14 CL   UNL d   1      -1.325   5.422   2.402  0.00  0.00    -0.084 Cl
ATOM     15  C   UNL d   1      -1.387   7.983  -0.644  0.00  0.00     0.035 A 
ATOM     16  C   UNL d   1      -1.365   7.162  -1.768  0.00  0.00     0.024 A 
ATOM     17 CL   UNL d   1      -1.433   9.692  -0.831  0.00  0.00    -0.084 Cl
ATOM     18  C   UNL d   1      -1.340   5.772  -1.614  0.00  0.00     0.011 A 
ENDBRANCH  10  11
ENDBRANCH   9  10
ENDBRANCH   3   9
BRANCH   4  19
ATOM     19  C   UNL d   1       2.301  -1.601   0.003  0.00  0.00    -0.009 A 
ATOM     20  C   UNL d   1       2.414  -2.862   0.618  0.00  0.00     0.016 A 
ATOM     21  C   UNL d   1       3.609  -3.597   0.573  0.00  0.00     0.037 A 
ATOM     22  C   UNL d   1       4.724  -3.083  -0.084  0.00  0.00     0.068 A 
ATOM     23  C   UNL d   1       4.632  -1.842  -0.707  0.00  0.00     0.037 A 
ATOM     24  C   UNL d   1       3.443  -1.107  -0.652  0.00  0.00     0.016 A 
BRANCH  22  25
ATOM     25  O   UNL d   1       5.927  -3.719  -0.216  0.00  0.00    -0.356 OA
ATOM     26  C   UNL d   1       6.278  -4.592   0.852  0.00  0.00     0.210 C 
ENDBRANCH  22  25
ENDBRANCH   4  19
TORSDOF 5
