REMARK  3 active torsions:
REMARK  status: ('A' for Active; 'I' for Inactive)
REMARK    1  A    between atoms: C_12  and  C_4 
REMARK       I    between atoms: C_7  and  N_10 
REMARK    2  A    between atoms: C_8  and  C_7 
REMARK    3  A    between atoms: N_10  and  C_20 
ROOT
ATOM      1  C   UNL d   1       3.689  -0.735  -0.287  0.00  0.00    -0.008 A 
ATOM      2  C   UNL d   1       4.570  -0.139   0.625  0.00  0.00     0.016 A 
ATOM      3  C   UNL d   1       4.200  -1.706  -1.153  0.00  0.00     0.016 A 
ATOM      4  C   UNL d   1       6.418  -1.518  -0.165  0.00  0.00     0.035 A 
ATOM      5  C   UNL d   1       5.546  -2.088  -1.093  0.00  0.00     0.030 A 
ATOM      6  C   UNL d   1       5.921  -0.522   0.683  0.00  0.00     0.030 A 
ENDROOT
BRANCH   4   7
ATOM      7  N   UNL d   1       7.777  -1.899  -0.031  0.00  0.00    -0.323 N 
ATOM      8  C   UNL d   1       8.399  -2.946  -0.694  0.00  0.00     0.256 C 
ATOM      9  O   UNL d   1       7.863  -3.724  -1.478  0.00  0.00    -0.267 OA
ATOM     10  H   UNL d   1       8.300  -1.418   0.684  0.00  0.00     0.169 HD
BRANCH   8  11
ATOM     11  C   UNL d   1       9.846  -3.170  -0.405  0.00  0.00     0.032 A 
ATOM     12  C   UNL d   1      10.730  -2.141  -0.058  0.00  0.00     0.024 A 
ATOM     13  C   UNL d   1      12.107  -2.402   0.098  0.00  0.00    -0.055 A 
ATOM     14  C   UNL d   1      13.046  -1.263   0.394  0.00  0.00     0.049 C 
ATOM     15  C   UNL d   1      12.592  -3.718  -0.062  0.00  0.00    -0.056 A 
ATOM     16  C   UNL d   1      11.698  -4.739  -0.407  0.00  0.00     0.008 A 
ATOM     17  C   UNL d   1      14.053  -4.048   0.089  0.00  0.00     0.049 C 
ATOM     18  C   UNL d   1      10.343  -4.466  -0.585  0.00  0.00     0.017 A 
ENDBRANCH   8  11
ENDBRANCH   4   7
BRANCH   1  19
ATOM     19  C   UNL d   1       2.283  -0.351  -0.313  0.00  0.00     0.060 A 
ATOM     20  N   UNL d   1       1.727   0.568   0.572  0.00  0.00    -0.335 N 
ATOM     21  C   UNL d   1       0.473   0.621   0.222  0.00  0.00     0.147 A 
ATOM     22  HN  UNL d   1       2.193   1.081   1.320  1.00  0.00     0.168 HD
ATOM     23  N   UNL d   1       0.189  -0.193  -0.822  0.00  0.00    -0.335 N 
ATOM     24  S   UNL d   1      -0.902   1.468   0.802  0.00  0.00    -0.092 SA
ATOM     25  C   UNL d   1       1.319  -0.835  -1.191  0.00  0.00     0.123 A 
ATOM     26  C   UNL d   1      -1.159  -0.177  -1.336  0.00  0.00     0.141 C 
ATOM     27  C   UNL d   1      -2.029   0.457  -0.246  0.00  0.00     0.102 C 
ENDBRANCH   1  19
TORSDOF 3
