REMARK  3 active torsions:
REMARK  status: ('A' for Active; 'I' for Inactive)
REMARK       I    between atoms: N_5  and  C_1 
REMARK       I    between atoms: N_7  and  C_1 
REMARK    1  A    between atoms: C_2  and  C_4 
REMARK    2  A    between atoms: C_12  and  N_5 
REMARK    3  A    between atoms: C_6  and  N_7 
ROOT
ATOM      1  C   UNL d   1       0.944   0.035   0.148  0.00  0.00     0.324 C 
ATOM      2  N   UNL d   1       0.429  -1.166  -0.271  0.00  0.00    -0.309 N 
ATOM      3  N   UNL d   1       0.059   1.077   0.266  0.00  0.00    -0.319 N 
ATOM      4  O   UNL d   1       2.122   0.265   0.410  0.00  0.00    -0.247 OA
ATOM      5  H   UNL d   1      -0.467  -1.126  -0.730  0.00  0.00     0.170 HD
ATOM      6  H   UNL d   1       0.543   1.935   0.510  0.00  0.00     0.170 HD
ENDROOT
BRANCH   2   7
ATOM      7  C   UNL d   1       1.125  -2.390  -0.377  0.00  0.00     0.036 A 
ATOM      8  C   UNL d   1       2.384  -2.609   0.190  0.00  0.00     0.031 A 
ATOM      9  C   UNL d   1       3.034  -3.837   0.031  0.00  0.00     0.026 A 
ATOM     10  C   UNL d   1       2.422  -4.857  -0.688  0.00  0.00     0.034 A 
ATOM     11  C   UNL d   1       1.158  -4.664  -1.239  0.00  0.00     0.026 A 
ATOM     12 CL   UNL d   1       3.230  -6.361  -0.897  0.00  0.00    -0.084 Cl
ATOM     13  C   UNL d   1       0.509  -3.434  -1.078  0.00  0.00     0.031 A 
ENDBRANCH   2   7
BRANCH   3  14
ATOM     14  C   UNL d   1      -1.308   1.109   0.176  0.00  0.00     0.094 C 
ATOM     15  C   UNL d   1      -1.990   2.256   0.294  0.00  0.00     0.036 C 
BRANCH  15  16
ATOM     16  C   UNL d   1      -3.411   2.284   0.193  0.00  0.00     0.006 A 
ATOM     17  S   UNL d   1      -4.183   3.720  -0.371  0.00  0.00    -0.102 SA
ATOM     18  C   UNL d   1      -5.734   3.012  -0.281  0.00  0.00     0.050 A 
ATOM     19  C   UNL d   1      -5.688   1.726   0.204  0.00  0.00     0.008 A 
ATOM     20  C   UNL d   1      -4.354   1.313   0.486  0.00  0.00     0.019 A 
ENDBRANCH  15  16
ENDBRANCH   3  14
TORSDOF 3
