REMARK  7 active torsions:
REMARK  status: ('A' for Active; 'I' for Inactive)
REMARK    1  A    between atoms: C_3  and  C_1 
REMARK    2  A    between atoms: N_12  and  C_2 
REMARK    3  A    between atoms: C_7  and  C_4 
REMARK    4  A    between atoms: O_20  and  C_7 
REMARK    5  A    between atoms: C_8  and  N_13 
REMARK    6  A    between atoms: N_13  and  C_19 
REMARK    7  A    between atoms: C_23  and  O_20 
ROOT
ATOM      1  C   UNL d   1       5.608  -2.480  -0.040  0.00  0.00     0.135 C 
ATOM      2  C   UNL d   1       4.981  -1.295   0.022  0.00  0.00     0.117 C 
ATOM      3  C   UNL d   1       4.889  -3.710  -0.015  0.00  0.00     0.107 C 
ATOM      4  N   UNL d   1       4.247  -4.674  -0.005  0.00  0.00    -0.191 NA
ENDROOT
BRANCH   1   5
ATOM      5  C   UNL d   1       7.081  -2.498  -0.221  0.00  0.00     0.305 C 
ATOM      6  O   UNL d   1       7.769  -1.495  -0.358  0.00  0.00    -0.258 OA
BRANCH   5   7
ATOM      7  O   UNL d   1       7.529  -3.777  -0.292  0.00  0.00    -0.317 OA
BRANCH   7   8
ATOM      8  C   UNL d   1       8.856  -3.957  -0.805  0.00  0.00     0.174 C 
ATOM      9  C   UNL d   1       8.773  -4.043  -2.319  0.00  0.00     0.034 C 
ENDBRANCH   7   8
ENDBRANCH   5   7
ENDBRANCH   1   5
BRANCH   2  10
ATOM     10  N   UNL d   1       3.627  -1.051   0.118  0.00  0.00    -0.363 N 
ATOM     11  H   UNL d   1       3.020  -1.872   0.096  0.00  0.00     0.165 HD
BRANCH  10  12
ATOM     12  C   UNL d   1       2.940   0.171   0.101  0.00  0.00     0.048 A 
ATOM     13  C   UNL d   1       3.513   1.429   0.100  0.00  0.00     0.119 A 
ATOM     14  N   UNL d   1       2.817   2.597   0.051  0.00  0.00    -0.350 N 
ATOM     15  C   UNL d   1       1.460   2.584  -0.016  0.00  0.00     0.117 A 
ATOM     16  HN  UNL d   1       3.316   3.486   0.065  1.00  0.00     0.166 HD
ATOM     17  C   UNL d   1       0.787   1.364  -0.005  0.00  0.00     0.093 A 
ATOM     18  C   UNL d   1       1.548   0.169   0.073  0.00  0.00     0.051 A 
BRANCH  15  19
ATOM     19  N   UNL d   1       0.823   3.809  -0.209  0.00  0.00    -0.375 N 
ATOM     20  C   UNL d   1       1.696   4.898  -0.661  0.00  0.00     0.150 C 
ATOM     21  C   UNL d   1      -0.154   4.237   0.795  0.00  0.00     0.150 C 
ENDBRANCH  15  19
BRANCH  17  22
ATOM     22  C   UNL d   1      -0.699   1.185  -0.118  0.00  0.00     0.421 C 
ATOM     23  F   UNL d   1      -1.444   2.269  -0.455  0.00  0.00    -0.166 F 
ATOM     24  F   UNL d   1      -1.028   0.232  -1.042  0.00  0.00    -0.166 F 
ATOM     25  F   UNL d   1      -1.232   0.728   1.058  0.00  0.00    -0.166 F 
ENDBRANCH  17  22
ENDBRANCH  10  12
ENDBRANCH   2  10
TORSDOF 7
