REMARK  4 active torsions:
REMARK  status: ('A' for Active; 'I' for Inactive)
REMARK    1  A    between atoms: C_9  and  O_11 
REMARK       I    between atoms: N_14  and  C_9 
REMARK    2  A    between atoms: O_11  and  C_10 
REMARK    3  A    between atoms: C_18  and  C_12 
REMARK    4  A    between atoms: O_19  and  C_18 
ROOT
ATOM      1  C   UNL d   1       0.241  -0.620  -0.044  0.00  0.00     0.136 A 
ATOM      2  C   UNL d   1       0.378   0.762  -0.124  0.00  0.00     0.042 A 
ATOM      3  N   UNL d   1       1.512  -1.117   0.065  0.00  0.00    -0.280 N 
ATOM      4  N   UNL d   1       2.467  -0.168   0.122  0.00  0.00    -0.301 N 
ATOM      5  HN  UNL d   1       3.474  -0.293   0.224  1.00  0.00     0.187 HD
ATOM      6  C   UNL d   1       1.782   0.982   0.011  0.00  0.00     0.036 A 
ATOM      7  N   UNL d   1      -0.901  -1.337  -0.050  0.00  0.00    -0.321 N 
ATOM      8  HN  UNL d   1      -0.924  -2.354   0.018  1.00  0.00     0.169 HD
ATOM      9  C   UNL d   1      -2.010  -0.576  -0.155  0.00  0.00     0.155 A 
ATOM     10  C   UNL d   1      -0.797   1.532  -0.271  0.00  0.00    -0.015 A 
ATOM     11  C   UNL d   1      -2.010   0.812  -0.260  0.00  0.00     0.067 A 
ATOM     12  C   UNL d   1       1.898  -2.504   0.131  0.00  0.00     0.179 C 
ATOM     13  C   UNL d   1       2.531   2.261   0.062  0.00  0.00     0.070 C 
ENDROOT
BRANCH   9  14
ATOM     14  O   UNL d   1      -3.206  -1.307   0.045  0.00  0.00    -0.244 OA
BRANCH  14  15
ATOM     15  C   UNL d   1      -4.467  -0.873  -0.350  0.00  0.00     0.368 C 
ATOM     16  N   UNL d   1      -5.491  -1.627   0.214  0.00  0.00    -0.336 N 
ATOM     17  C   UNL d   1      -6.862  -1.170   0.073  0.00  0.00     0.154 C 
ATOM     18  C   UNL d   1      -5.255  -2.698   1.167  0.00  0.00     0.154 C 
ATOM     19  O   UNL d   1      -4.666   0.080  -1.094  0.00  0.00    -0.238 OA
ENDBRANCH  14  15
ENDBRANCH   9  14
BRANCH  10  20
ATOM     20  C   UNL d   1      -0.848   3.037  -0.341  0.00  0.00     0.206 C 
BRANCH  20  21
ATOM     21  O   UNL d   1       0.042   3.514  -1.346  0.00  0.00    -0.391 OA
ATOM     22  C   UNL d   1       0.110   4.934  -1.341  0.00  0.00     0.201 C 
ENDBRANCH  20  21
ENDBRANCH  10  20
TORSDOF 4
