REMARK  2 active torsions:
REMARK  status: ('A' for Active; 'I' for Inactive)
REMARK       I    between atoms: N_3  and  C_1 
REMARK    1  A    between atoms: C_5  and  C_1 
REMARK    2  A    between atoms: C_2  and  N_4 
ROOT
ATOM      1  C   UNL d   1      -1.523   4.620   2.089  0.00  0.00     0.124 A 
ATOM      2  C   UNL d   1      -1.672   5.755   1.271  0.00  0.00     0.088 A 
ATOM      3  C   UNL d   1      -1.181   5.800  -0.076  0.00  0.00     0.103 C 
ATOM      4  N   UNL d   1      -0.776   5.868  -1.160  0.00  0.00    -0.191 NA
ATOM      5  N   UNL d   1      -2.110   4.578   3.310  0.00  0.00    -0.351 N 
ATOM      6  HN  UNL d   1      -2.017   3.752   3.901  1.00  0.00     0.166 HD
ATOM      7  C   UNL d   1      -2.414   6.848   1.735  0.00  0.00     0.028 A 
ATOM      8  C   UNL d   1      -2.823   5.648   3.731  0.00  0.00     0.090 A 
ATOM      9  C   UNL d   1      -3.001   6.796   2.988  0.00  0.00     0.019 A 
ENDROOT
BRANCH   1  10
ATOM     10  N   UNL d   1      -0.878   3.480   1.649  0.00  0.00    -0.363 N 
ATOM     11  C   UNL d   1      -1.264   2.182   2.214  0.00  0.00     0.144 C 
ATOM     12  C   UNL d   1      -1.127   1.132   1.089  0.00  0.00     0.146 C 
ATOM     13  N   UNL d   1       0.229   1.141   0.498  0.00  0.00    -0.344 N 
ATOM     14  C   UNL d   1       0.867   0.038  -0.082  0.00  0.00     0.260 C 
ATOM     15  C   UNL d   1       0.684   2.480   0.071  0.00  0.00     0.146 C 
ATOM     16  O   UNL d   1       1.772   0.221  -0.901  0.00  0.00    -0.267 OA
ATOM     17  C   UNL d   1       0.521   3.517   1.197  0.00  0.00     0.144 C 
BRANCH  14  18
ATOM     18  C   UNL d   1       0.481  -1.308   0.328  0.00  0.00     0.072 A 
ATOM     19  S   UNL d   1       0.604  -2.576  -0.828  0.00  0.00    -0.097 SA
ATOM     20  C   UNL d   1       0.084  -3.752   0.294  0.00  0.00     0.050 A 
ATOM     21  C   UNL d   1      -0.175  -3.207   1.530  0.00  0.00     0.009 A 
ATOM     22  C   UNL d   1       0.090  -1.806   1.560  0.00  0.00     0.025 A 
ENDBRANCH  14  18
ENDBRANCH   1  10
TORSDOF 2
