REMARK  6 active torsions:
REMARK  status: ('A' for Active; 'I' for Inactive)
REMARK    1  A    between atoms: N_3  and  C_1 
REMARK    2  A    between atoms: N_4  and  C_1 
REMARK    3  A    between atoms: C_2  and  N_3 
REMARK    4  A    between atoms: C_8  and  N_4 
REMARK    5  A    between atoms: C_11  and  C_8 
REMARK    6  A    between atoms: O_9  and  C_11 
ROOT
ATOM      1  C   UNL d   1       0.903   0.137   0.018  0.00  0.00     0.172 C 
ATOM      2  S   UNL d   1       2.173  -0.355   0.988  0.00  0.00    -0.041 SA
ENDROOT
BRANCH   1   3
ATOM      3  N   UNL d   1       0.458  -0.488  -1.109  0.00  0.00    -0.332 N 
ATOM      4  H   UNL d   1      -0.527  -0.686  -1.071  0.00  0.00     0.168 HD
BRANCH   3   5
ATOM      5  C   UNL d   1       1.191  -1.226  -2.071  0.00  0.00     0.046 A 
ATOM      6  C   UNL d   1       0.615  -2.418  -2.574  0.00  0.00    -0.035 A 
ATOM      7  C   UNL d   1       1.211  -3.072  -3.668  0.00  0.00     0.009 A 
ATOM      8  C   UNL d   1      -0.610  -3.075  -1.991  0.00  0.00     0.050 C 
ATOM      9  C   UNL d   1       2.374  -2.582  -4.244  0.00  0.00     0.001 A 
ATOM     10  C   UNL d   1       2.960  -1.431  -3.731  0.00  0.00     0.009 A 
ATOM     11  C   UNL d   1       2.378  -0.726  -2.659  0.00  0.00    -0.035 A 
ATOM     12  C   UNL d   1       3.061   0.566  -2.299  0.00  0.00     0.050 C 
ENDBRANCH   3   5
ENDBRANCH   1   3
BRANCH   1  13
ATOM     13  N   UNL d   1       0.194   1.240   0.402  0.00  0.00    -0.356 N 
ATOM     14  H   UNL d   1       0.474   1.598   1.313  0.00  0.00     0.162 HD
BRANCH  13  15
ATOM     15  C   UNL d   1      -0.980   1.939  -0.178  0.00  0.00     0.046 C 
ATOM     16  C   UNL d   1      -0.890   2.115  -1.705  0.00  0.00     0.040 C 
ATOM     17  C   UNL d   1      -2.264   1.183   0.194  0.00  0.00     0.040 C 
BRANCH  15  18
ATOM     18  C   UNL d   1      -1.022   3.369   0.438  0.00  0.00     0.194 C 
BRANCH  18  19
ATOM     19  O   UNL d   1      -1.066   3.306   1.863  0.00  0.00    -0.398 OA
ATOM     20  H   UNL d   1      -1.061   4.223   2.187  0.00  0.00     0.209 HD
ENDBRANCH  18  19
ENDBRANCH  15  18
ENDBRANCH  13  15
ENDBRANCH   1  13
TORSDOF 6
