REMARK  11 active torsions:
REMARK  status: ('A' for Active; 'I' for Inactive)
REMARK    1  A    between atoms: C_3  and  S_1 
REMARK    2  A    between atoms: C_4  and  S_1 
REMARK    3  A    between atoms: N_2  and  C_5 
REMARK       I    between atoms: C_6  and  N_2 
REMARK    4  A    between atoms: C_16  and  C_4 
REMARK    5  A    between atoms: C_22  and  C_6 
REMARK    6  A    between atoms: C_9  and  C_23 
REMARK    7  A    between atoms: O_18  and  C_9 
REMARK    8  A    between atoms: C_10  and  S_15 
REMARK    9  A    between atoms: S_15  and  C_16 
REMARK   10  A    between atoms: C_24  and  C_22 
REMARK   11  A    between atoms: C_23  and  C_24 
ROOT
ATOM      1  C   UNL d   1       0.527  -6.841   0.721  0.00  0.00     0.051 A 
ATOM      2  C   UNL d   1       0.557  -5.656  -0.034  0.00  0.00     0.027 A 
ATOM      3  C   UNL d   1       1.111  -8.007   0.204  0.00  0.00     0.031 A 
ATOM      4  C   UNL d   1       1.226  -5.648  -1.267  0.00  0.00     0.021 A 
ATOM      5  C   UNL d   1       1.750  -7.993  -1.034  0.00  0.00     0.002 A 
ATOM      6  C   UNL d   1       1.827  -6.809  -1.760  0.00  0.00     0.002 A 
ENDROOT
BRANCH   2   7
ATOM      7  S   UNL d   1      -0.232  -4.142   0.510  0.00  0.00    -0.127 SA
BRANCH   7   8
ATOM      8  C   UNL d   1       0.997  -3.488   1.705  0.00  0.00     0.095 C 
BRANCH   8   9
ATOM      9  C   UNL d   1       2.337  -3.184   1.062  0.00  0.00     0.156 C 
BRANCH   9  10
ATOM     10  S   UNL d   1       3.408  -2.240   2.119  0.00  0.00     0.176 S 
ATOM     11  O   UNL d   1       4.689  -2.108   1.457  0.00  0.00    -0.223 OA
ATOM     12  O   UNL d   1       2.671  -1.067   2.552  0.00  0.00    -0.223 OA
BRANCH  10  13
ATOM     13  C   UNL d   1       3.719  -3.217   3.579  0.00  0.00     0.059 A 
ATOM     14  C   UNL d   1       4.121  -4.551   3.459  0.00  0.00     0.025 A 
ATOM     15  C   UNL d   1       4.398  -5.291   4.613  0.00  0.00     0.025 A 
ATOM     16  C   UNL d   1       4.282  -4.697   5.871  0.00  0.00     0.034 A 
ATOM     17  C   UNL d   1       3.887  -3.364   5.990  0.00  0.00     0.025 A 
ATOM     18 CL   UNL d   1       4.590  -5.623   7.286  0.00  0.00    -0.084 Cl
ATOM     19  C   UNL d   1       3.607  -2.619   4.840  0.00  0.00     0.025 A 
ENDBRANCH  10  13
ENDBRANCH   9  10
ENDBRANCH   8   9
ENDBRANCH   7   8
ENDBRANCH   2   7
BRANCH   1  20
ATOM     20  N   UNL d   1      -0.121  -6.868   1.976  0.00  0.00    -0.326 N 
ATOM     21  C   UNL d   1       0.368  -7.579   3.056  0.00  0.00     0.222 C 
ATOM     22  O   UNL d   1       1.458  -8.146   3.085  0.00  0.00    -0.273 OA
ATOM     23  H   UNL d   1      -0.776  -6.112   2.155  0.00  0.00     0.169 HD
BRANCH  21  24
ATOM     24  C   UNL d   1      -0.550  -7.572   4.260  0.00  0.00     0.103 C 
BRANCH  24  25
ATOM     25  C   UNL d   1       0.229  -7.425   5.572  0.00  0.00     0.019 C 
BRANCH  25  26
ATOM     26  C   UNL d   1       0.906  -6.062   5.721  0.00  0.00     0.110 C 
BRANCH  26  27
ATOM     27  C   UNL d   1      -0.083  -4.925   5.759  0.00  0.00     0.139 C 
ATOM     28  O   UNL d   1      -1.269  -5.029   6.010  0.00  0.00    -0.650 OA
BRANCH  27  29
ATOM     29  O   UNL d   1       0.482  -3.733   5.457  0.00  0.00    -0.776 OA
ATOM     30  H   UNL d   1       1.448  -3.792   5.358  0.00  0.00     0.167 HD
ENDBRANCH  27  29
ENDBRANCH  26  27
ENDBRANCH  25  26
ENDBRANCH  24  25
ENDBRANCH  21  24
ENDBRANCH   1  20
TORSDOF 11
