REMARK  4 active torsions:
REMARK  status: ('A' for Active; 'I' for Inactive)
REMARK       I    between atoms: N_3  and  C_1 
REMARK    1  A    between atoms: C_10  and  C_1 
REMARK    2  A    between atoms: C_2  and  C_8 
REMARK       I    between atoms: N_9  and  C_2 
REMARK    3  A    between atoms: C_8  and  N_3 
REMARK    4  A    between atoms: C_6  and  C_10 
ROOT
ATOM      1  C   UNL d   1       0.979  -0.241  -0.110  0.00  0.00     0.221 C 
ATOM      2  N   UNL d   1       0.269  -0.854   0.894  0.00  0.00    -0.352 N 
ATOM      3  O   UNL d   1       0.444   0.204  -1.123  0.00  0.00    -0.273 OA
ATOM      4  H   UNL d   1       0.752  -1.355   1.635  0.00  0.00     0.162 HD
ENDROOT
BRANCH   2   5
ATOM      5  C   UNL d   1      -1.170  -0.984   0.819  0.00  0.00     0.225 C 
BRANCH   5   6
ATOM      6  C   UNL d   1      -1.695  -1.870   1.943  0.00  0.00     0.233 C 
ATOM      7  O   UNL d   1      -0.970  -2.462   2.737  0.00  0.00    -0.272 OA
ATOM      8  N   UNL d   1      -3.054  -1.975   2.015  0.00  0.00    -0.369 N 
ATOM      9  H   UNL d   1      -3.683  -1.482   1.395  0.00  0.00     0.159 HD
ATOM     10  H   UNL d   1      -3.448  -2.550   2.750  0.00  0.00     0.159 HD
ENDBRANCH   5   6
ENDBRANCH   2   5
BRANCH   1  11
ATOM     11  C   UNL d   1       2.478  -0.123   0.152  0.00  0.00     0.129 C 
BRANCH  11  12
ATOM     12  C   UNL d   1       3.330  -1.325  -0.149  0.00  0.00    -0.022 C 
ATOM     13  C   UNL d   1       2.929  -2.559  -0.495  0.00  0.00    -0.034 C 
ATOM     14  C   UNL d   1       3.877  -3.684  -0.769  0.00  0.00     0.036 C 
ENDBRANCH  11  12
ENDBRANCH   1  11
TORSDOF 4
