REMARK  3 active torsions:
REMARK  status: ('A' for Active; 'I' for Inactive)
REMARK    1  A    between atoms: N_2  and  S_1 
REMARK    2  A    between atoms: C_6  and  S_1 
REMARK       I    between atoms: C_3  and  N_2 
REMARK       I    between atoms: N_4  and  C_3 
REMARK    3  A    between atoms: C_5  and  N_4 
ROOT
ATOM      1  N   UNL d   1       0.432  -1.516   0.090  0.00  0.00    -0.232 N 
ATOM      2  C   UNL d   1       0.484  -2.366  -1.010  0.00  0.00     0.335 C 
ATOM      3  N   UNL d   1       1.553  -2.257  -1.854  0.00  0.00    -0.294 N 
ATOM      4  O   UNL d   1      -0.417  -3.185  -1.103  0.00  0.00    -0.246 OA
ATOM      5  H   UNL d   1      -0.353  -1.689   0.710  0.00  0.00     0.183 HD
ATOM      6  H   UNL d   1       2.377  -1.767  -1.528  0.00  0.00     0.172 HD
ENDROOT
BRANCH   1   7
ATOM      7  S   UNL d   1       1.048   0.010   0.242  0.00  0.00     0.266 S 
ATOM      8  O   UNL d   1       2.493  -0.110   0.206  0.00  0.00    -0.200 OA
ATOM      9  O   UNL d   1       0.354   0.640   1.341  0.00  0.00    -0.200 OA
BRANCH   7  10
ATOM     10  C   UNL d   1       0.520   0.803  -1.252  0.00  0.00     0.080 A 
ATOM     11  C   UNL d   1      -0.842   0.855  -1.564  0.00  0.00     0.026 A 
ATOM     12  C   UNL d   1      -1.238   1.363  -2.802  0.00  0.00     0.008 A 
ATOM     13  C   UNL d   1      -0.281   1.822  -3.720  0.00  0.00    -0.062 A 
ATOM     14  C   UNL d   1       1.075   1.805  -3.371  0.00  0.00     0.008 A 
ATOM     15  C   UNL d   1      -0.712   2.300  -5.076  0.00  0.00     0.048 C 
ATOM     16  C   UNL d   1       1.478   1.298  -2.138  0.00  0.00     0.026 A 
ENDBRANCH   7  10
ENDBRANCH   1   7
BRANCH   3  17
ATOM     17  C   UNL d   1       1.783  -3.075  -2.968  0.00  0.00     0.109 A 
ATOM     18  N   UNL d   1       3.079  -3.186  -3.331  0.00  0.00    -0.346 N 
ATOM     19  C   UNL d   1       3.389  -4.070  -4.315  0.00  0.00     0.007 A 
ATOM     20  HN  UNL d   1       3.802  -2.624  -2.881  1.00  0.00     0.167 HD
ATOM     21  C   UNL d   1       4.841  -4.283  -4.623  0.00  0.00     0.068 C 
ATOM     22  C   UNL d   1       2.429  -4.825  -4.980  0.00  0.00     0.025 A 
ATOM     23  C   UNL d   1       1.096  -4.642  -4.648  0.00  0.00     0.006 A 
ATOM     24  C   UNL d   1       0.766  -3.751  -3.632  0.00  0.00     0.049 A 
ENDBRANCH   3  17
TORSDOF 3
