REMARK  5 active torsions:
REMARK  status: ('A' for Active; 'I' for Inactive)
REMARK    1  A    between atoms: C_12  and  C_2 
REMARK    2  A    between atoms: S_14  and  C_5 
REMARK    3  A    between atoms: C_8  and  C_9 
REMARK    4  A    between atoms: C_22  and  S_14 
REMARK    5  A    between atoms: C_15  and  C_22 
REMARK       I    between atoms: N_23  and  C_15 
ROOT
ATOM      1  S   UNL d   1       1.184  -0.051   0.018  0.00  0.00    -0.043 SA
ATOM      2  C   UNL d   1      -0.055   1.151  -0.008  0.00  0.00     0.118 A 
ATOM      3  N   UNL d   1      -1.276   0.639  -0.013  0.00  0.00    -0.291 N 
ATOM      4  HN  UNL d   1      -2.126   1.202  -0.023  1.00  0.00     0.187 HD
ATOM      5  C   UNL d   1      -0.051  -1.231  -0.011  0.00  0.00     0.129 A 
ATOM      6  N   UNL d   1      -1.272  -0.742  -0.004  0.00  0.00    -0.287 N 
ATOM      7  HN  UNL d   1      -2.116  -1.315   0.006  1.00  0.00     0.188 HD
ENDROOT
BRANCH   2   8
ATOM      8  C   UNL d   1       0.264   2.587  -0.038  0.00  0.00     0.067 A 
ATOM      9  N   UNL d   1       1.577   2.925  -0.107  0.00  0.00    -0.363 N 
ATOM     10  C   UNL d   1       1.892   4.241  -0.165  0.00  0.00     0.104 A 
ATOM     11  HN  UNL d   1       2.304   2.210  -0.116  1.00  0.00     0.165 HD
ATOM     12  C   UNL d   1       0.955   5.263  -0.157  0.00  0.00     0.063 A 
ATOM     13  C   UNL d   1      -0.392   4.897  -0.078  0.00  0.00     0.020 A 
ATOM     14  C   UNL d   1      -0.743   3.548  -0.018  0.00  0.00     0.033 A 
BRANCH  12  15
ATOM     15  C   UNL d   1       1.381   6.697  -0.236  0.00  0.00     0.418 C 
ATOM     16  F   UNL d   1       2.731   6.862  -0.307  0.00  0.00    -0.166 F 
ATOM     17  F   UNL d   1       0.871   7.330  -1.328  0.00  0.00    -0.166 F 
ATOM     18  F   UNL d   1       0.973   7.421   0.841  0.00  0.00    -0.166 F 
ENDBRANCH  12  15
ENDBRANCH   2   8
BRANCH   5  19
ATOM     19  S   UNL d   1       0.278  -2.945  -0.065  0.00  0.00    -0.094 SA
BRANCH  19  20
ATOM     20  C   UNL d   1      -1.231  -3.570  -0.852  0.00  0.00     0.184 C 
BRANCH  20  21
ATOM     21  C   UNL d   1      -1.349  -3.059  -2.275  0.00  0.00     0.225 C 
ATOM     22  O   UNL d   1      -0.740  -3.539  -3.225  0.00  0.00    -0.273 OA
ATOM     23  N   UNL d   1      -2.193  -1.998  -2.454  0.00  0.00    -0.369 N 
ATOM     24  H   UNL d   1      -2.384  -1.371  -1.674  0.00  0.00     0.159 HD
ATOM     25  H   UNL d   1      -2.183  -1.577  -3.374  0.00  0.00     0.159 HD
ENDBRANCH  20  21
ENDBRANCH  19  20
ENDBRANCH   5  19
TORSDOF 5
