REMARK  4 active torsions:
REMARK  status: ('A' for Active; 'I' for Inactive)
REMARK    1  A    between atoms: C_2  and  C_1 
REMARK    2  A    between atoms: C_13  and  C_5 
REMARK    3  A    between atoms: C_11  and  O_12 
REMARK    4  A    between atoms: O_12  and  C_13 
ROOT
ATOM      1  C   UNL d   1       0.137  -0.507   1.135  0.00  0.00     0.064 A 
ATOM      2  N   UNL d   1      -1.153  -1.871   2.660  0.00  0.00    -0.365 N 
ATOM      3  HN  UNL d   1      -1.909  -2.538   2.818  1.00  0.00     0.165 HD
ATOM      4  C   UNL d   1      -0.390  -1.415   3.696  0.00  0.00     0.055 A 
ATOM      5  C   UNL d   1       0.896  -0.032   2.208  0.00  0.00     0.043 A 
ATOM      6  C   UNL d   1       0.636  -0.486   3.502  0.00  0.00     0.059 A 
ATOM      7  C   UNL d   1      -0.876  -1.410   1.418  0.00  0.00     0.104 A 
ATOM      8 CL   UNL d   1       1.639   0.091   4.780  0.00  0.00    -0.082 Cl
ENDROOT
BRANCH   4   9
ATOM      9  C   UNL d   1      -0.641  -2.044   5.053  0.00  0.00     0.234 C 
BRANCH   9  10
ATOM     10  O   UNL d   1      -1.113  -1.068   5.975  0.00  0.00    -0.344 OA
BRANCH  10  11
ATOM     11  C   UNL d   1      -1.413  -1.425   7.262  0.00  0.00     0.091 A 
ATOM     12  C   UNL d   1      -1.010  -2.538   8.019  0.00  0.00     0.069 A 
ATOM     13  C   UNL d   1      -1.413  -2.661   9.360  0.00  0.00     0.050 A 
ATOM     14 CL   UNL d   1       0.007  -3.819   7.462  0.00  0.00    -0.081 Cl
ATOM     15  C   UNL d   1      -2.212  -1.689   9.952  0.00  0.00     0.035 A 
ATOM     16  C   UNL d   1      -2.621  -0.584   9.217  0.00  0.00     0.026 A 
ATOM     17 CL   UNL d   1      -2.682  -1.852  11.597  0.00  0.00    -0.084 Cl
ATOM     18  C   UNL d   1      -2.218  -0.456   7.887  0.00  0.00     0.040 A 
ENDBRANCH  10  11
ENDBRANCH   9  10
ENDBRANCH   4   9
BRANCH   1  19
ATOM     19  C   UNL d   1       0.394  -0.095  -0.281  0.00  0.00     0.418 C 
ATOM     20  F   UNL d   1       1.433   0.776  -0.410  0.00  0.00    -0.166 F 
ATOM     21  F   UNL d   1      -0.680   0.516  -0.850  0.00  0.00    -0.166 F 
ATOM     22  F   UNL d   1       0.693  -1.152  -1.083  0.00  0.00    -0.166 F 
ENDBRANCH   1  19
TORSDOF 4
