REMARK  7 active torsions:
REMARK  status: ('A' for Active; 'I' for Inactive)
REMARK    1  A    between atoms: C_3  and  N_1 
REMARK    2  A    between atoms: N_4  and  C_2 
REMARK       I    between atoms: C_5  and  N_4 
REMARK    3  A    between atoms: C_14  and  C_5 
REMARK    4  A    between atoms: C_6  and  C_15 
REMARK    5  A    between atoms: O_11  and  C_6 
REMARK    6  A    between atoms: O_10  and  C_14 
REMARK    7  A    between atoms: C_15  and  O_10 
ROOT
ATOM      1  C   UNL d   1      -2.558   0.872  -2.100  0.00  0.00     0.061 A 
ATOM      2  C   UNL d   1      -2.474   0.075  -0.934  0.00  0.00     0.057 A 
ATOM      3  C   UNL d   1      -3.750   0.952  -2.843  0.00  0.00     0.032 A 
ATOM      4  C   UNL d   1      -3.659  -0.603  -0.566  0.00  0.00     0.031 A 
ATOM      5  C   UNL d   1      -4.884   0.245  -2.457  0.00  0.00     0.002 A 
ATOM      6  C   UNL d   1      -4.842  -0.527  -1.307  0.00  0.00     0.002 A 
ENDROOT
BRANCH   1   7
ATOM      7  N   UNL d   1      -1.469   1.602  -2.623  0.00  0.00    -0.323 N 
ATOM      8  C   UNL d   1      -1.346   2.962  -2.361  0.00  0.00     0.245 C 
ATOM      9  O   UNL d   1      -2.162   3.642  -1.739  0.00  0.00    -0.271 OA
ATOM     10  H   UNL d   1      -0.591   1.110  -2.654  0.00  0.00     0.169 HD
BRANCH   8  11
ATOM     11  C   UNL d   1      -0.037   3.555  -2.920  0.00  0.00     0.271 C 
BRANCH  11  12
ATOM     12  O   UNL d   1       0.575   4.621  -2.211  0.00  0.00    -0.372 OA
BRANCH  12  13
ATOM     13  C   UNL d   1       0.970   4.302  -0.887  0.00  0.00     0.277 C 
BRANCH  13  14
ATOM     14  C   UNL d   1       2.042   3.223  -0.689  0.00  0.00     0.164 C 
ATOM     15  O   UNL d   1       2.517   2.526  -1.570  0.00  0.00    -0.648 OA
BRANCH  14  16
ATOM     16  O   UNL d   1       2.390   3.055   0.613  0.00  0.00    -0.775 OA
ATOM     17  H   UNL d   1       1.923   3.645   1.238  0.00  0.00     0.167 HD
ENDBRANCH  14  16
ENDBRANCH  13  14
ENDBRANCH  12  13
ENDBRANCH  11  12
ENDBRANCH   8  11
ENDBRANCH   1   7
BRANCH   2  18
ATOM     18  N   UNL d   1      -1.356  -0.105  -0.130  0.00  0.00    -0.375 N 
ATOM     19  C   UNL d   1       0.036  -0.042  -0.586  0.00  0.00     0.149 C 
ATOM     20  C   UNL d   1       0.904  -1.015   0.233  0.00  0.00     0.187 C 
ATOM     21  O   UNL d   1       0.763  -0.820   1.649  0.00  0.00    -0.388 OA
ATOM     22  C   UNL d   1      -0.612  -0.975   2.035  0.00  0.00     0.187 C 
ATOM     23  C   UNL d   1      -1.490   0.071   1.333  0.00  0.00     0.149 C 
ENDBRANCH   2  18
TORSDOF 7
