REMARK  7 active torsions:
REMARK  status: ('A' for Active; 'I' for Inactive)
REMARK       I    between atoms: N_4  and  C_1 
REMARK       I    between atoms: N_5  and  C_1 
REMARK    1  A    between atoms: N_7  and  N_4 
REMARK    2  A    between atoms: C_11  and  N_5 
REMARK    3  A    between atoms: C_9  and  N_7 
REMARK    4  A    between atoms: C_20  and  C_15 
REMARK    5  A    between atoms: C_21  and  C_20 
REMARK    6  A    between atoms: C_23  and  C_21 
REMARK    7  A    between atoms: C_22  and  C_23 
ROOT
ATOM      1  C   UNL d   1       1.173   0.170  -0.325  0.00  0.00     0.335 C 
ATOM      2  N   UNL d   1       2.506  -0.199  -0.335  0.00  0.00    -0.268 N 
ATOM      3  N   UNL d   1       0.342  -0.753  -0.912  0.00  0.00    -0.308 N 
ATOM      4  O   UNL d   1       0.851   1.224   0.213  0.00  0.00    -0.246 OA
ATOM      5  H   UNL d   1       3.126   0.368   0.234  0.00  0.00     0.185 HD
ATOM      6  H   UNL d   1       0.816  -1.582  -1.241  0.00  0.00     0.170 HD
ENDROOT
BRANCH   2   7
ATOM      7  N   UNL d   1       2.904  -1.496  -0.694  0.00  0.00    -0.202 NA
ATOM      8  H   UNL d   1       2.484  -2.205  -0.080  0.00  0.00     0.153 HD
BRANCH   7   9
ATOM      9  C   UNL d   1       4.305  -1.703  -0.777  0.00  0.00     0.029 A 
ATOM     10  C   UNL d   1       4.768  -3.030  -0.798  0.00  0.00     0.052 A 
ATOM     11  C   UNL d   1       6.128  -3.314  -0.924  0.00  0.00     0.074 A 
ATOM     12 CL   UNL d   1       6.652  -4.954  -0.928  0.00  0.00    -0.081 Cl
ATOM     13  C   UNL d   1       7.043  -2.274  -1.048  0.00  0.00     0.138 A 
ATOM     14  C   UNL d   1       6.607  -0.956  -1.077  0.00  0.00     0.046 A 
ATOM     15  F   UNL d   1       8.356  -2.523  -1.157  0.00  0.00    -0.204 F 
ATOM     16  C   UNL d   1       5.239  -0.673  -0.971  0.00  0.00     0.028 A 
ENDBRANCH   7   9
ENDBRANCH   2   7
BRANCH   3  17
ATOM     17  C   UNL d   1      -1.054  -0.684  -1.053  0.00  0.00     0.036 A 
ATOM     18  C   UNL d   1      -1.785   0.486  -0.851  0.00  0.00     0.030 A 
ATOM     19  C   UNL d   1      -3.175   0.489  -0.985  0.00  0.00     0.009 A 
ATOM     20  C   UNL d   1      -3.864  -0.686  -1.303  0.00  0.00    -0.058 A 
ATOM     21  C   UNL d   1      -3.128  -1.853  -1.542  0.00  0.00     0.009 A 
ATOM     22  C   UNL d   1      -1.734  -1.849  -1.423  0.00  0.00     0.030 A 
BRANCH  20  23
ATOM     23  C   UNL d   1      -5.372  -0.688  -1.350  0.00  0.00     0.038 C 
BRANCH  23  24
ATOM     24  C   UNL d   1      -6.019  -1.616  -0.314  0.00  0.00     0.005 C 
BRANCH  24  25
ATOM     25  C   UNL d   1      -5.674  -1.248   1.135  0.00  0.00    -0.000 C 
BRANCH  25  26
ATOM     26  C   UNL d   1      -6.344  -2.207   2.119  0.00  0.00    -0.005 C 
ATOM     27  C   UNL d   1      -5.993  -1.868   3.559  0.00  0.00     0.005 C 
ENDBRANCH  25  26
ENDBRANCH  24  25
ENDBRANCH  23  24
ENDBRANCH  20  23
ENDBRANCH   3  17
TORSDOF 7
