REMARK  8 active torsions:
REMARK  status: ('A' for Active; 'I' for Inactive)
REMARK    1  A    between atoms: C_9  and  C_1 
REMARK       I    between atoms: N_10  and  C_1 
REMARK    2  A    between atoms: C_2  and  C_19 
REMARK    3  A    between atoms: S_7  and  C_9 
REMARK    4  A    between atoms: C_11  and  S_7 
REMARK    5  A    between atoms: C_20  and  N_10 
REMARK    6  A    between atoms: S_13  and  C_21 
REMARK    7  A    between atoms: C_19  and  S_13 
REMARK    8  A    between atoms: C_21  and  C_20 
ROOT
ATOM      1  C   UNL d   1       0.949   0.008   0.105  0.00  0.00     0.227 C 
ATOM      2  O   UNL d   1       0.337   1.073   0.168  0.00  0.00    -0.273 OA
ATOM      3  N   UNL d   1       2.322  -0.052   0.098  0.00  0.00    -0.360 N 
ATOM      4  H   UNL d   1       2.761  -0.956  -0.057  0.00  0.00     0.162 HD
ENDROOT
BRANCH   1   5
ATOM      5  C   UNL d   1       0.217  -1.324  -0.053  0.00  0.00     0.182 C 
BRANCH   5   6
ATOM      6  S   UNL d   1       1.166  -2.700   0.693  0.00  0.00    -0.121 SA
BRANCH   6   7
ATOM      7  C   UNL d   1       0.152  -4.144   0.418  0.00  0.00     0.001 A 
ATOM      8  C   UNL d   1      -1.108  -4.153  -0.189  0.00  0.00     0.021 A 
ATOM      9  C   UNL d   1      -1.810  -5.353  -0.342  0.00  0.00     0.043 A 
ATOM     10  C   UNL d   1      -1.254  -6.545   0.113  0.00  0.00     0.116 A 
ATOM     11  C   UNL d   1      -0.008  -6.560   0.717  0.00  0.00     0.043 A 
ATOM     12  F   UNL d   1      -1.932  -7.691  -0.035  0.00  0.00    -0.206 F 
ATOM     13  C   UNL d   1       0.694  -5.361   0.870  0.00  0.00     0.021 A 
ENDBRANCH   6   7
ENDBRANCH   5   6
ENDBRANCH   1   5
BRANCH   3  14
ATOM     14  C   UNL d   1       3.158   1.132   0.175  0.00  0.00     0.132 C 
BRANCH  14  15
ATOM     15  C   UNL d   1       4.655   0.821   0.065  0.00  0.00     0.094 C 
BRANCH  15  16
ATOM     16  S   UNL d   1       4.992   0.019  -1.538  0.00  0.00    -0.161 SA
BRANCH  16  17
ATOM     17  C   UNL d   1       6.808  -0.139  -1.449  0.00  0.00     0.139 C 
BRANCH  17  18
ATOM     18  C   UNL d   1       7.303  -0.749  -2.713  0.00  0.00     0.061 A 
ATOM     19  O   UNL d   1       7.941  -1.951  -2.612  0.00  0.00    -0.326 OA
ATOM     20  C   UNL d   1       8.254  -2.341  -3.876  0.00  0.00     0.142 A 
ATOM     21  C   UNL d   1       7.840  -1.401  -4.789  0.00  0.00     0.027 A 
ATOM     22  C   UNL d   1       7.235  -0.365  -4.039  0.00  0.00     0.035 A 
ENDBRANCH  17  18
ENDBRANCH  16  17
ENDBRANCH  15  16
ENDBRANCH  14  15
ENDBRANCH   3  14
TORSDOF 8
