REMARK  4 active torsions:
REMARK  status: ('A' for Active; 'I' for Inactive)
REMARK       I    between atoms: N_2  and  C_1 
REMARK       I    between atoms: N_4  and  C_1 
REMARK    1  A    between atoms: C_5  and  N_3 
REMARK    2  A    between atoms: C_13  and  N_4 
REMARK    3  A    between atoms: C_11  and  C_5 
REMARK    4  A    between atoms: C_12  and  C_5 
ROOT
ATOM      1  C   UNL d   1       0.890   0.127   0.099  0.00  0.00     0.323 C 
ATOM      2  N   UNL d   1       0.305  -0.812   0.942  0.00  0.00    -0.331 N 
ATOM      3  N   UNL d   1      -0.237  -3.130   2.716  0.00  0.00     0.105 N 
ATOM      4  N   UNL d   1       0.433   0.131  -1.197  0.00  0.00    -0.309 N 
ATOM      5  O   UNL d   1       1.763   0.882   0.522  0.00  0.00    -0.247 OA
ATOM      6  C   UNL d   1       0.718  -0.799   2.351  0.00  0.00     0.158 C 
ATOM      7  C   UNL d   1      -0.796  -1.738   0.641  0.00  0.00     0.158 C 
ATOM      8  C   UNL d   1       0.925  -2.223   2.890  0.00  0.00     0.293 C 
ATOM      9  C   UNL d   1      -0.560  -3.133   1.263  0.00  0.00     0.293 C 
ATOM     10  H   UNL d   1      -0.368  -0.432  -1.409  0.00  0.00     0.170 HD
ENDROOT
BRANCH   3  11
ATOM     11  C   UNL d   1      -1.420  -2.747   3.545  0.00  0.00     0.289 C 
BRANCH  11  12
ATOM     12  C   UNL d   1      -2.591  -3.718   3.346  0.00  0.00    -0.021 A 
ATOM     13  C   UNL d   1      -2.449  -5.090   3.611  0.00  0.00     0.010 A 
ATOM     14  C   UNL d   1      -3.523  -5.963   3.443  0.00  0.00     0.001 A 
ATOM     15  C   UNL d   1      -4.752  -5.479   3.000  0.00  0.00     0.000 A 
ATOM     16  C   UNL d   1      -4.906  -4.123   2.719  0.00  0.00     0.001 A 
ATOM     17  C   UNL d   1      -3.835  -3.245   2.892  0.00  0.00     0.010 A 
ENDBRANCH  11  12
BRANCH  11  18
ATOM     18  C   UNL d   1      -1.142  -2.581   5.046  0.00  0.00    -0.021 A 
ATOM     19  C   UNL d   1      -1.859  -1.612   5.772  0.00  0.00     0.010 A 
ATOM     20  C   UNL d   1      -1.645  -1.438   7.140  0.00  0.00     0.001 A 
ATOM     21  C   UNL d   1      -0.713  -2.231   7.806  0.00  0.00     0.000 A 
ATOM     22  C   UNL d   1      -0.009  -3.210   7.108  0.00  0.00     0.001 A 
ATOM     23  C   UNL d   1      -0.231  -3.394   5.742  0.00  0.00     0.010 A 
ENDBRANCH  11  18
ENDBRANCH   3  11
BRANCH   4  24
ATOM     24  C   UNL d   1       0.886   0.939  -2.263  0.00  0.00     0.036 A 
ATOM     25  C   UNL d   1       1.968   1.819  -2.179  0.00  0.00     0.029 A 
ATOM     26  C   UNL d   1       2.329   2.608  -3.272  0.00  0.00     0.002 A 
ATOM     27  C   UNL d   1       1.619   2.523  -4.468  0.00  0.00     0.000 A 
ATOM     28  C   UNL d   1       0.552   1.631  -4.571  0.00  0.00     0.002 A 
ATOM     29  C   UNL d   1       0.191   0.843  -3.476  0.00  0.00     0.029 A 
ENDBRANCH   4  24
TORSDOF 4
