REMARK  7 active torsions:
REMARK  status: ('A' for Active; 'I' for Inactive)
REMARK    1  A    between atoms: N_2  and  C_1 
REMARK    2  A    between atoms: C_7  and  N_2 
REMARK    3  A    between atoms: O_18  and  C_3 
REMARK    4  A    between atoms: O_19  and  C_8 
REMARK    5  A    between atoms: C_20  and  N_11 
REMARK    6  A    between atoms: C_14  and  C_22 
REMARK    7  A    between atoms: C_22  and  C_20 
ROOT
ATOM      1  C   UNL d   1       1.183  -0.002  -0.267  0.00  0.00     0.172 C 
ATOM      2  S   UNL d   1       0.508  -1.420   0.303  0.00  0.00    -0.041 SA
ATOM      3  N   UNL d   1       2.546   0.068  -0.253  0.00  0.00    -0.367 N 
ATOM      4  H   UNL d   1       2.983  -0.743   0.174  0.00  0.00     0.161 HD
ENDROOT
BRANCH   3   5
ATOM      5  C   UNL d   1       3.365   1.240  -0.500  0.00  0.00     0.126 C 
BRANCH   5   6
ATOM      6  C   UNL d   1       4.835   1.004  -0.149  0.00  0.00     0.058 C 
BRANCH   6   7
ATOM      7  C   UNL d   1       5.638   2.237  -0.470  0.00  0.00    -0.054 A 
ATOM      8  C   UNL d   1       6.191   2.409  -1.748  0.00  0.00     0.046 A 
ATOM      9  C   UNL d   1       6.832   3.604  -2.111  0.00  0.00     0.102 A 
ATOM     10  C   UNL d   1       6.888   4.657  -1.184  0.00  0.00     0.101 A 
ATOM     11  C   UNL d   1       6.365   4.465   0.103  0.00  0.00     0.040 A 
ATOM     12  C   UNL d   1       5.748   3.268   0.463  0.00  0.00     0.010 A 
BRANCH   9  13
ATOM     13  O   UNL d   1       7.341   3.791  -3.369  0.00  0.00    -0.353 OA
ATOM     14  C   UNL d   1       7.877   2.639  -4.011  0.00  0.00     0.210 C 
ENDBRANCH   9  13
BRANCH  10  15
ATOM     15  O   UNL d   1       7.410   5.914  -1.344  0.00  0.00    -0.353 OA
ATOM     16  C   UNL d   1       7.829   6.318  -2.638  0.00  0.00     0.210 C 
ENDBRANCH  10  15
ENDBRANCH   6   7
ENDBRANCH   5   6
ENDBRANCH   3   5
BRANCH   1  17
ATOM     17  N   UNL d   1       0.541   1.104  -0.785  0.00  0.00    -0.333 N 
ATOM     18  H   UNL d   1       1.016   1.529  -1.569  0.00  0.00     0.168 HD
BRANCH  17  19
ATOM     19  C   UNL d   1      -0.808   1.480  -0.607  0.00  0.00     0.034 A 
ATOM     20  C   UNL d   1      -1.500   1.224   0.580  0.00  0.00     0.037 A 
ATOM     21  C   UNL d   1      -2.860   1.546   0.725  0.00  0.00    -0.043 A 
ATOM     22  C   UNL d   1      -3.550   1.187   2.010  0.00  0.00     0.049 C 
ATOM     23  C   UNL d   1      -3.507   2.191  -0.337  0.00  0.00     0.017 A 
ATOM     24  C   UNL d   1      -2.805   2.515  -1.502  0.00  0.00     0.022 A 
ATOM     25 BR   UNL d   1      -5.347   2.652  -0.258  0.00  0.00    -0.051 Br
ATOM     26  C   UNL d   1      -1.455   2.173  -1.633  0.00  0.00     0.031 A 
ENDBRANCH  17  19
ENDBRANCH   1  17
TORSDOF 7
