REMARK  4 active torsions:
REMARK  status: ('A' for Active; 'I' for Inactive)
REMARK    1  A    between atoms: C_8  and  N_1 
REMARK    2  A    between atoms: O_15  and  C_5 
REMARK    3  A    between atoms: O_16  and  C_7 
REMARK    4  A    between atoms: C_10  and  C_8 
ROOT
ATOM      1  N   UNL d   1      -0.698   1.026  -0.143  0.00  0.00    -0.298 N 
ATOM      2  C   UNL d   1      -1.286  -0.239  -0.400  0.00  0.00     0.182 A 
ATOM      3  N   UNL d   1      -0.501  -1.363  -0.283  0.00  0.00    -0.314 N 
ATOM      4  HN  UNL d   1      -0.903  -2.294  -0.393  1.00  0.00     0.170 HD
ATOM      5  C   UNL d   1       0.673   1.114   0.074  0.00  0.00     0.148 A 
ATOM      6  C   UNL d   1       1.455   0.039   0.130  0.00  0.00     0.112 A 
ATOM      7  C   UNL d   1       0.742  -1.212  -0.033  0.00  0.00     0.146 A 
ATOM      8  S   UNL d   1      -2.910  -0.458  -0.841  0.00  0.00    -0.040 SA
ENDROOT
BRANCH   1   9
ATOM      9  C   UNL d   1      -1.520   2.251  -0.071  0.00  0.00     0.198 C 
BRANCH   9  10
ATOM     10  C   UNL d   1      -1.471   2.972  -1.373  0.00  0.00     0.070 A 
ATOM     11  O   UNL d   1      -0.417   3.824  -1.554  0.00  0.00    -0.325 OA
ATOM     12  C   UNL d   1      -0.545   4.352  -2.799  0.00  0.00     0.142 A 
ATOM     13  C   UNL d   1      -1.665   3.853  -3.421  0.00  0.00     0.027 A 
ATOM     14  C   UNL d   1      -2.270   2.969  -2.497  0.00  0.00     0.036 A 
ENDBRANCH   9  10
ENDBRANCH   1   9
BRANCH   5  15
ATOM     15  O   UNL d   1       1.255   2.354   0.220  0.00  0.00    -0.346 OA
ATOM     16  H   UNL d   1       0.808   2.968  -0.395  0.00  0.00     0.219 HD
ENDBRANCH   5  15
BRANCH   7  17
ATOM     17  O   UNL d   1       1.519  -2.300   0.110  0.00  0.00    -0.346 OA
ATOM     18  H   UNL d   1       2.443  -2.107   0.321  0.00  0.00     0.219 HD
ENDBRANCH   7  17
TORSDOF 4
