REMARK  4 active torsions:
REMARK  status: ('A' for Active; 'I' for Inactive)
REMARK    1  A    between atoms: C_7  and  N_1 
REMARK    2  A    between atoms: C_12  and  N_2 
REMARK    3  A    between atoms: C_11  and  C_8 
REMARK    4  A    between atoms: C_15  and  C_12 
ROOT
ATOM      1  N   UNL d   1       0.920  -1.388   0.031  0.00  0.00    -0.246 N 
ATOM      2  N   UNL d   1       2.123   0.684  -0.025  0.00  0.00    -0.259 N 
ATOM      3  C   UNL d   1       2.148  -0.720   0.091  0.00  0.00     0.338 A 
ATOM      4  C   UNL d   1      -0.251  -0.674  -0.083  0.00  0.00     0.150 A 
ATOM      5  C   UNL d   1      -0.224   0.687  -0.130  0.00  0.00     0.147 A 
ATOM      6  C   UNL d   1       0.966   1.463  -0.114  0.00  0.00     0.282 A 
ATOM      7  N   UNL d   1      -1.534  -1.143  -0.088  0.00  0.00    -0.336 N 
ATOM      8  HN  UNL d   1      -1.842  -2.116  -0.071  1.00  0.00     0.168 HD
ATOM      9  N   UNL d   1      -1.530   1.081  -0.155  0.00  0.00    -0.345 N 
ATOM     10  C   UNL d   1      -2.286  -0.061  -0.121  0.00  0.00     0.182 A 
ATOM     11  O   UNL d   1       3.213  -1.335   0.219  0.00  0.00    -0.246 OA
ATOM     12  O   UNL d   1       0.942   2.687  -0.164  0.00  0.00    -0.265 OA
ATOM     13  H   UNL d   1      -1.867   2.036  -0.165  0.00  0.00     0.167 HD
ENDROOT
BRANCH   1  14
ATOM     14  C   UNL d   1       0.841  -2.802   0.111  0.00  0.00     0.060 A 
ATOM     15  C   UNL d   1       1.312  -3.518   1.229  0.00  0.00     0.075 A 
ATOM     16  C   UNL d   1       1.363  -4.926   1.160  0.00  0.00     0.018 A 
ATOM     17  C   UNL d   1       0.949  -5.609   0.018  0.00  0.00     0.001 A 
ATOM     18  C   UNL d   1       0.449  -4.899  -1.068  0.00  0.00     0.002 A 
ATOM     19  C   UNL d   1       0.387  -3.506  -1.019  0.00  0.00     0.031 A 
BRANCH  15  20
ATOM     20  C   UNL d   1       1.702  -2.872   2.535  0.00  0.00     0.419 C 
ATOM     21  F   UNL d   1       1.516  -1.523   2.611  0.00  0.00    -0.166 F 
ATOM     22  F   UNL d   1       0.984  -3.381   3.582  0.00  0.00    -0.166 F 
ATOM     23  F   UNL d   1       3.008  -3.087   2.861  0.00  0.00    -0.166 F 
ENDBRANCH  15  20
ENDBRANCH   1  14
BRANCH   2  24
ATOM     24  C   UNL d   1       3.404   1.384  -0.027  0.00  0.00     0.179 C 
BRANCH  24  25
ATOM     25  C   UNL d   1       3.924   1.639  -1.424  0.00  0.00    -0.001 A 
ATOM     26  C   UNL d   1       4.135   2.947  -1.869  0.00  0.00     0.124 A 
ATOM     27  F   UNL d   1       3.910   3.981  -1.046  0.00  0.00    -0.205 F 
ATOM     28  C   UNL d   1       4.591   3.212  -3.159  0.00  0.00     0.043 A 
ATOM     29  C   UNL d   1       4.855   2.158  -4.030  0.00  0.00     0.003 A 
ATOM     30  C   UNL d   1       4.680   0.844  -3.598  0.00  0.00     0.001 A 
ATOM     31  C   UNL d   1       4.225   0.585  -2.302  0.00  0.00     0.012 A 
ENDBRANCH  24  25
ENDBRANCH   2  24
TORSDOF 4
