REMARK  2 active torsions:
REMARK  status: ('A' for Active; 'I' for Inactive)
REMARK    1  A    between atoms: C_2  and  C_1 
REMARK       I    between atoms: N_7  and  C_2 
REMARK    2  A    between atoms: N_9  and  N_7 
ROOT
ATOM      1  C   UNL d   1       1.061   0.038   0.020  0.00  0.00     0.049 A 
ATOM      2  N   UNL d   1      -1.062  -1.123  -0.014  0.00  0.00    -0.374 N 
ATOM      3  HN  UNL d   1      -1.595  -1.993  -0.032  1.00  0.00     0.164 HD
ATOM      4  C   UNL d   1       0.398   1.268   0.011  0.00  0.00     0.026 A 
ATOM      5  C   UNL d   1       0.294  -1.120   0.019  0.00  0.00     0.104 A 
ATOM      6  C   UNL d   1      -1.000   1.300  -0.009  0.00  0.00    -0.046 A 
ATOM      7  C   UNL d   1      -1.674   0.083  -0.024  0.00  0.00     0.094 A 
ATOM      8  C   UNL d   1      -1.760   2.589   0.009  0.00  0.00     0.049 C 
ENDROOT
BRANCH   1   9
ATOM      9  C   UNL d   1       2.533  -0.083   0.086  0.00  0.00     0.267 C 
ATOM     10  O   UNL d   1       3.056  -1.063   0.611  0.00  0.00    -0.266 OA
ATOM     11  N   UNL d   1       3.265   0.953  -0.485  0.00  0.00    -0.290 N 
ATOM     12  H   UNL d   1       2.814   1.605  -1.122  0.00  0.00     0.183 HD
BRANCH  11  13
ATOM     13  N   UNL d   1       4.673   0.849  -0.528  0.00  0.00    -0.247 NA
ATOM     14  H   UNL d   1       4.912  -0.080  -0.146  0.00  0.00     0.143 HD
ATOM     15  H   UNL d   1       5.060   1.502   0.157  0.00  0.00     0.143 HD
ENDBRANCH  11  13
ENDBRANCH   1   9
TORSDOF 2
