REMARK  6 active torsions:
REMARK  status: ('A' for Active; 'I' for Inactive)
REMARK    1  A    between atoms: C_5  and  C_1 
REMARK    2  A    between atoms: C_7  and  C_2 
REMARK    3  A    between atoms: O_12  and  C_7 
REMARK    4  A    between atoms: N_9  and  O_12 
REMARK    5  A    between atoms: C_13  and  C_11 
REMARK    6  A    between atoms: N_20  and  C_11 
ROOT
ATOM      1  O   UNL d   1       3.421   1.818  -0.123  0.00  0.00    -0.193 OA
ENDROOT
BRANCH   1   2
ATOM      2  N   UNL d   1       2.359   2.747  -0.059  0.00  0.00    -0.246 N 
ATOM      3  C   UNL d   1       2.775   3.982  -0.080  0.00  0.00     0.109 C 
ATOM      4  HN  UNL d   1       1.375   2.481  -0.004  1.00  0.00     0.196 HD
BRANCH   3   5
ATOM      5  C   UNL d   1       1.732   5.072  -0.006  0.00  0.00     0.004 A 
ATOM      6  C   UNL d   1       0.379   4.722   0.110  0.00  0.00     0.015 A 
ATOM      7  C   UNL d   1      -0.613   5.706   0.171  0.00  0.00     0.007 A 
ATOM      8  C   UNL d   1      -0.272   7.062   0.124  0.00  0.00    -0.062 A 
ATOM      9  C   UNL d   1       1.077   7.416   0.016  0.00  0.00     0.007 A 
ATOM     10  C   UNL d   1      -1.349   8.106   0.172  0.00  0.00     0.048 C 
ATOM     11  C   UNL d   1       2.072   6.430  -0.053  0.00  0.00     0.015 A 
ENDBRANCH   3   5
BRANCH   3  12
ATOM     12  N   UNL d   1       4.110   4.312  -0.152  0.00  0.00    -0.286 NA
ATOM     13  H   UNL d   1       4.716   3.541   0.108  0.00  0.00     0.125 HD
ATOM     14  H   UNL d   1       4.396   5.176   0.290  0.00  0.00     0.125 HD
ENDBRANCH   3  12
ENDBRANCH   1   2
BRANCH   1  15
ATOM     15  C   UNL d   1       2.933   0.535   0.000  0.00  0.00     0.324 C 
ATOM     16  O   UNL d   1       1.748   0.229   0.055  0.00  0.00    -0.257 OA
BRANCH  15  17
ATOM     17  C   UNL d   1       4.029  -0.421   0.020  0.00  0.00     0.115 A 
ATOM     18  C   UNL d   1       5.341  -0.356   0.478  0.00  0.00     0.140 A 
ATOM     19  N   UNL d   1       6.064  -1.550   0.294  0.00  0.00    -0.349 N 
ATOM     20  C   UNL d   1       5.314  -2.483  -0.242  0.00  0.00     0.048 A 
ATOM     21  HN  UNL d   1       7.044  -1.674   0.546  1.00  0.00     0.166 HD
ATOM     22  C   UNL d   1       5.777  -3.868  -0.537  0.00  0.00     0.076 C 
ATOM     23  S   UNL d   1       3.710  -2.009  -0.587  0.00  0.00    -0.069 SA
BRANCH  18  24
ATOM     24  C   UNL d   1       6.055   0.776   1.164  0.00  0.00     0.434 C 
ATOM     25  F   UNL d   1       5.282   1.870   1.386  0.00  0.00    -0.165 F 
ATOM     26  F   UNL d   1       6.535   0.406   2.381  0.00  0.00    -0.165 F 
ATOM     27  F   UNL d   1       7.118   1.213   0.438  0.00  0.00    -0.165 F 
ENDBRANCH  18  24
ENDBRANCH  15  17
ENDBRANCH   1  15
TORSDOF 6
