REMARK  5 active torsions:
REMARK  status: ('A' for Active; 'I' for Inactive)
REMARK    1  A    between atoms: C_7  and  C_1 
REMARK    2  A    between atoms: O_8  and  C_2 
REMARK    3  A    between atoms: N_10  and  N_5 
REMARK    4  A    between atoms: C_12  and  O_8 
REMARK    5  A    between atoms: C_11  and  N_10 
ROOT
ATOM      1  C   UNL d   1      -0.059   1.477  -0.308  0.00  0.00     0.055 A 
ATOM      2  C   UNL d   1       1.114   0.794  -0.050  0.00  0.00     0.095 A 
ATOM      3  S   UNL d   1      -1.326   0.399  -0.753  0.00  0.00    -0.098 SA
ATOM      4  C   UNL d   1       0.965  -0.617  -0.256  0.00  0.00     0.046 A 
ATOM      5  C   UNL d   1      -0.318  -0.966  -0.608  0.00  0.00     0.053 A 
ENDROOT
BRANCH   1   6
ATOM      6  C   UNL d   1      -0.396   2.879  -0.258  0.00  0.00     0.128 C 
ATOM      7  N   UNL d   1       0.331   3.789   0.314  0.00  0.00    -0.310 N 
ATOM      8  HN  UNL d   1       1.227   3.591   0.759  1.00  0.00     0.186 HD
BRANCH   7   9
ATOM      9  N   UNL d   1      -0.222   5.043   0.260  0.00  0.00    -0.301 N 
ATOM     10  H   UNL d   1      -1.217   5.132   0.059  0.00  0.00     0.187 HD
BRANCH   9  11
ATOM     11  C   UNL d   1       0.219   6.022   1.178  0.00  0.00     0.048 A 
ATOM     12  C   UNL d   1       1.463   5.953   1.815  0.00  0.00     0.032 A 
ATOM     13  C   UNL d   1       1.878   6.968   2.686  0.00  0.00     0.026 A 
ATOM     14  C   UNL d   1       1.053   8.068   2.915  0.00  0.00     0.034 A 
ATOM     15  C   UNL d   1      -0.176   8.168   2.270  0.00  0.00     0.026 A 
ATOM     16 CL   UNL d   1       1.555   9.312   3.991  0.00  0.00    -0.084 Cl
ATOM     17  C   UNL d   1      -0.581   7.156   1.396  0.00  0.00     0.032 A 
ENDBRANCH   9  11
ENDBRANCH   7   9
ENDBRANCH   1   6
BRANCH   2  18
ATOM     18  O   UNL d   1       2.255   1.443   0.304  0.00  0.00    -0.309 OA
BRANCH  18  19
ATOM     19  C   UNL d   1       3.309   0.738   0.835  0.00  0.00     0.076 A 
ATOM     20  C   UNL d   1       4.530   0.755   0.163  0.00  0.00     0.037 A 
ATOM     21  C   UNL d   1       5.610   0.030   0.674  0.00  0.00     0.003 A 
ATOM     22  C   UNL d   1       5.467  -0.696   1.859  0.00  0.00     0.000 A 
ATOM     23  C   UNL d   1       4.251  -0.687   2.543  0.00  0.00     0.003 A 
ATOM     24  C   UNL d   1       3.174   0.041   2.039  0.00  0.00     0.037 A 
ENDBRANCH  18  19
ENDBRANCH   2  18
TORSDOF 5
