REMARK  3 active torsions:
REMARK  status: ('A' for Active; 'I' for Inactive)
REMARK    1  A    between atoms: C_13  and  C_1 
REMARK    2  A    between atoms: C_4  and  O_9 
REMARK       I    between atoms: N_11  and  C_4 
REMARK    3  A    between atoms: O_9  and  C_12 
ROOT
ATOM      1  C   UNL d   1      -0.495  -1.931  -0.072  0.00  0.00    -0.007 C 
ATOM      2  C   UNL d   1       0.256   0.394  -0.430  0.00  0.00     0.093 A 
ATOM      3  C   UNL d   1       0.577  -0.928  -0.131  0.00  0.00     0.009 A 
ATOM      4  O   UNL d   1      -1.080   0.799  -0.592  0.00  0.00    -0.275 OA
ATOM      5  C   UNL d   1      -2.119  -0.081  -0.326  0.00  0.00     0.289 C 
ATOM      6  C   UNL d   1      -1.763  -1.496  -0.140  0.00  0.00     0.095 C 
ATOM      7  C   UNL d   1       1.232   1.384  -0.529  0.00  0.00     0.075 A 
ATOM      8  C   UNL d   1       1.921  -1.248   0.099  0.00  0.00     0.018 A 
ATOM      9  C   UNL d   1       2.560   1.052  -0.260  0.00  0.00     0.083 A 
ATOM     10  O   UNL d   1      -3.289   0.280  -0.296  0.00  0.00    -0.260 OA
ATOM     11  C   UNL d   1       2.911  -0.261   0.039  0.00  0.00     0.038 A 
ENDROOT
BRANCH   1  12
ATOM     12  C   UNL d   1      -0.279  -3.391  -0.029  0.00  0.00    -0.025 A 
ATOM     13  C   UNL d   1      -0.215  -4.102  -1.233  0.00  0.00     0.012 A 
ATOM     14  C   UNL d   1       0.077  -5.465  -1.232  0.00  0.00     0.001 A 
ATOM     15  C   UNL d   1       0.303  -6.126  -0.024  0.00  0.00     0.000 A 
ATOM     16  C   UNL d   1       0.226  -5.426   1.179  0.00  0.00     0.001 A 
ATOM     17  C   UNL d   1      -0.070  -4.060   1.183  0.00  0.00     0.012 A 
ENDBRANCH   1  12
BRANCH   9  18
ATOM     18  O   UNL d   1       3.466   2.139  -0.289  0.00  0.00    -0.261 OA
BRANCH  18  19
ATOM     19  C   UNL d   1       4.734   2.159   0.303  0.00  0.00     0.367 C 
ATOM     20  N   UNL d   1       5.313   3.422   0.279  0.00  0.00    -0.336 N 
ATOM     21  C   UNL d   1       6.670   3.586   0.759  0.00  0.00     0.154 C 
ATOM     22  C   UNL d   1       4.692   4.574  -0.348  0.00  0.00     0.154 C 
ATOM     23  O   UNL d   1       5.278   1.184   0.804  0.00  0.00    -0.238 OA
ENDBRANCH  18  19
ENDBRANCH   9  18
TORSDOF 3
