REMARK  3 active torsions:
REMARK  status: ('A' for Active; 'I' for Inactive)
REMARK    1  A    between atoms: C_9  and  N_1 
REMARK    2  A    between atoms: N_14  and  C_12 
REMARK    3  A    between atoms: C_20  and  N_14 
ROOT
ATOM      1  N   UNL d   1       2.298  -0.066   0.130  0.00  0.00    -0.244 N 
ATOM      2  C   UNL d   1       1.605  -1.283   0.140  0.00  0.00     0.266 A 
ATOM      3  C   UNL d   1       1.675   1.184   0.008  0.00  0.00     0.266 A 
ATOM      4  C   UNL d   1       0.123  -1.221   0.086  0.00  0.00     0.045 A 
ATOM      5  C   UNL d   1       0.194   1.200  -0.029  0.00  0.00     0.045 A 
ATOM      6  C   UNL d   1      -0.538   0.005   0.013  0.00  0.00     0.007 A 
ATOM      7  C   UNL d   1      -1.963   0.040  -0.019  0.00  0.00    -0.003 A 
ATOM      8  C   UNL d   1      -0.599  -2.416   0.100  0.00  0.00     0.020 A 
ATOM      9  O   UNL d   1       2.128  -2.397   0.153  0.00  0.00    -0.267 OA
ATOM     10  O   UNL d   1       2.254   2.269  -0.017  0.00  0.00    -0.267 OA
ATOM     11  C   UNL d   1      -2.702  -1.187   0.038  0.00  0.00     0.019 A 
ATOM     12  C   UNL d   1      -1.990  -2.395   0.064  0.00  0.00     0.025 A 
ATOM     13  C   UNL d   1      -0.454   2.440  -0.084  0.00  0.00     0.018 A 
ATOM     14  C   UNL d   1      -2.577   1.318  -0.088  0.00  0.00     0.014 A 
ATOM     15  C   UNL d   1      -1.836   2.499  -0.111  0.00  0.00     0.002 A 
ENDROOT
BRANCH   1  16
ATOM     16  C   UNL d   1       3.727  -0.098   0.265  0.00  0.00     0.045 A 
ATOM     17  C   UNL d   1       4.551   0.665  -0.575  0.00  0.00     0.030 A 
ATOM     18  C   UNL d   1       5.939   0.656  -0.414  0.00  0.00     0.002 A 
ATOM     19  C   UNL d   1       6.518  -0.094   0.607  0.00  0.00     0.000 A 
ATOM     20  C   UNL d   1       5.713  -0.853   1.452  0.00  0.00     0.002 A 
ATOM     21  C   UNL d   1       4.327  -0.869   1.272  0.00  0.00     0.030 A 
ENDBRANCH   1  16
BRANCH  11  22
ATOM     22  N   UNL d   1      -4.110  -1.196  -0.066  0.00  0.00    -0.293 NA
ATOM     23  H   UNL d   1      -4.515  -0.285   0.113  0.00  0.00     0.127 HD
BRANCH  22  24
ATOM     24  C   UNL d   1      -4.858  -2.236   0.639  0.00  0.00     0.088 C 
ATOM     25  C   UNL d   1      -6.349  -1.963   0.496  0.00  0.00     0.021 C 
ENDBRANCH  22  24
ENDBRANCH  11  22
TORSDOF 3
