REMARK  4 active torsions:
REMARK  status: ('A' for Active; 'I' for Inactive)
REMARK    1  A    between atoms: S_8  and  C_7 
REMARK    2  A    between atoms: C_11  and  S_8 
REMARK    3  A    between atoms: C_9  and  C_11 
REMARK    4  A    between atoms: O_16  and  C_9 
ROOT
ATOM      1  C   UNL d   1      -1.012  -0.863   0.040  0.00  0.00     0.007 A 
ATOM      2  C   UNL d   1      -0.742   0.528   0.060  0.00  0.00     0.045 A 
ATOM      3  C   UNL d   1       0.571   0.974   0.048  0.00  0.00     0.054 A 
ATOM      4  C   UNL d   1       0.089  -1.753  -0.016  0.00  0.00     0.017 A 
ATOM      5  N   UNL d   1      -1.701   1.462   0.073  0.00  0.00    -0.365 N 
ATOM      6  HN  UNL d   1      -1.463   2.454   0.096  1.00  0.00     0.165 HD
ATOM      7  C   UNL d   1      -2.382  -1.245   0.051  0.00  0.00     0.014 A 
ATOM      8  C   UNL d   1       1.638   0.083   0.015  0.00  0.00     0.036 A 
ATOM      9  C   UNL d   1       1.404  -1.283  -0.015  0.00  0.00     0.025 A 
ATOM     10  C   UNL d   1      -2.985   1.065   0.055  0.00  0.00     0.089 A 
ATOM     11  C   UNL d   1      -3.371  -0.258   0.038  0.00  0.00     0.036 A 
ATOM     12 CL   UNL d   1       3.251   0.677  -0.005  0.00  0.00    -0.084 Cl
ENDROOT
BRANCH   7  13
ATOM     13  S   UNL d   1      -2.997  -2.937  -0.042  0.00  0.00    -0.118 SA
BRANCH  13  14
ATOM     14  C   UNL d   1      -2.405  -3.673   1.523  0.00  0.00     0.189 C 
BRANCH  14  15
ATOM     15  C   UNL d   1      -2.914  -2.975   2.764  0.00  0.00     0.149 C 
ATOM     16  O   UNL d   1      -2.304  -2.981   3.825  0.00  0.00    -0.649 OA
BRANCH  15  17
ATOM     17  O   UNL d   1      -4.139  -2.422   2.648  0.00  0.00    -0.776 OA
ATOM     18  H   UNL d   1      -4.491  -2.518   1.740  0.00  0.00     0.167 HD
ENDBRANCH  15  17
ENDBRANCH  14  15
ENDBRANCH  13  14
ENDBRANCH   7  13
TORSDOF 4
