REMARK  3 active torsions:
REMARK  status: ('A' for Active; 'I' for Inactive)
REMARK       I    between atoms: N_2  and  C_1 
REMARK    1  A    between atoms: C_5  and  C_1 
REMARK    2  A    between atoms: C_3  and  N_2 
REMARK    3  A    between atoms: N_4  and  C_3 
REMARK       I    between atoms: C_6  and  N_4 
REMARK       I    between atoms: N_11  and  C_6 
ROOT
ATOM      1  C   UNL d   1       0.792  -0.003  -0.429  0.00  0.00     0.259 C 
ATOM      2  N   UNL d   1       0.645   0.922   0.598  0.00  0.00    -0.299 N 
ATOM      3  O   UNL d   1       1.667   0.024  -1.290  0.00  0.00    -0.267 OA
ATOM      4  H   UNL d   1       0.072   0.639   1.390  0.00  0.00     0.171 HD
ENDROOT
BRANCH   2   5
ATOM      5  C   UNL d   1       1.054   2.243   0.635  0.00  0.00     0.182 C 
ATOM      6  S   UNL d   1       1.686   3.152  -0.620  0.00  0.00    -0.040 SA
BRANCH   5   7
ATOM      7  N   UNL d   1       0.939   2.873   1.859  0.00  0.00    -0.285 N 
ATOM      8  C   UNL d   1       0.561   2.344   3.068  0.00  0.00     0.320 C 
ATOM      9  O   UNL d   1       0.116   1.212   3.229  0.00  0.00    -0.247 OA
ATOM     10  N   UNL d   1       0.731   3.204   4.106  0.00  0.00    -0.352 N 
ATOM     11  H   UNL d   1       0.598   4.196   3.957  0.00  0.00     0.160 HD
ATOM     12  H   UNL d   1       0.400   2.859   5.000  0.00  0.00     0.160 HD
ATOM     13  H   UNL d   1       1.335   3.800   1.875  0.00  0.00     0.173 HD
ENDBRANCH   5   7
ENDBRANCH   2   5
BRANCH   1  14
ATOM     14  C   UNL d   1      -0.065  -1.211  -0.347  0.00  0.00     0.054 A 
ATOM     15  C   UNL d   1      -1.451  -1.163  -0.164  0.00  0.00     0.049 A 
ATOM     16 CL   UNL d   1      -2.336   0.317  -0.058  0.00  0.00    -0.083 Cl
ATOM     17  C   UNL d   1      -2.184  -2.355  -0.106  0.00  0.00     0.025 A 
ATOM     18  C   UNL d   1      -1.543  -3.588  -0.242  0.00  0.00     0.002 A 
ATOM     19  C   UNL d   1      -0.167  -3.637  -0.453  0.00  0.00     0.001 A 
ATOM     20  C   UNL d   1       0.569  -2.453  -0.512  0.00  0.00     0.019 A 
ENDBRANCH   1  14
TORSDOF 3
