REMARK  6 active torsions:
REMARK  status: ('A' for Active; 'I' for Inactive)
REMARK    1  A    between atoms: C_5  and  C_1 
REMARK    2  A    between atoms: C_6  and  C_2 
REMARK    3  A    between atoms: N_7  and  N_3 
REMARK    4  A    between atoms: O_10  and  C_5 
REMARK    5  A    between atoms: C_11  and  N_7 
REMARK    6  A    between atoms: C_8  and  C_9 
ROOT
ATOM      1  C   UNL d   1       1.248   0.002   0.010  0.00  0.00     0.017 A 
ATOM      2  C   UNL d   1       4.047   0.013  -0.071  0.00  0.00    -0.019 A 
ATOM      3  C   UNL d   1       1.947   1.213  -0.002  0.00  0.00     0.021 A 
ATOM      4  C   UNL d   1       1.951  -1.204  -0.007  0.00  0.00     0.021 A 
ATOM      5  C   UNL d   1       3.346   1.222  -0.044  0.00  0.00     0.014 A 
ATOM      6  C   UNL d   1       3.349  -1.200  -0.047  0.00  0.00     0.014 A 
ENDROOT
BRANCH   2   7
ATOM      7  C   UNL d   1       5.527   0.028  -0.099  0.00  0.00     0.118 C 
ATOM      8  N   UNL d   1       6.207  -1.074  -0.105  0.00  0.00    -0.311 N 
ATOM      9  HN  UNL d   1       5.752  -1.987  -0.135  1.00  0.00     0.186 HD
BRANCH   8  10
ATOM     10  N   UNL d   1       7.557  -0.948  -0.069  0.00  0.00    -0.301 N 
ATOM     11  H   UNL d   1       8.017  -0.071  -0.298  0.00  0.00     0.187 HD
BRANCH  10  12
ATOM     12  C   UNL d   1       8.350  -2.105  -0.219  0.00  0.00     0.048 A 
ATOM     13  C   UNL d   1       7.789  -3.387  -0.309  0.00  0.00     0.031 A 
ATOM     14  C   UNL d   1       8.591  -4.527  -0.402  0.00  0.00     0.002 A 
ATOM     15  C   UNL d   1       9.977  -4.405  -0.391  0.00  0.00     0.000 A 
ATOM     16  C   UNL d   1      10.557  -3.144  -0.274  0.00  0.00     0.002 A 
ATOM     17  C   UNL d   1       9.748  -2.005  -0.172  0.00  0.00     0.031 A 
ENDBRANCH  10  12
ENDBRANCH   8  10
ENDBRANCH   2   7
BRANCH   1  18
ATOM     18  C   UNL d   1      -0.182   0.000   0.031  0.00  0.00    -0.064 C 
ATOM     19  C   UNL d   1      -1.386  -0.000   0.041  0.00  0.00    -0.064 C 
BRANCH  19  20
ATOM     20  C   UNL d   1      -2.858   0.001   0.057  0.00  0.00     0.114 C 
ATOM     21  C   UNL d   1      -3.387   1.254   0.752  0.00  0.00     0.060 C 
ATOM     22  C   UNL d   1      -3.388  -1.256   0.745  0.00  0.00     0.060 C 
BRANCH  20  23
ATOM     23  O   UNL d   1      -3.341  -0.005  -1.286  0.00  0.00    -0.378 OA
ATOM     24  H   UNL d   1      -2.934   0.753  -1.738  0.00  0.00     0.211 HD
ENDBRANCH  20  23
ENDBRANCH  19  20
ENDBRANCH   1  18
TORSDOF 6
