REMARK  4 active torsions:
REMARK  status: ('A' for Active; 'I' for Inactive)
REMARK    1  A    between atoms: C_9  and  N_1 
REMARK    2  A    between atoms: C_3  and  C_7 
REMARK    3  A    between atoms: C_8  and  C_9 
REMARK       I    between atoms: N_15  and  C_8 
REMARK    4  A    between atoms: N_20  and  N_15 
ROOT
ATOM      1  N   UNL d   1       0.912   1.232  -0.192  0.00  0.00    -0.307 N 
ATOM      2  C   UNL d   1      -0.442   0.756  -0.046  0.00  0.00     0.055 A 
ATOM      3  C   UNL d   1       2.015   0.385  -0.103  0.00  0.00     0.234 C 
ATOM      4  C   UNL d   1      -1.525   1.655  -0.011  0.00  0.00     0.047 A 
ATOM      5  S   UNL d   1       0.532  -1.883  -0.024  0.00  0.00    -0.118 SA
ATOM      6  C   UNL d   1      -2.858   1.208   0.053  0.00  0.00     0.050 A 
ATOM      7  C   UNL d   1      -0.732  -0.625  -0.001  0.00  0.00     0.028 A 
ATOM      8  C   UNL d   1       1.835  -0.882   0.700  0.00  0.00     0.182 C 
ATOM      9  O   UNL d   1       3.114   0.686  -0.579  0.00  0.00    -0.272 OA
ATOM     10  C   UNL d   1      -3.115  -0.166   0.057  0.00  0.00     0.017 A 
ATOM     11  C   UNL d   1      -2.059  -1.074   0.029  0.00  0.00     0.021 A 
ENDROOT
BRANCH   1  12
ATOM     12  C   UNL d   1       1.162   2.598  -0.670  0.00  0.00     0.236 C 
BRANCH  12  13
ATOM     13  C   UNL d   1       0.749   2.797  -2.125  0.00  0.00     0.250 C 
ATOM     14  O   UNL d   1       0.014   3.721  -2.477  0.00  0.00    -0.270 OA
ATOM     15  N   UNL d   1       1.328   1.908  -3.020  0.00  0.00    -0.293 N 
ATOM     16  H   UNL d   1       2.083   1.290  -2.710  0.00  0.00     0.183 HD
BRANCH  15  17
ATOM     17  N   UNL d   1       1.080   2.054  -4.403  0.00  0.00    -0.247 NA
ATOM     18  H   UNL d   1       0.932   3.057  -4.580  0.00  0.00     0.143 HD
ATOM     19  H   UNL d   1       0.160   1.644  -4.594  0.00  0.00     0.143 HD
ENDBRANCH  15  17
ENDBRANCH  12  13
ENDBRANCH   1  12
BRANCH   6  20
ATOM     20  C   UNL d   1      -4.011   2.184   0.116  0.00  0.00     0.417 C 
ATOM     21  F   UNL d   1      -3.621   3.486   0.163  0.00  0.00    -0.166 F 
ATOM     22  F   UNL d   1      -4.844   2.076  -0.953  0.00  0.00    -0.166 F 
ATOM     23  F   UNL d   1      -4.787   1.989   1.218  0.00  0.00    -0.166 F 
ENDBRANCH   6  20
TORSDOF 4
