REMARK  2 active torsions:
REMARK  status: ('A' for Active; 'I' for Inactive)
REMARK    1  A    between atoms: C_11  and  C_1 
REMARK    2  A    between atoms: C_13  and  C_10 
REMARK       I    between atoms: N_12  and  C_11 
ROOT
ATOM      1  C   UNL d   1      -2.119  -0.058  -0.219  0.00  0.00     0.100 C 
ATOM      2  C   UNL d   1       0.015  -1.210  -0.416  0.00  0.00     0.172 A 
ATOM      3  N   UNL d   1       0.137   0.122  -0.150  0.00  0.00    -0.235 N 
ATOM      4  N   UNL d   1       1.150  -1.830  -0.407  0.00  0.00    -0.319 N 
ATOM      5  HN  UNL d   1       1.344  -2.825  -0.523  1.00  0.00     0.169 HD
ATOM      6  C   UNL d   1      -1.075   0.797  -0.056  0.00  0.00     0.055 C 
ATOM      7  N   UNL d   1       1.451   0.427  -0.043  0.00  0.00    -0.276 N 
ATOM      8  HN  UNL d   1       1.890   1.335   0.113  1.00  0.00     0.189 HD
ATOM      9  S   UNL d   1      -1.610  -1.690  -0.677  0.00  0.00    -0.044 SA
ATOM     10  C   UNL d   1       2.029  -0.786  -0.198  0.00  0.00     0.132 A 
ATOM     11  C   UNL d   1      -1.119   2.267   0.182  0.00  0.00     0.072 C 
ENDROOT
BRANCH   1  12
ATOM     12  C   UNL d   1      -3.564   0.330  -0.219  0.00  0.00     0.262 C 
ATOM     13  N   UNL d   1      -4.544  -0.514   0.319  0.00  0.00    -0.347 N 
ATOM     14  C   UNL d   1      -5.930  -0.221  -0.059  0.00  0.00     0.126 C 
ATOM     15  C   UNL d   1      -4.307  -1.858   0.859  0.00  0.00     0.126 C 
ATOM     16  C   UNL d   1      -6.941  -0.636   1.006  0.00  0.00     0.020 C 
ATOM     17  C   UNL d   1      -6.763  -2.097   1.389  0.00  0.00     0.003 C 
ATOM     18  C   UNL d   1      -5.342  -2.322   1.879  0.00  0.00     0.020 C 
ATOM     19  O   UNL d   1      -3.856   1.429  -0.705  0.00  0.00    -0.267 OA
ENDBRANCH   1  12
BRANCH  10  20
ATOM     20  C   UNL d   1       3.462  -1.050  -0.255  0.00  0.00     0.009 A 
ATOM     21  C   UNL d   1       4.372  -0.083  -0.697  0.00  0.00     0.017 A 
ATOM     22  C   UNL d   1       5.711  -0.430  -0.917  0.00  0.00     0.025 A 
ATOM     23  C   UNL d   1       6.143  -1.736  -0.677  0.00  0.00     0.034 A 
ATOM     24  C   UNL d   1       5.260  -2.693  -0.188  0.00  0.00     0.025 A 
ATOM     25 CL   UNL d   1       7.770  -2.179  -1.021  0.00  0.00    -0.084 Cl
ATOM     26  C   UNL d   1       3.924  -2.348   0.023  0.00  0.00     0.017 A 
ENDBRANCH  10  20
TORSDOF 2
