REMARK  5 active torsions:
REMARK  status: ('A' for Active; 'I' for Inactive)
REMARK    1  A    between atoms: C_3  and  C_1 
REMARK       I    between atoms: N_6  and  C_3 
REMARK    2  A    between atoms: C_4  and  N_7 
REMARK    3  A    between atoms: N_9  and  C_4 
REMARK    4  A    between atoms: N_7  and  N_6 
REMARK    5  A    between atoms: C_15  and  N_9 
ROOT
ATOM      1  C   UNL d   1      -0.898  -1.478  -1.792  0.00  0.00     0.242 C 
ATOM      2  N   UNL d   1      -0.286  -2.694  -1.937  0.00  0.00    -0.268 N 
ATOM      3  O   UNL d   1      -1.452  -0.988  -2.780  0.00  0.00    -0.271 OA
ATOM      4  H   UNL d   1      -0.305  -3.080  -2.880  0.00  0.00     0.190 HD
ENDROOT
BRANCH   2   5
ATOM      5  N   UNL d   1       0.666  -3.253  -1.078  0.00  0.00    -0.274 N 
ATOM      6  H   UNL d   1       0.665  -2.953  -0.114  0.00  0.00     0.189 HD
BRANCH   5   7
ATOM      7  C   UNL d   1       1.036  -4.571  -1.238  0.00  0.00     0.186 C 
ATOM      8  S   UNL d   1       0.341  -5.665  -2.291  0.00  0.00    -0.040 SA
BRANCH   7   9
ATOM      9  N   UNL d   1       2.097  -4.982  -0.477  0.00  0.00    -0.362 N 
ATOM     10  H   UNL d   1       2.311  -5.966  -0.612  0.00  0.00     0.162 HD
BRANCH   9  11
ATOM     11  C   UNL d   1       3.209  -4.137  -0.033  0.00  0.00     0.076 C 
ATOM     12  C   UNL d   1       3.034  -3.698   1.416  0.00  0.00     0.032 C 
ATOM     13  C   UNL d   1       4.528  -4.891  -0.201  0.00  0.00     0.032 C 
ENDBRANCH   9  11
ENDBRANCH   7   9
ENDBRANCH   5   7
ENDBRANCH   2   5
BRANCH   1  14
ATOM     14  C   UNL d   1      -0.977  -0.819  -0.424  0.00  0.00     0.111 C 
ATOM     15  C   UNL d   1       0.345  -0.420   0.235  0.00  0.00     0.135 C 
ATOM     16  O   UNL d   1      -0.105   0.578   1.188  0.00  0.00    -0.380 OA
ATOM     17  C   UNL d   1       1.226   0.429  -0.676  0.00  0.00     0.035 C 
ATOM     18  C   UNL d   1      -0.709   1.472   0.229  0.00  0.00     0.122 C 
ATOM     19  C   UNL d   1      -1.715   0.540  -0.445  0.00  0.00     0.048 C 
ATOM     20  C   UNL d   1       0.478   1.762  -0.688  0.00  0.00     0.034 C 
ENDBRANCH   1  14
TORSDOF 5
