REMARK  8 active torsions:
REMARK  status: ('A' for Active; 'I' for Inactive)
REMARK    1  A    between atoms: C_2  and  C_1 
REMARK    2  A    between atoms: C_3  and  C_9 
REMARK    3  A    between atoms: O_18  and  C_3 
REMARK    4  A    between atoms: C_4  and  C_10 
REMARK    5  A    between atoms: C_23  and  C_7 
REMARK    6  A    between atoms: C_25  and  O_18 
REMARK    7  A    between atoms: C_19  and  O_24 
REMARK    8  A    between atoms: O_24  and  C_23 
ROOT
ATOM      1  C   UNL d   1      -0.175   5.384  -1.681  0.00  0.00    -0.047 C 
ATOM      2  C   UNL d   1      -0.458   6.509  -1.989  0.00  0.00    -0.073 C 
ENDROOT
BRANCH   2   3
ATOM      3  C   UNL d   1      -0.738   7.889  -2.407  0.00  0.00     0.269 C 
BRANCH   3   4
ATOM      4  O   UNL d   1      -1.939   7.924  -3.186  0.00  0.00    -0.340 OA
BRANCH   4   5
ATOM      5  C   UNL d   1      -2.344   9.171  -3.584  0.00  0.00     0.070 A 
ATOM      6  C   UNL d   1      -1.494  10.255  -3.817  0.00  0.00     0.038 A 
ATOM      7  C   UNL d   1      -2.019  11.497  -4.186  0.00  0.00     0.020 A 
ATOM      8  C   UNL d   1      -3.398  11.662  -4.342  0.00  0.00     0.039 A 
ATOM      9  C   UNL d   1      -4.249  10.564  -4.156  0.00  0.00     0.020 A 
ATOM     10  C   UNL d   1      -3.719   9.325  -3.785  0.00  0.00     0.038 A 
BRANCH   8  11
ATOM     11  C   UNL d   1      -3.918  13.030  -4.585  0.00  0.00     0.293 C 
ATOM     12  O   UNL d   1      -3.288  14.041  -4.317  0.00  0.00    -0.259 OA
BRANCH  11  13
ATOM     13  O   UNL d   1      -5.190  12.969  -5.044  0.00  0.00    -0.318 OA
BRANCH  13  14
ATOM     14  C   UNL d   1      -5.962  14.165  -4.870  0.00  0.00     0.174 C 
ATOM     15  C   UNL d   1      -6.705  14.031  -3.553  0.00  0.00     0.034 C 
ENDBRANCH  13  14
ENDBRANCH  11  13
ENDBRANCH   8  11
ENDBRANCH   4   5
ENDBRANCH   3   4
ENDBRANCH   2   3
BRANCH   1  16
ATOM     16  C   UNL d   1       0.182   4.035  -1.365  0.00  0.00     0.086 A 
ATOM     17  C   UNL d   1      -0.707   2.999  -1.586  0.00  0.00     0.040 A 
ATOM     18  C   UNL d   1      -0.281   1.698  -1.328  0.00  0.00     0.020 A 
ATOM     19  C   UNL d   1       1.017   1.473  -0.857  0.00  0.00     0.063 A 
ATOM     20  C   UNL d   1       1.824   2.583  -0.649  0.00  0.00     0.105 A 
ATOM     21  N   UNL d   1       1.436   3.859  -0.893  0.00  0.00    -0.358 N 
ATOM     22  HN  UNL d   1       2.060   4.648  -0.727  1.00  0.00     0.166 HD
BRANCH  19  23
ATOM     23  C   UNL d   1       1.526   0.086  -0.605  0.00  0.00     0.418 C 
ATOM     24  F   UNL d   1       2.811   0.045  -0.156  0.00  0.00    -0.166 F 
ATOM     25  F   UNL d   1       1.499  -0.685  -1.727  0.00  0.00    -0.166 F 
ATOM     26  F   UNL d   1       0.785  -0.581   0.322  0.00  0.00    -0.166 F 
ENDBRANCH  19  23
ENDBRANCH   1  16
TORSDOF 8
