REMARK  1 active torsions:
REMARK  status: ('A' for Active; 'I' for Inactive)
REMARK    1  A    between atoms: C_2  and  N_1 
ROOT
ATOM      1  N   UNL d   1      -2.361  -0.014  -0.260  0.00  0.00    -0.228 N 
ATOM      2  C   UNL d   1      -1.579  -1.073  -0.758  0.00  0.00     0.238 C 
ATOM      3  C   UNL d   1      -1.635   0.878   0.537  0.00  0.00     0.238 C 
ATOM      4  C   UNL d   1      -0.221   0.514   0.212  0.00  0.00     0.100 C 
ATOM      5  C   UNL d   1      -0.403  -1.009   0.162  0.00  0.00     0.100 C 
ATOM      6  C   UNL d   1       1.024  -1.517   0.272  0.00  0.00     0.022 C 
ATOM      7  C   UNL d   1       1.112   0.653   0.947  0.00  0.00     0.022 C 
ATOM      8  C   UNL d   1       2.129   0.469  -0.174  0.00  0.00    -0.025 C 
ATOM      9  C   UNL d   1       2.018  -0.800  -0.614  0.00  0.00    -0.025 C 
ATOM     10  C   UNL d   1       1.353  -0.730   1.582  0.00  0.00     0.018 C 
ATOM     11  O   UNL d   1      -1.987   1.828   1.210  0.00  0.00    -0.272 OA
ATOM     12  O   UNL d   1      -1.835  -1.960  -1.547  0.00  0.00    -0.272 OA
ENDROOT
BRANCH   1  13
ATOM     13  C   UNL d   1      -3.712   0.085  -0.476  0.00  0.00     0.190 A 
ATOM     14  C   UNL d   1      -4.765   0.506   0.309  0.00  0.00     0.016 A 
ATOM     15  C   UNL d   1      -5.878   0.477  -0.578  0.00  0.00     0.039 A 
ATOM     16  C   UNL d   1      -4.796   0.817   1.757  0.00  0.00     0.055 C 
ATOM     17  C   UNL d   1      -7.287   0.861  -0.314  0.00  0.00     0.071 C 
ATOM     18  N   UNL d   1      -5.533   0.011  -1.783  0.00  0.00    -0.263 N 
ATOM     19  O   UNL d   1      -4.186  -0.287  -1.698  0.00  0.00    -0.218 OA
ATOM     20  HN  UNL d   1      -6.138  -0.102  -2.596  1.00  0.00     0.194 HD
ENDBRANCH   1  13
TORSDOF 1
