REMARK  1 active torsions:
REMARK  status: ('A' for Active; 'I' for Inactive)
REMARK    1  A    between atoms: C_7  and  C_3 
ROOT
ATOM      1  C   UNL d   1       1.286   0.334  -0.024  0.00  0.00     0.058 C 
ATOM      2  C   UNL d   1      -1.278   0.342  -0.036  0.00  0.00     0.058 C 
ATOM      3  C   UNL d   1       0.006   1.164  -0.170  0.00  0.00     0.110 C 
ATOM      4  N   UNL d   1      -0.002  -1.657  -0.060  0.00  0.00    -0.361 N 
ATOM      5  C   UNL d   1      -1.224  -1.010  -0.019  0.00  0.00     0.023 C 
ATOM      6  C   UNL d   1       1.223  -1.018   0.003  0.00  0.00     0.023 C 
ATOM      7  C   UNL d   1      -2.518   1.044   0.045  0.00  0.00     0.098 C 
ATOM      8  C   UNL d   1       2.528   1.031   0.051  0.00  0.00     0.098 C 
ATOM      9  N   UNL d   1       3.531   1.610   0.106  0.00  0.00    -0.192 NA
ATOM     10  N   UNL d   1      -3.520   1.617   0.118  0.00  0.00    -0.192 NA
ATOM     11  C   UNL d   1       2.444  -1.898   0.088  0.00  0.00     0.069 C 
ATOM     12  C   UNL d   1      -2.455  -1.880   0.028  0.00  0.00     0.069 C 
ATOM     13  H   UNL d   1      -0.006  -2.675  -0.038  0.00  0.00     0.165 HD
ENDROOT
BRANCH   3  14
ATOM     14  C   UNL d   1       0.020   1.914  -1.506  0.00  0.00    -0.042 A 
ATOM     15  C   UNL d   1      -0.032   1.205  -2.722  0.00  0.00     0.033 A 
ATOM     16  C   UNL d   1       0.010   1.875  -3.947  0.00  0.00     0.056 A 
ATOM     17 CL   UNL d   1      -0.081   0.919  -5.383  0.00  0.00    -0.083 Cl
ATOM     18  C   UNL d   1       0.120   3.267  -3.971  0.00  0.00     0.055 A 
ATOM     19  C   UNL d   1       0.164   3.981  -2.769  0.00  0.00     0.026 A 
ATOM     20 CL   UNL d   1       0.215   4.161  -5.445  0.00  0.00    -0.083 Cl
ATOM     21  C   UNL d   1       0.109   3.311  -1.543  0.00  0.00     0.010 A 
ENDBRANCH   3  14
TORSDOF 1
