REMARK  6 active torsions:
REMARK  status: ('A' for Active; 'I' for Inactive)
REMARK    1  A    between atoms: N_3  and  S_1 
REMARK    2  A    between atoms: C_5  and  S_1 
REMARK    3  A    between atoms: S_2  and  C_4 
REMARK    4  A    between atoms: N_14  and  S_2 
REMARK    5  A    between atoms: C_12  and  N_3 
REMARK       I    between atoms: C_11  and  N_13 
REMARK    6  A    between atoms: N_13  and  C_18 
ROOT
ATOM      1  S   UNL d   1       1.007  -0.010  -0.020  0.00  0.00     0.245 S 
ATOM      2  O   UNL d   1       0.218   1.181  -0.242  0.00  0.00    -0.206 OA
ATOM      3  O   UNL d   1       2.454   0.045  -0.002  0.00  0.00    -0.206 OA
ENDROOT
BRANCH   1   4
ATOM      4  N   UNL d   1       0.489  -1.125  -1.187  0.00  0.00    -0.181 NA
ATOM      5  H   UNL d   1       0.003  -0.629  -1.935  0.00  0.00     0.146 HD
BRANCH   4   6
ATOM      6  C   UNL d   1       1.401  -2.142  -1.584  0.00  0.00     0.024 A 
ATOM      7  C   UNL d   1       2.281  -1.907  -2.636  0.00  0.00     0.049 A 
ATOM      8  C   UNL d   1       3.210  -2.895  -2.972  0.00  0.00     0.076 A 
ATOM      9  C   UNL d   1       3.269  -4.104  -2.273  0.00  0.00     0.025 A 
ATOM     10  C   UNL d   1       2.390  -4.321  -1.216  0.00  0.00     0.003 A 
ATOM     11  C   UNL d   1       1.458  -3.340  -0.871  0.00  0.00     0.024 A 
BRANCH   8  12
ATOM     12  S   UNL d   1       4.371  -2.583  -4.262  0.00  0.00     0.239 S 
ATOM     13  O   UNL d   1       4.873  -3.841  -4.765  0.00  0.00    -0.206 OA
ATOM     14  O   UNL d   1       3.855  -1.548  -5.127  0.00  0.00    -0.206 OA
BRANCH  12  15
ATOM     15  N   UNL d   1       5.602  -1.897  -3.360  0.00  0.00    -0.225 NA
ATOM     16  H   UNL d   1       6.449  -2.460  -3.381  0.00  0.00     0.136 HD
ATOM     17  H   UNL d   1       5.713  -0.903  -3.556  0.00  0.00     0.136 HD
ENDBRANCH  12  15
ENDBRANCH   8  12
ENDBRANCH   4   6
ENDBRANCH   1   4
BRANCH   1  18
ATOM     18  C   UNL d   1       0.461  -0.742   1.505  0.00  0.00     0.075 A 
ATOM     19  C   UNL d   1       1.298  -1.597   2.224  0.00  0.00     0.027 A 
ATOM     20  C   UNL d   1       0.884  -2.097   3.467  0.00  0.00     0.031 A 
ATOM     21  C   UNL d   1      -0.355  -1.728   4.012  0.00  0.00     0.034 A 
ATOM     22  C   UNL d   1      -1.177  -0.864   3.281  0.00  0.00     0.031 A 
ATOM     23  C   UNL d   1      -0.776  -0.370   2.035  0.00  0.00     0.027 A 
BRANCH  21  24
ATOM     24  N   UNL d   1      -0.699  -2.235   5.287  0.00  0.00    -0.328 N 
ATOM     25  C   UNL d   1      -1.851  -1.963   6.004  0.00  0.00     0.218 C 
ATOM     26  O   UNL d   1      -2.786  -1.249   5.650  0.00  0.00    -0.274 OA
ATOM     27  C   UNL d   1      -1.904  -2.640   7.352  0.00  0.00     0.117 C 
ATOM     28  H   UNL d   1      -0.016  -2.842   5.725  0.00  0.00     0.169 HD
ENDBRANCH  21  24
ENDBRANCH   1  18
TORSDOF 6
