REMARK  7 active torsions:
REMARK  status: ('A' for Active; 'I' for Inactive)
REMARK    1  A    between atoms: S_14  and  C_2 
REMARK    2  A    between atoms: C_3  and  S_13 
REMARK    3  A    between atoms: C_15  and  C_4 
REMARK    4  A    between atoms: S_13  and  C_15 
REMARK    5  A    between atoms: C_19  and  S_14 
REMARK    6  A    between atoms: C_16  and  C_19 
REMARK       I    between atoms: N_17  and  C_16 
REMARK    7  A    between atoms: C_21  and  N_17 
ROOT
ATOM      1  N   UNL d   1       1.103   0.052  -0.089  0.00  0.00    -0.319 N 
ATOM      2  C   UNL d   1       0.250   1.058  -0.445  0.00  0.00     0.162 C 
ATOM      3  C   UNL d   1       0.303  -1.061   0.089  0.00  0.00     0.109 C 
ATOM      4  N   UNL d   1      -0.988   0.668  -0.253  0.00  0.00    -0.278 N 
ATOM      5  HN  UNL d   1      -1.823   1.248  -0.335  1.00  0.00     0.189 HD
ATOM      6  N   UNL d   1      -0.955  -0.659   0.078  0.00  0.00    -0.286 N 
ATOM      7  HN  UNL d   1      -1.767  -1.241   0.283  1.00  0.00     0.188 HD
ATOM      8  C   UNL d   1       2.535   0.166   0.045  0.00  0.00     0.159 C 
ENDROOT
BRANCH   3   9
ATOM      9  C   UNL d   1       0.723  -2.502   0.081  0.00  0.00     0.157 C 
BRANCH   9  10
ATOM     10  S   UNL d   1       2.213  -2.896   1.029  0.00  0.00    -0.119 SA
BRANCH  10  11
ATOM     11  C   UNL d   1       2.510  -4.543   0.530  0.00  0.00     0.035 A 
ATOM     12  C   UNL d   1       3.565  -4.987  -0.242  0.00  0.00     0.023 A 
ATOM     13  N   UNL d   1       3.457  -6.357  -0.314  0.00  0.00    -0.358 N 
ATOM     14  C   UNL d   1       4.684  -4.267  -0.904  0.00  0.00     0.069 C 
ATOM     15  C   UNL d   1       2.361  -6.795   0.396  0.00  0.00     0.044 A 
ATOM     16  H   UNL d   1       4.103  -6.969  -0.795  0.00  0.00     0.166 HD
ATOM     17  C   UNL d   1       1.739  -5.670   0.932  0.00  0.00     0.009 A 
ATOM     18  C   UNL d   1       1.892  -8.096   0.615  0.00  0.00     0.030 A 
ATOM     19  C   UNL d   1       0.582  -5.850   1.719  0.00  0.00     0.015 A 
ATOM     20  C   UNL d   1       0.094  -7.142   1.941  0.00  0.00     0.001 A 
ATOM     21  C   UNL d   1       0.744  -8.246   1.399  0.00  0.00     0.002 A 
ENDBRANCH  10  11
ENDBRANCH   9  10
ENDBRANCH   3   9
BRANCH   2  22
ATOM     22  S   UNL d   1       0.743   2.446  -1.351  0.00  0.00    -0.083 SA
BRANCH  22  23
ATOM     23  C   UNL d   1      -0.733   3.484  -1.372  0.00  0.00     0.185 C 
BRANCH  23  24
ATOM     24  C   UNL d   1      -1.912   3.046  -2.235  0.00  0.00     0.231 C 
ATOM     25  N   UNL d   1      -1.923   1.746  -2.684  0.00  0.00    -0.327 N 
ATOM     26  H   UNL d   1      -1.223   1.138  -2.280  0.00  0.00     0.169 HD
ATOM     27  O   UNL d   1      -2.805   3.873  -2.448  0.00  0.00    -0.272 OA
BRANCH  25  28
ATOM     28  C   UNL d   1      -2.977   1.075  -3.334  0.00  0.00     0.034 A 
ATOM     29  C   UNL d   1      -4.072   1.719  -3.908  0.00  0.00     0.029 A 
ATOM     30  C   UNL d   1      -5.124   0.976  -4.451  0.00  0.00     0.002 A 
ATOM     31  C   UNL d   1      -5.081  -0.416  -4.438  0.00  0.00     0.000 A 
ATOM     32  C   UNL d   1      -3.973  -1.069  -3.904  0.00  0.00     0.002 A 
ATOM     33  C   UNL d   1      -2.921  -0.327  -3.362  0.00  0.00     0.029 A 
ENDBRANCH  25  28
ENDBRANCH  23  24
ENDBRANCH  22  23
ENDBRANCH   2  22
TORSDOF 7
