REMARK  1 active torsions:
REMARK  status: ('A' for Active; 'I' for Inactive)
REMARK    1  A    between atoms: S_5  and  C_1 
ROOT
ATOM      1  C   UNL d   1      -2.066  -0.866  -0.133  0.00  0.00     0.143 A 
ATOM      2  N   UNL d   1      -1.008  -1.638  -0.014  0.00  0.00    -0.342 N 
ATOM      3  HN  UNL d   1      -1.026  -2.656   0.056  1.00  0.00     0.167 HD
ATOM      4  S   UNL d   1      -1.768   0.816  -0.219  0.00  0.00    -0.061 SA
ATOM      5  C   UNL d   1       0.136  -0.856   0.002  0.00  0.00     0.050 A 
ATOM      6  C   UNL d   1      -0.076   0.519  -0.110  0.00  0.00     0.034 A 
ATOM      7  C   UNL d   1       1.460  -1.329   0.114  0.00  0.00     0.031 A 
ATOM      8  C   UNL d   1       0.986   1.438  -0.122  0.00  0.00     0.021 A 
ATOM      9  C   UNL d   1       2.289   0.943  -0.019  0.00  0.00     0.002 A 
ATOM     10  C   UNL d   1       2.526  -0.423   0.100  0.00  0.00     0.002 A 
ENDROOT
BRANCH   1  11
ATOM     11  S   UNL d   1      -3.682  -1.541  -0.179  0.00  0.00     0.069 S 
ATOM     12  O   UNL d   1      -4.642  -0.446  -0.541  0.00  0.00    -0.251 OA
ATOM     13  C   UNL d   1      -3.440  -2.614  -1.609  0.00  0.00     0.135 C 
ENDBRANCH   1  11
TORSDOF 1
