REMARK  5 active torsions:
REMARK  status: ('A' for Active; 'I' for Inactive)
REMARK    1  A    between atoms: N_3  and  S_1 
REMARK    2  A    between atoms: C_8  and  S_1 
REMARK    3  A    between atoms: S_2  and  C_4 
REMARK    4  A    between atoms: N_12  and  S_2 
REMARK    5  A    between atoms: C_11  and  N_3 
ROOT
ATOM      1  C   UNL d   1       2.337   0.731  -4.364  0.00  0.00     0.076 A 
ATOM      2  C   UNL d   1       2.103   0.258  -3.072  0.00  0.00     0.054 A 
ATOM      3  C   UNL d   1       0.841  -0.230  -2.749  0.00  0.00     0.044 A 
ATOM      4  C   UNL d   1       1.315   0.773  -5.315  0.00  0.00     0.025 A 
ATOM      5  C   UNL d   1       0.053   0.286  -4.980  0.00  0.00     0.004 A 
ATOM      6  C   UNL d   1      -0.178  -0.235  -3.702  0.00  0.00     0.030 A 
ENDROOT
BRANCH   3   7
ATOM      7  N   UNL d   1       0.620  -0.797  -1.465  0.00  0.00    -0.281 N 
ATOM      8  H   UNL d   1       1.006  -0.306  -0.660  0.00  0.00     0.179 HD
BRANCH   7   9
ATOM      9  S   UNL d   1       0.734  -2.476  -1.284  0.00  0.00     0.263 S 
ATOM     10  O   UNL d   1      -0.214  -3.116  -2.171  0.00  0.00    -0.200 OA
ATOM     11  O   UNL d   1       0.718  -2.726   0.142  0.00  0.00    -0.200 OA
BRANCH   9  12
ATOM     12  C   UNL d   1       2.376  -2.847  -1.871  0.00  0.00     0.079 A 
ATOM     13  C   UNL d   1       3.456  -2.802  -0.983  0.00  0.00     0.025 A 
ATOM     14  C   UNL d   1       4.740  -3.089  -1.450  0.00  0.00     0.002 A 
ATOM     15  C   UNL d   1       4.938  -3.427  -2.790  0.00  0.00     0.000 A 
ATOM     16  C   UNL d   1       3.854  -3.491  -3.666  0.00  0.00     0.002 A 
ATOM     17  C   UNL d   1       2.567  -3.211  -3.207  0.00  0.00     0.025 A 
ENDBRANCH   9  12
ENDBRANCH   7   9
ENDBRANCH   3   7
BRANCH   1  18
ATOM     18  S   UNL d   1       3.969   1.242  -4.801  0.00  0.00     0.239 S 
ATOM     19  O   UNL d   1       3.901   2.144  -5.926  0.00  0.00    -0.206 OA
ATOM     20  O   UNL d   1       4.709   1.546  -3.602  0.00  0.00    -0.206 OA
BRANCH  18  21
ATOM     21  N   UNL d   1       4.601  -0.197  -5.389  0.00  0.00    -0.225 NA
ATOM     22  H   UNL d   1       4.859  -0.095  -6.370  0.00  0.00     0.136 HD
ATOM     23  H   UNL d   1       5.351  -0.530  -4.783  0.00  0.00     0.136 HD
ENDBRANCH  18  21
ENDBRANCH   1  18
TORSDOF 5
