REMARK  6 active torsions:
REMARK  status: ('A' for Active; 'I' for Inactive)
REMARK    1  A    between atoms: C_7  and  C_1 
REMARK    2  A    between atoms: C_8  and  C_2 
REMARK    3  A    between atoms: O_12  and  C_7 
REMARK    4  A    between atoms: O_11  and  C_8 
REMARK    5  A    between atoms: C_16  and  O_11 
REMARK    6  A    between atoms: C_15  and  O_12 
ROOT
ATOM      1  C   UNL d   1      -1.231  -1.031   0.155  0.00  0.00     0.044 C 
ATOM      2  C   UNL d   1       1.312  -0.968   0.192  0.00  0.00     0.044 C 
ATOM      3  N   UNL d   1      -0.004   0.972  -0.124  0.00  0.00    -0.362 N 
ATOM      4  C   UNL d   1      -1.216   0.315   0.022  0.00  0.00     0.018 C 
ATOM      5  C   UNL d   1       1.238   0.373   0.041  0.00  0.00     0.018 C 
ATOM      6  C   UNL d   1       0.062  -1.821   0.143  0.00  0.00     0.093 C 
ATOM      7  C   UNL d   1      -2.450   1.179   0.039  0.00  0.00     0.069 C 
ATOM      8  C   UNL d   1       2.410   1.323   0.025  0.00  0.00     0.069 C 
ATOM      9  H   UNL d   1      -0.025   1.989  -0.128  0.00  0.00     0.165 HD
ENDROOT
BRANCH   1  10
ATOM     10  C   UNL d   1      -2.473  -1.795   0.439  0.00  0.00     0.291 C 
ATOM     11  O   UNL d   1      -3.478  -1.333   0.956  0.00  0.00    -0.260 OA
BRANCH  10  12
ATOM     12  O   UNL d   1      -2.266  -3.104   0.147  0.00  0.00    -0.318 OA
BRANCH  12  13
ATOM     13  C   UNL d   1      -3.174  -4.030   0.760  0.00  0.00     0.174 C 
ATOM     14  C   UNL d   1      -2.608  -4.416   2.117  0.00  0.00     0.034 C 
ENDBRANCH  12  13
ENDBRANCH  10  12
ENDBRANCH   1  10
BRANCH   2  15
ATOM     15  C   UNL d   1       2.590  -1.680   0.443  0.00  0.00     0.291 C 
ATOM     16  O   UNL d   1       3.549  -1.216   1.034  0.00  0.00    -0.260 OA
BRANCH  15  17
ATOM     17  O   UNL d   1       2.527  -2.914  -0.123  0.00  0.00    -0.318 OA
BRANCH  17  18
ATOM     18  C   UNL d   1       3.778  -3.603  -0.248  0.00  0.00     0.174 C 
ATOM     19  C   UNL d   1       4.297  -3.358  -1.653  0.00  0.00     0.034 C 
ENDBRANCH  17  18
ENDBRANCH  15  17
ENDBRANCH   2  15
TORSDOF 6
