REMARK  6 active torsions:
REMARK  status: ('A' for Active; 'I' for Inactive)
REMARK    1  A    between atoms: C_4  and  C_1 
REMARK    2  A    between atoms: C_5  and  C_1 
REMARK    3  A    between atoms: N_6  and  N_2 
REMARK    4  A    between atoms: O_15  and  C_4 
REMARK    5  A    between atoms: C_7  and  N_6 
REMARK    6  A    between atoms: C_19  and  O_15 
ROOT
ATOM      1  C   UNL d   1       0.970  -0.069   0.044  0.00  0.00     0.169 C 
ATOM      2  N   UNL d   1       0.285   1.014   0.320  0.00  0.00    -0.292 N 
ATOM      3  HN  UNL d   1      -0.717   0.972   0.507  1.00  0.00     0.187 HD
ENDROOT
BRANCH   2   4
ATOM      4  N   UNL d   1       0.958   2.199   0.349  0.00  0.00    -0.300 N 
ATOM      5  H   UNL d   1       1.827   2.280  -0.198  0.00  0.00     0.187 HD
BRANCH   4   6
ATOM      6  C   UNL d   1       0.211   3.400   0.355  0.00  0.00     0.051 A 
ATOM      7  C   UNL d   1      -1.179   3.427   0.532  0.00  0.00     0.054 A 
ATOM      8  C   UNL d   1      -1.859   4.643   0.627  0.00  0.00     0.037 A 
ATOM      9 CL   UNL d   1      -3.570   4.652   0.825  0.00  0.00    -0.084 Cl
ATOM     10  C   UNL d   1      -1.171   5.851   0.574  0.00  0.00     0.048 A 
ATOM     11  C   UNL d   1       0.211   5.832   0.421  0.00  0.00     0.037 A 
ATOM     12  C   UNL d   1       0.900   4.622   0.316  0.00  0.00     0.054 A 
ATOM     13 CL   UNL d   1       1.085   7.315   0.381  0.00  0.00    -0.084 Cl
ENDBRANCH   4   6
ENDBRANCH   2   4
BRANCH   1  14
ATOM     14  C   UNL d   1       0.193  -1.364  -0.092  0.00  0.00     0.315 C 
ATOM     15  O   UNL d   1       0.604  -2.421   0.350  0.00  0.00    -0.257 OA
BRANCH  14  16
ATOM     16  O   UNL d   1      -0.891  -1.169  -0.868  0.00  0.00    -0.317 OA
BRANCH  16  17
ATOM     17  C   UNL d   1      -1.510  -2.357  -1.379  0.00  0.00     0.175 C 
ATOM     18  C   UNL d   1      -0.949  -2.599  -2.768  0.00  0.00     0.034 C 
ENDBRANCH  16  17
ENDBRANCH  14  16
ENDBRANCH   1  14
BRANCH   1  19
ATOM     19  C   UNL d   1       2.470  -0.048  -0.205  0.00  0.00     0.179 C 
ATOM     20  O   UNL d   1       2.940   0.866  -0.885  0.00  0.00    -0.291 OA
ATOM     21  C   UNL d   1       3.334  -1.095   0.433  0.00  0.00     0.099 C 
ENDBRANCH   1  19
TORSDOF 6
