REMARK  0 active torsions:
REMARK  status: ('A' for Active; 'I' for Inactive)
ROOT
ATOM      1  C   UNL d   1      -1.245   0.665   0.034  0.00  0.00     0.022 A 
ATOM      2  C   UNL d   1       1.236   0.663   0.033  0.00  0.00     0.022 A 
ATOM      3  C   UNL d   1       1.188  -0.657   0.282  0.00  0.00     0.064 A 
ATOM      4  C   UNL d   1      -1.200  -0.659   0.265  0.00  0.00     0.064 A 
ATOM      5  O   UNL d   1      -0.006  -1.356   0.328  0.00  0.00    -0.318 OA
ATOM      6  C   UNL d   1      -0.003   1.478  -0.202  0.00  0.00     0.090 A 
ATOM      7  C   UNL d   1      -2.558   1.362   0.059  0.00  0.00     0.159 C 
ATOM      8  C   UNL d   1       2.552   1.353   0.027  0.00  0.00     0.159 C 
ATOM      9  C   UNL d   1       2.389  -1.522   0.519  0.00  0.00     0.075 C 
ATOM     10  C   UNL d   1      -2.404  -1.526   0.467  0.00  0.00     0.075 C 
ATOM     11  C   UNL d   1      -3.691  -0.917  -0.119  0.00  0.00    -0.035 C 
ATOM     12  C   UNL d   1       3.686  -0.924  -0.056  0.00  0.00    -0.035 C 
ATOM     13  C   UNL d   1      -3.812   0.549   0.333  0.00  0.00     0.092 C 
ATOM     14  C   UNL d   1       3.795   0.550   0.373  0.00  0.00     0.092 C 
ATOM     15  O   UNL d   1      -2.610   2.584  -0.068  0.00  0.00    -0.293 OA
ATOM     16  O   UNL d   1       2.617   2.562  -0.194  0.00  0.00    -0.293 OA
ATOM     17  C   UNL d   1      -4.894  -1.724   0.400  0.00  0.00     0.015 C 
ATOM     18  C   UNL d   1      -3.683  -1.002  -1.661  0.00  0.00     0.015 C 
ATOM     19  C   UNL d   1       3.702  -1.039  -1.595  0.00  0.00     0.015 C 
ATOM     20  C   UNL d   1       4.880  -1.719   0.498  0.00  0.00     0.015 C 
ENDROOT
TORSDOF 0
