REMARK  3 active torsions:
REMARK  status: ('A' for Active; 'I' for Inactive)
REMARK    1  A    between atoms: C_4  and  C_1 
REMARK    2  A    between atoms: C_7  and  C_4 
REMARK       I    between atoms: N_8  and  C_7 
REMARK    3  A    between atoms: C_10  and  N_8 
ROOT
ATOM      1  C   UNL d   1       3.526   0.120  -0.488  0.00  0.00     0.150 C 
ENDROOT
BRANCH   1   2
ATOM      2  C   UNL d   1       2.114  -0.146  -0.056  0.00  0.00    -0.001 C 
ATOM      3  S   UNL d   1       1.140  -1.180  -1.003  0.00  0.00    -0.093 SA
ATOM      4  C   UNL d   1      -0.241  -0.918  -0.021  0.00  0.00     0.016 A 
ATOM      5  C   UNL d   1      -1.526  -1.464  -0.214  0.00  0.00     0.019 A 
ATOM      6  C   UNL d   1       0.043  -0.054   1.039  0.00  0.00    -0.012 A 
ATOM      7  C   UNL d   1      -2.559  -1.082   0.643  0.00  0.00     0.001 A 
ATOM      8  C   UNL d   1      -2.319  -0.190   1.676  0.00  0.00     0.001 A 
ATOM      9  C   UNL d   1      -1.031   0.310   1.891  0.00  0.00     0.013 A 
ATOM     10  C   UNL d   1       1.445   0.311   1.070  0.00  0.00    -0.037 C 
ATOM     11  C   UNL d   1       2.091   1.114   2.158  0.00  0.00     0.050 C 
ENDBRANCH   1   2
BRANCH   1  12
ATOM     12  C   UNL d   1       3.764   1.605  -0.741  0.00  0.00     0.226 C 
ATOM     13  N   UNL d   1       2.951   2.146  -1.726  0.00  0.00    -0.327 N 
ATOM     14  H   UNL d   1       2.161   1.583  -2.019  0.00  0.00     0.169 HD
ATOM     15  O   UNL d   1       4.657   2.197  -0.138  0.00  0.00    -0.273 OA
BRANCH  13  16
ATOM     16  C   UNL d   1       3.103   3.395  -2.368  0.00  0.00     0.034 A 
ATOM     17  C   UNL d   1       4.176   4.260  -2.141  0.00  0.00     0.031 A 
ATOM     18  C   UNL d   1       4.317   5.438  -2.885  0.00  0.00     0.026 A 
ATOM     19  C   UNL d   1       3.371   5.761  -3.856  0.00  0.00     0.034 A 
ATOM     20  C   UNL d   1       2.279   4.927  -4.071  0.00  0.00     0.026 A 
ATOM     21 CL   UNL d   1       3.569   7.183  -4.803  0.00  0.00    -0.084 Cl
ATOM     22  C   UNL d   1       2.142   3.749  -3.328  0.00  0.00     0.031 A 
ENDBRANCH  13  16
ENDBRANCH   1  12
TORSDOF 3
