REMARK  4 active torsions:
REMARK  status: ('A' for Active; 'I' for Inactive)
REMARK    1  A    between atoms: N_4  and  C_1 
REMARK       I    between atoms: C_3  and  N_4 
REMARK    2  A    between atoms: C_9  and  C_3 
REMARK    3  A    between atoms: C_15  and  C_10 
REMARK    4  A    between atoms: O_13  and  C_11 
ROOT
ATOM      1  C   UNL d   1       1.511   3.052  -0.011  0.00  0.00     0.260 C 
ATOM      2  N   UNL d   1       0.273   2.469   0.148  0.00  0.00    -0.302 N 
ATOM      3  O   UNL d   1       1.759   4.252  -0.058  0.00  0.00    -0.267 OA
ATOM      4  H   UNL d   1       0.165   1.467   0.168  0.00  0.00     0.171 HD
ENDROOT
BRANCH   2   5
ATOM      5  C   UNL d   1      -0.912   3.128   0.354  0.00  0.00     0.168 A 
ATOM      6  S   UNL d   1      -1.082   4.816   0.233  0.00  0.00    -0.038 SA
ATOM      7  C   UNL d   1      -2.696   4.618   0.782  0.00  0.00     0.069 A 
ATOM      8  N   UNL d   1      -3.060   3.361   0.930  0.00  0.00    -0.296 N 
ATOM      9  N   UNL d   1      -2.022   2.491   0.658  0.00  0.00    -0.279 N 
ATOM     10  HN  UNL d   1      -3.995   3.065   1.211  1.00  0.00     0.187 HD
ATOM     11  HN  UNL d   1      -2.106   1.475   0.689  1.00  0.00     0.189 HD
BRANCH   7  12
ATOM     12  C   UNL d   1      -3.547   5.800   1.096  0.00  0.00     0.062 C 
ATOM     13  C   UNL d   1      -3.189   6.381   2.458  0.00  0.00     0.012 C 
ENDBRANCH   7  12
ENDBRANCH   2   5
BRANCH   1  14
ATOM     14  C   UNL d   1       2.662   2.114  -0.172  0.00  0.00     0.065 A 
ATOM     15  C   UNL d   1       3.823   2.561  -0.824  0.00  0.00     0.081 A 
ATOM     16  C   UNL d   1       4.889   1.694  -1.054  0.00  0.00     0.037 A 
ATOM     17  C   UNL d   1       4.821   0.375  -0.609  0.00  0.00     0.003 A 
ATOM     18  C   UNL d   1       3.698  -0.069   0.087  0.00  0.00     0.001 A 
ATOM     19  C   UNL d   1       2.623   0.797   0.312  0.00  0.00     0.020 A 
BRANCH  15  20
ATOM     20  O   UNL d   1       3.990   3.846  -1.268  0.00  0.00    -0.360 OA
ATOM     21  H   UNL d   1       3.258   4.390  -0.898  0.00  0.00     0.217 HD
ENDBRANCH  15  20
ENDBRANCH   1  14
TORSDOF 4
