REMARK  2 active torsions:
REMARK  status: ('A' for Active; 'I' for Inactive)
REMARK    1  A    between atoms: C_11  and  C_1 
REMARK    2  A    between atoms: C_13  and  C_9 
ROOT
ATOM      1  C   UNL d   1       0.904  -1.372   0.133  0.00  0.00     0.144 A 
ATOM      2  N   UNL d   1      -0.257  -0.607   0.117  0.00  0.00    -0.235 N 
ATOM      3  C   UNL d   1      -0.176   0.789   0.117  0.00  0.00     0.129 A 
ATOM      4  N   UNL d   1       1.012   1.456   0.149  0.00  0.00    -0.340 N 
ATOM      5  HN  UNL d   1       1.047   2.476   0.150  1.00  0.00     0.167 HD
ATOM      6  C   UNL d   1       2.106  -0.757   0.158  0.00  0.00     0.067 A 
ATOM      7  N   UNL d   1      -1.551  -1.011   0.111  0.00  0.00    -0.297 N 
ATOM      8  HN  UNL d   1      -1.899  -1.970   0.126  1.00  0.00     0.187 HD
ATOM      9  C   UNL d   1       2.101   0.741   0.177  0.00  0.00     0.046 A 
ATOM     10  C   UNL d   1      -1.467   1.258   0.100  0.00  0.00     0.076 A 
ATOM     11  C   UNL d   1      -2.273   0.110   0.083  0.00  0.00     0.026 A 
ATOM     12  C   UNL d   1      -3.757   0.053   0.045  0.00  0.00     0.070 C 
ENDROOT
BRANCH   9  13
ATOM     13  C   UNL d   1       3.416   1.442   0.302  0.00  0.00    -0.009 A 
ATOM     14  C   UNL d   1       3.397   2.737   0.851  0.00  0.00     0.021 A 
ATOM     15  C   UNL d   1       4.598   3.375   1.102  0.00  0.00    -0.051 A 
ATOM     16  C   UNL d   1       4.807   4.723   1.715  0.00  0.00     0.039 C 
ATOM     17  C   UNL d   1       5.816   2.772   0.783  0.00  0.00    -0.052 A 
ATOM     18  C   UNL d   1       6.262   4.588   2.185  0.00  0.00     0.009 C 
ATOM     19  C   UNL d   1       6.956   3.662   1.173  0.00  0.00     0.039 C 
ATOM     20  C   UNL d   1       5.857   1.526   0.179  0.00  0.00     0.008 A 
ATOM     21  C   UNL d   1       4.649   0.858  -0.055  0.00  0.00     0.014 A 
ENDBRANCH   9  13
BRANCH   1  22
ATOM     22  C   UNL d   1       0.784  -2.848   0.133  0.00  0.00     0.434 C 
ATOM     23  F   UNL d   1      -0.383  -3.358  -0.329  0.00  0.00    -0.165 F 
ATOM     24  F   UNL d   1       1.758  -3.404  -0.645  0.00  0.00    -0.165 F 
ATOM     25  F   UNL d   1       0.978  -3.355   1.378  0.00  0.00    -0.165 F 
ENDBRANCH   1  22
TORSDOF 2
