REMARK  7 active torsions:
REMARK  status: ('A' for Active; 'I' for Inactive)
REMARK    1  A    between atoms: C_3  and  C_1 
REMARK    2  A    between atoms: C_8  and  C_2 
REMARK    3  A    between atoms: N_19  and  C_2 
REMARK    4  A    between atoms: O_12  and  C_3 
REMARK    5  A    between atoms: C_5  and  C_10 
REMARK    6  A    between atoms: N_6  and  O_12 
REMARK    7  A    between atoms: C_20  and  C_9 
ROOT
ATOM      1  C   UNL d   1       0.911  -1.121   0.064  0.00  0.00     0.339 C 
ATOM      2  O   UNL d   1       1.747  -2.013   0.176  0.00  0.00    -0.255 OA
ENDROOT
BRANCH   1   3
ATOM      3  C   UNL d   1      -0.524  -1.300  -0.033  0.00  0.00     0.153 A 
ATOM      4  O   UNL d   1      -1.040  -2.580  -0.071  0.00  0.00    -0.295 OA
ATOM      5  C   UNL d   1      -2.394  -2.467  -0.085  0.00  0.00     0.130 A 
ATOM      6  C   UNL d   1      -2.775  -1.148  -0.064  0.00  0.00     0.050 A 
ATOM      7  C   UNL d   1      -1.575  -0.395  -0.039  0.00  0.00     0.047 A 
BRANCH   5   8
ATOM      8  C   UNL d   1      -3.179  -3.651  -0.083  0.00  0.00    -0.036 C 
ATOM      9  C   UNL d   1      -3.921  -4.594  -0.053  0.00  0.00    -0.059 C 
BRANCH   9  10
ATOM     10  C   UNL d   1      -4.854  -5.682   0.011  0.00  0.00     0.018 A 
ATOM     11  C   UNL d   1      -6.229  -5.431  -0.043  0.00  0.00     0.020 A 
ATOM     12  C   UNL d   1      -7.143  -6.486   0.051  0.00  0.00     0.001 A 
ATOM     13  C   UNL d   1      -6.684  -7.793   0.198  0.00  0.00     0.000 A 
ATOM     14  C   UNL d   1      -5.314  -8.049   0.244  0.00  0.00     0.001 A 
ATOM     15  C   UNL d   1      -4.400  -6.995   0.151  0.00  0.00     0.020 A 
ENDBRANCH   9  10
ENDBRANCH   5   8
ENDBRANCH   1   3
BRANCH   1  16
ATOM     16  O   UNL d   1       1.219   0.225   0.018  0.00  0.00    -0.192 OA
BRANCH  16  17
ATOM     17  N   UNL d   1       2.135   0.527   1.053  0.00  0.00    -0.244 N 
ATOM     18  C   UNL d   1       2.898   1.540   0.761  0.00  0.00     0.127 C 
ATOM     19  HN  UNL d   1       2.191   0.009   1.930  1.00  0.00     0.196 HD
BRANCH  18  20
ATOM     20  C   UNL d   1       3.815   2.065   1.833  0.00  0.00     0.087 A 
ATOM     21  N   UNL d   1       4.662   3.070   1.465  0.00  0.00    -0.361 N 
ATOM     22  C   UNL d   1       5.444   3.546   2.465  0.00  0.00     0.105 A 
ATOM     23  HN  UNL d   1       4.704   3.434   0.513  1.00  0.00     0.165 HD
ATOM     24  C   UNL d   1       5.396   3.048   3.760  0.00  0.00     0.104 A 
ATOM     25  N   UNL d   1       4.562   2.048   4.122  0.00  0.00    -0.372 N 
ATOM     26  C   UNL d   1       3.770   1.566   3.128  0.00  0.00     0.120 A 
ATOM     27  HN  UNL d   1       4.530   1.680   5.073  1.00  0.00     0.164 HD
ENDBRANCH  18  20
BRANCH  18  28
ATOM     28  N   UNL d   1       2.943   2.158  -0.473  0.00  0.00    -0.285 NA
ATOM     29  H   UNL d   1       2.708   1.550  -1.248  0.00  0.00     0.125 HD
ATOM     30  H   UNL d   1       3.800   2.691  -0.622  0.00  0.00     0.125 HD
ENDBRANCH  18  28
ENDBRANCH  16  17
ENDBRANCH   1  16
TORSDOF 7
