REMARK  5 active torsions:
REMARK  status: ('A' for Active; 'I' for Inactive)
REMARK    1  A    between atoms: C_3  and  C_1 
REMARK    2  A    between atoms: C_4  and  CA_2 
REMARK       I    between atoms: N_5  and  C_3 
REMARK    3  A    between atoms: OXT_15  and  C_4 
REMARK    4  A    between atoms: C_14  and  N_5 
REMARK    5  A    between atoms: C_21  and  C_16 
ROOT
ATOM      1  N   UNL d   1       5.055  -5.833  -2.560  0.00  0.00    -0.197 NA
ATOM      2  C   UNL d   1       4.813  -5.545  -1.463  0.00  0.00     0.063 C 
ATOM      3  C   UNL d   1       4.519  -5.203  -0.059  0.00  0.00     0.162 C 
ENDROOT
BRANCH   3   4
ATOM      4  C   UNL d   1       3.074  -4.817   0.156  0.00  0.00    -0.045 A 
ATOM      5  C   UNL d   1       2.043  -5.749  -0.026  0.00  0.00     0.010 A 
ATOM      6  C   UNL d   1       0.704  -5.353   0.057  0.00  0.00     0.030 A 
ATOM      7  C   UNL d   1       0.370  -4.019   0.315  0.00  0.00     0.035 A 
ATOM      8  C   UNL d   1       1.394  -3.111   0.582  0.00  0.00     0.030 A 
ATOM      9  C   UNL d   1       2.735  -3.504   0.504  0.00  0.00     0.010 A 
BRANCH   7  10
ATOM     10  N   UNL d   1      -0.987  -3.656   0.213  0.00  0.00    -0.322 N 
ATOM     11  C   UNL d   1      -1.509  -2.374   0.236  0.00  0.00     0.275 C 
ATOM     12  O   UNL d   1      -0.945  -1.347   0.592  0.00  0.00    -0.266 OA
ATOM     13  H   UNL d   1      -1.650  -4.396   0.001  0.00  0.00     0.169 HD
BRANCH  11  14
ATOM     14  C   UNL d   1      -2.940  -2.304  -0.152  0.00  0.00     0.134 A 
ATOM     15  CA  UNL d   1      -3.486  -1.214  -0.810  0.00  0.00     0.139 A 
ATOM     16  N   UNL d   1      -4.847  -1.052  -0.959  0.00  0.00    -0.357 N 
ATOM     17  C   UNL d   1      -5.605  -2.061  -0.467  0.00  0.00     0.105 A 
ATOM     18  HN  UNL d   1      -5.254  -0.231  -1.406  1.00  0.00     0.165 HD
ATOM     19  C   UNL d   1      -5.053  -3.186   0.126  0.00  0.00     0.105 A 
ATOM     20  N   UNL d   1      -3.719  -3.341   0.297  0.00  0.00    -0.358 N 
ATOM     21  HN  UNL d   1      -3.319  -4.174   0.731  1.00  0.00     0.165 HD
BRANCH  15  22
ATOM     22  C   UNL d   1      -2.676  -0.209  -1.552  0.00  0.00     0.196 C 
ATOM     23  O   UNL d   1      -1.530  -0.349  -1.930  0.00  0.00    -0.645 OA
BRANCH  22  24
ATOM     24  OXT UNL d   1      -3.448   0.861  -1.879  0.00  0.00    -0.772 OA
ATOM     25  HXT UNL d   1      -4.380   0.697  -1.603  0.00  0.00     0.167 HD
ENDBRANCH  22  24
ENDBRANCH  15  22
ENDBRANCH  11  14
ENDBRANCH   7  10
ENDBRANCH   3   4
TORSDOF 5
