REMARK  3 active torsions:
REMARK  status: ('A' for Active; 'I' for Inactive)
REMARK    1  A    between atoms: C_2  and  C_1 
REMARK    2  A    between atoms: C_13  and  C_12 
REMARK    3  A    between atoms: O_14  and  C_13 
ROOT
ATOM      1  C   UNL d   1       2.079  -2.380  -0.127  0.00  0.00     0.128 A 
ATOM      2  C   UNL d   1       1.940  -3.469  -0.956  0.00  0.00     0.071 A 
ATOM      3  N   UNL d   1       3.874  -3.692   0.218  0.00  0.00    -0.263 N 
ATOM      4  HN  UNL d   1       4.749  -4.059   0.591  1.00  0.00     0.194 HD
ATOM      5  O   UNL d   1       3.238  -2.514   0.578  0.00  0.00    -0.235 OA
ATOM      6  C   UNL d   1       3.097  -4.246  -0.723  0.00  0.00     0.058 A 
ENDROOT
BRANCH   1   7
ATOM      7  C   UNL d   1       1.131  -1.240  -0.014  0.00  0.00     0.075 A 
ATOM      8  N   UNL d   1      -0.058  -1.207  -0.722  0.00  0.00    -0.352 N 
ATOM      9  C   UNL d   1      -0.715  -0.103  -0.432  0.00  0.00     0.047 A 
ATOM     10  HN  UNL d   1      -0.376  -1.927  -1.370  1.00  0.00     0.166 HD
ATOM     11  C   UNL d   1      -2.050   0.252  -0.986  0.00  0.00     0.076 C 
ATOM     12  S   UNL d   1       0.073   0.963   0.664  0.00  0.00    -0.087 SA
ATOM     13  C   UNL d   1       1.372  -0.149   0.793  0.00  0.00     0.084 A 
ENDBRANCH   1   7
BRANCH   6  14
ATOM     14  C   UNL d   1       3.492  -5.526  -1.369  0.00  0.00     0.223 C 
BRANCH  14  15
ATOM     15  O   UNL d   1       3.000  -6.660  -0.658  0.00  0.00    -0.395 OA
ATOM     16  H   UNL d   1       3.334  -6.567   0.252  0.00  0.00     0.209 HD
ENDBRANCH  14  15
ENDBRANCH   6  14
TORSDOF 3
