REMARK  2 active torsions:
REMARK  status: ('A' for Active; 'I' for Inactive)
REMARK    1  A    between atoms: C_7  and  N_2 
REMARK    2  A    between atoms: C_8  and  N_3 
ROOT
ATOM      1  C   UNL d   1       1.132   0.180  -0.005  0.00  0.00     0.337 A 
ATOM      2  N   UNL d   1      -0.035   0.931   0.053  0.00  0.00    -0.232 N 
ATOM      3  N   UNL d   1       0.781  -1.183  -0.005  0.00  0.00    -0.290 N 
ATOM      4  C   UNL d   1      -1.123   0.093   0.104  0.00  0.00     0.251 A 
ATOM      5  C   UNL d   1      -0.646  -1.336   0.013  0.00  0.00     0.237 A 
ATOM      6  O   UNL d   1       2.274   0.617  -0.021  0.00  0.00    -0.246 OA
ATOM      7  O   UNL d   1      -2.316   0.371   0.162  0.00  0.00    -0.271 OA
ENDROOT
BRANCH   2   8
ATOM      8  C   UNL d   1      -0.092   2.357   0.069  0.00  0.00     0.047 A 
ATOM      9  C   UNL d   1       0.978   3.138  -0.401  0.00  0.00     0.030 A 
ATOM     10  C   UNL d   1       0.924   4.536  -0.396  0.00  0.00     0.002 A 
ATOM     11  C   UNL d   1      -0.202   5.188   0.089  0.00  0.00     0.000 A 
ATOM     12  C   UNL d   1      -1.274   4.441   0.564  0.00  0.00     0.002 A 
ATOM     13  C   UNL d   1      -1.221   3.041   0.548  0.00  0.00     0.030 A 
ENDBRANCH   2   8
BRANCH   3  14
ATOM     14  C   UNL d   1       1.663  -2.299   0.040  0.00  0.00     0.039 A 
ATOM     15  C   UNL d   1       3.040  -2.153   0.252  0.00  0.00     0.030 A 
ATOM     16  C   UNL d   1       3.886  -3.265   0.333  0.00  0.00     0.002 A 
ATOM     17  C   UNL d   1       3.372  -4.548   0.193  0.00  0.00     0.000 A 
ATOM     18  C   UNL d   1       2.011  -4.718  -0.032  0.00  0.00     0.002 A 
ATOM     19  C   UNL d   1       1.165  -3.605  -0.104  0.00  0.00     0.030 A 
ENDBRANCH   3  14
TORSDOF 2
