REMARK  2 active torsions:
REMARK  status: ('A' for Active; 'I' for Inactive)
REMARK    1  A    between atoms: C_8  and  N_6 
REMARK    2  A    between atoms: O_14  and  C_11 
ROOT
ATOM      1  C   UNL d   1      -0.542  -0.987  -0.325  0.00  0.00     0.146 C 
ATOM      2  S   UNL d   1       1.217  -1.084  -0.514  0.00  0.00    -0.057 SA
ATOM      3  N   UNL d   1      -0.906   0.305  -0.044  0.00  0.00    -0.357 N 
ATOM      4  C   UNL d   1       1.410   0.624  -0.214  0.00  0.00     0.004 C 
ATOM      5  C   UNL d   1       0.076   1.347  -0.339  0.00  0.00     0.058 C 
ATOM      6  N   UNL d   1      -1.413  -1.938  -0.457  0.00  0.00    -0.337 N 
ATOM      7  HN  UNL d   1      -2.398  -1.734  -0.287  1.00  0.00     0.168 HD
ATOM      8  C   UNL d   1       2.597   1.118   0.165  0.00  0.00     0.029 C 
ATOM      9  C   UNL d   1      -0.109   2.504   0.643  0.00  0.00     0.044 C 
ATOM     10  C   UNL d   1      -0.124   1.833  -1.782  0.00  0.00     0.044 C 
ATOM     11  H   UNL d   1      -1.886   0.507  -0.196  0.00  0.00     0.162 HD
ENDROOT
BRANCH   6  12
ATOM     12  C   UNL d   1      -1.040  -3.241  -0.830  0.00  0.00     0.036 C 
ATOM     13  C   UNL d   1      -0.048  -3.967  -0.164  0.00  0.00     0.066 C 
ATOM     14  C   UNL d   1       0.410  -5.183  -0.669  0.00  0.00     0.070 C 
ATOM     15  C   UNL d   1      -0.247  -5.761  -1.755  0.00  0.00     0.037 C 
ATOM     16  C   UNL d   1      -1.324  -5.109  -2.352  0.00  0.00     0.005 C 
ATOM     17  C   UNL d   1      -1.707  -3.846  -1.899  0.00  0.00     0.029 C 
BRANCH  14  18
ATOM     18  O   UNL d   1       1.490  -5.873  -0.185  0.00  0.00    -0.356 OA
ATOM     19  C   UNL d   1       2.419  -5.096   0.572  0.00  0.00     0.210 C 
ENDBRANCH  14  18
ENDBRANCH   6  12
TORSDOF 2
