REMARK  5 active torsions:
REMARK  status: ('A' for Active; 'I' for Inactive)
REMARK    1  A    between atoms: N_10  and  C_1 
REMARK    2  A    between atoms: C_6  and  C_3 
REMARK    3  A    between atoms: C_12  and  C_11 
REMARK    4  A    between atoms: O_20  and  C_12 
REMARK    5  A    between atoms: C_25  and  O_20 
ROOT
ATOM      1  C   UNL d   1      -1.082  -1.502  -0.031  0.00  0.00     0.045 A 
ATOM      2  C   UNL d   1       0.116  -0.745  -0.102  0.00  0.00     0.018 A 
ATOM      3  C   UNL d   1      -2.288   0.588  -0.029  0.00  0.00     0.119 A 
ATOM      4  N   UNL d   1      -1.134   1.311  -0.038  0.00  0.00    -0.352 N 
ATOM      5  HN  UNL d   1      -1.160   2.331  -0.019  1.00  0.00     0.166 HD
ATOM      6  C   UNL d   1      -2.293  -0.809  -0.022  0.00  0.00     0.064 A 
ATOM      7  C   UNL d   1       0.038   0.661  -0.072  0.00  0.00     0.045 A 
ATOM      8  C   UNL d   1       1.390  -1.345  -0.207  0.00  0.00     0.033 A 
ATOM      9  C   UNL d   1       2.567  -0.601  -0.158  0.00  0.00     0.040 A 
ATOM     10  C   UNL d   1       1.217   1.398  -0.073  0.00  0.00     0.031 A 
ATOM     11  C   UNL d   1       2.478   0.787  -0.095  0.00  0.00     0.020 A 
ENDROOT
BRANCH   1  12
ATOM     12  N   UNL d   1      -1.025  -2.894   0.028  0.00  0.00    -0.376 N 
ATOM     13  C   UNL d   1      -2.076  -3.744  -0.552  0.00  0.00     0.149 C 
ATOM     14  C   UNL d   1      -1.458  -5.127  -0.846  0.00  0.00     0.187 C 
ATOM     15  O   UNL d   1      -0.883  -5.721   0.334  0.00  0.00    -0.388 OA
ATOM     16  C   UNL d   1       0.132  -4.864   0.891  0.00  0.00     0.187 C 
ATOM     17  C   UNL d   1      -0.458  -3.492   1.260  0.00  0.00     0.149 C 
ENDBRANCH   1  12
BRANCH   3  18
ATOM     18  C   UNL d   1      -3.621   1.323  -0.021  0.00  0.00     0.432 C 
ATOM     19  F   UNL d   1      -3.514   2.682   0.019  0.00  0.00    -0.165 F 
ATOM     20  F   UNL d   1      -4.378   1.043  -1.122  0.00  0.00    -0.165 F 
ATOM     21  F   UNL d   1      -4.399   0.983   1.050  0.00  0.00    -0.165 F 
ENDBRANCH   3  18
BRANCH   9  22
ATOM     22  C   UNL d   1       3.841  -1.359  -0.056  0.00  0.00     0.293 C 
ATOM     23  O   UNL d   1       3.900  -2.577  -0.066  0.00  0.00    -0.259 OA
BRANCH  22  24
ATOM     24  O   UNL d   1       4.864  -0.508   0.206  0.00  0.00    -0.318 OA
BRANCH  24  25
ATOM     25  C   UNL d   1       6.020  -1.118   0.794  0.00  0.00     0.174 C 
ATOM     26  C   UNL d   1       5.856  -1.069   2.303  0.00  0.00     0.034 C 
ENDBRANCH  24  25
ENDBRANCH  22  24
ENDBRANCH   9  22
TORSDOF 5
