REMARK  2 active torsions:
REMARK  status: ('A' for Active; 'I' for Inactive)
REMARK       I    between atoms: N_2  and  C_1 
REMARK    1  A    between atoms: C_4  and  C_1 
REMARK    2  A    between atoms: C_3  and  N_2 
ROOT
ATOM      1  C   UNL d   1       0.951   0.313  -0.288  0.00  0.00     0.256 C 
ATOM      2  N   UNL d   1       0.302  -0.740  -0.904  0.00  0.00    -0.322 N 
ATOM      3  O   UNL d   1       2.155   0.546  -0.325  0.00  0.00    -0.267 OA
ATOM      4  H   UNL d   1      -0.680  -0.611  -1.106  0.00  0.00     0.169 HD
ENDROOT
BRANCH   2   5
ATOM      5  C   UNL d   1       0.983  -1.734  -1.647  0.00  0.00     0.046 A 
ATOM      6  C   UNL d   1       0.491  -2.142  -2.916  0.00  0.00     0.001 A 
ATOM      7  C   UNL d   1       1.199  -3.148  -3.622  0.00  0.00    -0.024 A 
ATOM      8  C   UNL d   1      -0.626  -1.555  -3.560  0.00  0.00     0.014 A 
ATOM      9  C   UNL d   1       0.788  -3.526  -4.908  0.00  0.00     0.012 A 
ATOM     10  C   UNL d   1       2.334  -3.743  -3.042  0.00  0.00     0.012 A 
ATOM     11  C   UNL d   1      -0.310  -2.921  -5.518  0.00  0.00     0.001 A 
ATOM     12  C   UNL d   1      -1.019  -1.937  -4.844  0.00  0.00     0.001 A 
ATOM     13  C   UNL d   1       2.795  -3.337  -1.793  0.00  0.00     0.003 A 
ATOM     14  C   UNL d   1       2.132  -2.326  -1.105  0.00  0.00     0.030 A 
ENDBRANCH   2   5
BRANCH   1  15
ATOM     15  C   UNL d   1       0.065   1.278   0.405  0.00  0.00     0.034 A 
ATOM     16  C   UNL d   1       0.334   2.648   0.295  0.00  0.00     0.042 A 
ATOM     17  C   UNL d   1      -0.455   3.572   0.986  0.00  0.00     0.056 A 
ATOM     18 CL   UNL d   1      -0.080   5.248   0.801  0.00  0.00    -0.083 Cl
ATOM     19  C   UNL d   1      -1.506   3.124   1.796  0.00  0.00     0.055 A 
ATOM     20  C   UNL d   1      -1.770   1.754   1.904  0.00  0.00     0.026 A 
ATOM     21 CL   UNL d   1      -2.504   4.205   2.701  0.00  0.00    -0.083 Cl
ATOM     22  C   UNL d   1      -0.988   0.829   1.208  0.00  0.00     0.019 A 
ENDBRANCH   1  15
TORSDOF 2
