REMARK  2 active torsions:
REMARK  status: ('A' for Active; 'I' for Inactive)
REMARK    1  A    between atoms: N_2  and  C_3 
REMARK    2  A    between atoms: C_16  and  C_4 
ROOT
ATOM      1  C   UNL d   1       0.155   1.019  -0.029  0.00  0.00     0.048 A 
ATOM      2  C   UNL d   1       1.513   1.411   0.195  0.00  0.00     0.097 A 
ATOM      3  C   UNL d   1      -1.122   1.710  -0.207  0.00  0.00    -0.003 A 
ATOM      4  C   UNL d   1      -0.053  -0.356  -0.136  0.00  0.00     0.089 A 
ATOM      5  C   UNL d   1      -2.174   0.822  -0.368  0.00  0.00     0.065 A 
ATOM      6  S   UNL d   1      -1.682  -0.802  -0.339  0.00  0.00    -0.082 SA
ATOM      7  N   UNL d   1       2.452   0.422   0.194  0.00  0.00    -0.342 N 
ATOM      8  HN  UNL d   1       3.437   0.662   0.305  1.00  0.00     0.167 HD
ATOM      9  N   UNL d   1       0.868  -1.331  -0.097  0.00  0.00    -0.346 N 
ATOM     10  HN  UNL d   1       0.648  -2.324  -0.172  1.00  0.00     0.167 HD
ATOM     11  C   UNL d   1       2.097  -0.858   0.048  0.00  0.00     0.182 A 
ENDROOT
BRANCH   2  12
ATOM     12  N   UNL d   1       1.978   2.732   0.344  0.00  0.00    -0.264 NA
ATOM     13  C   UNL d   1       1.415   3.462   1.501  0.00  0.00     0.128 C 
ATOM     14  C   UNL d   1       1.848   4.940   1.375  0.00  0.00     0.131 C 
ATOM     15  C   UNL d   1       1.227   5.808   2.456  0.00  0.00     0.040 C 
ATOM     16  O   UNL d   1       3.281   5.035   1.488  0.00  0.00    -0.379 OA
ATOM     17  C   UNL d   1       3.918   4.309   0.418  0.00  0.00     0.131 C 
ATOM     18  C   UNL d   1       3.464   2.830   0.362  0.00  0.00     0.128 C 
ATOM     19  C   UNL d   1       5.422   4.396   0.656  0.00  0.00     0.040 C 
ENDBRANCH   2  12
BRANCH   3  20
ATOM     20  C   UNL d   1      -1.417   3.140  -0.258  0.00  0.00    -0.024 A 
ATOM     21  C   UNL d   1      -0.707   3.986  -1.117  0.00  0.00     0.012 A 
ATOM     22  C   UNL d   1      -0.974   5.358  -1.133  0.00  0.00     0.001 A 
ATOM     23  C   UNL d   1      -1.955   5.892  -0.302  0.00  0.00     0.000 A 
ATOM     24  C   UNL d   1      -2.683   5.057   0.545  0.00  0.00     0.001 A 
ATOM     25  C   UNL d   1      -2.416   3.687   0.566  0.00  0.00     0.012 A 
ENDBRANCH   3  20
TORSDOF 2
