REMARK  6 active torsions:
REMARK  status: ('A' for Active; 'I' for Inactive)
REMARK    1  A    between atoms: N_3  and  S_1 
REMARK    2  A    between atoms: C_2  and  N_6 
REMARK    3  A    between atoms: N_7  and  C_2 
REMARK    4  A    between atoms: C_4  and  N_3 
REMARK    5  A    between atoms: N_6  and  C_11 
REMARK    6  A    between atoms: C_13  and  N_7 
ROOT
ATOM      1  C   UNL d   1       1.548  -2.294   1.924  0.00  0.00     0.050 A 
ATOM      2  C   UNL d   1       0.359  -2.933   2.305  0.00  0.00     0.060 A 
ATOM      3  C   UNL d   1       0.257  -4.324   2.279  0.00  0.00     0.036 A 
ATOM      4  C   UNL d   1       2.671  -3.043   1.548  0.00  0.00    -0.035 A 
ATOM      5  C   UNL d   1       2.567  -4.440   1.530  0.00  0.00     0.011 A 
ATOM      6  C   UNL d   1       1.374  -5.070   1.888  0.00  0.00     0.030 A 
ATOM      7  C   UNL d   1       3.996  -2.427   1.196  0.00  0.00     0.050 C 
ENDROOT
BRANCH   3   8
ATOM      8  N   UNL d   1      -0.865  -5.062   2.710  0.00  0.00    -0.333 N 
ATOM      9  H   UNL d   1      -0.740  -6.068   2.687  0.00  0.00     0.168 HD
BRANCH   8  10
ATOM     10  C   UNL d   1      -2.126  -4.700   3.100  0.00  0.00     0.176 C 
ATOM     11  S   UNL d   1      -3.005  -3.365   2.608  0.00  0.00    -0.041 SA
BRANCH  10  12
ATOM     12  N   UNL d   1      -2.780  -5.604   3.910  0.00  0.00    -0.333 N 
ATOM     13  H   UNL d   1      -3.780  -5.433   3.964  0.00  0.00     0.168 HD
BRANCH  12  14
ATOM     14  C   UNL d   1      -2.288  -6.667   4.700  0.00  0.00     0.035 A 
ATOM     15  C   UNL d   1      -0.946  -6.816   5.061  0.00  0.00     0.053 A 
ATOM     16  C   UNL d   1      -0.531  -7.929   5.794  0.00  0.00     0.036 A 
ATOM     17 CL   UNL d   1       1.137  -8.125   6.168  0.00  0.00    -0.084 Cl
ATOM     18  C   UNL d   1      -1.454  -8.882   6.216  0.00  0.00     0.024 A 
ATOM     19  C   UNL d   1      -2.802  -8.707   5.920  0.00  0.00     0.004 A 
ATOM     20  C   UNL d   1      -3.219  -7.601   5.171  0.00  0.00     0.029 A 
ENDBRANCH  12  14
ENDBRANCH  10  12
ENDBRANCH   8  10
ENDBRANCH   3   8
BRANCH   1  21
ATOM     21  N   UNL d   1       1.587  -0.870   1.946  0.00  0.00    -0.284 N 
ATOM     22  H   UNL d   1       1.262  -0.403   2.791  0.00  0.00     0.178 HD
BRANCH  21  23
ATOM     23  S   UNL d   1       1.289  -0.006   0.533  0.00  0.00     0.227 S 
ATOM     24  O   UNL d   1       2.028  -0.591  -0.565  0.00  0.00    -0.206 OA
ATOM     25  O   UNL d   1       1.455   1.388   0.888  0.00  0.00    -0.206 OA
ATOM     26  C   UNL d   1      -0.452  -0.270   0.249  0.00  0.00     0.186 C 
ENDBRANCH  21  23
ENDBRANCH   1  21
TORSDOF 6
