REMARK  8 active torsions:
REMARK  status: ('A' for Active; 'I' for Inactive)
REMARK    1  A    between atoms: C_6  and  N_1 
REMARK    2  A    between atoms: S_8  and  C_5 
REMARK    3  A    between atoms: C_7  and  C_12 
REMARK    4  A    between atoms: O_23  and  C_7 
REMARK    5  A    between atoms: C_20  and  S_8 
REMARK    6  A    between atoms: C_9  and  C_20 
REMARK       I    between atoms: N_13  and  C_9 
REMARK    7  A    between atoms: C_21  and  N_13 
REMARK    8  A    between atoms: C_29  and  O_23 
ROOT
ATOM      1  N   UNL d   1      -0.137   0.867   0.050  0.00  0.00    -0.251 N 
ATOM      2  C   UNL d   1      -1.311   0.199   0.318  0.00  0.00     0.232 C 
ATOM      3  C   UNL d   1       0.908  -0.018  -0.134  0.00  0.00     0.245 C 
ATOM      4  C   UNL d   1      -1.026  -1.271   0.389  0.00  0.00     0.128 C 
ATOM      5  C   UNL d   1       0.346  -1.410  -0.238  0.00  0.00     0.149 C 
ATOM      6  O   UNL d   1      -2.432   0.651   0.499  0.00  0.00    -0.273 OA
ATOM      7  O   UNL d   1       2.102   0.227  -0.196  0.00  0.00    -0.271 OA
ENDROOT
BRANCH   5   8
ATOM      8  S   UNL d   1       0.239  -1.932  -2.000  0.00  0.00    -0.145 SA
BRANCH   8   9
ATOM      9  C   UNL d   1       2.019  -1.951  -2.398  0.00  0.00     0.177 C 
BRANCH   9  10
ATOM     10  C   UNL d   1       2.373  -2.409  -3.805  0.00  0.00     0.231 C 
ATOM     11  N   UNL d   1       1.315  -2.728  -4.638  0.00  0.00    -0.327 N 
ATOM     12  H   UNL d   1       0.389  -2.520  -4.277  0.00  0.00     0.169 HD
ATOM     13  O   UNL d   1       3.559  -2.426  -4.129  0.00  0.00    -0.272 OA
BRANCH  11  14
ATOM     14  C   UNL d   1       1.416  -3.118  -5.992  0.00  0.00     0.034 A 
ATOM     15  C   UNL d   1       2.614  -3.552  -6.572  0.00  0.00     0.032 A 
ATOM     16  C   UNL d   1       2.686  -3.832  -7.938  0.00  0.00     0.044 A 
ATOM     17  C   UNL d   1       1.553  -3.690  -8.724  0.00  0.00     0.116 A 
ATOM     18  C   UNL d   1       0.340  -3.312  -8.160  0.00  0.00     0.044 A 
ATOM     19  F   UNL d   1       1.631  -3.920 -10.041  0.00  0.00    -0.206 F 
ATOM     20  C   UNL d   1       0.266  -3.039  -6.790  0.00  0.00     0.032 A 
ENDBRANCH  11  14
ENDBRANCH   9  10
ENDBRANCH   8   9
ENDBRANCH   5   8
BRANCH   1  21
ATOM     21  C   UNL d   1      -0.004   2.285  -0.005  0.00  0.00     0.045 A 
ATOM     22  C   UNL d   1      -0.913   3.133   0.641  0.00  0.00     0.031 A 
ATOM     23  C   UNL d   1      -0.791   4.526   0.562  0.00  0.00     0.020 A 
ATOM     24  C   UNL d   1       0.238   5.103  -0.185  0.00  0.00     0.039 A 
ATOM     25  C   UNL d   1       1.154   4.271  -0.836  0.00  0.00     0.020 A 
ATOM     26  C   UNL d   1       1.037   2.880  -0.738  0.00  0.00     0.031 A 
BRANCH  24  27
ATOM     27  C   UNL d   1       0.262   6.582  -0.330  0.00  0.00     0.293 C 
ATOM     28  O   UNL d   1      -0.569   7.324   0.166  0.00  0.00    -0.259 OA
BRANCH  27  29
ATOM     29  O   UNL d   1       1.256   6.940  -1.179  0.00  0.00    -0.318 OA
BRANCH  29  30
ATOM     30  C   UNL d   1       1.118   8.233  -1.781  0.00  0.00     0.174 C 
ATOM     31  C   UNL d   1       0.285   8.073  -3.040  0.00  0.00     0.034 C 
ENDBRANCH  29  30
ENDBRANCH  27  29
ENDBRANCH  24  27
ENDBRANCH   1  21
TORSDOF 8
