REMARK  6 active torsions:
REMARK  status: ('A' for Active; 'I' for Inactive)
REMARK    1  A    between atoms: C_7  and  S_1 
REMARK    2  A    between atoms: C_9  and  S_1 
REMARK    3  A    between atoms: C_4  and  S_17 
REMARK    4  A    between atoms: C_5  and  C_6 
REMARK    5  A    between atoms: C_21  and  C_9 
REMARK    6  A    between atoms: S_17  and  C_21 
ROOT
ATOM      1  N   UNL d   1       1.671  -2.411   4.775  0.00  0.00    -0.336 N 
ATOM      2  HN  UNL d   1       1.739  -2.495   3.761  1.00  0.00     0.168 HD
ATOM      3  C   UNL d   1       1.010  -1.398   5.354  0.00  0.00     0.144 A 
ATOM      4  C   UNL d   1       2.242  -3.316   5.603  0.00  0.00     0.052 A 
ATOM      5  N   UNL d   1       0.889  -1.222   6.680  0.00  0.00    -0.347 N 
ATOM      6  HN  UNL d   1       0.370  -0.435   7.070  1.00  0.00     0.167 HD
ATOM      7  C   UNL d   1       2.186  -3.206   6.978  0.00  0.00     0.048 A 
ATOM      8  C   UNL d   1       1.487  -2.132   7.465  0.00  0.00     0.092 A 
ENDROOT
BRANCH   3   9
ATOM      9  S   UNL d   1       0.221  -0.169   4.339  0.00  0.00    -0.093 SA
BRANCH   9  10
ATOM     10  C   UNL d   1       0.767  -0.680   2.676  0.00  0.00     0.097 C 
BRANCH  10  11
ATOM     11  C   UNL d   1       0.257   0.328   1.656  0.00  0.00     0.156 C 
BRANCH  11  12
ATOM     12  S   UNL d   1       0.763  -0.155   0.020  0.00  0.00     0.176 S 
ATOM     13  O   UNL d   1       2.207  -0.029  -0.064  0.00  0.00    -0.223 OA
ATOM     14  O   UNL d   1       0.111  -1.409  -0.307  0.00  0.00    -0.223 OA
BRANCH  12  15
ATOM     15  C   UNL d   1       0.061   1.098  -1.033  0.00  0.00     0.059 A 
ATOM     16  C   UNL d   1       0.796   2.249  -1.325  0.00  0.00     0.024 A 
ATOM     17  C   UNL d   1       0.271   3.198  -2.207  0.00  0.00     0.008 A 
ATOM     18  C   UNL d   1      -0.981   2.997  -2.806  0.00  0.00    -0.062 A 
ATOM     19  C   UNL d   1      -1.703   1.833  -2.510  0.00  0.00     0.008 A 
ATOM     20  C   UNL d   1      -1.515   4.007  -3.781  0.00  0.00     0.048 C 
ATOM     21  C   UNL d   1      -1.185   0.881  -1.629  0.00  0.00     0.024 A 
ENDBRANCH  12  15
ENDBRANCH  11  12
ENDBRANCH  10  11
ENDBRANCH   9  10
ENDBRANCH   3   9
BRANCH   4  22
ATOM     22  C   UNL d   1       2.931  -4.417   4.910  0.00  0.00     0.031 A 
ATOM     23  S   UNL d   1       3.122  -5.959   5.652  0.00  0.00    -0.100 SA
ATOM     24  C   UNL d   1       3.921  -6.606   4.289  0.00  0.00     0.050 A 
ATOM     25  C   UNL d   1       4.045  -5.681   3.279  0.00  0.00     0.008 A 
ATOM     26  C   UNL d   1       3.471  -4.425   3.634  0.00  0.00     0.021 A 
ENDBRANCH   4  22
TORSDOF 6
