REMARK  5 active torsions:
REMARK  status: ('A' for Active; 'I' for Inactive)
REMARK    1  A    between atoms: C_7  and  C_1 
REMARK    2  A    between atoms: N_2  and  C_10 
REMARK    3  A    between atoms: C_12  and  N_4 
REMARK    4  A    between atoms: N_6  and  C_7 
REMARK    5  A    between atoms: O_15  and  C_8 
ROOT
ATOM      1  C   UNL d   1       0.138   1.023   0.017  0.00  0.00     0.005 A 
ATOM      2  C   UNL d   1       0.684  -0.265   0.047  0.00  0.00     0.073 A 
ATOM      3  C   UNL d   1      -1.266   1.145  -0.009  0.00  0.00     0.042 A 
ATOM      4  C   UNL d   1      -2.104   0.021  -0.005  0.00  0.00     0.048 A 
ATOM      5  C   UNL d   1      -0.130  -1.393   0.007  0.00  0.00     0.039 A 
ATOM      6  C   UNL d   1      -1.518  -1.248  -0.006  0.00  0.00     0.034 A 
ENDROOT
BRANCH   4   7
ATOM      7  N   UNL d   1      -3.506   0.112   0.083  0.00  0.00    -0.300 N 
ATOM      8  N   UNL d   1      -3.981   0.964  -0.698  0.00  0.00    -0.300 N 
ATOM      9  HN  UNL d   1      -3.426   1.549  -1.321  1.00  0.00     0.187 HD
ATOM     10  HN  UNL d   1      -4.071  -0.455   0.715  1.00  0.00     0.187 HD
BRANCH   8  11
ATOM     11  C   UNL d   1      -5.387   1.007  -0.601  0.00  0.00     0.048 A 
ATOM     12  C   UNL d   1      -6.026   2.251  -0.572  0.00  0.00     0.032 A 
ATOM     13  C   UNL d   1      -7.422   2.338  -0.501  0.00  0.00     0.026 A 
ATOM     14  C   UNL d   1      -8.186   1.173  -0.467  0.00  0.00     0.034 A 
ATOM     15  C   UNL d   1      -7.570  -0.075  -0.506  0.00  0.00     0.026 A 
ATOM     16 CL   UNL d   1      -9.901   1.276  -0.379  0.00  0.00    -0.084 Cl
ATOM     17  C   UNL d   1      -6.177  -0.155  -0.580  0.00  0.00     0.032 A 
ENDBRANCH   8  11
ENDBRANCH   4   7
BRANCH   1  18
ATOM     18  C   UNL d   1       0.990   2.273   0.015  0.00  0.00     0.313 C 
BRANCH  18  19
ATOM     19  N   UNL d   1       1.364   2.751   1.367  0.00  0.00     0.092 N 
ATOM     20  C   UNL d   1       0.172   3.251   2.084  0.00  0.00     0.272 C 
ATOM     21  C   UNL d   1       0.490   3.929   3.417  0.00  0.00     0.030 C 
ATOM     22  C   UNL d   1       1.506   5.043   3.232  0.00  0.00     0.003 C 
ATOM     23  C   UNL d   1       2.746   4.480   2.555  0.00  0.00     0.030 C 
ATOM     24  C   UNL d   1       2.385   3.808   1.230  0.00  0.00     0.272 C 
ENDBRANCH  18  19
ENDBRANCH   1  18
BRANCH   2  25
ATOM     25  O   UNL d   1       2.028  -0.483   0.135  0.00  0.00    -0.360 OA
ATOM     26  H   UNL d   1       2.416   0.280   0.600  0.00  0.00     0.217 HD
ENDBRANCH   2  25
TORSDOF 5
