REMARK  3 active torsions:
REMARK  status: ('A' for Active; 'I' for Inactive)
REMARK       I    between atoms: N_2  and  C_1 
REMARK       I    between atoms: N_5  and  C_1 
REMARK    1  A    between atoms: C_3  and  C_6 
REMARK    2  A    between atoms: C_4  and  C_7 
REMARK    3  A    between atoms: C_19  and  N_5 
ROOT
ATOM      1  C   UNL d   1       0.870   0.024   0.150  0.00  0.00     0.322 C 
ATOM      2  N   UNL d   1       0.104  -0.555   1.169  0.00  0.00    -0.334 N 
ATOM      3  N   UNL d   1       0.602  -0.413  -1.126  0.00  0.00    -0.309 N 
ATOM      4  C   UNL d   1      -1.937  -0.693   3.254  0.00  0.00     0.096 C 
ATOM      5  O   UNL d   1       1.730   0.855   0.428  0.00  0.00    -0.247 OA
ATOM      6  C   UNL d   1      -0.985  -1.526   1.038  0.00  0.00     0.128 C 
ATOM      7  C   UNL d   1       0.477  -0.248   2.550  0.00  0.00     0.128 C 
ATOM      8  C   UNL d   1      -2.216  -1.030   1.780  0.00  0.00     0.033 C 
ATOM      9  C   UNL d   1      -0.727   0.252   3.358  0.00  0.00     0.033 C 
ATOM     10  H   UNL d   1      -0.080  -1.138  -1.241  0.00  0.00     0.170 HD
ENDROOT
BRANCH   3  11
ATOM     11  C   UNL d   1       1.306  -0.075  -2.308  0.00  0.00     0.036 A 
ATOM     12  C   UNL d   1       2.346   0.854  -2.364  0.00  0.00     0.030 A 
ATOM     13  C   UNL d   1       3.067   1.051  -3.548  0.00  0.00     0.018 A 
ATOM     14  C   UNL d   1       2.757   0.327  -4.705  0.00  0.00     0.048 A 
ATOM     15  C   UNL d   1       1.676  -0.563  -4.667  0.00  0.00     0.018 A 
ATOM     16  C   UNL d   1       0.957  -0.757  -3.481  0.00  0.00     0.030 A 
BRANCH  14  17
ATOM     17  C   UNL d   1       3.601   0.495  -5.943  0.00  0.00     0.417 C 
ATOM     18  F   UNL d   1       3.172  -0.251  -7.001  0.00  0.00    -0.166 F 
ATOM     19  F   UNL d   1       3.638   1.783  -6.386  0.00  0.00    -0.166 F 
ATOM     20  F   UNL d   1       4.896   0.134  -5.738  0.00  0.00    -0.166 F 
ENDBRANCH  14  17
ENDBRANCH   3  11
BRANCH   4  21
ATOM     21  C   UNL d   1      -1.770  -1.926   4.133  0.00  0.00     0.391 C 
ATOM     22  F   UNL d   1      -2.515  -2.965   3.681  0.00  0.00    -0.171 F 
ATOM     23  F   UNL d   1      -0.496  -2.356   4.208  0.00  0.00    -0.171 F 
ATOM     24  F   UNL d   1      -2.179  -1.661   5.394  0.00  0.00    -0.171 F 
ENDBRANCH   4  21
TORSDOF 3
