REMARK  7 active torsions:
REMARK  status: ('A' for Active; 'I' for Inactive)
REMARK       I    between atoms: N_5  and  C_1 
REMARK       I    between atoms: N_6  and  C_1 
REMARK    1  A    between atoms: C_2  and  O_10 
REMARK    2  A    between atoms: O_7  and  C_3 
REMARK    3  A    between atoms: C_8  and  N_5 
REMARK    4  A    between atoms: C_16  and  N_6 
REMARK    5  A    between atoms: C_19  and  O_7 
REMARK    6  A    between atoms: O_22  and  C_9 
REMARK    7  A    between atoms: O_10  and  C_17 
ROOT
ATOM      1  C   UNL d   1       0.978  -0.442  -0.198  0.00  0.00     0.325 C 
ATOM      2  N   UNL d   1       0.293  -0.745   0.969  0.00  0.00    -0.309 N 
ATOM      3  N   UNL d   1       0.110  -0.378  -1.270  0.00  0.00    -0.309 N 
ATOM      4  O   UNL d   1       2.189  -0.270  -0.277  0.00  0.00    -0.247 OA
ATOM      5  H   UNL d   1      -0.514  -1.338   0.830  0.00  0.00     0.170 HD
ATOM      6  H   UNL d   1      -0.817  -0.042  -1.068  0.00  0.00     0.170 HD
ENDROOT
BRANCH   2   7
ATOM      7  C   UNL d   1       0.964  -0.877   2.204  0.00  0.00     0.039 A 
ATOM      8  C   UNL d   1       2.022  -0.031   2.553  0.00  0.00     0.069 A 
ATOM      9  C   UNL d   1       2.796  -0.264   3.696  0.00  0.00     0.104 A 
ATOM     10  C   UNL d   1       2.450  -1.335   4.535  0.00  0.00     0.101 A 
ATOM     11  C   UNL d   1       1.349  -2.142   4.211  0.00  0.00     0.042 A 
ATOM     12  C   UNL d   1       0.592  -1.904   3.063  0.00  0.00     0.032 A 
BRANCH   9  13
ATOM     13  O   UNL d   1       3.881   0.511   4.012  0.00  0.00    -0.343 OA
BRANCH  13  14
ATOM     14  C   UNL d   1       4.594   1.142   2.945  0.00  0.00     0.129 C 
ATOM     15  C   UNL d   1       5.279   0.146   2.009  0.00  0.00     0.032 C 
ATOM     16  C   UNL d   1       6.517   0.857   1.476  0.00  0.00     0.002 C 
ATOM     17  C   UNL d   1       6.756   2.056   2.388  0.00  0.00     0.002 C 
ATOM     18  C   UNL d   1       5.775   1.907   3.539  0.00  0.00     0.032 C 
ENDBRANCH  13  14
ENDBRANCH   9  13
BRANCH  10  19
ATOM     19  O   UNL d   1       3.117  -1.778   5.648  0.00  0.00    -0.353 OA
ATOM     20  C   UNL d   1       3.816  -0.808   6.413  0.00  0.00     0.210 C 
ENDBRANCH  10  19
ENDBRANCH   2   7
BRANCH   3  21
ATOM     21  C   UNL d   1       0.514  -0.367  -2.628  0.00  0.00     0.036 A 
ATOM     22  C   UNL d   1       1.740  -0.886  -3.060  0.00  0.00     0.032 A 
ATOM     23  C   UNL d   1       2.087  -0.887  -4.419  0.00  0.00     0.039 A 
ATOM     24  C   UNL d   1       1.192  -0.393  -5.364  0.00  0.00     0.078 A 
ATOM     25  C   UNL d   1      -0.025   0.146  -4.930  0.00  0.00     0.039 A 
ATOM     26  C   UNL d   1      -0.373   0.143  -3.577  0.00  0.00     0.032 A 
BRANCH  24  27
ATOM     27  O   UNL d   1       1.367  -0.359  -6.713  0.00  0.00    -0.255 OA
BRANCH  27  28
ATOM     28  C   UNL d   1       2.343  -1.202  -7.304  0.00  0.00     0.530 C 
ATOM     29  F   UNL d   1       2.490  -2.377  -6.654  0.00  0.00    -0.144 F 
ATOM     30  F   UNL d   1       1.950  -1.482  -8.568  0.00  0.00    -0.144 F 
ATOM     31  F   UNL d   1       3.534  -0.570  -7.364  0.00  0.00    -0.144 F 
ENDBRANCH  27  28
ENDBRANCH  24  27
ENDBRANCH   3  21
TORSDOF 7
