REMARK  1 active torsions:
REMARK  status: ('A' for Active; 'I' for Inactive)
REMARK    1  A    between atoms: C_8  and  N_4 
ROOT
ATOM      1  C   UNL d   1      -2.629  -1.556  -1.406  0.00  0.00     0.146 C 
ATOM      2  S   UNL d   1      -3.698  -2.479  -2.480  0.00  0.00    -0.057 SA
ATOM      3  N   UNL d   1      -3.189  -0.333  -1.139  0.00  0.00    -0.357 N 
ATOM      4  N   UNL d   1      -1.491  -1.923  -0.901  0.00  0.00    -0.336 N 
ATOM      5  HN  UNL d   1      -0.987  -1.269  -0.303  1.00  0.00     0.168 HD
ATOM      6  C   UNL d   1      -4.807  -1.137  -2.623  0.00  0.00     0.004 C 
ATOM      7  C   UNL d   1      -4.596  -0.146  -1.487  0.00  0.00     0.058 C 
ATOM      8  C   UNL d   1      -5.602  -1.025  -3.697  0.00  0.00     0.029 C 
ATOM      9  C   UNL d   1      -4.831   1.317  -1.873  0.00  0.00     0.044 C 
ATOM     10  C   UNL d   1      -5.469  -0.524  -0.282  0.00  0.00     0.044 C 
ATOM     11  H   UNL d   1      -2.807   0.152  -0.339  0.00  0.00     0.162 HD
ENDROOT
BRANCH   4  12
ATOM     12  C   UNL d   1      -0.923  -3.191  -1.147  0.00  0.00     0.040 C 
ATOM     13  C   UNL d   1      -0.775  -3.688  -2.450  0.00  0.00     0.037 C 
ATOM     14  C   UNL d   1      -0.341  -4.993  -2.711  0.00  0.00    -0.054 C 
ATOM     15  C   UNL d   1      -0.407  -5.514  -4.120  0.00  0.00     0.049 C 
ATOM     16  C   UNL d   1       0.110  -5.786  -1.642  0.00  0.00    -0.056 C 
ATOM     17  C   UNL d   1       0.060  -5.260  -0.344  0.00  0.00     0.016 C 
ATOM     18  C   UNL d   1       0.627  -7.177  -1.867  0.00  0.00     0.049 C 
ATOM     19  C   UNL d   1      -0.466  -3.981  -0.082  0.00  0.00    -0.035 C 
ATOM     20  C   UNL d   1      -0.460  -3.492   1.340  0.00  0.00     0.050 C 
ENDBRANCH   4  12
TORSDOF 1
