REMARK  1 active torsions:
REMARK  status: ('A' for Active; 'I' for Inactive)
REMARK    1  A    between atoms: S_10  and  C_2 
ROOT
ATOM      1  C   UNL d   1      -0.705   1.266   0.003  0.00  0.00     0.084 A 
ATOM      2  C   UNL d   1      -1.353   0.030   0.002  0.00  0.00     0.088 A 
ATOM      3  N   UNL d   1      -0.673  -1.139   0.002  0.00  0.00    -0.353 N 
ATOM      4  HN  UNL d   1      -1.176  -2.027   0.002  1.00  0.00     0.166 HD
ATOM      5  C   UNL d   1       0.709   1.294   0.002  0.00  0.00    -0.031 A 
ATOM      6  C   UNL d   1       1.421   0.069  -0.000  0.00  0.00    -0.032 A 
ATOM      7  C   UNL d   1       0.682  -1.122   0.001  0.00  0.00     0.012 A 
ATOM      8  C   UNL d   1      -1.470   2.477   0.005  0.00  0.00     0.103 C 
ATOM      9  N   UNL d   1      -2.104   3.449   0.006  0.00  0.00    -0.191 NA
ATOM     10  C   UNL d   1       1.464   2.604   0.004  0.00  0.00     0.050 C 
ATOM     11  C   UNL d   1       2.928   0.018  -0.006  0.00  0.00     0.050 C 
ATOM     12  C   UNL d   1       1.312  -2.487   0.003  0.00  0.00     0.068 C 
ENDROOT
BRANCH   2  13
ATOM     13  S   UNL d   1      -3.126  -0.196   0.001  0.00  0.00    -0.124 SA
ATOM     14  H   UNL d   1      -3.502   1.091  -0.012  0.00  0.00     0.108 HD
ENDBRANCH   2  13
TORSDOF 1
