REMARK  7 active torsions:
REMARK  status: ('A' for Active; 'I' for Inactive)
REMARK    1  A    between atoms: C_14  and  C_2 
REMARK    2  A    between atoms: C_15  and  C_3 
REMARK    3  A    between atoms: S_17  and  C_6 
REMARK    4  A    between atoms: C_13  and  C_14 
REMARK    5  A    between atoms: C_22  and  S_17 
REMARK    6  A    between atoms: C_20  and  C_22 
REMARK    7  A    between atoms: C_21  and  C_20 
ROOT
ATOM      1  N   UNL d   1       0.865  -0.027   0.162  0.00  0.00    -0.319 N 
ATOM      2  C   UNL d   1       0.052   1.054  -0.116  0.00  0.00     0.107 A 
ATOM      3  C   UNL d   1       0.047  -1.124   0.112  0.00  0.00     0.162 A 
ATOM      4  N   UNL d   1      -1.177   0.612  -0.316  0.00  0.00    -0.286 N 
ATOM      5  HN  UNL d   1      -1.989   1.189  -0.539  1.00  0.00     0.188 HD
ATOM      6  N   UNL d   1      -1.178  -0.752  -0.174  0.00  0.00    -0.278 N 
ATOM      7  HN  UNL d   1      -1.986  -1.367  -0.273  1.00  0.00     0.189 HD
ATOM      8  C   UNL d   1       2.279  -0.021   0.446  0.00  0.00     0.159 C 
ENDROOT
BRANCH   2   9
ATOM      9  C   UNL d   1       0.441   2.498  -0.092  0.00  0.00     0.164 C 
BRANCH   9  10
ATOM     10  C   UNL d   1       1.491   2.891  -1.065  0.00  0.00     0.155 A 
ATOM     11  N   UNL d   1       2.534   2.221  -1.494  0.00  0.00    -0.321 N 
ATOM     12  C   UNL d   1       3.257   3.173  -2.187  0.00  0.00     0.156 A 
ATOM     13  HN  UNL d   1       2.757   1.237  -1.350  1.00  0.00     0.169 HD
ATOM     14  N   UNL d   1       2.664   4.380  -2.212  0.00  0.00    -0.241 N 
ATOM     15  O   UNL d   1       1.498   4.196  -1.467  0.00  0.00    -0.222 OA
ATOM     16  HN  UNL d   1       2.990   5.231  -2.669  1.00  0.00     0.196 HD
BRANCH  12  17
ATOM     17  C   UNL d   1       4.577   2.884  -2.740  0.00  0.00     0.094 A 
ATOM     18  N   UNL d   1       5.026   1.601  -2.638  0.00  0.00    -0.360 N 
ATOM     19  C   UNL d   1       6.277   1.371  -3.098  0.00  0.00     0.105 A 
ATOM     20  HN  UNL d   1       4.452   0.858  -2.238  1.00  0.00     0.165 HD
ATOM     21  C   UNL d   1       7.065   2.373  -3.634  0.00  0.00     0.104 A 
ATOM     22  N   UNL d   1       6.635   3.650  -3.746  0.00  0.00    -0.372 N 
ATOM     23  C   UNL d   1       5.374   3.881  -3.290  0.00  0.00     0.121 A 
ATOM     24  HN  UNL d   1       7.215   4.388  -4.145  1.00  0.00     0.164 HD
ENDBRANCH  12  17
ENDBRANCH   9  10
ENDBRANCH   2   9
BRANCH   3  25
ATOM     25  S   UNL d   1       0.579  -2.743   0.408  0.00  0.00    -0.085 SA
BRANCH  25  26
ATOM     26  C   UNL d   1      -0.985  -3.645   0.203  0.00  0.00     0.166 C 
BRANCH  26  27
ATOM     27  C   UNL d   1      -0.842  -5.131   0.497  0.00  0.00     0.169 C 
ATOM     28  O   UNL d   1       0.188  -5.655   0.918  0.00  0.00    -0.291 OA
BRANCH  27  29
ATOM     29  C   UNL d   1      -2.038  -6.007   0.264  0.00  0.00     0.011 A 
ATOM     30  C   UNL d   1      -3.287  -5.490  -0.101  0.00  0.00     0.017 A 
ATOM     31  C   UNL d   1      -4.369  -6.350  -0.325  0.00  0.00     0.025 A 
ATOM     32  C   UNL d   1      -4.207  -7.728  -0.183  0.00  0.00     0.034 A 
ATOM     33  C   UNL d   1      -2.974  -8.255   0.190  0.00  0.00     0.025 A 
ATOM     34 CL   UNL d   1      -5.536  -8.778  -0.476  0.00  0.00    -0.084 Cl
ATOM     35  C   UNL d   1      -1.891  -7.396   0.415  0.00  0.00     0.017 A 
ENDBRANCH  27  29
ENDBRANCH  26  27
ENDBRANCH  25  26
ENDBRANCH   3  25
TORSDOF 7
