REMARK  5 active torsions:
REMARK  status: ('A' for Active; 'I' for Inactive)
REMARK       I    between atoms: N_3  and  C_1 
REMARK    1  A    between atoms: O_9  and  C_1 
REMARK    2  A    between atoms: C_2  and  N_4 
REMARK    3  A    between atoms: C_13  and  O_9 
REMARK    4  A    between atoms: C_20  and  C_14 
REMARK    5  A    between atoms: C_24  and  C_20 
ROOT
ATOM      1  C   UNL d   1       0.768   0.179   0.067  0.00  0.00     0.363 C 
ATOM      2  N   UNL d   1       0.290   0.963   1.108  0.00  0.00    -0.326 N 
ATOM      3  N   UNL d   1      -2.027   2.501   2.117  0.00  0.00    -0.216 N 
ATOM      4  O   UNL d   1       0.386  -0.963  -0.128  0.00  0.00    -0.238 OA
ATOM      5  C   UNL d   1      -0.713   0.409   2.028  0.00  0.00     0.148 C 
ATOM      6  C   UNL d   1      -2.097   1.055   1.891  0.00  0.00     0.161 C 
ATOM      7  C   UNL d   1      -0.170   3.407   0.730  0.00  0.00     0.040 C 
ATOM      8  C   UNL d   1       0.711   2.334   1.369  0.00  0.00     0.129 C 
ATOM      9  C   UNL d   1      -1.681   3.337   0.979  0.00  0.00     0.143 C 
ENDROOT
BRANCH   3  10
ATOM     10  C   UNL d   1      -2.709   3.030   3.192  0.00  0.00     0.679 A 
ATOM     11  N   UNL d   1      -2.933   2.254   4.266  0.00  0.00    -0.201 N 
ATOM     12  C   UNL d   1      -3.588   2.799   5.314  0.00  0.00     0.114 A 
ATOM     13  HN  UNL d   1      -2.619   1.284   4.290  1.00  0.00     0.183 HD
ATOM     14  C   UNL d   1      -4.051   4.093   5.340  0.00  0.00    -0.026 A 
ATOM     15  C   UNL d   1      -3.769   4.809   4.202  0.00  0.00     0.114 A 
ATOM     16  N   UNL d   1      -3.103   4.312   3.144  0.00  0.00    -0.201 N 
ATOM     17  HN  UNL d   1      -2.903   4.893   2.330  1.00  0.00     0.183 HD
BRANCH  14  18
ATOM     18  C   UNL d   1      -4.768   4.687   6.513  0.00  0.00     0.041 C 
BRANCH  18  19
ATOM     19  C   UNL d   1      -6.181   5.161   6.163  0.00  0.00     0.000 C 
ATOM     20  C   UNL d   1      -6.861   5.804   7.361  0.00  0.00     0.005 C 
ENDBRANCH  18  19
ENDBRANCH  14  18
ENDBRANCH   3  10
BRANCH   1  21
ATOM     21  O   UNL d   1       1.704   0.811  -0.705  0.00  0.00    -0.294 OA
BRANCH  21  22
ATOM     22  C   UNL d   1       2.335   0.115  -1.820  0.00  0.00     0.061 C 
ATOM     23  C   UNL d   1       1.314  -0.281  -2.897  0.00  0.00     0.046 C 
ATOM     24  C   UNL d   1       3.332   1.119  -2.432  0.00  0.00     0.046 C 
ATOM     25  C   UNL d   1       3.138  -1.107  -1.354  0.00  0.00     0.046 C 
ENDBRANCH  21  22
ENDBRANCH   1  21
TORSDOF 5
