REMARK  4 active torsions:
REMARK  status: ('A' for Active; 'I' for Inactive)
REMARK    1  A    between atoms: C_4  and  C_1 
REMARK    2  A    between atoms: O_12  and  C_5 
REMARK    3  A    between atoms: O_13  and  C_6 
REMARK    4  A    between atoms: O_14  and  C_7 
ROOT
ATOM      1  C   UNL d   1      -3.247  -1.361  -0.595  0.00  0.00    -0.025 A 
ATOM      2  C   UNL d   1      -5.285  -2.221  -2.387  0.00  0.00     0.135 A 
ATOM      3  C   UNL d   1      -4.079  -1.679  -2.885  0.00  0.00     0.104 A 
ATOM      4  C   UNL d   1      -5.440  -2.358  -0.989  0.00  0.00     0.104 A 
ATOM      5  C   UNL d   1      -3.084  -1.254  -1.985  0.00  0.00     0.049 A 
ATOM      6  C   UNL d   1      -4.438  -1.915  -0.114  0.00  0.00     0.049 A 
ENDROOT
BRANCH   1   7
ATOM      7  C   UNL d   1      -2.155  -0.874   0.337  0.00  0.00     0.161 A 
ATOM      8  N   UNL d   1      -2.640   0.205   1.212  0.00  0.00    -0.274 NA
ATOM      9  C   UNL d   1      -2.326  -0.097   2.556  0.00  0.00     0.026 A 
ATOM     10  H   UNL d   1      -3.627   0.415   1.103  0.00  0.00     0.129 HD
ATOM     11  C   UNL d   1      -2.628   0.756   3.609  0.00  0.00     0.025 A 
ATOM     12  C   UNL d   1      -1.632  -1.284   2.803  0.00  0.00     0.023 A 
ATOM     13  C   UNL d   1      -2.230   0.412   4.905  0.00  0.00     0.002 A 
ATOM     14  C   UNL d   1      -1.536  -0.781   5.141  0.00  0.00     0.001 A 
ATOM     15  C   UNL d   1      -1.238  -1.643   4.084  0.00  0.00     0.020 A 
ATOM     16  S   UNL d   1      -1.404  -2.208   1.323  0.00  0.00    -0.103 SA
ENDBRANCH   1   7
BRANCH   3  17
ATOM     17  O   UNL d   1      -3.920  -1.587  -4.244  0.00  0.00    -0.353 OA
ATOM     18  C   UNL d   1      -2.719  -1.032  -4.764  0.00  0.00     0.210 C 
ENDBRANCH   3  17
BRANCH   4  19
ATOM     19  O   UNL d   1      -6.540  -2.846  -0.323  0.00  0.00    -0.353 OA
ATOM     20  C   UNL d   1      -7.257  -3.901  -0.953  0.00  0.00     0.210 C 
ENDBRANCH   4  19
BRANCH   2  21
ATOM     21  O   UNL d   1      -6.368  -2.614  -3.131  0.00  0.00    -0.351 OA
ATOM     22  C   UNL d   1      -6.372  -2.473  -4.542  0.00  0.00     0.210 C 
ENDBRANCH   2  21
TORSDOF 4
