REMARK  6 active torsions:
REMARK  status: ('A' for Active; 'I' for Inactive)
REMARK    1  A    between atoms: C_16  and  C_1 
REMARK    2  A    between atoms: N_8  and  C_2 
REMARK    3  A    between atoms: C_5  and  C_7 
REMARK       I    between atoms: C_7  and  N_8 
REMARK    4  A    between atoms: N_9  and  C_18 
REMARK    5  A    between atoms: O_26  and  C_16 
REMARK    6  A    between atoms: C_28  and  O_26 
ROOT
ATOM      1  C   UNL d   1       2.082  -0.758  -0.487  0.00  0.00     0.138 C 
ATOM      2  C   UNL d   1       1.007  -1.631  -0.334  0.00  0.00     0.081 C 
ATOM      3  N   UNL d   1       1.584   0.512  -0.216  0.00  0.00    -0.344 N 
ATOM      4  C   UNL d   1      -0.184  -0.843  -0.203  0.00  0.00     0.022 A 
ATOM      5  C   UNL d   1       0.201   0.491  -0.138  0.00  0.00     0.047 A 
ATOM      6  C   UNL d   1      -1.560  -1.157  -0.115  0.00  0.00     0.052 A 
ATOM      7  C   UNL d   1      -2.496  -0.115   0.000  0.00  0.00     0.103 A 
ATOM      8  C   UNL d   1      -0.729   1.540  -0.008  0.00  0.00     0.033 A 
ATOM      9  C   UNL d   1      -2.088   1.218   0.052  0.00  0.00     0.038 A 
ATOM     10  C   UNL d   1       2.334   1.750  -0.129  0.00  0.00     0.157 C 
ENDROOT
BRANCH   2  11
ATOM     11  N   UNL d   1       0.952  -3.022  -0.356  0.00  0.00    -0.319 N 
ATOM     12  C   UNL d   1       1.957  -3.925  -0.052  0.00  0.00     0.266 C 
ATOM     13  O   UNL d   1       3.071  -3.592   0.346  0.00  0.00    -0.267 OA
ATOM     14  H   UNL d   1       0.022  -3.409  -0.429  0.00  0.00     0.169 HD
BRANCH  12  15
ATOM     15  C   UNL d   1       1.568  -5.322  -0.175  0.00  0.00     0.114 A 
ATOM     16  C   UNL d   1       2.306  -6.494  -0.038  0.00  0.00     0.046 A 
ATOM     17  N   UNL d   1       1.572  -7.667  -0.213  0.00  0.00    -0.298 N 
ATOM     18  C   UNL d   1       3.754  -6.658   0.244  0.00  0.00     0.071 C 
ATOM     19  N   UNL d   1       0.302  -7.427  -0.475  0.00  0.00    -0.269 N 
ATOM     20  HN  UNL d   1       1.972  -8.603  -0.146  1.00  0.00     0.187 HD
ATOM     21  S   UNL d   1      -0.046  -5.804  -0.531  0.00  0.00     0.009 SA
ATOM     22  HN  UNL d   1      -0.392  -8.159  -0.627  1.00  0.00     0.195 HD
ENDBRANCH  12  15
ENDBRANCH   2  11
BRANCH   1  23
ATOM     23  C   UNL d   1       3.451  -1.009  -0.917  0.00  0.00     0.312 C 
ATOM     24  O   UNL d   1       4.431  -0.350  -0.600  0.00  0.00    -0.258 OA
BRANCH  23  25
ATOM     25  O   UNL d   1       3.462  -1.995  -1.861  0.00  0.00    -0.317 OA
BRANCH  25  26
ATOM     26  C   UNL d   1       4.732  -2.268  -2.472  0.00  0.00     0.175 C 
ATOM     27  C   UNL d   1       5.614  -3.126  -1.582  0.00  0.00     0.034 C 
ENDBRANCH  25  26
ENDBRANCH  23  25
ENDBRANCH   1  23
BRANCH   7  28
ATOM     28  N   UNL d   1      -3.928  -0.440   0.054  0.00  0.00    -0.116 N 
ATOM     29  O   UNL d   1      -4.247  -1.637   0.002  0.00  0.00    -0.532 OA
ATOM     30  O   UNL d   1      -4.731   0.498   0.144  0.00  0.00    -0.532 OA
ENDBRANCH   7  28
TORSDOF 6
