REMARK  8 active torsions:
REMARK  status: ('A' for Active; 'I' for Inactive)
REMARK    1  A    between atoms: N_3  and  S_1 
REMARK    2  A    between atoms: C_6  and  S_1 
REMARK    3  A    between atoms: N_14  and  N_3 
REMARK    4  A    between atoms: C_4  and  C_9 
REMARK    5  A    between atoms: C_5  and  C_10 
REMARK    6  A    between atoms: C_11  and  S_25 
REMARK       I    between atoms: C_19  and  N_14 
REMARK    7  A    between atoms: C_28  and  C_19 
REMARK    8  A    between atoms: S_25  and  C_28 
ROOT
ATOM      1  N   UNL d   1       0.433  -1.137   0.960  0.00  0.00    -0.220 N 
ATOM      2  H   UNL d   1      -0.338  -0.948   1.608  0.00  0.00     0.200 HD
ENDROOT
BRANCH   1   3
ATOM      3  S   UNL d   1       1.063   0.046  -0.059  0.00  0.00     0.276 S 
ATOM      4  O   UNL d   1       0.641  -0.276  -1.407  0.00  0.00    -0.199 OA
ATOM      5  O   UNL d   1       2.468   0.186   0.258  0.00  0.00    -0.199 OA
BRANCH   3   6
ATOM      6  C   UNL d   1       0.235   1.545   0.432  0.00  0.00     0.082 A 
ATOM      7  C   UNL d   1       0.828   2.372   1.394  0.00  0.00     0.041 A 
ATOM      8  C   UNL d   1       0.275   3.631   1.682  0.00  0.00     0.050 A 
ATOM      9  C   UNL d   1      -0.876   4.043   0.987  0.00  0.00     0.032 A 
ATOM     10  C   UNL d   1      -1.473   3.224   0.011  0.00  0.00     0.050 A 
ATOM     11  C   UNL d   1      -0.905   1.969  -0.264  0.00  0.00     0.041 A 
BRANCH   8  12
ATOM     12  C   UNL d   1       0.912   4.561   2.693  0.00  0.00     0.417 C 
ATOM     13  F   UNL d   1       2.022   4.042   3.285  0.00  0.00    -0.166 F 
ATOM     14  F   UNL d   1       1.298   5.741   2.136  0.00  0.00    -0.166 F 
ATOM     15  F   UNL d   1       0.060   4.883   3.704  0.00  0.00    -0.166 F 
ENDBRANCH   8  12
BRANCH  10  16
ATOM     16  C   UNL d   1      -2.690   3.724  -0.739  0.00  0.00     0.417 C 
ATOM     17  F   UNL d   1      -3.150   2.849  -1.674  0.00  0.00    -0.166 F 
ATOM     18  F   UNL d   1      -3.738   3.975   0.091  0.00  0.00    -0.166 F 
ATOM     19  F   UNL d   1      -2.447   4.889  -1.399  0.00  0.00    -0.166 F 
ENDBRANCH  10  16
ENDBRANCH   3   6
ENDBRANCH   1   3
BRANCH   1  20
ATOM     20  N   UNL d   1       0.971  -2.488   0.876  0.00  0.00    -0.260 N 
ATOM     21  C   UNL d   1       0.430  -3.484   1.670  0.00  0.00     0.246 C 
ATOM     22  O   UNL d   1      -0.487  -3.264   2.461  0.00  0.00    -0.271 OA
ATOM     23  H   UNL d   1       1.739  -2.646   0.226  0.00  0.00     0.190 HD
BRANCH  21  24
ATOM     24  C   UNL d   1       1.054  -4.859   1.458  0.00  0.00     0.185 C 
BRANCH  24  25
ATOM     25  S   UNL d   1       1.874  -5.407   2.990  0.00  0.00    -0.102 SA
BRANCH  25  26
ATOM     26  C   UNL d   1       2.547  -6.973   2.496  0.00  0.00     0.084 A 
ATOM     27  C   UNL d   1       3.217  -7.818   3.410  0.00  0.00     0.038 A 
ATOM     28  C   UNL d   1       3.762  -8.960   2.828  0.00  0.00     0.088 A 
ATOM     29  C   UNL d   1       3.497  -7.817   4.846  0.00  0.00    -0.040 A 
ATOM     30  S   UNL d   1       4.618  -9.949   3.914  0.00  0.00    -0.083 SA
ATOM     31  N   UNL d   1       3.685  -9.332   1.540  0.00  0.00    -0.346 N 
ATOM     32  C   UNL d   1       4.267  -8.911   5.211  0.00  0.00     0.059 A 
ATOM     33  C   UNL d   1       3.008  -8.468   0.793  0.00  0.00     0.182 A 
ATOM     34  HN  UNL d   1       4.103 -10.188   1.173  1.00  0.00     0.167 HD
ATOM     35  N   UNL d   1       2.448  -7.316   1.192  0.00  0.00    -0.346 N 
ATOM     36  HN  UNL d   1       1.961  -6.714   0.528  1.00  0.00     0.167 HD
ATOM     37  C   UNL d   1       3.060  -6.827   5.879  0.00  0.00     0.049 C 
ENDBRANCH  25  26
ENDBRANCH  24  25
ENDBRANCH  21  24
ENDBRANCH   1  20
TORSDOF 8
