REMARK  4 active torsions:
REMARK  status: ('A' for Active; 'I' for Inactive)
REMARK    1  A    between atoms: N_4  and  C_1 
REMARK    2  A    between atoms: N_6  and  C_1 
REMARK    3  A    between atoms: C_2  and  N_6 
REMARK    4  A    between atoms: C_3  and  N_4 
ROOT
ATOM      1  C   UNL d   1       0.958  -0.066  -0.092  0.00  0.00     0.052 C 
ENDROOT
BRANCH   1   2
ATOM      2  N   UNL d   1      -0.108  -0.556   0.027  0.00  0.00    -0.307 N 
ATOM      3  HN  UNL d   1      -0.520  -0.754   0.939  1.00  0.00     0.177 HD
BRANCH   2   4
ATOM      4  C   UNL d   1      -0.775  -0.848  -1.185  0.00  0.00     0.052 A 
ATOM      5  C   UNL d   1      -0.285  -1.815  -2.097  0.00  0.00    -0.034 A 
ATOM      6  C   UNL d   1      -1.010  -2.105  -3.267  0.00  0.00     0.009 A 
ATOM      7  C   UNL d   1       1.013  -2.550  -1.898  0.00  0.00     0.050 C 
ATOM      8  C   UNL d   1      -2.237  -1.502  -3.517  0.00  0.00     0.001 A 
ATOM      9  C   UNL d   1      -2.751  -0.588  -2.606  0.00  0.00     0.009 A 
ATOM     10  C   UNL d   1      -2.035  -0.252  -1.442  0.00  0.00    -0.034 A 
ATOM     11  C   UNL d   1      -2.692   0.726  -0.501  0.00  0.00     0.050 C 
ENDBRANCH   2   4
ENDBRANCH   1   2
BRANCH   1  12
ATOM     12  N   UNL d   1       2.023   0.426  -0.080  0.00  0.00    -0.307 N 
ATOM     13  HN  UNL d   1       2.495   0.687   0.786  1.00  0.00     0.177 HD
BRANCH  12  14
ATOM     14  C   UNL d   1       2.609   0.632  -1.352  0.00  0.00     0.052 A 
ATOM     15  C   UNL d   1       2.095   1.571  -2.276  0.00  0.00    -0.034 A 
ATOM     16  C   UNL d   1       2.780   1.818  -3.479  0.00  0.00     0.009 A 
ATOM     17  C   UNL d   1       0.811   2.329  -2.061  0.00  0.00     0.050 C 
ATOM     18  C   UNL d   1       3.984   1.185  -3.762  0.00  0.00     0.001 A 
ATOM     19  C   UNL d   1       4.508   0.272  -2.856  0.00  0.00     0.009 A 
ATOM     20  C   UNL d   1       3.831  -0.023  -1.659  0.00  0.00    -0.034 A 
ATOM     21  C   UNL d   1       4.486  -1.009  -0.727  0.00  0.00     0.050 C 
ENDBRANCH  12  14
ENDBRANCH   1  12
TORSDOF 4
