REMARK  2 active torsions:
REMARK  status: ('A' for Active; 'I' for Inactive)
REMARK    1  A    between atoms: C_9  and  C_2 
REMARK    2  A    between atoms: O_10  and  C_2 
ROOT
ATOM      1  N   UNL d   1      -1.676  -0.700  -0.009  0.00  0.00    -0.329 N 
ATOM      2  C   UNL d   1      -1.054  -1.929   0.436  0.00  0.00     0.167 C 
ATOM      3  C   UNL d   1      -0.948   0.465  -0.098  0.00  0.00     0.112 C 
ATOM      4  C   UNL d   1       0.271  -2.076  -0.380  0.00  0.00     0.106 C 
ATOM      5  C   UNL d   1       0.534   0.415  -0.126  0.00  0.00     0.014 A 
ATOM      6  N   UNL d   1      -1.632   1.580  -0.118  0.00  0.00    -0.374 N 
ATOM      7  HN  UNL d   1      -1.273   2.533  -0.159  1.00  0.00     0.161 HD
ATOM      8  C   UNL d   1       1.143  -0.849  -0.246  0.00  0.00    -0.039 A 
ATOM      9  C   UNL d   1      -3.065  -0.376   0.202  0.00  0.00     0.147 C 
ATOM     10  C   UNL d   1      -3.059   1.139  -0.066  0.00  0.00     0.141 C 
ATOM     11  C   UNL d   1       1.306   1.567   0.021  0.00  0.00     0.016 A 
ATOM     12  C   UNL d   1       2.537  -0.942  -0.254  0.00  0.00     0.008 A 
ATOM     13  C   UNL d   1       2.697   1.460   0.038  0.00  0.00     0.001 A 
ATOM     14  C   UNL d   1       3.311   0.210  -0.101  0.00  0.00     0.001 A 
ENDROOT
BRANCH   2  15
ATOM     15  C   UNL d   1      -0.773  -2.019   1.946  0.00  0.00    -0.003 A 
ATOM     16  C   UNL d   1      -1.001  -0.958   2.845  0.00  0.00     0.015 A 
ATOM     17  C   UNL d   1      -0.636  -1.056   4.192  0.00  0.00     0.043 A 
ATOM     18  C   UNL d   1      -0.032  -2.213   4.658  0.00  0.00     0.116 A 
ATOM     19  C   UNL d   1       0.193  -3.287   3.809  0.00  0.00     0.043 A 
ATOM     20  F   UNL d   1       0.344  -2.295   5.941  0.00  0.00    -0.206 F 
ATOM     21  C   UNL d   1      -0.188  -3.195   2.467  0.00  0.00     0.015 A 
ENDBRANCH   2  15
BRANCH   2  22
ATOM     22  O   UNL d   1      -1.913  -3.000   0.077  0.00  0.00    -0.366 OA
ATOM     23  H   UNL d   1      -2.236  -2.746  -0.802  0.00  0.00     0.213 HD
ENDBRANCH   2  22
TORSDOF 2
