REMARK  1 active torsions:
REMARK  status: ('A' for Active; 'I' for Inactive)
REMARK    1  A    between atoms: C_6  and  C_3 
ROOT
ATOM      1  C   UNL d   1      -1.183   0.882  -0.018  0.00  0.00    -0.034 A 
ATOM      2  C   UNL d   1       1.185   0.883  -0.019  0.00  0.00    -0.034 A 
ATOM      3  C   UNL d   1       0.001   1.848   0.003  0.00  0.00     0.086 A 
ATOM      4  C   UNL d   1      -0.723  -0.454  -0.039  0.00  0.00    -0.018 A 
ATOM      5  C   UNL d   1       0.725  -0.453  -0.038  0.00  0.00    -0.018 A 
ATOM      6  C   UNL d   1       2.540   1.182  -0.016  0.00  0.00     0.009 A 
ATOM      7  C   UNL d   1      -2.538   1.181  -0.010  0.00  0.00     0.009 A 
ATOM      8  C   UNL d   1       1.628  -1.504  -0.035  0.00  0.00     0.013 A 
ATOM      9  C   UNL d   1      -1.625  -1.504  -0.042  0.00  0.00     0.013 A 
ATOM     10  C   UNL d   1       3.446   0.121  -0.013  0.00  0.00     0.001 A 
ATOM     11  C   UNL d   1      -3.444   0.120  -0.011  0.00  0.00     0.001 A 
ATOM     12  C   UNL d   1       2.995  -1.209  -0.020  0.00  0.00     0.001 A 
ATOM     13  C   UNL d   1      -2.993  -1.210  -0.025  0.00  0.00     0.001 A 
ENDROOT
BRANCH   3  14
ATOM     14  C   UNL d   1       0.004   2.776   1.200  0.00  0.00    -0.043 A 
ATOM     15  C   UNL d   1       0.050   4.162   1.022  0.00  0.00     0.025 A 
ATOM     16  C   UNL d   1       0.055   4.979   2.143  0.00  0.00     0.088 A 
ATOM     17  N   UNL d   1       0.019   4.519   3.412  0.00  0.00    -0.375 N 
ATOM     18  C   UNL d   1      -0.023   3.179   3.566  0.00  0.00     0.088 A 
ATOM     19  HN  UNL d   1       0.023   5.152   4.212  1.00  0.00     0.164 HD
ATOM     20  C   UNL d   1      -0.030   2.282   2.511  0.00  0.00     0.025 A 
ENDBRANCH   3  14
TORSDOF 1
