REMARK  3 active torsions:
REMARK  status: ('A' for Active; 'I' for Inactive)
REMARK       I    between atoms: N_2  and  C_1 
REMARK    1  A    between atoms: C_4  and  C_1 
REMARK    2  A    between atoms: C_5  and  N_2 
REMARK    3  A    between atoms: C_10  and  C_4 
ROOT
ATOM      1  C   UNL d   1       0.871  -0.167   0.078  0.00  0.00     0.226 C 
ATOM      2  N   UNL d   1       0.277  -0.453  -1.143  0.00  0.00    -0.327 N 
ATOM      3  O   UNL d   1       0.285   0.129   1.116  0.00  0.00    -0.273 OA
ATOM      4  H   UNL d   1       0.896  -0.717  -1.899  0.00  0.00     0.169 HD
ENDROOT
BRANCH   1   5
ATOM      5  C   UNL d   1       2.391  -0.226   0.038  0.00  0.00     0.141 C 
BRANCH   5   6
ATOM      6  C   UNL d   1       3.071   1.079  -0.319  0.00  0.00    -0.050 A 
ATOM      7  C   UNL d   1       2.490   2.327  -0.046  0.00  0.00     0.007 A 
ATOM      8  C   UNL d   1       3.168   3.511  -0.351  0.00  0.00     0.001 A 
ATOM      9  C   UNL d   1       4.441   3.465  -0.912  0.00  0.00     0.000 A 
ATOM     10  C   UNL d   1       5.042   2.234  -1.164  0.00  0.00     0.001 A 
ATOM     11  C   UNL d   1       4.364   1.050  -0.865  0.00  0.00     0.007 A 
ENDBRANCH   5   6
ENDBRANCH   1   5
BRANCH   2  12
ATOM     12  C   UNL d   1      -1.095  -0.372  -1.463  0.00  0.00     0.034 A 
ATOM     13  C   UNL d   1      -2.077   0.078  -0.576  0.00  0.00     0.031 A 
ATOM     14  C   UNL d   1      -3.412   0.184  -0.983  0.00  0.00     0.026 A 
ATOM     15  C   UNL d   1      -3.773  -0.167  -2.279  0.00  0.00     0.034 A 
ATOM     16  C   UNL d   1      -2.812  -0.636  -3.169  0.00  0.00     0.026 A 
ATOM     17 CL   UNL d   1      -5.410  -0.013  -2.784  0.00  0.00    -0.084 Cl
ATOM     18  C   UNL d   1      -1.477  -0.737  -2.762  0.00  0.00     0.031 A 
ENDBRANCH   2  12
TORSDOF 3
