REMARK  2 active torsions:
REMARK  status: ('A' for Active; 'I' for Inactive)
REMARK    1  A    between atoms: S_11  and  C_1 
REMARK    2  A    between atoms: C_2  and  S_11 
ROOT
ATOM      1  C   UNL d   1      -2.729  -1.244   1.341  0.00  0.00     0.118 A 
ATOM      2  N   UNL d   1      -3.096  -1.751   2.496  0.00  0.00    -0.344 N 
ATOM      3  HN  UNL d   1      -3.953  -2.280   2.658  1.00  0.00     0.167 HD
ATOM      4  S   UNL d   1      -1.238  -0.398   1.332  0.00  0.00    -0.063 SA
ATOM      5  C   UNL d   1      -2.146  -1.459   3.461  0.00  0.00     0.050 A 
ATOM      6  C   UNL d   1      -1.036  -0.738   3.011  0.00  0.00     0.034 A 
ATOM      7  C   UNL d   1      -2.204  -1.838   4.816  0.00  0.00     0.031 A 
ATOM      8  C   UNL d   1       0.024  -0.402   3.869  0.00  0.00     0.021 A 
ATOM      9  C   UNL d   1      -1.155  -1.506   5.680  0.00  0.00     0.002 A 
ATOM     10  C   UNL d   1      -0.052  -0.801   5.208  0.00  0.00     0.002 A 
ENDROOT
BRANCH   1  11
ATOM     11  S   UNL d   1      -3.655  -1.554  -0.115  0.00  0.00    -0.061 SA
BRANCH  11  12
ATOM     12  C   UNL d   1      -4.752  -0.197  -0.044  0.00  0.00     0.054 A 
ATOM     13  C   UNL d   1      -4.911   0.767  -1.018  0.00  0.00     0.041 A 
ATOM     14  N   UNL d   1      -5.915   1.577  -0.566  0.00  0.00    -0.304 N 
ATOM     15  C   UNL d   1      -4.253   0.990  -2.326  0.00  0.00     0.071 C 
ATOM     16  N   UNL d   1      -6.433   1.196   0.609  0.00  0.00    -0.304 N 
ATOM     17  H   UNL d   1      -6.313   2.393  -1.019  0.00  0.00     0.186 HD
ATOM     18  C   UNL d   1      -5.747   0.089   0.928  0.00  0.00     0.041 A 
ATOM     19  HN  UNL d   1      -7.180   1.645   1.140  1.00  0.00     0.186 HD
ATOM     20  C   UNL d   1      -6.118  -0.667   2.151  0.00  0.00     0.071 C 
ENDBRANCH  11  12
ENDBRANCH   1  11
TORSDOF 2
