REMARK  6 active torsions:
REMARK  status: ('A' for Active; 'I' for Inactive)
REMARK    1  A    between atoms: N_6  and  N_1 
REMARK    2  A    between atoms: S_17  and  C_2 
REMARK       I    between atoms: C_8  and  N_6 
REMARK    3  A    between atoms: C_10  and  C_8 
REMARK    4  A    between atoms: O_19  and  C_11 
REMARK    5  A    between atoms: O_21  and  C_12 
REMARK    6  A    between atoms: O_20  and  C_13 
ROOT
ATOM      1  N   UNL d   1       3.935  -1.184   0.722  0.00  0.00    -0.158 NA
ATOM      2  C   UNL d   1       4.714  -0.462  -0.172  0.00  0.00     0.249 C 
ATOM      3  O   UNL d   1       5.365  -0.981  -1.073  0.00  0.00    -0.272 OA
ATOM      4  H   UNL d   1       3.095  -0.717   1.062  0.00  0.00     0.157 HD
ENDROOT
BRANCH   1   5
ATOM      5  N   UNL d   1       3.637  -2.558   0.424  0.00  0.00    -0.212 N 
ATOM      6  C   UNL d   1       4.586  -3.569   0.417  0.00  0.00     0.162 C 
ATOM      7  N   UNL d   1       4.313  -4.806   0.136  0.00  0.00    -0.335 N 
ATOM      8  C   UNL d   1       2.974  -5.163  -0.058  0.00  0.00     0.050 A 
ATOM      9  HN  UNL d   1       5.056  -5.501   0.058  1.00  0.00     0.168 HD
ATOM     10  C   UNL d   1       1.923  -4.264   0.135  0.00  0.00     0.060 A 
ATOM     11  C   UNL d   1       2.673  -6.506  -0.304  0.00  0.00     0.030 A 
ATOM     12  C   UNL d   1       2.277  -2.847   0.359  0.00  0.00     0.277 C 
ATOM     13  C   UNL d   1       0.598  -4.709   0.184  0.00  0.00     0.019 A 
ATOM     14  O   UNL d   1       1.408  -2.001   0.539  0.00  0.00    -0.266 OA
ATOM     15  C   UNL d   1       0.317  -6.061  -0.000  0.00  0.00     0.001 A 
ATOM     16  C   UNL d   1       1.353  -6.956  -0.274  0.00  0.00     0.002 A 
BRANCH   6  17
ATOM     17  S   UNL d   1       6.227  -3.235   0.927  0.00  0.00    -0.105 SA
ATOM     18  H   UNL d   1       5.975  -2.010   1.397  0.00  0.00     0.110 HD
ENDBRANCH   6  17
ENDBRANCH   1   5
BRANCH   2  19
ATOM     19  C   UNL d   1       4.746   1.029  -0.001  0.00  0.00     0.033 A 
ATOM     20  C   UNL d   1       4.022   1.706   0.984  0.00  0.00     0.056 A 
ATOM     21  C   UNL d   1       3.979   3.112   1.016  0.00  0.00     0.105 A 
ATOM     22  C   UNL d   1       4.717   3.865   0.070  0.00  0.00     0.135 A 
ATOM     23  C   UNL d   1       5.517   3.179  -0.868  0.00  0.00     0.105 A 
ATOM     24  C   UNL d   1       5.524   1.776  -0.888  0.00  0.00     0.056 A 
BRANCH  21  25
ATOM     25  O   UNL d   1       3.208   3.794   1.924  0.00  0.00    -0.353 OA
ATOM     26  C   UNL d   1       2.453   3.065   2.883  0.00  0.00     0.210 C 
ENDBRANCH  21  25
BRANCH  22  27
ATOM     27  O   UNL d   1       4.681   5.229  -0.059  0.00  0.00    -0.351 OA
ATOM     28  C   UNL d   1       4.248   6.046   1.016  0.00  0.00     0.210 C 
ENDBRANCH  22  27
BRANCH  23  29
ATOM     29  O   UNL d   1       6.353   3.694  -1.828  0.00  0.00    -0.353 OA
ATOM     30  C   UNL d   1       6.346   5.088  -2.094  0.00  0.00     0.210 C 
ENDBRANCH  23  29
ENDBRANCH   2  19
TORSDOF 6
