REMARK  2 active torsions:
REMARK  status: ('A' for Active; 'I' for Inactive)
REMARK    1  A    between atoms: C_2  and  N_1 
REMARK    2  A    between atoms: O_12  and  C_3 
ROOT
ATOM      1  C   UNL d   1       0.284  -0.474  -1.048  0.00  0.00     0.105 A 
ATOM      2  C   UNL d   1      -1.143  -1.536  -3.250  0.00  0.00     0.103 A 
ATOM      3  C   UNL d   1       0.006  -2.185  -2.762  0.00  0.00     0.048 A 
ATOM      4  C   UNL d   1      -1.542  -0.339  -2.603  0.00  0.00     0.048 A 
ATOM      5  C   UNL d   1       0.712  -1.652  -1.667  0.00  0.00     0.058 A 
ATOM      6  C   UNL d   1      -0.845   0.192  -1.513  0.00  0.00     0.058 A 
ATOM      7 BR   UNL d   1       0.776  -3.791  -3.437  0.00  0.00    -0.048 Br
ATOM      8 BR   UNL d   1      -3.077   0.642  -3.180  0.00  0.00    -0.048 Br
ENDROOT
BRANCH   1   9
ATOM      9  N   UNL d   1       1.028   0.060   0.099  0.00  0.00    -0.116 N 
ATOM     10  O   UNL d   1       2.020  -0.574   0.485  0.00  0.00    -0.532 OA
ATOM     11  O   UNL d   1       0.618   1.109   0.612  0.00  0.00    -0.532 OA
ENDBRANCH   1   9
BRANCH   2  12
ATOM     12  O   UNL d   1      -1.970  -1.881  -4.280  0.00  0.00    -0.353 OA
ATOM     13  C   UNL d   1      -1.777  -3.034  -5.073  0.00  0.00     0.210 C 
ENDBRANCH   2  12
TORSDOF 2
