REMARK  3 active torsions:
REMARK  status: ('A' for Active; 'I' for Inactive)
REMARK    1  A    between atoms: O_2  and  S_1 
REMARK    2  A    between atoms: C_6  and  S_1 
REMARK    3  A    between atoms: N_3  and  O_2 
ROOT
ATOM      1  O   UNL d   1       1.000  -1.352   0.753  0.00  0.00    -0.147 OA
ENDROOT
BRANCH   1   2
ATOM      2  S   UNL d   1      -0.471  -0.787   1.247  0.00  0.00     0.318 S 
ATOM      3  O   UNL d   1      -1.077  -1.737   2.162  0.00  0.00    -0.191 OA
ATOM      4  O   UNL d   1      -1.195  -0.288   0.091  0.00  0.00    -0.191 OA
BRANCH   2   5
ATOM      5  C   UNL d   1      -0.062   0.639   2.248  0.00  0.00     0.088 A 
ATOM      6  C   UNL d   1      -0.538   1.907   1.891  0.00  0.00     0.027 A 
ATOM      7  C   UNL d   1      -0.297   2.995   2.734  0.00  0.00     0.025 A 
ATOM      8  C   UNL d   1       0.412   2.812   3.922  0.00  0.00     0.034 A 
ATOM      9  C   UNL d   1       0.895   1.549   4.271  0.00  0.00     0.025 A 
ATOM     10 CL   UNL d   1       0.675   4.148   4.973  0.00  0.00    -0.084 Cl
ATOM     11  C   UNL d   1       0.657   0.454   3.435  0.00  0.00     0.027 A 
ENDBRANCH   2   5
ENDBRANCH   1   2
BRANCH   1  12
ATOM     12  N   UNL d   1       0.923  -2.567   0.026  0.00  0.00    -0.252 N 
ATOM     13  C   UNL d   1       2.090  -2.946  -0.381  0.00  0.00     0.044 C 
ATOM     14  C   UNL d   1       2.311  -4.152  -1.171  0.00  0.00    -0.005 A 
ATOM     15  C   UNL d   1       3.407  -2.240  -0.171  0.00  0.00     0.064 C 
ATOM     16  C   UNL d   1       3.679  -4.285  -1.380  0.00  0.00    -0.046 A 
ATOM     17  C   UNL d   1       1.388  -5.045  -1.681  0.00  0.00     0.014 A 
ATOM     18  C   UNL d   1       4.166  -5.345  -2.129  0.00  0.00     0.008 A 
ATOM     19  C   UNL d   1       4.470  -3.224  -0.683  0.00  0.00     0.045 C 
ATOM     20  C   UNL d   1       3.252  -6.258  -2.666  0.00  0.00     0.001 A 
ATOM     21  C   UNL d   1       1.872  -6.112  -2.441  0.00  0.00     0.001 A 
ATOM     22  HN  UNL d   1       0.058  -3.077  -0.154  1.00  0.00     0.195 HD
ENDBRANCH   1  12
TORSDOF 3
