REMARK  5 active torsions:
REMARK  status: ('A' for Active; 'I' for Inactive)
REMARK    1  A    between atoms: N_4  and  S_1 
REMARK    2  A    between atoms: C_5  and  S_1 
REMARK    3  A    between atoms: C_2  and  C_6 
REMARK    4  A    between atoms: N_3  and  C_11 
REMARK    5  A    between atoms: C_17  and  N_4 
ROOT
ATOM      1  N   UNL d   1       0.656   1.571   0.258  0.00  0.00    -0.281 N 
ATOM      2  H   UNL d   1       1.002   0.621   0.140  0.00  0.00     0.179 HD
ENDROOT
BRANCH   1   3
ATOM      3  S   UNL d   1       0.733   2.485  -1.157  0.00  0.00     0.263 S 
ATOM      4  O   UNL d   1      -0.176   3.609  -1.057  0.00  0.00    -0.200 OA
ATOM      5  O   UNL d   1       0.646   1.543  -2.251  0.00  0.00    -0.200 OA
BRANCH   3   6
ATOM      6  C   UNL d   1       2.395   3.128  -1.146  0.00  0.00     0.080 A 
ATOM      7  C   UNL d   1       2.655   4.367  -0.546  0.00  0.00     0.041 A 
ATOM      8  C   UNL d   1       3.961   4.879  -0.526  0.00  0.00     0.049 A 
ATOM      9  C   UNL d   1       4.990   4.142  -1.138  0.00  0.00     0.016 A 
ATOM     10  C   UNL d   1       4.721   2.919  -1.759  0.00  0.00     0.002 A 
ATOM     11  C   UNL d   1       3.423   2.409  -1.767  0.00  0.00     0.025 A 
BRANCH   8  12
ATOM     12  C   UNL d   1       4.269   6.198   0.142  0.00  0.00     0.417 C 
ATOM     13  F   UNL d   1       3.181   6.795   0.701  0.00  0.00    -0.166 F 
ATOM     14  F   UNL d   1       5.181   6.068   1.145  0.00  0.00    -0.166 F 
ATOM     15  F   UNL d   1       4.793   7.109  -0.724  0.00  0.00    -0.166 F 
ENDBRANCH   8  12
ENDBRANCH   3   6
ENDBRANCH   1   3
BRANCH   1  16
ATOM     16  C   UNL d   1       0.870   2.209   1.506  0.00  0.00     0.042 A 
ATOM     17  C   UNL d   1      -0.186   2.846   2.141  0.00  0.00     0.032 A 
ATOM     18  C   UNL d   1       0.027   3.499   3.360  0.00  0.00     0.031 A 
ATOM     19  C   UNL d   1       1.293   3.554   3.964  0.00  0.00     0.030 A 
ATOM     20  C   UNL d   1       2.343   2.921   3.279  0.00  0.00     0.031 A 
ATOM     21  C   UNL d   1       2.139   2.244   2.071  0.00  0.00     0.032 A 
BRANCH  19  22
ATOM     22  N   UNL d   1       1.482   4.164   5.184  0.00  0.00    -0.378 N 
ATOM     23  C   UNL d   1       0.746   5.369   5.601  0.00  0.00     0.153 C 
ATOM     24  C   UNL d   1       0.192   5.188   7.033  0.00  0.00     0.291 C 
ATOM     25  N   UNL d   1       1.255   4.836   8.003  0.00  0.00     0.087 N 
ATOM     26  C   UNL d   1       1.925   3.598   7.547  0.00  0.00     0.291 C 
ATOM     27  C   UNL d   1       0.703   4.667   9.343  0.00  0.00     0.310 C 
ATOM     28  C   UNL d   1       2.527   3.739   6.127  0.00  0.00     0.153 C 
ENDBRANCH  19  22
ENDBRANCH   1  16
TORSDOF 5
