REMARK  5 active torsions:
REMARK  status: ('A' for Active; 'I' for Inactive)
REMARK    1  A    between atoms: C_8  and  C_2 
REMARK    2  A    between atoms: O_13  and  C_3 
REMARK    3  A    between atoms: C_12  and  C_6 
REMARK    4  A    between atoms: O_14  and  C_8 
REMARK    5  A    between atoms: C_17  and  O_14 
ROOT
ATOM      1  C   UNL d   1      -0.720   1.305   0.049  0.00  0.00     0.111 A 
ATOM      2  C   UNL d   1      -1.457   0.114   0.035  0.00  0.00     0.066 A 
ATOM      3  C   UNL d   1       0.661   1.193   0.086  0.00  0.00     0.162 A 
ATOM      4  N   UNL d   1       1.314   0.016   0.097  0.00  0.00    -0.335 N 
ATOM      5  HN  UNL d   1       2.332  -0.008   0.141  1.00  0.00     0.168 HD
ATOM      6  C   UNL d   1       0.605  -1.135   0.051  0.00  0.00     0.045 A 
ATOM      7  C   UNL d   1      -0.785  -1.115   0.031  0.00  0.00     0.049 A 
ATOM      8  C   UNL d   1      -1.318   2.597  -0.023  0.00  0.00     0.105 C 
ATOM      9  N   UNL d   1      -1.720   3.683  -0.087  0.00  0.00    -0.191 NA
ENDROOT
BRANCH   2  10
ATOM     10  C   UNL d   1      -2.936   0.052  -0.080  0.00  0.00     0.295 C 
ATOM     11  O   UNL d   1      -3.510  -0.876  -0.625  0.00  0.00    -0.259 OA
BRANCH  10  12
ATOM     12  O   UNL d   1      -3.512   1.143   0.466  0.00  0.00    -0.318 OA
BRANCH  12  13
ATOM     13  C   UNL d   1      -4.877   1.399   0.093  0.00  0.00     0.174 C 
ATOM     14  C   UNL d   1      -5.800   1.213   1.279  0.00  0.00     0.034 C 
ENDBRANCH  12  13
ENDBRANCH  10  12
ENDBRANCH   2  10
BRANCH   3  15
ATOM     15  O   UNL d   1       1.508   2.264   0.089  0.00  0.00    -0.345 OA
ATOM     16  H   UNL d   1       1.028   3.106   0.030  0.00  0.00     0.219 HD
ENDBRANCH   3  15
BRANCH   6  17
ATOM     17  C   UNL d   1       1.396  -2.379   0.005  0.00  0.00    -0.009 A 
ATOM     18  C   UNL d   1       2.645  -2.459   0.649  0.00  0.00     0.013 A 
ATOM     19  C   UNL d   1       3.415  -3.626   0.608  0.00  0.00     0.001 A 
ATOM     20  C   UNL d   1       2.955  -4.739  -0.088  0.00  0.00     0.000 A 
ATOM     21  C   UNL d   1       1.727  -4.686  -0.741  0.00  0.00     0.001 A 
ATOM     22  C   UNL d   1       0.957  -3.519  -0.695  0.00  0.00     0.013 A 
ENDBRANCH   6  17
TORSDOF 5
