REMARK  4 active torsions:
REMARK  status: ('A' for Active; 'I' for Inactive)
REMARK    1  A    between atoms: C_2  and  S_1 
REMARK    2  A    between atoms: N_3  and  S_1 
REMARK    3  A    between atoms: C_4  and  N_3 
REMARK    4  A    between atoms: N_5  and  C_6 
ROOT
ATOM      1  C   UNL d   1       0.872  -0.152   2.779  0.00  0.00     0.049 A 
ATOM      2  C   UNL d   1       2.205  -0.637   2.756  0.00  0.00     0.052 A 
ATOM      3  C   UNL d   1       0.067  -0.278   3.921  0.00  0.00     0.027 A 
ATOM      4  C   UNL d   1       2.700  -1.176   3.957  0.00  0.00     0.031 A 
ATOM      5  C   UNL d   1       0.583  -0.849   5.081  0.00  0.00     0.002 A 
ATOM      6  C   UNL d   1       1.903  -1.283   5.103  0.00  0.00     0.002 A 
ENDROOT
BRANCH   1   7
ATOM      7  N   UNL d   1       0.271   0.322   1.564  0.00  0.00    -0.179 NA
ATOM      8  H   UNL d   1      -0.499  -0.280   1.270  0.00  0.00     0.146 HD
BRANCH   7   9
ATOM      9  S   UNL d   1      -0.230   1.938   1.552  0.00  0.00     0.252 S 
ATOM     10  O   UNL d   1      -1.564   1.984   2.106  0.00  0.00    -0.205 OA
ATOM     11  O   UNL d   1       0.825   2.805   2.028  0.00  0.00    -0.205 OA
BRANCH   9  12
ATOM     12  C   UNL d   1      -0.457   2.416  -0.155  0.00  0.00     0.115 A 
ATOM     13  S   UNL d   1      -0.402   1.166  -1.323  0.00  0.00    -0.089 SA
ATOM     14  C   UNL d   1      -0.718   2.253  -2.602  0.00  0.00     0.051 A 
ATOM     15  C   UNL d   1      -0.858   3.548  -2.155  0.00  0.00     0.009 A 
ATOM     16  C   UNL d   1      -0.697   3.644  -0.742  0.00  0.00     0.033 A 
ENDBRANCH   9  12
ENDBRANCH   7   9
ENDBRANCH   1   7
BRANCH   2  17
ATOM     17  N   UNL d   1       2.951  -0.670   1.566  0.00  0.00    -0.375 N 
ATOM     18  C   UNL d   1       4.041  -1.655   1.438  0.00  0.00     0.149 C 
ATOM     19  C   UNL d   1       4.403  -1.795  -0.048  0.00  0.00     0.187 C 
ATOM     20  O   UNL d   1       4.833  -0.536  -0.594  0.00  0.00    -0.388 OA
ATOM     21  C   UNL d   1       3.784   0.442  -0.470  0.00  0.00     0.187 C 
ATOM     22  C   UNL d   1       3.344   0.637   0.994  0.00  0.00     0.149 C 
ENDBRANCH   2  17
TORSDOF 4
