REMARK  6 active torsions:
REMARK  status: ('A' for Active; 'I' for Inactive)
REMARK    1  A    between atoms: C_4  and  N_1 
REMARK    2  A    between atoms: C_14  and  C_20 
REMARK    3  A    between atoms: C_16  and  O_19 
REMARK    4  A    between atoms: C_18  and  C_16 
REMARK    5  A    between atoms: C_17  and  O_23 
REMARK    6  A    between atoms: O_19  and  C_20 
ROOT
ATOM      1  C   UNL d   1       1.978   2.549  -0.072  0.00  0.00     0.233 C 
ATOM      2  O   UNL d   1       1.624   3.249   1.140  0.00  0.00    -0.356 OA
ATOM      3  C   UNL d   1       1.534   3.405  -1.251  0.00  0.00     0.088 C 
ATOM      4  C   UNL d   1       1.193   4.587   0.795  0.00  0.00     0.177 C 
ATOM      5  C   UNL d   1       1.600   4.796  -0.666  0.00  0.00     0.153 C 
ENDROOT
BRANCH   1   6
ATOM      6  N   UNL d   1       1.497   1.185   0.003  0.00  0.00    -0.300 N 
ATOM      7  C   UNL d   1       0.280   0.666  -0.347  0.00  0.00     0.144 A 
ATOM      8  C   UNL d   1       0.394  -0.693  -0.128  0.00  0.00     0.146 A 
ATOM      9  N   UNL d   1      -0.793   1.338  -0.833  0.00  0.00    -0.336 N 
ATOM     10  C   UNL d   1      -0.739  -1.540  -0.446  0.00  0.00     0.277 A 
ATOM     11  N   UNL d   1       1.628  -1.023   0.365  0.00  0.00    -0.345 N 
ATOM     12  O   UNL d   1      -0.793  -2.756  -0.306  0.00  0.00    -0.266 OA
ATOM     13  N   UNL d   1      -1.806  -0.815  -0.956  0.00  0.00    -0.318 N 
ATOM     14  C   UNL d   1      -1.790   0.556  -1.121  0.00  0.00     0.185 A 
ATOM     15  H   UNL d   1      -2.620  -1.357  -1.199  0.00  0.00     0.169 HD
ATOM     16  C   UNL d   1       2.262   0.128   0.447  0.00  0.00     0.188 A 
ATOM     17  HN  UNL d   1       1.977  -1.949   0.612  1.00  0.00     0.167 HD
ATOM     18  HN  UNL d   1      -0.816   2.350  -0.960  1.00  0.00     0.168 HD
ENDBRANCH   1   6
BRANCH   4  19
ATOM     19  C   UNL d   1      -0.315   4.697   1.050  0.00  0.00     0.213 C 
BRANCH  19  20
ATOM     20  O   UNL d   1      -0.871   5.963   0.658  0.00  0.00    -0.318 OA
BRANCH  20  21
ATOM     21  C   UNL d   1      -0.768   6.984   1.555  0.00  0.00     0.266 C 
ATOM     22  O   UNL d   1      -0.113   6.915   2.590  0.00  0.00    -0.264 OA
BRANCH  21  23
ATOM     23  C   UNL d   1      -1.593   8.213   1.144  0.00  0.00     0.037 C 
ATOM     24  C   UNL d   1      -2.263   8.047  -0.229  0.00  0.00     0.025 C 
ATOM     25  C   UNL d   1      -2.680   8.438   2.206  0.00  0.00     0.025 C 
ATOM     26  C   UNL d   1      -0.670   9.439   1.096  0.00  0.00     0.025 C 
ENDBRANCH  21  23
ENDBRANCH  20  21
ENDBRANCH  19  20
ENDBRANCH   4  19
BRANCH   5  27
ATOM     27  O   UNL d   1       2.952   5.257  -0.774  0.00  0.00    -0.393 OA
ATOM     28  H   UNL d   1       3.451   4.980   0.015  0.00  0.00     0.210 HD
ENDBRANCH   5  27
TORSDOF 6
