REMARK  5 active torsions:
REMARK  status: ('A' for Active; 'I' for Inactive)
REMARK    1  A    between atoms: N_2  and  C_1 
REMARK       I    between atoms: C_5  and  N_2 
REMARK    2  A    between atoms: C_12  and  C_5 
REMARK    3  A    between atoms: C_6  and  C_13 
REMARK    4  A    between atoms: O_14  and  C_6 
REMARK    5  A    between atoms: C_13  and  C_12 
ROOT
ATOM      1  N   UNL d   1       2.767  -0.660  -0.004  0.00  0.00    -0.326 N 
ATOM      2  C   UNL d   1       3.406  -1.435  -0.956  0.00  0.00     0.222 C 
ATOM      3  O   UNL d   1       2.904  -1.871  -1.988  0.00  0.00    -0.273 OA
ATOM      4  H   UNL d   1       3.349   0.063   0.402  0.00  0.00     0.169 HD
ENDROOT
BRANCH   1   5
ATOM      5  C   UNL d   1       1.387  -0.352  -0.075  0.00  0.00     0.046 A 
ATOM      6  C   UNL d   1       0.402  -1.360  -0.040  0.00  0.00    -0.034 A 
ATOM      7  C   UNL d   1      -0.956  -0.984  -0.014  0.00  0.00     0.015 A 
ATOM      8  C   UNL d   1       0.685  -2.835   0.045  0.00  0.00     0.050 C 
ATOM      9  C   UNL d   1      -1.346   0.358  -0.001  0.00  0.00    -0.061 A 
ATOM     10  C   UNL d   1      -0.360   1.344  -0.038  0.00  0.00     0.015 A 
ATOM     11  C   UNL d   1      -2.800   0.721   0.045  0.00  0.00     0.048 C 
ATOM     12  C   UNL d   1       1.004   1.007  -0.092  0.00  0.00    -0.034 A 
ATOM     13  C   UNL d   1       1.998   2.135  -0.197  0.00  0.00     0.050 C 
ENDBRANCH   1   5
BRANCH   2  14
ATOM     14  C   UNL d   1       4.886  -1.619  -0.685  0.00  0.00     0.113 C 
BRANCH  14  15
ATOM     15  C   UNL d   1       5.690  -1.169  -1.894  0.00  0.00     0.119 C 
BRANCH  15  16
ATOM     16  C   UNL d   1       5.457   0.295  -2.146  0.00  0.00     0.139 C 
ATOM     17  O   UNL d   1       6.083   1.183  -1.586  0.00  0.00    -0.650 OA
BRANCH  16  18
ATOM     18  O   UNL d   1       4.423   0.547  -2.975  0.00  0.00    -0.776 OA
ATOM     19  H   UNL d   1       3.921  -0.250  -3.260  0.00  0.00     0.167 HD
ENDBRANCH  16  18
ENDBRANCH  15  16
ENDBRANCH  14  15
ENDBRANCH   2  14
TORSDOF 5
