REMARK  7 active torsions:
REMARK  status: ('A' for Active; 'I' for Inactive)
REMARK    1  A    between atoms: C_17  and  C_1 
REMARK    2  A    between atoms: C_13  and  C_2 
REMARK    3  A    between atoms: C_3  and  S_8 
REMARK    4  A    between atoms: S_8  and  C_6 
REMARK    5  A    between atoms: S_21  and  C_12 
REMARK    6  A    between atoms: O_25  and  C_17 
REMARK    7  A    between atoms: C_27  and  O_25 
ROOT
ATOM      1  C   UNL d   1      -1.565   1.317   0.021  0.00  0.00     0.072 A 
ATOM      2  C   UNL d   1      -2.206   0.083  -0.041  0.00  0.00     0.134 A 
ATOM      3  N   UNL d   1      -1.480  -1.084  -0.027  0.00  0.00    -0.345 N 
ATOM      4  HN  UNL d   1      -1.960  -1.984  -0.023  1.00  0.00     0.166 HD
ATOM      5  C   UNL d   1      -0.121  -1.037  -0.019  0.00  0.00     0.098 A 
ATOM      6  C   UNL d   1       0.575   0.166  -0.054  0.00  0.00     0.079 A 
ATOM      7  C   UNL d   1      -0.161   1.355  -0.019  0.00  0.00     0.045 A 
ATOM      8  C   UNL d   1       2.001   0.230  -0.097  0.00  0.00     0.102 C 
ATOM      9  N   UNL d   1       3.160   0.311  -0.130  0.00  0.00    -0.191 NA
ENDROOT
BRANCH   5  10
ATOM     10  S   UNL d   1       0.671  -2.609   0.244  0.00  0.00    -0.044 SA
BRANCH  10  11
ATOM     11  C   UNL d   1       0.769  -3.168  -1.405  0.00  0.00     0.135 A 
ATOM     12  S   UNL d   1       0.806  -4.838  -1.790  0.00  0.00    -0.037 SA
ATOM     13  C   UNL d   1       1.051  -4.378  -3.420  0.00  0.00     0.128 A 
ATOM     14  N   UNL d   1       1.063  -3.076  -3.621  0.00  0.00    -0.287 N 
ATOM     15  N   UNL d   1       0.902  -2.367  -2.441  0.00  0.00    -0.286 N 
ATOM     16  HN  UNL d   1       1.178  -2.641  -4.536  1.00  0.00     0.188 HD
ATOM     17  HN  UNL d   1       0.888  -1.349  -2.383  1.00  0.00     0.188 HD
BRANCH  13  18
ATOM     18  S   UNL d   1       1.276  -5.553  -4.695  0.00  0.00    -0.108 SA
ATOM     19  C   UNL d   1       1.798  -4.488  -6.055  0.00  0.00     0.097 C 
ENDBRANCH  13  18
ENDBRANCH  10  11
ENDBRANCH   5  10
BRANCH   1  20
ATOM     20  C   UNL d   1      -2.309   2.573   0.189  0.00  0.00     0.295 C 
ATOM     21  O   UNL d   1      -3.261   2.696   0.938  0.00  0.00    -0.259 OA
BRANCH  20  22
ATOM     22  O   UNL d   1      -1.777   3.496  -0.642  0.00  0.00    -0.318 OA
BRANCH  22  23
ATOM     23  C   UNL d   1      -2.540   4.696  -0.837  0.00  0.00     0.174 C 
ATOM     24  C   UNL d   1      -3.253   4.562  -2.169  0.00  0.00     0.034 C 
ENDBRANCH  22  23
ENDBRANCH  20  22
ENDBRANCH   1  20
BRANCH   2  25
ATOM     25  C   UNL d   1      -3.720  -0.055  -0.171  0.00  0.00     0.433 C 
ATOM     26  F   UNL d   1      -4.375   1.061  -0.592  0.00  0.00    -0.165 F 
ATOM     27  F   UNL d   1      -4.057  -1.003  -1.099  0.00  0.00    -0.165 F 
ATOM     28  F   UNL d   1      -4.320  -0.448   0.987  0.00  0.00    -0.165 F 
ENDBRANCH   2  25
TORSDOF 7
