REMARK  9 active torsions:
REMARK  status: ('A' for Active; 'I' for Inactive)
REMARK    1  A    between atoms: C_11  and  N_9 
REMARK    2  A    between atoms: C_15  and  C_11 
REMARK    3  A    between atoms: N_12  and  C_17 
REMARK    4  A    between atoms: C_19  and  N_12 
REMARK    5  A    between atoms: C_20  and  N_12 
REMARK    6  A    between atoms: C_17  and  C_15 
REMARK    7  A    between atoms: O_21  and  C_15 
REMARK    8  A    between atoms: C_22  and  C_19 
REMARK    9  A    between atoms: C_23  and  C_20 
ROOT
ATOM      1  C   UNL d   1       6.642   4.303   2.127  0.00  0.00     0.145 A 
ATOM      2  C   UNL d   1       5.934   3.148   1.959  0.00  0.00     0.149 A 
ATOM      3  N   UNL d   1       7.902   4.311   2.676  0.00  0.00    -0.287 N 
ATOM      4  N   UNL d   1       7.704   1.943   2.942  0.00  0.00    -0.269 N 
ATOM      5  C   UNL d   1       8.479   3.107   3.086  0.00  0.00     0.332 A 
ATOM      6  C   UNL d   1       6.404   1.889   2.426  0.00  0.00     0.282 A 
ATOM      7  N   UNL d   1       5.943   5.394   1.711  0.00  0.00    -0.336 N 
ATOM      8  HN  UNL d   1       6.236   6.371   1.734  1.00  0.00     0.168 HD
ATOM      9  N   UNL d   1       4.805   3.525   1.287  0.00  0.00    -0.333 N 
ATOM     10  C   UNL d   1       4.804   4.902   1.271  0.00  0.00     0.185 C 
ATOM     11  O   UNL d   1       9.619   3.075   3.560  0.00  0.00    -0.246 OA
ATOM     12  O   UNL d   1       5.726   0.858   2.399  0.00  0.00    -0.265 OA
ATOM     13  C   UNL d   1       8.678   5.529   2.786  0.00  0.00     0.163 C 
ATOM     14  C   UNL d   1       8.255   0.693   3.425  0.00  0.00     0.164 C 
ENDROOT
BRANCH   9  15
ATOM     15  C   UNL d   1       3.786   2.697   0.660  0.00  0.00     0.163 C 
BRANCH  15  16
ATOM     16  C   UNL d   1       3.692   2.923  -0.865  0.00  0.00     0.164 C 
BRANCH  16  17
ATOM     17  C   UNL d   1       4.560   1.958  -1.728  0.00  0.00     0.305 C 
BRANCH  17  18
ATOM     18  N   UNL d   1       4.404   0.510  -1.536  0.00  0.00     0.091 N 
BRANCH  18  19
ATOM     19  C   UNL d   1       3.039  -0.030  -1.735  0.00  0.00     0.276 C 
BRANCH  19  20
ATOM     20  C   UNL d   1       2.511  -0.364  -3.162  0.00  0.00     0.006 C 
ATOM     21  C   UNL d   1       1.134  -1.038  -3.051  0.00  0.00     0.011 C 
ATOM     22  C   UNL d   1       2.384   0.822  -4.117  0.00  0.00     0.011 C 
ENDBRANCH  19  20
ENDBRANCH  18  19
BRANCH  18  23
ATOM     23  C   UNL d   1       5.414  -0.333  -2.208  0.00  0.00     0.276 C 
BRANCH  23  24
ATOM     24  C   UNL d   1       6.916   0.003  -2.027  0.00  0.00     0.006 C 
ATOM     25  C   UNL d   1       7.349   0.110  -0.567  0.00  0.00     0.011 C 
ATOM     26  C   UNL d   1       7.769  -1.069  -2.720  0.00  0.00     0.011 C 
ENDBRANCH  23  24
ENDBRANCH  18  23
ENDBRANCH  17  18
ENDBRANCH  16  17
BRANCH  16  27
ATOM     27  O   UNL d   1       2.314   2.928  -1.258  0.00  0.00    -0.392 OA
ATOM     28  H   UNL d   1       2.249   3.408  -2.102  0.00  0.00     0.210 HD
ENDBRANCH  16  27
ENDBRANCH  15  16
ENDBRANCH   9  15
TORSDOF 9
