REMARK  3 active torsions:
REMARK  status: ('A' for Active; 'I' for Inactive)
REMARK    1  A    between atoms: N_2  and  S_1 
REMARK    2  A    between atoms: C_4  and  S_1 
REMARK    3  A    between atoms: C_3  and  N_2 
ROOT
ATOM      1  S   UNL d   1       0.987   0.157   0.016  0.00  0.00     0.246 S 
ATOM      2  O   UNL d   1       0.124   1.150   0.613  0.00  0.00    -0.206 OA
ATOM      3  O   UNL d   1       2.417   0.150   0.233  0.00  0.00    -0.206 OA
ENDROOT
BRANCH   1   4
ATOM      4  N   UNL d   1       0.646   0.147  -1.660  0.00  0.00    -0.180 NA
ATOM      5  H   UNL d   1      -0.289   0.562  -1.748  0.00  0.00     0.146 HD
BRANCH   4   6
ATOM      6  C   UNL d   1       1.580   0.925  -2.450  0.00  0.00     0.046 A 
ATOM      7  C   UNL d   1       1.366   2.287  -2.728  0.00  0.00     0.077 A 
ATOM      8  C   UNL d   1       2.328   3.001  -3.455  0.00  0.00     0.057 A 
ATOM      9 CL   UNL d   1      -0.107   3.037  -2.203  0.00  0.00    -0.081 Cl
ATOM     10 CL   UNL d   1       2.142   4.674  -3.850  0.00  0.00    -0.082 Cl
ATOM     11  C   UNL d   1       3.491   2.362  -3.897  0.00  0.00     0.026 A 
ATOM     12  C   UNL d   1       3.703   1.013  -3.611  0.00  0.00     0.004 A 
ATOM     13  C   UNL d   1       2.753   0.298  -2.882  0.00  0.00     0.026 A 
ENDBRANCH   4   6
ENDBRANCH   1   4
BRANCH   1  14
ATOM     14  C   UNL d   1       0.371  -1.443   0.495  0.00  0.00     0.076 A 
ATOM     15  C   UNL d   1       1.234  -2.543   0.471  0.00  0.00     0.050 A 
ATOM     16  C   UNL d   1       0.781  -3.786   0.922  0.00  0.00     0.057 A 
ATOM     17 CL   UNL d   1       1.892  -5.108   0.876  0.00  0.00    -0.083 Cl
ATOM     18  C   UNL d   1      -0.530  -3.924   1.399  0.00  0.00     0.055 A 
ATOM     19  C   UNL d   1      -1.385  -2.816   1.421  0.00  0.00     0.027 A 
ATOM     20 CL   UNL d   1      -1.147  -5.426   1.987  0.00  0.00    -0.083 Cl
ATOM     21  C   UNL d   1      -0.936  -1.571   0.974  0.00  0.00     0.026 A 
ENDBRANCH   1  14
TORSDOF 3
