REMARK  2 active torsions:
REMARK  status: ('A' for Active; 'I' for Inactive)
REMARK    1  A    between atoms: N_5  and  C_1 
REMARK    2  A    between atoms: N_8  and  C_2 
ROOT
ATOM      1  C   UNL d   1      -2.285  -2.045   1.157  0.00  0.00     0.116 A 
ATOM      2  C   UNL d   1      -1.805  -1.786   2.419  0.00  0.00     0.112 A 
ATOM      3  C   UNL d   1      -0.911  -2.322   0.649  0.00  0.00     0.252 A 
ATOM      4  C   UNL d   1      -0.402  -2.057   2.009  0.00  0.00     0.252 A 
ATOM      5  O   UNL d   1      -0.374  -2.633  -0.391  0.00  0.00    -0.281 OA
ATOM      6  O   UNL d   1       0.706  -2.034   2.487  0.00  0.00    -0.281 OA
ENDROOT
BRANCH   1   7
ATOM      7  N   UNL d   1      -3.449  -2.030   0.517  0.00  0.00    -0.374 N 
ATOM      8  C   UNL d   1      -4.577  -2.832   1.053  0.00  0.00     0.133 C 
ATOM      9  C   UNL d   1      -5.968  -2.323   0.644  0.00  0.00     0.093 C 
ATOM     10  S   UNL d   1      -6.198  -1.978  -1.133  0.00  0.00    -0.166 SA
ATOM     11  C   UNL d   1      -4.652  -1.060  -1.406  0.00  0.00     0.093 C 
ATOM     12  C   UNL d   1      -3.456  -1.900  -0.959  0.00  0.00     0.133 C 
ENDBRANCH   1   7
BRANCH   2  13
ATOM     13  N   UNL d   1      -2.266  -1.395   3.582  0.00  0.00    -0.394 N 
ATOM     14  H   UNL d   1      -3.215  -1.045   3.694  0.00  0.00     0.156 HD
ATOM     15  H   UNL d   1      -1.647  -1.102   4.340  0.00  0.00     0.156 HD
ENDBRANCH   2  13
TORSDOF 2
