REMARK  6 active torsions:
REMARK  status: ('A' for Active; 'I' for Inactive)
REMARK       I    between atoms: C_2  and  N_1 
REMARK    1  A    between atoms: C_8  and  C_2 
REMARK    2  A    between atoms: C_5  and  C_3 
REMARK    3  A    between atoms: C_6  and  C_5 
REMARK       I    between atoms: N_9  and  C_6 
REMARK    4  A    between atoms: C_20  and  N_9 
REMARK    5  A    between atoms: N_13  and  C_11 
REMARK    6  A    between atoms: O_27  and  C_22 
ROOT
ATOM      1  N   UNL d   1      -1.425  -1.182   0.294  0.00  0.00    -0.333 N 
ATOM      2  C   UNL d   1      -2.224  -2.079   1.010  0.00  0.00     0.254 C 
ATOM      3  C   UNL d   1       0.069  -1.213   0.382  0.00  0.00     0.188 C 
ATOM      4  C   UNL d   1       0.606   0.047   1.113  0.00  0.00     0.241 C 
ATOM      5  N   UNL d   1      -0.069   1.234   0.902  0.00  0.00    -0.358 N 
ATOM      6  O   UNL d   1      -1.762  -2.989   1.698  0.00  0.00    -0.267 OA
ATOM      7  O   UNL d   1       1.679   0.099   1.716  0.00  0.00    -0.271 OA
ATOM      8  C   UNL d   1      -1.912   0.085  -0.282  0.00  0.00     0.147 C 
ATOM      9  C   UNL d   1      -1.473   1.272   0.572  0.00  0.00     0.142 C 
ATOM     10  H   UNL d   1       0.336   2.014   1.408  0.00  0.00     0.162 HD
ENDROOT
BRANCH   3  11
ATOM     11  C   UNL d   1       0.799  -2.447   0.936  0.00  0.00     0.138 C 
BRANCH  11  12
ATOM     12  C   UNL d   1       0.789  -3.615  -0.022  0.00  0.00     0.224 C 
ATOM     13  N   UNL d   1      -0.114  -4.610   0.310  0.00  0.00    -0.327 N 
ATOM     14  H   UNL d   1      -0.849  -4.337   0.965  0.00  0.00     0.169 HD
ATOM     15  O   UNL d   1       1.530  -3.612  -1.002  0.00  0.00    -0.273 OA
BRANCH  13  16
ATOM     16  C   UNL d   1      -0.264  -5.838  -0.365  0.00  0.00     0.034 A 
ATOM     17  C   UNL d   1       0.751  -6.393  -1.147  0.00  0.00     0.032 A 
ATOM     18  C   UNL d   1       0.530  -7.563  -1.880  0.00  0.00     0.039 A 
ATOM     19  C   UNL d   1      -0.715  -8.182  -1.848  0.00  0.00     0.068 A 
ATOM     20  C   UNL d   1      -1.701  -7.691  -0.991  0.00  0.00     0.039 A 
ATOM     21  C   UNL d   1      -1.476  -6.525  -0.245  0.00  0.00     0.032 A 
BRANCH  19  22
ATOM     22  O   UNL d   1      -1.039  -9.287  -2.587  0.00  0.00    -0.356 OA
ATOM     23  C   UNL d   1      -0.503  -9.271  -3.910  0.00  0.00     0.210 C 
ENDBRANCH  19  22
ENDBRANCH  13  16
ENDBRANCH  11  12
ENDBRANCH   3  11
BRANCH   2  24
ATOM     24  C   UNL d   1      -3.710  -2.010   0.975  0.00  0.00     0.032 A 
ATOM     25  C   UNL d   1      -4.436  -1.730  -0.178  0.00  0.00     0.019 A 
ATOM     26  C   UNL d   1      -5.834  -1.620  -0.125  0.00  0.00     0.030 A 
ATOM     27  C   UNL d   1      -6.568  -1.889   1.042  0.00  0.00     0.029 A 
ATOM     28  C   UNL d   1      -5.814  -2.288   2.157  0.00  0.00     0.030 A 
ATOM     29  C   UNL d   1      -4.412  -2.334   2.136  0.00  0.00     0.019 A 
BRANCH  27  30
ATOM     30  N   UNL d   1      -7.949  -1.809   1.085  0.00  0.00    -0.390 N 
ATOM     31  C   UNL d   1      -8.673  -1.562   2.330  0.00  0.00     0.149 C 
ATOM     32  C   UNL d   1      -8.773  -1.770  -0.120  0.00  0.00     0.149 C 
ENDBRANCH  27  30
ENDBRANCH   2  24
TORSDOF 6
