REMARK  1 active torsions:
REMARK  status: ('A' for Active; 'I' for Inactive)
REMARK    1  A    between atoms: C_10  and  N_1 
ROOT
ATOM      1  N   UNL d   1       0.924   0.273   0.016  0.00  0.00    -0.372 N 
ATOM      2  C   UNL d   1      -1.384   0.040  -0.221  0.00  0.00    -0.032 A 
ATOM      3  C   UNL d   1      -1.109   1.400  -0.114  0.00  0.00    -0.032 A 
ATOM      4  C   UNL d   1      -0.114  -0.757  -0.171  0.00  0.00     0.162 A 
ATOM      5  C   UNL d   1       0.359   1.630   0.043  0.00  0.00     0.162 A 
ATOM      6  C   UNL d   1      -2.687  -0.409  -0.380  0.00  0.00     0.016 A 
ATOM      7  C   UNL d   1      -2.118   2.346  -0.180  0.00  0.00     0.016 A 
ATOM      8  C   UNL d   1      -3.443   1.919  -0.356  0.00  0.00    -0.056 A 
ATOM      9  C   UNL d   1      -3.732   0.533  -0.444  0.00  0.00    -0.056 A 
ATOM     10  C   UNL d   1      -4.529   2.955  -0.469  0.00  0.00     0.049 C 
ATOM     11  C   UNL d   1      -5.144   0.047  -0.636  0.00  0.00     0.049 C 
ENDROOT
BRANCH   1  12
ATOM     12  C   UNL d   1       2.280   0.040  -0.076  0.00  0.00     0.030 A 
ATOM     13  C   UNL d   1       2.805  -1.236  -0.330  0.00  0.00     0.029 A 
ATOM     14  C   UNL d   1       4.184  -1.462  -0.447  0.00  0.00     0.002 A 
ATOM     15  C   UNL d   1       5.080  -0.411  -0.297  0.00  0.00     0.000 A 
ATOM     16  C   UNL d   1       4.595   0.860  -0.022  0.00  0.00     0.002 A 
ATOM     17  C   UNL d   1       3.216   1.075   0.088  0.00  0.00     0.029 A 
ENDBRANCH   1  12
TORSDOF 1
