REMARK  5 active torsions:
REMARK  status: ('A' for Active; 'I' for Inactive)
REMARK    1  A    between atoms: N_4  and  C_1 
REMARK    2  A    between atoms: C_12  and  N_5 
REMARK    3  A    between atoms: C_9  and  C_11 
REMARK    4  A    between atoms: C_15  and  C_10 
REMARK    5  A    between atoms: C_11  and  C_12 
ROOT
ATOM      1  C   UNL d   1      -2.188  -2.660   0.007  0.00  0.00     0.184 C 
ATOM      2  O   UNL d   1      -2.539  -3.838   0.102  0.00  0.00    -0.290 OA
ENDROOT
BRANCH   1   3
ATOM      3  C   UNL d   1      -3.122  -1.549  -0.103  0.00  0.00     0.053 A 
ATOM      4  S   UNL d   1      -4.674  -1.718   0.594  0.00  0.00    -0.086 SA
ATOM      5  C   UNL d   1      -5.112  -0.100   0.231  0.00  0.00     0.017 A 
ATOM      6  C   UNL d   1      -4.108   0.528  -0.482  0.00  0.00     0.021 A 
ATOM      7  C   UNL d   1      -2.970  -0.309  -0.689  0.00  0.00     0.024 A 
BRANCH   5   8
ATOM      8  C   UNL d   1      -6.390   0.448   0.701  0.00  0.00    -0.004 A 
ATOM      9  C   UNL d   1      -6.485   1.773   1.127  0.00  0.00     0.100 A 
ATOM     10  N   UNL d   1      -7.618   2.361   1.580  0.00  0.00    -0.374 N 
ATOM     11  C   UNL d   1      -8.723   1.589   1.624  0.00  0.00     0.087 A 
ATOM     12  HN  UNL d   1      -7.634   3.338   1.873  1.00  0.00     0.164 HD
ATOM     13  C   UNL d   1      -8.746   0.263   1.226  0.00  0.00     0.018 A 
ATOM     14  C   UNL d   1      -7.567  -0.310   0.757  0.00  0.00     0.015 A 
ENDBRANCH   5   8
ENDBRANCH   1   3
BRANCH   1  15
ATOM     15  C   UNL d   1      -0.713  -2.335   0.005  0.00  0.00     0.214 C 
BRANCH  15  16
ATOM     16  N   UNL d   1      -0.282  -1.589   1.177  0.00  0.00    -0.336 N 
ATOM     17  C   UNL d   1       0.111  -0.275   1.167  0.00  0.00     0.147 A 
ATOM     18  C   UNL d   1       0.749  -0.089   2.374  0.00  0.00     0.190 A 
ATOM     19  N   UNL d   1       0.650  -1.218   3.157  0.00  0.00    -0.326 N 
ATOM     20  C   UNL d   1      -0.016  -2.099   2.432  0.00  0.00     0.081 A 
ATOM     21  HN  UNL d   1       1.016  -1.348   4.100  1.00  0.00     0.169 HD
ATOM     22  C   UNL d   1      -0.418  -3.456   2.889  0.00  0.00     0.089 C 
BRANCH  18  23
ATOM     23  N   UNL d   1       1.473   1.083   2.811  0.00  0.00    -0.096 N 
ATOM     24  O   UNL d   1       1.398   2.082   2.078  0.00  0.00    -0.530 OA
ATOM     25  O   UNL d   1       2.135   1.004   3.854  0.00  0.00    -0.530 OA
ENDBRANCH  18  23
ENDBRANCH  15  16
ENDBRANCH   1  15
TORSDOF 5
