REMARK  3 active torsions:
REMARK  status: ('A' for Active; 'I' for Inactive)
REMARK    1  A    between atoms: N_2  and  S_1 
REMARK    2  A    between atoms: C_3  and  S_1 
REMARK    3  A    between atoms: C_10  and  N_2 
ROOT
ATOM      1  N   UNL d   1       2.356  -2.797  -7.173  0.00  0.00    -0.191 NA
ATOM      2  C   UNL d   1       2.047  -2.606  -6.071  0.00  0.00     0.099 C 
ATOM      3  C   UNL d   1       0.907  -1.863  -2.067  0.00  0.00     0.042 A 
ATOM      4  C   UNL d   1       1.659  -2.363  -4.712  0.00  0.00     0.044 A 
ATOM      5  C   UNL d   1       2.133  -2.470  -2.339  0.00  0.00     0.031 A 
ATOM      6  C   UNL d   1       0.053  -1.506  -3.109  0.00  0.00     0.031 A 
ATOM      7  C   UNL d   1       2.504  -2.733  -3.660  0.00  0.00     0.025 A 
ATOM      8  C   UNL d   1       0.434  -1.745  -4.433  0.00  0.00     0.025 A 
ENDROOT
BRANCH   3   9
ATOM      9  N   UNL d   1       0.568  -1.548  -0.725  0.00  0.00    -0.281 N 
ATOM     10  H   UNL d   1      -0.370  -1.780  -0.401  0.00  0.00     0.179 HD
BRANCH   9  11
ATOM     11  S   UNL d   1       1.138  -0.100  -0.062  0.00  0.00     0.263 S 
ATOM     12  O   UNL d   1       2.570  -0.017  -0.249  0.00  0.00    -0.200 OA
ATOM     13  O   UNL d   1       0.538   0.009   1.250  0.00  0.00    -0.200 OA
BRANCH  11  14
ATOM     14  C   UNL d   1       0.379   1.146  -1.092  0.00  0.00     0.080 A 
ATOM     15  C   UNL d   1      -0.891   1.637  -0.753  0.00  0.00     0.028 A 
ATOM     16  C   UNL d   1      -1.480   2.617  -1.552  0.00  0.00     0.044 A 
ATOM     17  C   UNL d   1      -0.801   3.099  -2.667  0.00  0.00     0.116 A 
ATOM     18  C   UNL d   1       0.468   2.625  -2.997  0.00  0.00     0.044 A 
ATOM     19  F   UNL d   1      -1.373   4.035  -3.434  0.00  0.00    -0.206 F 
ATOM     20  C   UNL d   1       1.069   1.649  -2.199  0.00  0.00     0.028 A 
ENDBRANCH  11  14
ENDBRANCH   9  11
ENDBRANCH   3   9
TORSDOF 3
