REMARK  1 active torsions:
REMARK  status: ('A' for Active; 'I' for Inactive)
REMARK    1  A    between atoms: C_5  and  C_1 
REMARK       I    between atoms: N_8  and  C_5 
ROOT
ATOM      1  C   UNL d   1       1.054   0.656  -0.043  0.00  0.00     0.046 C 
ATOM      2  C   UNL d   1      -0.328   1.210   0.149  0.00  0.00     0.183 C 
ATOM      3  N   UNL d   1      -1.218   0.006   0.035  0.00  0.00     0.109 N 
ATOM      4  C   UNL d   1       1.038  -0.682  -0.006  0.00  0.00     0.029 C 
ATOM      5  C   UNL d   1      -0.354  -1.194   0.164  0.00  0.00     0.170 C 
ATOM      6  C   UNL d   1      -0.741   2.239  -0.914  0.00  0.00     0.054 C 
ATOM      7  C   UNL d   1      -0.529   1.814   1.548  0.00  0.00     0.054 C 
ATOM      8  C   UNL d   1      -0.552  -1.822   1.547  0.00  0.00     0.053 C 
ATOM      9  C   UNL d   1      -0.685  -2.220  -0.926  0.00  0.00     0.053 C 
ATOM     10  H   UNL d   1      -1.632   0.008  -0.896  0.00  0.00     0.318 HD
ENDROOT
BRANCH   1  11
ATOM     11  C   UNL d   1       2.250   1.504  -0.191  0.00  0.00     0.247 C 
ATOM     12  O   UNL d   1       2.265   2.688   0.117  0.00  0.00    -0.268 OA
ATOM     13  N   UNL d   1       3.339   0.906  -0.749  0.00  0.00    -0.366 N 
ATOM     14  H   UNL d   1       3.325  -0.031  -1.123  0.00  0.00     0.159 HD
ATOM     15  H   UNL d   1       4.155   1.476  -0.905  0.00  0.00     0.159 HD
ENDBRANCH   1  11
TORSDOF 1
