REMARK  4 active torsions:
REMARK  status: ('A' for Active; 'I' for Inactive)
REMARK    1  A    between atoms: C_6  and  C_1 
REMARK    2  A    between atoms: C_13  and  C_4 
REMARK       I    between atoms: N_8  and  C_6 
REMARK    3  A    between atoms: N_10  and  N_8 
REMARK    4  A    between atoms: C_9  and  N_10 
ROOT
ATOM      1  C   UNL d   1       0.295  -2.720   0.157  0.00  0.00     0.271 C 
ATOM      2  N   UNL d   1      -0.378  -3.511   1.073  0.00  0.00    -0.282 N 
ATOM      3  O   UNL d   1       1.181  -3.148  -0.581  0.00  0.00    -0.266 OA
ATOM      4  H   UNL d   1      -0.906  -3.096   1.835  0.00  0.00     0.184 HD
ENDROOT
BRANCH   1   5
ATOM      5  C   UNL d   1      -0.106  -1.330   0.132  0.00  0.00     0.093 A 
ATOM      6  C   UNL d   1      -1.389  -0.690   0.184  0.00  0.00     0.083 A 
ATOM      7  N   UNL d   1      -1.234   0.646   0.108  0.00  0.00    -0.259 N 
ATOM      8  O   UNL d   1       0.110   0.890  -0.005  0.00  0.00    -0.241 OA
ATOM      9  HN  UNL d   1      -1.976   1.344   0.131  1.00  0.00     0.195 HD
ATOM     10  C   UNL d   1       0.785  -0.281   0.010  0.00  0.00     0.090 A 
ATOM     11  C   UNL d   1       2.258  -0.175  -0.067  0.00  0.00     0.080 C 
BRANCH   6  12
ATOM     12  C   UNL d   1      -2.747  -1.240   0.276  0.00  0.00    -0.006 A 
ATOM     13  C   UNL d   1      -3.083  -2.507  -0.218  0.00  0.00     0.014 A 
ATOM     14  C   UNL d   1      -4.395  -2.988  -0.117  0.00  0.00     0.001 A 
ATOM     15  C   UNL d   1      -5.393  -2.199   0.451  0.00  0.00     0.000 A 
ATOM     16  C   UNL d   1      -5.083  -0.928   0.924  0.00  0.00     0.001 A 
ATOM     17  C   UNL d   1      -3.771  -0.457   0.841  0.00  0.00     0.014 A 
ENDBRANCH   6  12
ENDBRANCH   1   5
BRANCH   2  18
ATOM     18  N   UNL d   1       0.053  -4.841   1.218  0.00  0.00    -0.200 NA
ATOM     19  H   UNL d   1      -0.029  -5.379   0.352  0.00  0.00     0.153 HD
BRANCH  18  20
ATOM     20  C   UNL d   1      -0.366  -5.523   2.382  0.00  0.00     0.066 A 
ATOM     21  C   UNL d   1      -0.592  -4.886   3.617  0.00  0.00     0.142 A 
ATOM     22  C   UNL d   1      -0.889  -5.601   4.773  0.00  0.00     0.086 A 
ATOM     23  F   UNL d   1      -0.522  -3.547   3.705  0.00  0.00    -0.204 F 
ATOM     24  C   UNL d   1      -0.956  -6.983   4.708  0.00  0.00     0.119 A 
ATOM     25  C   UNL d   1      -0.720  -7.655   3.515  0.00  0.00     0.044 A 
ATOM     26  F   UNL d   1      -1.238  -7.684   5.814  0.00  0.00    -0.206 F 
ATOM     27  C   UNL d   1      -0.412  -6.928   2.359  0.00  0.00     0.031 A 
ENDBRANCH  18  20
ENDBRANCH   2  18
TORSDOF 4
