REMARK  2 active torsions:
REMARK  status: ('A' for Active; 'I' for Inactive)
REMARK    1  A    between atoms: C_5  and  N_2 
REMARK    2  A    between atoms: C_8  and  C_5 
ROOT
ATOM      1  C   UNL d   1      -1.288  -0.134  -0.863  0.00  0.00     0.170 C 
ATOM      2  N   UNL d   1      -0.477  -0.979  -0.110  0.00  0.00    -0.353 N 
ATOM      3  N   UNL d   1      -1.448   1.049  -0.151  0.00  0.00    -0.366 N 
ATOM      4  S   UNL d   1      -2.016  -0.393  -2.325  0.00  0.00    -0.041 SA
ATOM      5  C   UNL d   1      -0.017  -0.299   1.088  0.00  0.00     0.145 C 
ATOM      6  C   UNL d   1      -0.931   0.913   1.184  0.00  0.00     0.142 C 
ATOM      7  H   UNL d   1      -2.122   1.744  -0.450  0.00  0.00     0.161 HD
ENDROOT
BRANCH   2   8
ATOM      8  C   UNL d   1      -0.076  -2.347  -0.419  0.00  0.00     0.164 C 
BRANCH   8   9
ATOM      9  C   UNL d   1       1.418  -2.517  -0.546  0.00  0.00    -0.040 A 
ATOM     10  C   UNL d   1       2.203  -2.807   0.580  0.00  0.00     0.009 A 
ATOM     11  C   UNL d   1       3.586  -2.949   0.466  0.00  0.00     0.001 A 
ATOM     12  C   UNL d   1       4.200  -2.810  -0.779  0.00  0.00     0.000 A 
ATOM     13  C   UNL d   1       3.430  -2.525  -1.905  0.00  0.00     0.001 A 
ATOM     14  C   UNL d   1       2.048  -2.371  -1.790  0.00  0.00     0.009 A 
ENDBRANCH   8   9
ENDBRANCH   2   8
TORSDOF 2
