REMARK  7 active torsions:
REMARK  status: ('A' for Active; 'I' for Inactive)
REMARK    1  A    between atoms: C_2  and  C_1 
REMARK       I    between atoms: N_4  and  C_1 
REMARK    2  A    between atoms: C_6  and  C_3 
REMARK    3  A    between atoms: C_11  and  N_4 
REMARK    4  A    between atoms: C_5  and  C_7 
REMARK    5  A    between atoms: O_14  and  C_5 
REMARK    6  A    between atoms: O_15  and  C_6 
REMARK    7  A    between atoms: C_19  and  O_14 
ROOT
ATOM      1  C   UNL d   1      -3.926   4.299   0.257  0.00  0.00     0.039 A 
ATOM      2  C   UNL d   1      -1.117   4.112   0.113  0.00  0.00     0.035 A 
ATOM      3  C   UNL d   1      -3.234   3.423   1.100  0.00  0.00     0.020 A 
ATOM      4  C   UNL d   1      -3.204   5.113  -0.621  0.00  0.00     0.020 A 
ATOM      5  C   UNL d   1      -1.811   5.020  -0.688  0.00  0.00     0.030 A 
ATOM      6  C   UNL d   1      -1.838   3.327   1.022  0.00  0.00     0.030 A 
ENDROOT
BRANCH   2   7
ATOM      7  N   UNL d   1       0.276   3.893   0.011  0.00  0.00    -0.323 N 
ATOM      8  C   UNL d   1       1.165   4.619  -0.754  0.00  0.00     0.252 C 
ATOM      9  O   UNL d   1       0.913   5.664  -1.347  0.00  0.00    -0.268 OA
ATOM     10  H   UNL d   1       0.621   3.087   0.513  0.00  0.00     0.169 HD
BRANCH   8  11
ATOM     11  C   UNL d   1       2.552   4.048  -0.843  0.00  0.00     0.012 C 
ATOM     12  C   UNL d   1       3.234   4.447  -1.935  0.00  0.00     0.093 C 
ATOM     13  C   UNL d   1       3.102   3.166   0.234  0.00  0.00     0.054 C 
BRANCH  12  14
ATOM     14  C   UNL d   1       4.601   4.001  -2.249  0.00  0.00     0.165 C 
ATOM     15  O   UNL d   1       5.097   2.959  -1.868  0.00  0.00    -0.647 OA
BRANCH  14  16
ATOM     16  O   UNL d   1       5.248   4.891  -3.029  0.00  0.00    -0.773 OA
ATOM     17  H   UNL d   1       4.763   5.719  -3.207  0.00  0.00     0.167 HD
ENDBRANCH  14  16
ENDBRANCH  12  14
ENDBRANCH   8  11
ENDBRANCH   2   7
BRANCH   1  18
ATOM     18  C   UNL d   1      -5.414   4.255   0.239  0.00  0.00     0.293 C 
ATOM     19  O   UNL d   1      -6.079   3.493   0.921  0.00  0.00    -0.259 OA
BRANCH  18  20
ATOM     20  O   UNL d   1      -5.875   5.078  -0.734  0.00  0.00    -0.318 OA
BRANCH  20  21
ATOM     21  C   UNL d   1      -7.201   4.817  -1.210  0.00  0.00     0.174 C 
ATOM     22  C   UNL d   1      -7.106   3.814  -2.346  0.00  0.00     0.034 C 
ENDBRANCH  20  21
ENDBRANCH  18  20
ENDBRANCH   1  18
TORSDOF 7
