REMARK  4 active torsions:
REMARK  status: ('A' for Active; 'I' for Inactive)
REMARK    1  A    between atoms: C_2  and  C_1 
REMARK       I    between atoms: N_3  and  C_1 
REMARK    2  A    between atoms: N_5  and  N_3 
REMARK    3  A    between atoms: C_10  and  N_5 
REMARK    4  A    between atoms: O_16  and  C_11 
ROOT
ATOM      1  N   UNL d   1      -0.966   1.071  -0.876  0.00  0.00    -0.203 NA
ATOM      2  H   UNL d   1      -1.468   0.261  -0.484  0.00  0.00     0.153 HD
ENDROOT
BRANCH   1   3
ATOM      3  N   UNL d   1       0.376   0.725  -1.131  0.00  0.00    -0.282 N 
ATOM      4  C   UNL d   1       0.913  -0.339  -0.418  0.00  0.00     0.273 C 
ATOM      5  O   UNL d   1       0.193  -1.087   0.246  0.00  0.00    -0.266 OA
ATOM      6  H   UNL d   1       0.980   1.483  -1.433  0.00  0.00     0.184 HD
BRANCH   4   7
ATOM      7  C   UNL d   1       2.358  -0.502  -0.508  0.00  0.00     0.073 A 
ATOM      8  S   UNL d   1       3.322   0.416  -1.589  0.00  0.00    -0.097 SA
ATOM      9  C   UNL d   1       4.748  -0.412  -1.136  0.00  0.00     0.050 A 
ATOM     10  C   UNL d   1       4.510  -1.349  -0.157  0.00  0.00     0.009 A 
ATOM     11  C   UNL d   1       3.135  -1.397   0.209  0.00  0.00     0.025 A 
ENDBRANCH   4   7
ENDBRANCH   1   3
BRANCH   1  12
ATOM     12  C   UNL d   1      -1.665   1.557  -2.008  0.00  0.00     0.027 A 
ATOM     13  C   UNL d   1      -1.287   1.300  -3.333  0.00  0.00     0.028 A 
ATOM     14  C   UNL d   1      -2.035   1.811  -4.406  0.00  0.00     0.038 A 
ATOM     15  C   UNL d   1      -3.176   2.573  -4.163  0.00  0.00     0.068 A 
ATOM     16  C   UNL d   1      -3.598   2.773  -2.850  0.00  0.00     0.038 A 
ATOM     17  C   UNL d   1      -2.852   2.266  -1.783  0.00  0.00     0.028 A 
BRANCH  15  18
ATOM     18  O   UNL d   1      -3.974   3.126  -5.126  0.00  0.00    -0.356 OA
ATOM     19  C   UNL d   1      -3.306   3.505  -6.324  0.00  0.00     0.210 C 
ENDBRANCH  15  18
ENDBRANCH   1  12
TORSDOF 4
