REMARK  8 active torsions:
REMARK  status: ('A' for Active; 'I' for Inactive)
REMARK       I    between atoms: N_4  and  C_1 
REMARK    1  A    between atoms: C_5  and  C_1 
REMARK    2  A    between atoms: C_2  and  C_5 
REMARK    3  A    between atoms: C_6  and  C_2 
REMARK    4  A    between atoms: C_10  and  C_2 
REMARK    5  A    between atoms: C_3  and  C_6 
REMARK    6  A    between atoms: O_15  and  C_3 
REMARK    7  A    between atoms: C_14  and  N_4 
REMARK    8  A    between atoms: C_11  and  C_7 
ROOT
ATOM      1  C   UNL d   1       1.306  -0.077   0.092  0.00  0.00     0.222 C 
ATOM      2  N   UNL d   1       0.980  -0.166  -1.254  0.00  0.00    -0.327 N 
ATOM      3  O   UNL d   1       2.316  -0.510   0.636  0.00  0.00    -0.273 OA
ATOM      4  H   UNL d   1       0.047   0.126  -1.520  0.00  0.00     0.169 HD
ENDROOT
BRANCH   1   5
ATOM      5  C   UNL d   1       0.201   0.606   0.869  0.00  0.00     0.113 C 
BRANCH   5   6
ATOM      6  C   UNL d   1       0.511   0.898   2.354  0.00  0.00     0.037 C 
BRANCH   6   7
ATOM      7  C   UNL d   1       1.763   1.781   2.580  0.00  0.00     0.119 C 
BRANCH   7   8
ATOM      8  C   UNL d   1       1.647   3.201   2.079  0.00  0.00     0.140 C 
ATOM      9  O   UNL d   1       0.924   3.573   1.166  0.00  0.00    -0.650 OA
BRANCH   8  10
ATOM     10  O   UNL d   1       2.503   4.044   2.704  0.00  0.00    -0.776 OA
ATOM     11  H   UNL d   1       3.059   3.616   3.383  0.00  0.00     0.167 HD
ENDBRANCH   8  10
ENDBRANCH   7   8
ENDBRANCH   6   7
BRANCH   6  12
ATOM     12  C   UNL d   1      -0.711   1.419   3.124  0.00  0.00    -0.053 A 
ATOM     13  C   UNL d   1      -1.929   1.723   2.492  0.00  0.00     0.007 A 
ATOM     14  C   UNL d   1      -3.038   2.157   3.219  0.00  0.00     0.001 A 
ATOM     15  C   UNL d   1      -2.948   2.316   4.596  0.00  0.00     0.000 A 
ATOM     16  C   UNL d   1      -1.752   2.031   5.245  0.00  0.00     0.001 A 
ATOM     17  C   UNL d   1      -0.647   1.576   4.520  0.00  0.00     0.007 A 
ENDBRANCH   6  12
ENDBRANCH   5   6
ENDBRANCH   1   5
BRANCH   2  18
ATOM     18  C   UNL d   1       1.788  -0.666  -2.292  0.00  0.00     0.034 A 
ATOM     19  C   UNL d   1       3.120  -1.018  -2.114  0.00  0.00     0.030 A 
ATOM     20  C   UNL d   1       3.865  -1.527  -3.179  0.00  0.00     0.014 A 
ATOM     21  C   UNL d   1       3.303  -1.731  -4.449  0.00  0.00    -0.026 A 
ATOM     22  C   UNL d   1       1.968  -1.333  -4.626  0.00  0.00     0.014 A 
ATOM     23  C   UNL d   1       1.221  -0.801  -3.564  0.00  0.00     0.030 A 
BRANCH  21  24
ATOM     24  C   UNL d   1       4.092  -2.374  -5.523  0.00  0.00    -0.026 A 
ATOM     25  C   UNL d   1       3.953  -2.023  -6.876  0.00  0.00     0.012 A 
ATOM     26  C   UNL d   1       4.713  -2.653  -7.870  0.00  0.00     0.001 A 
ATOM     27  C   UNL d   1       5.635  -3.640  -7.530  0.00  0.00     0.000 A 
ATOM     28  C   UNL d   1       5.793  -4.006  -6.199  0.00  0.00     0.001 A 
ATOM     29  C   UNL d   1       5.024  -3.387  -5.215  0.00  0.00     0.012 A 
ENDBRANCH  21  24
ENDBRANCH   2  18
TORSDOF 8
