REMARK  9 active torsions:
REMARK  status: ('A' for Active; 'I' for Inactive)
REMARK    1  A    between atoms: C_3  and  C_1 
REMARK    2  A    between atoms: O_4  and  C_2 
REMARK    3  A    between atoms: N_6  and  C_3 
REMARK    4  A    between atoms: C_11  and  O_4 
REMARK       I    between atoms: C_5  and  N_6 
REMARK    5  A    between atoms: C_12  and  C_5 
REMARK    6  A    between atoms: C_7  and  C_13 
REMARK    7  A    between atoms: O_16  and  C_7 
REMARK    8  A    between atoms: C_13  and  C_12 
REMARK    9  A    between atoms: O_22  and  C_15 
ROOT
ATOM      1  C   UNL d   1       0.183   1.160  -0.097  0.00  0.00     0.015 C 
ATOM      2  C   UNL d   1       1.594   1.230  -0.089  0.00  0.00     0.085 C 
ATOM      3  C   UNL d   1      -0.403  -0.124  -0.029  0.00  0.00     0.044 C 
ATOM      4 CL   UNL d   1      -2.115  -0.369   0.038  0.00  0.00    -0.084 Cl
ATOM      5  C   UNL d   1       2.360   0.050  -0.175  0.00  0.00     0.038 C 
ATOM      6  C   UNL d   1       1.761  -1.201  -0.111  0.00  0.00     0.004 C 
ATOM      7  C   UNL d   1       0.381  -1.286  -0.013  0.00  0.00     0.024 C 
ENDROOT
BRANCH   1   8
ATOM      8  C   UNL d   1      -0.669   2.396  -0.265  0.00  0.00     0.165 C 
BRANCH   8   9
ATOM      9  N   UNL d   1      -0.686   3.275   0.884  0.00  0.00    -0.357 N 
ATOM     10  C   UNL d   1      -1.831   3.966   1.222  0.00  0.00     0.218 C 
ATOM     11  O   UNL d   1      -2.922   3.789   0.683  0.00  0.00    -0.274 OA
ATOM     12  H   UNL d   1       0.208   3.624   1.210  0.00  0.00     0.162 HD
BRANCH  10  13
ATOM     13  C   UNL d   1      -1.628   5.011   2.295  0.00  0.00     0.113 C 
BRANCH  13  14
ATOM     14  C   UNL d   1      -2.934   5.280   3.038  0.00  0.00     0.119 C 
BRANCH  14  15
ATOM     15  C   UNL d   1      -2.741   6.289   4.140  0.00  0.00     0.139 C 
ATOM     16  O   UNL d   1      -1.693   6.845   4.405  0.00  0.00    -0.650 OA
BRANCH  15  17
ATOM     17  O   UNL d   1      -3.883   6.523   4.830  0.00  0.00    -0.776 OA
ATOM     18  H   UNL d   1      -4.649   6.011   4.507  0.00  0.00     0.167 HD
ENDBRANCH  15  17
ENDBRANCH  14  15
ENDBRANCH  13  14
ENDBRANCH  10  13
ENDBRANCH   8   9
ENDBRANCH   1   8
BRANCH   2  19
ATOM     19  O   UNL d   1       2.212   2.474  -0.008  0.00  0.00    -0.310 OA
BRANCH  19  20
ATOM     20  C   UNL d   1       3.443   2.518   0.627  0.00  0.00     0.076 A 
ATOM     21  C   UNL d   1       4.490   3.191  -0.003  0.00  0.00     0.040 A 
ATOM     22  C   UNL d   1       5.789   3.120   0.524  0.00  0.00     0.039 A 
ATOM     23  C   UNL d   1       6.037   2.377   1.681  0.00  0.00     0.068 A 
ATOM     24  C   UNL d   1       4.970   1.782   2.355  0.00  0.00     0.039 A 
ATOM     25  C   UNL d   1       3.673   1.870   1.847  0.00  0.00     0.040 A 
BRANCH  23  26
ATOM     26  O   UNL d   1       7.260   2.197   2.266  0.00  0.00    -0.356 OA
ATOM     27  C   UNL d   1       8.378   2.197   1.385  0.00  0.00     0.210 C 
ENDBRANCH  23  26
ENDBRANCH  19  20
ENDBRANCH   2  19
TORSDOF 9
