REMARK  0 active torsions:
REMARK  status: ('A' for Active; 'I' for Inactive)
ROOT
ATOM      1  C   UNL d   1      -2.491   0.741  -0.347  0.00  0.00     0.258 C 
ATOM      2  C   UNL d   1      -2.498  -0.766  -0.118  0.00  0.00     0.271 C 
ATOM      3  N   UNL d   1      -1.257  -1.417  -0.152  0.00  0.00    -0.318 N 
ATOM      4  C   UNL d   1      -1.235   1.455   0.062  0.00  0.00     0.210 C 
ATOM      5  C   UNL d   1       0.018   0.680   0.005  0.00  0.00     0.041 A 
ATOM      6  C   UNL d   1      -0.018  -0.713  -0.128  0.00  0.00     0.050 A 
ATOM      7  O   UNL d   1      -3.547  -1.407   0.006  0.00  0.00    -0.269 OA
ATOM      8 CL   UNL d   1      -2.691   0.991  -2.118  0.00  0.00    -0.082 Cl
ATOM      9 CL   UNL d   1      -3.885   1.475   0.507  0.00  0.00    -0.082 Cl
ATOM     10  O   UNL d   1      -1.170   2.650   0.355  0.00  0.00    -0.288 OA
ATOM     11  C   UNL d   1      -1.256  -2.877  -0.189  0.00  0.00     0.159 C 
ATOM     12  C   UNL d   1       1.241   1.370   0.081  0.00  0.00     0.017 A 
ATOM     13  C   UNL d   1       1.210  -1.393  -0.195  0.00  0.00     0.031 A 
ATOM     14  C   UNL d   1       2.444   0.676   0.016  0.00  0.00     0.001 A 
ATOM     15  C   UNL d   1       2.428  -0.706  -0.126  0.00  0.00     0.002 A 
ENDROOT
TORSDOF 0
