REMARK  6 active torsions:
REMARK  status: ('A' for Active; 'I' for Inactive)
REMARK    1  A    between atoms: C_3  and  C_1 
REMARK    2  A    between atoms: C_6  and  C_2 
REMARK    3  A    between atoms: C_19  and  C_12 
REMARK    4  A    between atoms: O_16  and  C_19 
REMARK    5  A    between atoms: C_17  and  O_16 
REMARK    6  A    between atoms: O_22  and  C_18 
ROOT
ATOM      1  C   UNL d   1      -0.011  -2.701   0.018  0.00  0.00     0.054 A 
ATOM      2  N   UNL d   1       0.725  -3.220   1.071  0.00  0.00    -0.351 N 
ATOM      3  HN  UNL d   1       1.076  -2.676   1.859  1.00  0.00     0.166 HD
ATOM      4  C   UNL d   1      -0.463  -3.638  -0.891  0.00  0.00     0.082 A 
ATOM      5  C   UNL d   1       0.908  -4.519   0.912  0.00  0.00     0.075 A 
ATOM      6  S   UNL d   1       0.112  -5.201  -0.454  0.00  0.00    -0.084 SA
ENDROOT
BRANCH   1   7
ATOM      7  C   UNL d   1      -0.199  -1.250  -0.035  0.00  0.00     0.052 A 
ATOM      8  C   UNL d   1      -0.155  -0.381  -1.174  0.00  0.00     0.083 A 
ATOM      9  N   UNL d   1      -0.336   0.891  -0.774  0.00  0.00    -0.259 N 
ATOM     10  O   UNL d   1      -0.511   0.863   0.588  0.00  0.00    -0.241 OA
ATOM     11  HN  UNL d   1      -0.342   1.719  -1.369  1.00  0.00     0.195 HD
ATOM     12  C   UNL d   1      -0.411  -0.416   1.038  0.00  0.00     0.087 A 
ATOM     13  C   UNL d   1      -0.540  -0.604   2.493  0.00  0.00     0.080 C 
BRANCH   8  14
ATOM     14  C   UNL d   1       0.059  -0.670  -2.601  0.00  0.00     0.037 A 
ATOM     15  C   UNL d   1      -0.809  -0.160  -3.594  0.00  0.00     0.048 A 
ATOM     16 CL   UNL d   1      -2.187   0.837  -3.244  0.00  0.00    -0.083 Cl
ATOM     17  C   UNL d   1      -0.617  -0.456  -4.952  0.00  0.00     0.025 A 
ATOM     18  C   UNL d   1       0.414  -1.298  -5.352  0.00  0.00     0.003 A 
ATOM     19  C   UNL d   1       1.291  -1.796  -4.397  0.00  0.00     0.025 A 
ATOM     20  C   UNL d   1       1.149  -1.451  -3.044  0.00  0.00     0.048 A 
ATOM     21 CL   UNL d   1       2.432  -1.977  -2.007  0.00  0.00    -0.083 Cl
ENDBRANCH   8  14
ENDBRANCH   1   7
BRANCH   5  22
ATOM     22  C   UNL d   1       1.676  -5.380   1.885  0.00  0.00     0.240 C 
BRANCH  22  23
ATOM     23  O   UNL d   1       2.687  -6.127   1.185  0.00  0.00    -0.342 OA
BRANCH  23  24
ATOM     24  C   UNL d   1       3.576  -6.827   1.969  0.00  0.00     0.102 A 
ATOM     25  C   UNL d   1       4.126  -8.040   1.508  0.00  0.00     0.101 A 
ATOM     26  C   UNL d   1       5.064  -8.723   2.305  0.00  0.00     0.039 A 
ATOM     27  C   UNL d   1       5.476  -8.224   3.536  0.00  0.00     0.003 A 
ATOM     28  C   UNL d   1       4.955  -7.021   3.986  0.00  0.00     0.003 A 
ATOM     29  C   UNL d   1       4.023  -6.328   3.205  0.00  0.00     0.039 A 
BRANCH  25  30
ATOM     30  O   UNL d   1       3.877  -8.726   0.349  0.00  0.00    -0.353 OA
ATOM     31  C   UNL d   1       3.084  -8.127  -0.657  0.00  0.00     0.210 C 
ENDBRANCH  25  30
ENDBRANCH  23  24
ENDBRANCH  22  23
ENDBRANCH   5  22
TORSDOF 6
