REMARK  5 active torsions:
REMARK  status: ('A' for Active; 'I' for Inactive)
REMARK    1  A    between atoms: N_6  and  C_2 
REMARK    2  A    between atoms: C_16  and  C_3 
REMARK    3  A    between atoms: C_12  and  C_19 
REMARK       I    between atoms: N_15  and  C_12 
REMARK    4  A    between atoms: C_19  and  N_13 
REMARK    5  A    between atoms: C_23  and  N_15 
ROOT
ATOM      1  N   UNL d   1       1.783   2.565   0.421  0.00  0.00    -0.265 NA
ATOM      2  N   UNL d   1       3.023   5.189  -0.141  0.00  0.00     0.099 N 
ATOM      3  C   UNL d   1       2.294   2.843  -0.929  0.00  0.00     0.127 C 
ATOM      4  C   UNL d   1       1.113   3.750   0.969  0.00  0.00     0.127 C 
ATOM      5  C   UNL d   1       2.113   4.942   1.016  0.00  0.00     0.287 C 
ATOM      6  C   UNL d   1       3.418   3.899  -0.785  0.00  0.00     0.287 C 
ENDROOT
BRANCH   1   7
ATOM      7  C   UNL d   1       1.025   1.397   0.514  0.00  0.00     0.097 A 
ATOM      8  C   UNL d   1       1.135   0.486   1.605  0.00  0.00     0.048 A 
ATOM      9  C   UNL d   1       1.840   0.478   2.890  0.00  0.00    -0.003 A 
ATOM     10  C   UNL d   1       0.421  -0.698   1.454  0.00  0.00     0.089 A 
ATOM     11  C   UNL d   1       1.667  -0.726   3.553  0.00  0.00     0.065 A 
ATOM     12  S   UNL d   1       0.633  -1.798   2.732  0.00  0.00    -0.082 SA
ATOM     13  N   UNL d   1      -0.374  -1.044   0.429  0.00  0.00    -0.346 N 
ATOM     14  C   UNL d   1      -0.422  -0.111  -0.515  0.00  0.00     0.182 A 
ATOM     15  HN  UNL d   1      -0.885  -1.926   0.380  1.00  0.00     0.167 HD
ATOM     16  N   UNL d   1       0.230   1.059  -0.534  0.00  0.00    -0.342 N 
ATOM     17  HN  UNL d   1       0.130   1.691  -1.328  1.00  0.00     0.167 HD
BRANCH   9  18
ATOM     18  C   UNL d   1       2.619   1.536   3.546  0.00  0.00    -0.024 A 
ATOM     19  C   UNL d   1       2.376   1.857   4.893  0.00  0.00     0.012 A 
ATOM     20  C   UNL d   1       3.042   2.920   5.510  0.00  0.00     0.001 A 
ATOM     21  C   UNL d   1       3.954   3.681   4.788  0.00  0.00     0.000 A 
ATOM     22  C   UNL d   1       4.245   3.338   3.471  0.00  0.00     0.001 A 
ATOM     23  C   UNL d   1       3.595   2.259   2.860  0.00  0.00     0.012 A 
ENDBRANCH   9  18
ENDBRANCH   1   7
BRANCH   2  24
ATOM     24  C   UNL d   1       2.418   6.067  -1.161  0.00  0.00     0.375 C 
BRANCH  24  25
ATOM     25  C   UNL d   1       2.105   7.478  -0.666  0.00  0.00     0.250 C 
ATOM     26  N   UNL d   1       2.927   7.969   0.329  0.00  0.00    -0.326 N 
ATOM     27  H   UNL d   1       3.648   7.323   0.651  0.00  0.00     0.169 HD
ATOM     28  O   UNL d   1       1.192   8.099  -1.217  0.00  0.00    -0.271 OA
BRANCH  26  29
ATOM     29  C   UNL d   1       2.885   9.264   0.902  0.00  0.00     0.034 A 
ATOM     30  C   UNL d   1       1.917  10.215   0.553  0.00  0.00     0.031 A 
ATOM     31  C   UNL d   1       1.952  11.513   1.068  0.00  0.00     0.021 A 
ATOM     32  C   UNL d   1       2.957  11.873   1.956  0.00  0.00     0.011 A 
ATOM     33  C   UNL d   1       3.901  10.931   2.361  0.00  0.00     0.021 A 
ATOM     34 BR   UNL d   1       3.047  13.649   2.592  0.00  0.00    -0.051 Br
ATOM     35  C   UNL d   1       3.861   9.628   1.837  0.00  0.00     0.031 A 
ENDBRANCH  26  29
ENDBRANCH  24  25
ENDBRANCH   2  24
TORSDOF 5
