REMARK  2 active torsions:
REMARK  status: ('A' for Active; 'I' for Inactive)
REMARK    1  A    between atoms: C_6  and  C_1 
REMARK    2  A    between atoms: N_8  and  C_6 
ROOT
ATOM      1  C   UNL d   1       2.163   0.127   0.089  0.00  0.00     0.050 A 
ATOM      2  S   UNL d   1       1.353  -1.391   0.068  0.00  0.00    -0.086 SA
ATOM      3  C   UNL d   1       1.254   1.183   0.039  0.00  0.00    -0.030 A 
ATOM      4  C   UNL d   1      -0.123   0.709   0.034  0.00  0.00    -0.012 A 
ATOM      5  C   UNL d   1      -0.200  -0.680   0.039  0.00  0.00     0.016 A 
ATOM      6  C   UNL d   1       1.575   2.647  -0.014  0.00  0.00     0.050 C 
ATOM      7  C   UNL d   1      -1.345   1.435   0.015  0.00  0.00     0.013 A 
ATOM      8  C   UNL d   1      -1.436  -1.360   0.019  0.00  0.00     0.019 A 
ATOM      9  C   UNL d   1      -2.575   0.767  -0.000  0.00  0.00     0.001 A 
ATOM     10  C   UNL d   1      -2.617  -0.618  -0.000  0.00  0.00     0.001 A 
ENDROOT
BRANCH   1  11
ATOM     11  C   UNL d   1       3.623   0.088   0.143  0.00  0.00     0.114 C 
ATOM     12  S   UNL d   1       4.449   1.089   1.202  0.00  0.00    -0.059 SA
BRANCH  11  13
ATOM     13  N   UNL d   1       4.218  -0.845  -0.693  0.00  0.00    -0.384 N 
ATOM     14  C   UNL d   1       5.620  -1.204  -0.783  0.00  0.00     0.147 C 
ATOM     15  H   UNL d   1       3.577  -1.435  -1.216  0.00  0.00     0.160 HD
ENDBRANCH  11  13
ENDBRANCH   1  11
TORSDOF 2
