REMARK  4 active torsions:
REMARK  status: ('A' for Active; 'I' for Inactive)
REMARK    1  A    between atoms: C_6  and  C_1 
REMARK    2  A    between atoms: C_7  and  C_3 
REMARK    3  A    between atoms: O_11  and  C_6 
REMARK    4  A    between atoms: C_17  and  O_11 
ROOT
ATOM      1  C   UNL d   1      -0.173  -1.299   0.011  0.00  0.00     0.071 A 
ATOM      2  C   UNL d   1      -1.496  -0.767   0.043  0.00  0.00     0.058 A 
ATOM      3  C   UNL d   1      -1.390   0.606   0.057  0.00  0.00     0.087 A 
ATOM      4  C   UNL d   1       0.665  -0.199   0.013  0.00  0.00     0.066 A 
ATOM      5  O   UNL d   1      -0.069   0.951   0.036  0.00  0.00    -0.314 OA
ATOM      6  C   UNL d   1       2.131  -0.009  -0.014  0.00  0.00     0.078 C 
ENDROOT
BRANCH   3   7
ATOM      7  C   UNL d   1      -2.358   1.695   0.115  0.00  0.00    -0.002 A 
ATOM      8  C   UNL d   1      -3.734   1.418   0.172  0.00  0.00     0.016 A 
ATOM      9  C   UNL d   1      -4.672   2.447   0.297  0.00  0.00     0.024 A 
ATOM     10  C   UNL d   1      -4.238   3.769   0.364  0.00  0.00     0.034 A 
ATOM     11  C   UNL d   1      -2.883   4.068   0.279  0.00  0.00     0.024 A 
ATOM     12 CL   UNL d   1      -5.387   5.033   0.564  0.00  0.00    -0.084 Cl
ATOM     13  C   UNL d   1      -1.947   3.036   0.153  0.00  0.00     0.016 A 
ENDBRANCH   3   7
BRANCH   1  14
ATOM     14  C   UNL d   1       0.213  -2.693  -0.061  0.00  0.00     0.295 C 
ATOM     15  O   UNL d   1       1.369  -3.084  -0.173  0.00  0.00    -0.259 OA
BRANCH  14  16
ATOM     16  O   UNL d   1      -0.884  -3.505  -0.090  0.00  0.00    -0.318 OA
BRANCH  16  17
ATOM     17  C   UNL d   1      -0.676  -4.807  -0.647  0.00  0.00     0.174 C 
ATOM     18  C   UNL d   1      -0.838  -4.699  -2.152  0.00  0.00     0.034 C 
ENDBRANCH  16  17
ENDBRANCH  14  16
ENDBRANCH   1  14
TORSDOF 4
