REMARK  6 active torsions:
REMARK  status: ('A' for Active; 'I' for Inactive)
REMARK    1  A    between atoms: C_16  and  N_1 
REMARK    2  A    between atoms: C_8  and  C_2 
REMARK    3  A    between atoms: S_9  and  C_5 
REMARK    4  A    between atoms: C_20  and  S_9 
REMARK    5  A    between atoms: C_18  and  C_16 
REMARK    6  A    between atoms: C_21  and  C_20 
ROOT
ATOM      1  N   UNL d   1      -0.298  -1.228  -0.013  0.00  0.00    -0.307 N 
ATOM      2  C   UNL d   1       0.953  -0.632  -0.127  0.00  0.00     0.135 A 
ATOM      3  N   UNL d   1       0.769   0.678  -0.201  0.00  0.00    -0.283 N 
ATOM      4  HN  UNL d   1       1.510   1.377  -0.254  1.00  0.00     0.188 HD
ATOM      5  C   UNL d   1      -1.205  -0.198  -0.088  0.00  0.00     0.163 A 
ATOM      6  N   UNL d   1      -0.575   0.945  -0.194  0.00  0.00    -0.278 N 
ATOM      7  HN  UNL d   1      -1.007   1.866  -0.259  1.00  0.00     0.189 HD
ENDROOT
BRANCH   2   8
ATOM      8  C   UNL d   1       2.282  -1.267  -0.103  0.00  0.00     0.011 A 
ATOM      9  C   UNL d   1       3.352  -0.592   0.507  0.00  0.00     0.029 A 
ATOM     10  C   UNL d   1       4.644  -1.158   0.574  0.00  0.00    -0.009 A 
ATOM     11  C   UNL d   1       5.724  -0.496   1.177  0.00  0.00     0.015 A 
ATOM     12  C   UNL d   1       4.883  -2.432   0.027  0.00  0.00     0.042 A 
ATOM     13  C   UNL d   1       6.971  -1.111   1.234  0.00  0.00     0.018 A 
ATOM     14  C   UNL d   1       7.096  -2.373   0.685  0.00  0.00     0.088 A 
ATOM     15  N   UNL d   1       6.085  -3.035   0.085  0.00  0.00    -0.365 N 
ATOM     16  HN  UNL d   1       6.227  -3.964  -0.313  1.00  0.00     0.165 HD
ATOM     17  C   UNL d   1       3.833  -3.075  -0.607  0.00  0.00     0.031 A 
ATOM     18  C   UNL d   1       2.556  -2.502  -0.694  0.00  0.00     0.017 A 
ENDBRANCH   2   8
BRANCH   1  19
ATOM     19  C   UNL d   1      -0.608  -2.644   0.098  0.00  0.00     0.159 C 
BRANCH  19  20
ATOM     20  C   UNL d   1      -0.053  -3.358   1.300  0.00  0.00    -0.017 C 
ATOM     21  C   UNL d   1       0.216  -2.836   2.504  0.00  0.00     0.008 C 
ENDBRANCH  19  20
ENDBRANCH   1  19
BRANCH   5  22
ATOM     22  S   UNL d   1      -2.926  -0.398  -0.036  0.00  0.00    -0.088 SA
BRANCH  22  23
ATOM     23  C   UNL d   1      -3.478   1.161  -0.790  0.00  0.00     0.121 C 
BRANCH  23  24
ATOM     24  C   UNL d   1      -4.985   1.280  -0.796  0.00  0.00    -0.049 A 
ATOM     25  C   UNL d   1      -5.652   1.903   0.270  0.00  0.00     0.008 A 
ATOM     26  C   UNL d   1      -7.044   2.026   0.265  0.00  0.00     0.001 A 
ATOM     27  C   UNL d   1      -7.786   1.522  -0.801  0.00  0.00     0.000 A 
ATOM     28  C   UNL d   1      -7.138   0.889  -1.860  0.00  0.00     0.001 A 
ATOM     29  C   UNL d   1      -5.746   0.765  -1.858  0.00  0.00     0.008 A 
ENDBRANCH  23  24
ENDBRANCH  22  23
ENDBRANCH   5  22
TORSDOF 6
