REMARK  3 active torsions:
REMARK  status: ('A' for Active; 'I' for Inactive)
REMARK    1  A    between atoms: C_3  and  C_1 
REMARK    2  A    between atoms: C_6  and  C_3 
REMARK    3  A    between atoms: O_17  and  C_15 
ROOT
ATOM      1  C   UNL d   1      -1.740  -1.484   0.021  0.00  0.00     0.052 A 
ATOM      2  C   UNL d   1      -0.486  -0.795   0.020  0.00  0.00     0.017 A 
ATOM      3  C   UNL d   1      -2.703  -0.490   0.010  0.00  0.00     0.159 A 
ATOM      4  O   UNL d   1      -2.139   0.743  -0.006  0.00  0.00    -0.321 OA
ATOM      5  C   UNL d   1      -0.792   0.562  -0.000  0.00  0.00     0.086 A 
ATOM      6  C   UNL d   1       0.872  -1.174   0.022  0.00  0.00     0.051 A 
ATOM      7  C   UNL d   1       0.156   1.582  -0.011  0.00  0.00     0.041 A 
ATOM      8  C   UNL d   1       1.840  -0.163   0.006  0.00  0.00     0.066 A 
ATOM      9  C   UNL d   1       1.496   1.187  -0.007  0.00  0.00     0.039 A 
ENDROOT
BRANCH   1  10
ATOM     10  C   UNL d   1      -1.977  -2.921   0.076  0.00  0.00     0.218 C 
ATOM     11  O   UNL d   1      -1.186  -3.677   0.637  0.00  0.00    -0.284 OA
BRANCH  10  12
ATOM     12  C   UNL d   1      -3.200  -3.382  -0.551  0.00  0.00     0.125 A 
ATOM     13  O   UNL d   1      -3.697  -2.716  -1.643  0.00  0.00    -0.319 OA
ATOM     14  C   UNL d   1      -4.812  -3.372  -2.047  0.00  0.00     0.142 A 
ATOM     15  C   UNL d   1      -5.057  -4.450  -1.233  0.00  0.00     0.027 A 
ATOM     16  C   UNL d   1      -4.007  -4.473  -0.282  0.00  0.00     0.043 A 
ENDBRANCH  10  12
ENDBRANCH   1  10
BRANCH   8  17
ATOM     17  O   UNL d   1       3.171  -0.470   0.002  0.00  0.00    -0.361 OA
ATOM     18  H   UNL d   1       3.267  -1.437   0.020  0.00  0.00     0.217 HD
ENDBRANCH   8  17
TORSDOF 3
