REMARK  1 active torsions:
REMARK  status: ('A' for Active; 'I' for Inactive)
REMARK    1  A    between atoms: C_4  and  C_1 
REMARK       I    between atoms: N_6  and  C_4 
ROOT
ATOM      1  C   UNL d   1      -2.691  -1.484   0.122  0.00  0.00     0.272 C 
ATOM      2  N   UNL d   1      -3.942  -0.854   0.089  0.00  0.00    -0.346 N 
ATOM      3  C   UNL d   1      -6.763  -0.799  -0.515  0.00  0.00     0.167 C 
ATOM      4  C   UNL d   1      -6.195  -1.717   0.567  0.00  0.00     0.088 C 
ATOM      5  C   UNL d   1      -5.712  -0.487  -1.576  0.00  0.00     0.088 C 
ATOM      6  C   UNL d   1      -4.433   0.052  -0.952  0.00  0.00     0.131 C 
ATOM      7  C   UNL d   1      -4.909  -1.143   1.147  0.00  0.00     0.131 C 
ATOM      8  O   UNL d   1      -7.870  -1.450  -1.164  0.00  0.00    -0.353 OA
ATOM      9  O   UNL d   1      -7.220   0.422   0.094  0.00  0.00    -0.353 OA
ATOM     10  O   UNL d   1      -2.446  -2.355   0.965  0.00  0.00    -0.266 OA
ATOM     11  C   UNL d   1      -8.515   0.645  -0.461  0.00  0.00     0.197 C 
ATOM     12  C   UNL d   1      -9.026  -0.745  -0.720  0.00  0.00     0.197 C 
ENDROOT
BRANCH   1  13
ATOM     13  C   UNL d   1      -1.655  -1.146  -0.864  0.00  0.00     0.125 A 
ATOM     14  N   UNL d   1      -1.508   0.067  -1.425  0.00  0.00    -0.256 N 
ATOM     15  O   UNL d   1      -0.408  -0.014  -2.253  0.00  0.00    -0.242 OA
ATOM     16  HN  UNL d   1      -2.094   0.887  -1.268  1.00  0.00     0.195 HD
ATOM     17  C   UNL d   1       0.146  -1.249  -2.151  0.00  0.00     0.075 A 
ATOM     18  C   UNL d   1      -0.608  -2.008  -1.292  0.00  0.00     0.071 A 
ATOM     19  C   UNL d   1       1.386  -1.471  -2.909  0.00  0.00     0.079 C 
ENDBRANCH   1  13
TORSDOF 1
