REMARK  3 active torsions:
REMARK  status: ('A' for Active; 'I' for Inactive)
REMARK    1  A    between atoms: N_9  and  C_3 
REMARK    2  A    between atoms: C_11  and  C_4 
REMARK       I    between atoms: C_8  and  N_10 
REMARK    3  A    between atoms: C_12  and  C_8 
ROOT
ATOM      1  C   UNL d   1      -0.996  -6.582   0.055  0.00  0.00     0.260 C 
ATOM      2  N   UNL d   1       0.144  -2.597  -0.199  0.00  0.00    -0.357 N 
ATOM      3  N   UNL d   1      -0.377  -5.400  -0.363  0.00  0.00    -0.344 N 
ATOM      4  C   UNL d   1       0.727  -3.498   0.825  0.00  0.00     0.145 C 
ATOM      5  C   UNL d   1      -1.089  -3.108  -0.823  0.00  0.00     0.145 C 
ATOM      6  C   UNL d   1       0.860  -4.947   0.291  0.00  0.00     0.146 C 
ATOM      7  C   UNL d   1      -0.818  -4.495  -1.423  0.00  0.00     0.146 C 
ATOM      8  O   UNL d   1      -0.418  -7.314   0.862  0.00  0.00    -0.267 OA
ENDROOT
BRANCH   2   9
ATOM      9  C   UNL d   1       0.271  -1.249   0.011  0.00  0.00     0.165 A 
ATOM     10  N   UNL d   1       0.926  -0.688   1.003  0.00  0.00    -0.320 N 
ATOM     11  C   UNL d   1       0.862   0.702   0.889  0.00  0.00     0.131 A 
ATOM     12  HN  UNL d   1       1.410  -1.193   1.746  1.00  0.00     0.169 HD
ATOM     13  N   UNL d   1       0.214   1.235  -0.150  0.00  0.00    -0.308 N 
ATOM     14  S   UNL d   1      -0.345  -0.026  -1.065  0.00  0.00     0.024 SA
ATOM     15  HN  UNL d   1       0.087   2.229  -0.343  1.00  0.00     0.176 HD
BRANCH  11  16
ATOM     16  C   UNL d   1       1.501   1.598   1.914  0.00  0.00     0.049 A 
ATOM     17  S   UNL d   1       2.370   1.034   3.272  0.00  0.00    -0.098 SA
ATOM     18  C   UNL d   1       2.691   2.630   3.804  0.00  0.00     0.050 A 
ATOM     19  C   UNL d   1       2.143   3.575   2.969  0.00  0.00     0.009 A 
ATOM     20  C   UNL d   1       1.454   2.979   1.872  0.00  0.00     0.023 A 
ENDBRANCH  11  16
ENDBRANCH   2   9
BRANCH   1  21
ATOM     21  C   UNL d   1      -2.324  -6.915  -0.461  0.00  0.00     0.072 A 
ATOM     22  S   UNL d   1      -2.703  -8.575  -0.725  0.00  0.00    -0.097 SA
ATOM     23  C   UNL d   1      -4.279  -8.209  -1.273  0.00  0.00     0.050 A 
ATOM     24  C   UNL d   1      -4.534  -6.858  -1.243  0.00  0.00     0.009 A 
ATOM     25  C   UNL d   1      -3.427  -6.121  -0.729  0.00  0.00     0.025 A 
ENDBRANCH   1  21
TORSDOF 3
