REMARK  3 active torsions:
REMARK  status: ('A' for Active; 'I' for Inactive)
REMARK       I    between atoms: N_2  and  C_1 
REMARK       I    between atoms: N_6  and  C_1 
REMARK    1  A    between atoms: C_4  and  N_2 
REMARK    2  A    between atoms: N_3  and  C_5 
REMARK    3  A    between atoms: C_9  and  N_6 
ROOT
ATOM      1  C   UNL d   1      -0.020  -1.242   1.108  0.00  0.00     0.303 C 
ATOM      2  N   UNL d   1       0.165   0.134   1.234  0.00  0.00    -0.208 NA
ATOM      3  N   UNL d   1      -0.877  -1.511   0.053  0.00  0.00    -0.313 N 
ATOM      4  O   UNL d   1       0.524  -2.073   1.820  0.00  0.00    -0.253 OA
ATOM      5  H   UNL d   1      -0.693   0.637   1.059  0.00  0.00     0.138 HD
ATOM      6  H   UNL d   1      -1.107  -0.724  -0.533  0.00  0.00     0.170 HD
ENDROOT
BRANCH   2   7
ATOM      7  C   UNL d   1       0.858   0.672   2.352  0.00  0.00     0.043 A 
ATOM      8  C   UNL d   1       1.986   1.511   2.169  0.00  0.00     0.052 A 
ATOM      9  C   UNL d   1       2.618   1.960   3.347  0.00  0.00     0.031 A 
ATOM     10  C   UNL d   1       2.166   1.609   4.626  0.00  0.00     0.002 A 
ATOM     11  C   UNL d   1       1.050   0.798   4.770  0.00  0.00     0.002 A 
ATOM     12  C   UNL d   1       0.392   0.338   3.636  0.00  0.00     0.026 A 
BRANCH   8  13
ATOM     13  N   UNL d   1       2.512   1.828   0.926  0.00  0.00    -0.375 N 
ATOM     14  C   UNL d   1       3.944   2.120   0.740  0.00  0.00     0.149 C 
ATOM     15  C   UNL d   1       4.412   1.496  -0.587  0.00  0.00     0.187 C 
ATOM     16  O   UNL d   1       3.621   1.950  -1.700  0.00  0.00    -0.388 OA
ATOM     17  C   UNL d   1       2.236   1.614  -1.494  0.00  0.00     0.187 C 
ATOM     18  C   UNL d   1       1.691   2.264  -0.211  0.00  0.00     0.149 C 
ENDBRANCH   8  13
ENDBRANCH   2   7
BRANCH   3  19
ATOM     19  C   UNL d   1      -1.291  -2.778  -0.408  0.00  0.00     0.036 A 
ATOM     20  C   UNL d   1      -0.960  -3.982   0.221  0.00  0.00     0.032 A 
ATOM     21  C   UNL d   1      -1.355  -5.204  -0.334  0.00  0.00     0.044 A 
ATOM     22  C   UNL d   1      -2.093  -5.218  -1.509  0.00  0.00     0.116 A 
ATOM     23  C   UNL d   1      -2.463  -4.033  -2.129  0.00  0.00     0.044 A 
ATOM     24  F   UNL d   1      -2.451  -6.389  -2.052  0.00  0.00    -0.206 F 
ATOM     25  C   UNL d   1      -2.065  -2.812  -1.577  0.00  0.00     0.032 A 
ENDBRANCH   3  19
TORSDOF 3
