REMARK  6 active torsions:
REMARK  status: ('A' for Active; 'I' for Inactive)
REMARK    1  A    between atoms: C_6  and  N_1 
REMARK    2  A    between atoms: C_7  and  C_6 
REMARK    3  A    between atoms: C_9  and  C_7 
REMARK    4  A    between atoms: O_14  and  C_7 
REMARK    5  A    between atoms: O_8  and  C_9 
REMARK    6  A    between atoms: C_15  and  O_8 
ROOT
ATOM      1  N   UNL d   1       0.022  -1.522  -0.170  0.00  0.00    -0.343 N 
ATOM      2  C   UNL d   1      -0.269  -0.572   0.794  0.00  0.00     0.046 A 
ATOM      3  C   UNL d   1       0.178  -0.927  -1.409  0.00  0.00     0.046 A 
ATOM      4  C   UNL d   1      -0.147   0.425  -1.252  0.00  0.00     0.003 A 
ATOM      5  C   UNL d   1      -0.429   0.645   0.130  0.00  0.00     0.003 A 
ATOM      6  C   UNL d   1      -0.428  -0.682   2.186  0.00  0.00     0.030 A 
ATOM      7  C   UNL d   1       0.548  -1.456  -2.658  0.00  0.00     0.030 A 
ATOM      8  C   UNL d   1      -0.798   1.784   0.878  0.00  0.00     0.014 A 
ATOM      9  C   UNL d   1      -0.129   1.268  -2.385  0.00  0.00     0.014 A 
ATOM     10  C   UNL d   1      -0.757   0.468   2.909  0.00  0.00     0.002 A 
ATOM     11  C   UNL d   1       0.587  -0.591  -3.758  0.00  0.00     0.002 A 
ATOM     12  C   UNL d   1       0.243   0.751  -3.627  0.00  0.00     0.001 A 
ATOM     13  C   UNL d   1      -0.953   1.684   2.265  0.00  0.00     0.001 A 
ENDROOT
BRANCH   1  14
ATOM     14  C   UNL d   1       0.011  -2.956   0.063  0.00  0.00     0.163 C 
BRANCH  14  15
ATOM     15  C   UNL d   1       1.387  -3.610   0.199  0.00  0.00     0.160 C 
BRANCH  15  16
ATOM     16  C   UNL d   1       2.181  -3.196   1.444  0.00  0.00     0.201 C 
BRANCH  16  17
ATOM     17  O   UNL d   1       1.494  -3.636   2.626  0.00  0.00    -0.383 OA
BRANCH  17  18
ATOM     18  C   UNL d   1       2.120  -3.192   3.843  0.00  0.00     0.121 C 
ATOM     19  C   UNL d   1       3.424  -3.948   4.141  0.00  0.00     0.032 C 
ATOM     20  C   UNL d   1       3.186  -5.435   4.404  0.00  0.00     0.002 C 
ATOM     21  C   UNL d   1       2.151  -5.663   5.504  0.00  0.00     0.000 C 
ATOM     22  C   UNL d   1       0.859  -4.895   5.244  0.00  0.00     0.002 C 
ATOM     23  C   UNL d   1       1.128  -3.411   4.994  0.00  0.00     0.032 C 
ENDBRANCH  17  18
ENDBRANCH  16  17
ENDBRANCH  15  16
BRANCH  15  24
ATOM     24  O   UNL d   1       1.200  -5.037   0.243  0.00  0.00    -0.392 OA
ATOM     25  H   UNL d   1       0.930  -5.238   1.162  0.00  0.00     0.210 HD
ENDBRANCH  15  24
ENDBRANCH  14  15
ENDBRANCH   1  14
TORSDOF 6
