REMARK  2 active torsions:
REMARK  status: ('A' for Active; 'I' for Inactive)
REMARK    1  A    between atoms: C_2  and  N_1 
REMARK    2  A    between atoms: N_8  and  C_5 
ROOT
ATOM      1  C   UNL d   1      -0.758  -2.449  -0.046  0.00  0.00     0.064 A 
ATOM      2  C   UNL d   1      -1.611  -2.950  -1.052  0.00  0.00     0.053 A 
ATOM      3  C   UNL d   1      -0.337  -3.293   1.002  0.00  0.00     0.032 A 
ATOM      4  C   UNL d   1      -2.005  -4.299  -0.970  0.00  0.00     0.031 A 
ATOM      5  C   UNL d   1      -0.764  -4.619   1.069  0.00  0.00     0.002 A 
ATOM      6  C   UNL d   1      -1.603  -5.121   0.084  0.00  0.00     0.002 A 
ENDROOT
BRANCH   1   7
ATOM      7  N   UNL d   1      -0.328  -1.089  -0.011  0.00  0.00    -0.331 N 
ATOM      8  C   UNL d   1      -1.049   0.021  -0.414  0.00  0.00     0.097 A 
ATOM      9  C   UNL d   1      -0.280   1.151  -0.244  0.00  0.00     0.019 A 
ATOM     10  C   UNL d   1       0.933   0.743   0.346  0.00  0.00     0.019 A 
ATOM     11  C   UNL d   1       0.865  -0.623   0.514  0.00  0.00     0.097 A 
ENDBRANCH   1   7
BRANCH   2  12
ATOM     12  N   UNL d   1      -1.851  -2.311  -2.279  0.00  0.00    -0.397 N 
ATOM     13  H   UNL d   1      -1.696  -1.313  -2.322  0.00  0.00     0.156 HD
ATOM     14  H   UNL d   1      -2.705  -2.597  -2.745  0.00  0.00     0.156 HD
ENDBRANCH   2  12
TORSDOF 2
