REMARK  5 active torsions:
REMARK  status: ('A' for Active; 'I' for Inactive)
REMARK    1  A    between atoms: C_7  and  C_1 
REMARK    2  A    between atoms: C_9  and  N_4 
REMARK    3  A    between atoms: S_11  and  C_5 
REMARK       I    between atoms: N_8  and  C_7 
REMARK    4  A    between atoms: C_12  and  N_8 
REMARK    5  A    between atoms: O_18  and  C_13 
ROOT
ATOM      1  C   UNL d   1      -0.281   1.073   0.308  0.00  0.00     0.084 A 
ATOM      2  N   UNL d   1       0.899  -0.860   0.649  0.00  0.00    -0.287 N 
ATOM      3  HN  UNL d   1       1.648  -1.510   0.886  1.00  0.00     0.188 HD
ATOM      4  N   UNL d   1      -0.336  -1.157   0.171  0.00  0.00    -0.266 N 
ATOM      5  C   UNL d   1       0.917   0.470   0.740  0.00  0.00     0.102 A 
ATOM      6  C   UNL d   1      -1.049  -0.013  -0.085  0.00  0.00     0.136 A 
ENDROOT
BRANCH   1   7
ATOM      7  C   UNL d   1      -0.746   2.452   0.208  0.00  0.00     0.260 C 
ATOM      8  N   UNL d   1       0.107   3.415   0.710  0.00  0.00    -0.323 N 
ATOM      9  H   UNL d   1       0.989   3.089   1.093  0.00  0.00     0.169 HD
ATOM     10  O   UNL d   1      -1.838   2.678  -0.304  0.00  0.00    -0.267 OA
BRANCH   8  11
ATOM     11  C   UNL d   1      -0.081   4.816   0.700  0.00  0.00     0.035 A 
ATOM     12  C   UNL d   1      -1.240   5.436   0.232  0.00  0.00     0.032 A 
ATOM     13  C   UNL d   1      -1.346   6.832   0.193  0.00  0.00     0.039 A 
ATOM     14  C   UNL d   1      -0.288   7.630   0.617  0.00  0.00     0.068 A 
ATOM     15  C   UNL d   1       0.856   7.017   1.129  0.00  0.00     0.039 A 
ATOM     16  C   UNL d   1       0.961   5.621   1.172  0.00  0.00     0.032 A 
BRANCH  14  17
ATOM     17  O   UNL d   1      -0.257   8.997   0.581  0.00  0.00    -0.356 OA
ATOM     18  C   UNL d   1      -1.314   9.634  -0.130  0.00  0.00     0.210 C 
ENDBRANCH  14  17
ENDBRANCH   8  11
ENDBRANCH   1   7
BRANCH   5  19
ATOM     19  S   UNL d   1       2.342   1.286   1.348  0.00  0.00    -0.114 SA
ATOM     20  C   UNL d   1       3.640   0.319   0.544  0.00  0.00     0.097 C 
ENDBRANCH   5  19
BRANCH   4  21
ATOM     21  C   UNL d   1      -0.753  -2.507  -0.001  0.00  0.00     0.056 A 
ATOM     22  C   UNL d   1      -2.044  -2.821  -0.452  0.00  0.00     0.031 A 
ATOM     23  C   UNL d   1      -2.432  -4.158  -0.589  0.00  0.00     0.002 A 
ATOM     24  C   UNL d   1      -1.540  -5.184  -0.282  0.00  0.00     0.000 A 
ATOM     25  C   UNL d   1      -0.255  -4.879   0.161  0.00  0.00     0.002 A 
ATOM     26  C   UNL d   1       0.140  -3.546   0.302  0.00  0.00     0.031 A 
ENDBRANCH   4  21
TORSDOF 5
