REMARK  8 active torsions:
REMARK  status: ('A' for Active; 'I' for Inactive)
REMARK    1  A    between atoms: C_2  and  S_1 
REMARK    2  A    between atoms: N_3  and  S_1 
REMARK    3  A    between atoms: C_17  and  N_3 
REMARK    4  A    between atoms: C_4  and  O_12 
REMARK    5  A    between atoms: N_6  and  C_7 
REMARK       I    between atoms: C_11  and  N_6 
REMARK    6  A    between atoms: O_12  and  C_21 
REMARK    7  A    between atoms: O_16  and  C_23 
REMARK    8  A    between atoms: C_24  and  O_16 
ROOT
ATOM      1  C   UNL d   1       0.879   1.614   2.156  0.00  0.00     0.042 A 
ATOM      2  C   UNL d   1       1.740   2.226   4.740  0.00  0.00     0.076 A 
ATOM      3  C   UNL d   1       2.211   1.409   2.509  0.00  0.00     0.033 A 
ATOM      4  C   UNL d   1      -0.014   2.165   3.074  0.00  0.00     0.033 A 
ATOM      5  C   UNL d   1       0.414   2.461   4.370  0.00  0.00     0.039 A 
ATOM      6  C   UNL d   1       2.649   1.746   3.792  0.00  0.00     0.039 A 
ENDROOT
BRANCH   1   7
ATOM      7  N   UNL d   1       0.445   1.342   0.840  0.00  0.00    -0.281 N 
ATOM      8  H   UNL d   1       0.376   2.089   0.154  0.00  0.00     0.179 HD
BRANCH   7   9
ATOM      9  S   UNL d   1      -0.077  -0.177   0.381  0.00  0.00     0.263 S 
ATOM     10  O   UNL d   1      -0.512  -0.060  -0.994  0.00  0.00    -0.200 OA
ATOM     11  O   UNL d   1       0.908  -1.162   0.775  0.00  0.00    -0.200 OA
BRANCH   9  12
ATOM     12  C   UNL d   1      -1.532  -0.420   1.377  0.00  0.00     0.081 A 
ATOM     13  C   UNL d   1      -2.774   0.038   0.933  0.00  0.00     0.051 A 
ATOM     14  C   UNL d   1      -3.900  -0.158   1.737  0.00  0.00     0.062 A 
ATOM     15 CL   UNL d   1      -5.420   0.450   1.173  0.00  0.00    -0.082 Cl
ATOM     16  C   UNL d   1      -3.806  -0.824   2.981  0.00  0.00     0.056 A 
ATOM     17  C   UNL d   1      -2.552  -1.296   3.381  0.00  0.00     0.033 A 
ATOM     18  C   UNL d   1      -1.421  -1.103   2.582  0.00  0.00     0.027 A 
BRANCH  16  19
ATOM     19  N   UNL d   1      -4.972  -0.986   3.772  0.00  0.00    -0.326 N 
ATOM     20  C   UNL d   1      -5.064  -1.594   5.009  0.00  0.00     0.218 C 
ATOM     21  O   UNL d   1      -4.148  -2.116   5.637  0.00  0.00    -0.274 OA
ATOM     22  C   UNL d   1      -6.456  -1.591   5.590  0.00  0.00     0.117 C 
ATOM     23  H   UNL d   1      -5.823  -0.604   3.367  0.00  0.00     0.169 HD
ENDBRANCH  16  19
ENDBRANCH   9  12
ENDBRANCH   7   9
ENDBRANCH   1   7
BRANCH   2  24
ATOM     24  O   UNL d   1       2.078   2.560   6.031  0.00  0.00    -0.311 OA
BRANCH  24  25
ATOM     25  C   UNL d   1       2.975   1.783   6.730  0.00  0.00     0.076 A 
ATOM     26  C   UNL d   1       3.675   2.426   7.751  0.00  0.00     0.040 A 
ATOM     27  C   UNL d   1       4.599   1.715   8.521  0.00  0.00     0.040 A 
ATOM     28  C   UNL d   1       4.828   0.355   8.287  0.00  0.00     0.078 A 
ATOM     29  C   UNL d   1       4.143  -0.279   7.254  0.00  0.00     0.040 A 
ATOM     30  C   UNL d   1       3.183   0.420   6.513  0.00  0.00     0.040 A 
BRANCH  28  31
ATOM     31  O   UNL d   1       5.760  -0.216   9.096  0.00  0.00    -0.255 OA
BRANCH  31  32
ATOM     32  C   UNL d   1       5.673  -1.602   9.399  0.00  0.00     0.530 C 
ATOM     33  F   UNL d   1       4.531  -2.194   8.992  0.00  0.00    -0.144 F 
ATOM     34  F   UNL d   1       6.720  -2.249   8.843  0.00  0.00    -0.144 F 
ATOM     35  F   UNL d   1       5.753  -1.750  10.741  0.00  0.00    -0.144 F 
ENDBRANCH  31  32
ENDBRANCH  28  31
ENDBRANCH  24  25
ENDBRANCH   2  24
TORSDOF 8
