REMARK  3 active torsions:
REMARK  status: ('A' for Active; 'I' for Inactive)
REMARK    1  A    between atoms: C_11  and  C_3 
REMARK    2  A    between atoms: C_14  and  C_8 
REMARK    3  A    between atoms: C_18  and  C_15 
ROOT
ATOM      1  C   UNL d   1       0.064   0.527   0.215  0.00  0.00     0.172 A 
ATOM      2  N   UNL d   1      -0.123  -0.677  -0.397  0.00  0.00    -0.235 N 
ATOM      3  C   UNL d   1      -1.969   0.319  -0.223  0.00  0.00     0.207 A 
ATOM      4  N   UNL d   1      -1.046   1.191   0.357  0.00  0.00    -0.316 N 
ATOM      5  HN  UNL d   1      -1.201   2.106   0.781  1.00  0.00     0.169 HD
ATOM      6  N   UNL d   1      -1.425  -0.832  -0.697  0.00  0.00    -0.273 N 
ATOM      7  HN  UNL d   1      -1.887  -1.614  -1.161  1.00  0.00     0.189 HD
ATOM      8  C   UNL d   1       2.100  -0.828  -0.009  0.00  0.00     0.059 A 
ATOM      9  C   UNL d   1       1.019  -1.450  -0.535  0.00  0.00     0.052 A 
ATOM     10  S   UNL d   1       1.716   0.780   0.656  0.00  0.00    -0.048 SA
ATOM     11  C   UNL d   1       0.938  -2.803  -1.153  0.00  0.00     0.072 C 
ENDROOT
BRANCH   8  12
ATOM     12  C   UNL d   1       3.479  -1.343   0.047  0.00  0.00     0.054 A 
ATOM     13  N   UNL d   1       3.832  -2.168  -0.963  0.00  0.00    -0.341 N 
ATOM     14  C   UNL d   1       5.060  -2.722  -0.922  0.00  0.00     0.116 A 
ATOM     15  HN  UNL d   1       3.191  -2.365  -1.731  1.00  0.00     0.167 HD
ATOM     16  N   UNL d   1       5.947  -2.506   0.064  0.00  0.00    -0.352 N 
ATOM     17  C   UNL d   1       5.567  -1.673   1.047  0.00  0.00     0.092 A 
ATOM     18  HN  UNL d   1       6.864  -2.953   0.067  1.00  0.00     0.166 HD
ATOM     19  C   UNL d   1       4.340  -1.055   1.086  0.00  0.00     0.048 A 
BRANCH  14  20
ATOM     20  C   UNL d   1       5.444  -3.639  -2.016  0.00  0.00     0.008 A 
ATOM     21  C   UNL d   1       4.605  -3.862  -3.127  0.00  0.00     0.015 A 
ATOM     22  C   UNL d   1       4.971  -4.732  -4.160  0.00  0.00     0.001 A 
ATOM     23  C   UNL d   1       6.189  -5.402  -4.108  0.00  0.00     0.000 A 
ATOM     24  C   UNL d   1       7.039  -5.204  -3.025  0.00  0.00     0.001 A 
ATOM     25  C   UNL d   1       6.669  -4.334  -1.994  0.00  0.00     0.015 A 
ENDBRANCH  14  20
ENDBRANCH   8  12
BRANCH   3  26
ATOM     26  C   UNL d   1      -3.451   0.624  -0.306  0.00  0.00     0.450 C 
ATOM     27  F   UNL d   1      -3.775   1.825   0.243  0.00  0.00    -0.163 F 
ATOM     28  F   UNL d   1      -3.896   0.657  -1.593  0.00  0.00    -0.163 F 
ATOM     29  F   UNL d   1      -4.203  -0.309   0.342  0.00  0.00    -0.163 F 
ENDBRANCH   3  26
TORSDOF 3
