REMARK  7 active torsions:
REMARK  status: ('A' for Active; 'I' for Inactive)
REMARK       I    between atoms: N_2  and  C_1 
REMARK       I    between atoms: N_10  and  C_1 
REMARK    1  A    between atoms: C_5  and  N_2 
REMARK    2  A    between atoms: C_3  and  C_4 
REMARK    3  A    between atoms: O_19  and  C_3 
REMARK    4  A    between atoms: C_6  and  C_9 
REMARK    5  A    between atoms: O_20  and  C_6 
REMARK    6  A    between atoms: C_18  and  N_10 
REMARK    7  A    between atoms: C_21  and  C_18 
ROOT
ATOM      1  C   UNL d   1       1.025   0.010  -0.061  0.00  0.00     0.321 C 
ATOM      2  N   UNL d   1       0.404   0.919   0.779  0.00  0.00    -0.308 N 
ATOM      3  N   UNL d   1       0.157  -0.983  -0.453  0.00  0.00    -0.339 N 
ATOM      4  O   UNL d   1       2.205   0.036  -0.390  0.00  0.00    -0.247 OA
ATOM      5  H   UNL d   1      -0.357   0.518   1.309  0.00  0.00     0.170 HD
ATOM      6  H   UNL d   1      -0.827  -0.878  -0.261  0.00  0.00     0.164 HD
ENDROOT
BRANCH   2   7
ATOM      7  C   UNL d   1       1.108   1.980   1.398  0.00  0.00     0.042 A 
ATOM      8  C   UNL d   1       1.005   2.175   2.787  0.00  0.00    -0.034 A 
ATOM      9  C   UNL d   1       1.713   3.231   3.388  0.00  0.00     0.026 A 
ATOM     10  C   UNL d   1       0.235   1.228   3.668  0.00  0.00     0.050 C 
ATOM     11  C   UNL d   1       2.491   4.113   2.622  0.00  0.00     0.040 A 
ATOM     12  C   UNL d   1       2.560   3.925   1.238  0.00  0.00     0.020 A 
ATOM     13  C   UNL d   1       1.881   2.864   0.630  0.00  0.00     0.031 A 
BRANCH  11  14
ATOM     14  C   UNL d   1       3.223   5.202   3.330  0.00  0.00     0.292 C 
ATOM     15  O   UNL d   1       3.192   5.359   4.540  0.00  0.00    -0.259 OA
BRANCH  14  16
ATOM     16  O   UNL d   1       3.914   5.969   2.447  0.00  0.00    -0.323 OA
ATOM     17  C   UNL d   1       4.664   7.025   3.052  0.00  0.00     0.213 C 
ENDBRANCH  14  16
ENDBRANCH  11  14
ENDBRANCH   2   7
BRANCH   3  18
ATOM     18  C   UNL d   1       0.566  -2.094  -1.289  0.00  0.00     0.162 C 
BRANCH  18  19
ATOM     19  C   UNL d   1      -0.121  -2.080  -2.636  0.00  0.00    -0.040 A 
ATOM     20  C   UNL d   1       0.113  -1.026  -3.533  0.00  0.00     0.010 A 
ATOM     21  C   UNL d   1      -0.485  -1.018  -4.797  0.00  0.00     0.018 A 
ATOM     22  C   UNL d   1      -1.314  -2.075  -5.194  0.00  0.00     0.039 A 
ATOM     23  C   UNL d   1      -1.555  -3.129  -4.308  0.00  0.00     0.018 A 
ATOM     24  C   UNL d   1      -0.965  -3.128  -3.037  0.00  0.00     0.010 A 
BRANCH  22  25
ATOM     25  C   UNL d   1      -1.913  -2.021  -6.549  0.00  0.00     0.292 C 
ATOM     26  O   UNL d   1      -2.107  -0.978  -7.161  0.00  0.00    -0.259 OA
BRANCH  25  27
ATOM     27  O   UNL d   1      -2.150  -3.272  -7.018  0.00  0.00    -0.323 OA
ATOM     28  C   UNL d   1      -2.655  -3.302  -8.355  0.00  0.00     0.213 C 
ENDBRANCH  25  27
ENDBRANCH  22  25
ENDBRANCH  18  19
ENDBRANCH   3  18
TORSDOF 7
