REMARK  4 active torsions:
REMARK  status: ('A' for Active; 'I' for Inactive)
REMARK    1  A    between atoms: N_2  and  S_1 
REMARK    2  A    between atoms: C_7  and  S_1 
REMARK    3  A    between atoms: O_17  and  C_11 
REMARK    4  A    between atoms: O_18  and  C_13 
ROOT
ATOM      1  N   UNL d   1       0.695   0.937   1.306  0.00  0.00    -0.298 N 
ATOM      2  C   UNL d   1       0.614   1.262   3.803  0.00  0.00    -0.026 A 
ATOM      3  C   UNL d   1       0.845   0.290   2.647  0.00  0.00     0.125 C 
ATOM      4  C   UNL d   1       0.595   2.651   3.617  0.00  0.00    -0.045 A 
ATOM      5  C   UNL d   1       0.467   0.749   5.101  0.00  0.00     0.049 A 
ATOM      6  C   UNL d   1       1.351   2.272   1.245  0.00  0.00     0.141 C 
ATOM      7  C   UNL d   1       0.378   1.590   6.213  0.00  0.00     0.102 A 
ATOM      8  C   UNL d   1       0.443   3.500   4.726  0.00  0.00     0.047 A 
ATOM      9  C   UNL d   1       0.351   2.982   6.026  0.00  0.00     0.102 A 
ATOM     10  C   UNL d   1       0.672   3.226   2.226  0.00  0.00     0.060 C 
ATOM     11  C   UNL d   1       2.204  -0.392   2.847  0.00  0.00     0.038 C 
ENDROOT
BRANCH   1  12
ATOM     12  S   UNL d   1       0.933  -0.006  -0.093  0.00  0.00     0.261 S 
ATOM     13  O   UNL d   1       2.330  -0.387  -0.144  0.00  0.00    -0.200 OA
ATOM     14  O   UNL d   1       0.328   0.696  -1.209  0.00  0.00    -0.200 OA
BRANCH  12  15
ATOM     15  C   UNL d   1      -0.038  -1.460   0.212  0.00  0.00     0.079 A 
ATOM     16  C   UNL d   1      -1.430  -1.349   0.269  0.00  0.00     0.026 A 
ATOM     17  C   UNL d   1      -2.187  -2.457   0.646  0.00  0.00     0.008 A 
ATOM     18  C   UNL d   1      -1.565  -3.672   0.968  0.00  0.00    -0.062 A 
ATOM     19  C   UNL d   1      -0.174  -3.786   0.842  0.00  0.00     0.008 A 
ATOM     20  C   UNL d   1      -2.386  -4.820   1.478  0.00  0.00     0.048 C 
ATOM     21  C   UNL d   1       0.590  -2.686   0.454  0.00  0.00     0.026 A 
ENDBRANCH  12  15
ENDBRANCH   1  12
BRANCH   7  22
ATOM     22  O   UNL d   1       0.283   1.112   7.498  0.00  0.00    -0.353 OA
ATOM     23  C   UNL d   1       0.894  -0.154   7.733  0.00  0.00     0.210 C 
ENDBRANCH   7  22
BRANCH   9  24
ATOM     24  O   UNL d   1       0.247   3.747   7.161  0.00  0.00    -0.353 OA
ATOM     25  C   UNL d   1       0.254   5.160   7.004  0.00  0.00     0.210 C 
ENDBRANCH   9  24
TORSDOF 4
