REMARK  1 active torsions:
REMARK  status: ('A' for Active; 'I' for Inactive)
REMARK    1  A    between atoms: C_7  and  N_1 
ROOT
ATOM      1  C   UNL d   1      -1.279  -1.313  -3.267  0.00  0.00     0.049 A 
ATOM      2  C   UNL d   1      -2.079  -1.755  -4.424  0.00  0.00     0.192 A 
ATOM      3  C   UNL d   1      -1.662  -0.159  -2.583  0.00  0.00     0.091 A 
ATOM      4  C   UNL d   1      -3.212  -0.884  -4.816  0.00  0.00     0.011 A 
ATOM      5  O   UNL d   1      -2.745   0.598  -2.954  0.00  0.00    -0.321 OA
ATOM      6  C   UNL d   1       0.187  -0.457  -1.062  0.00  0.00     0.105 A 
ATOM      7  C   UNL d   1      -3.449   0.201  -4.065  0.00  0.00     0.153 A 
ATOM      8  C   UNL d   1      -0.936   0.275  -1.474  0.00  0.00     0.074 A 
ATOM      9  C   UNL d   1      -0.154  -2.039  -2.859  0.00  0.00     0.021 A 
ATOM     10  O   UNL d   1      -1.808  -2.790  -5.019  0.00  0.00    -0.287 OA
ATOM     11  C   UNL d   1       0.587  -1.609  -1.756  0.00  0.00     0.037 A 
ATOM     12  C   UNL d   1      -4.033  -1.244  -6.010  0.00  0.00     0.054 C 
ENDROOT
BRANCH   6  13
ATOM     13  N   UNL d   1       0.950  -0.014   0.112  0.00  0.00    -0.116 N 
ATOM     14  O   UNL d   1       0.556   1.001   0.703  0.00  0.00    -0.532 OA
ATOM     15  O   UNL d   1       1.940  -0.682   0.441  0.00  0.00    -0.532 OA
ENDBRANCH   6  13
TORSDOF 1
