REMARK  2 active torsions:
REMARK  status: ('A' for Active; 'I' for Inactive)
REMARK    1  A    between atoms: C_7  and  C_1 
REMARK    2  A    between atoms: N_6  and  C_7 
ROOT
ATOM      1  C   UNL d   1      -1.145  -0.920   0.173  0.00  0.00     0.005 A 
ATOM      2  C   UNL d   1      -1.719   0.288   0.562  0.00  0.00     0.014 A 
ATOM      3  N   UNL d   1      -0.807   1.285   0.321  0.00  0.00    -0.359 N 
ATOM      4  C   UNL d   1       0.212  -0.614  -0.213  0.00  0.00     0.001 A 
ATOM      5  C   UNL d   1       0.386   0.763  -0.107  0.00  0.00     0.043 A 
ATOM      6  C   UNL d   1      -3.040   0.638   1.153  0.00  0.00     0.068 C 
ATOM      7  C   UNL d   1       1.320  -1.391  -0.617  0.00  0.00     0.014 A 
ATOM      8  C   UNL d   1       1.597   1.409  -0.392  0.00  0.00     0.030 A 
ATOM      9  C   UNL d   1       2.544  -0.766  -0.889  0.00  0.00     0.001 A 
ATOM     10  C   UNL d   1       2.676   0.615  -0.780  0.00  0.00     0.002 A 
ATOM     11  H   UNL d   1      -0.967   2.267   0.492  0.00  0.00     0.166 HD
ENDROOT
BRANCH   1  12
ATOM     12  C   UNL d   1      -1.716  -2.321   0.225  0.00  0.00     0.314 C 
BRANCH  12  13
ATOM     13  N   UNL d   1      -3.175  -2.332   0.105  0.00  0.00     0.097 N 
ATOM     14  C   UNL d   1      -3.654  -1.994  -1.245  0.00  0.00     0.311 C 
ATOM     15  C   UNL d   1      -4.641  -2.947  -1.890  0.00  0.00    -0.024 A 
ATOM     16  C   UNL d   1      -5.365  -2.535  -3.019  0.00  0.00     0.009 A 
ATOM     17  C   UNL d   1      -4.812  -4.255  -1.412  0.00  0.00    -0.049 A 
ATOM     18  C   UNL d   1      -6.249  -3.407  -3.655  0.00  0.00     0.001 A 
ATOM     19  C   UNL d   1      -6.411  -4.705  -3.177  0.00  0.00     0.001 A 
ATOM     20  C   UNL d   1      -5.691  -5.132  -2.062  0.00  0.00     0.007 A 
ATOM     21  C   UNL d   1      -4.027  -4.689  -0.208  0.00  0.00     0.069 C 
ATOM     22  C   UNL d   1      -3.809  -3.496   0.723  0.00  0.00     0.277 C 
ENDBRANCH  12  13
ENDBRANCH   1  12
TORSDOF 2
