REMARK  9 active torsions:
REMARK  status: ('A' for Active; 'I' for Inactive)
REMARK    1  A    between atoms: C_4  and  S_1 
REMARK    2  A    between atoms: N_5  and  S_1 
REMARK    3  A    between atoms: N_2  and  C_12 
REMARK    4  A    between atoms: O_7  and  C_3 
REMARK    5  A    between atoms: C_11  and  N_5 
REMARK    6  A    between atoms: C_10  and  C_6 
REMARK    7  A    between atoms: C_16  and  O_7 
REMARK       I    between atoms: N_20  and  C_10 
REMARK    8  A    between atoms: C_29  and  N_20 
REMARK    9  A    between atoms: C_22  and  C_29 
ROOT
ATOM      1  C   UNL d   1       4.916  -0.352  -1.627  0.00  0.00     0.119 A 
ATOM      2  C   UNL d   1       2.298  -0.117  -0.648  0.00  0.00     0.083 A 
ATOM      3  C   UNL d   1       4.668   0.274  -0.391  0.00  0.00     0.071 A 
ATOM      4  C   UNL d   1       3.819  -0.751  -2.409  0.00  0.00     0.071 A 
ATOM      5  C   UNL d   1       2.512  -0.625  -1.931  0.00  0.00     0.052 A 
ATOM      6  C   UNL d   1       3.365   0.355   0.113  0.00  0.00     0.052 A 
ATOM      7 CL   UNL d   1       4.033  -1.399  -3.997  0.00  0.00    -0.081 Cl
ATOM      8 CL   UNL d   1       5.890   1.047   0.563  0.00  0.00    -0.081 Cl
ENDROOT
BRANCH   2   9
ATOM      9  S   UNL d   1       0.638   0.102  -0.064  0.00  0.00     0.263 S 
ATOM     10  O   UNL d   1      -0.225   0.154  -1.213  0.00  0.00    -0.200 OA
ATOM     11  O   UNL d   1       0.659   1.182   0.902  0.00  0.00    -0.200 OA
BRANCH   9  12
ATOM     12  N   UNL d   1       0.251  -1.278   0.830  0.00  0.00    -0.280 N 
ATOM     13  H   UNL d   1       0.237  -1.063   1.830  0.00  0.00     0.179 HD
BRANCH  12  14
ATOM     14  C   UNL d   1       0.766  -2.571   0.487  0.00  0.00     0.058 A 
ATOM     15  C   UNL d   1       0.168  -3.462  -0.418  0.00  0.00     0.059 A 
ATOM     16  C   UNL d   1       0.748  -4.738  -0.589  0.00  0.00     0.019 A 
ATOM     17  C   UNL d   1       1.902  -5.115   0.097  0.00  0.00     0.001 A 
ATOM     18  C   UNL d   1       2.511  -4.216   0.959  0.00  0.00     0.002 A 
ATOM     19  C   UNL d   1       1.946  -2.953   1.154  0.00  0.00     0.031 A 
BRANCH  15  20
ATOM     20  C   UNL d   1      -1.070  -3.224  -1.218  0.00  0.00     0.253 C 
ATOM     21  N   UNL d   1      -1.913  -2.207  -0.839  0.00  0.00    -0.356 N 
ATOM     22  H   UNL d   1      -1.569  -1.521  -0.180  0.00  0.00     0.162 HD
ATOM     23  O   UNL d   1      -1.302  -3.949  -2.182  0.00  0.00    -0.268 OA
BRANCH  21  24
ATOM     24  C   UNL d   1      -2.986  -1.797  -1.714  0.00  0.00     0.127 C 
BRANCH  24  25
ATOM     25  C   UNL d   1      -4.118  -1.219  -0.928  0.00  0.00     0.003 A 
ATOM     26  C   UNL d   1      -4.841  -2.006   0.139  0.00  0.00     0.007 A 
ATOM     27  C   UNL d   1      -5.511  -1.744  -1.179  0.00  0.00     0.007 A 
ENDBRANCH  24  25
ENDBRANCH  21  24
ENDBRANCH  15  20
ENDBRANCH  12  14
ENDBRANCH   9  12
ENDBRANCH   2   9
BRANCH   1  28
ATOM     28  O   UNL d   1       6.165  -0.549  -2.184  0.00  0.00    -0.306 OA
BRANCH  28  29
ATOM     29  C   UNL d   1       7.203  -0.977  -1.385  0.00  0.00     0.098 A 
ATOM     30  C   UNL d   1       8.472  -0.422  -1.613  0.00  0.00     0.070 A 
ATOM     31  C   UNL d   1       9.527  -0.689  -0.739  0.00  0.00     0.062 A 
ATOM     32 CL   UNL d   1       8.756   0.645  -2.940  0.00  0.00    -0.081 Cl
ATOM     33  C   UNL d   1       9.304  -1.524   0.362  0.00  0.00     0.104 A 
ATOM     34  C   UNL d   1       8.065  -2.154   0.548  0.00  0.00     0.039 A 
ATOM     35  C   UNL d   1       7.024  -1.905  -0.349  0.00  0.00     0.041 A 
BRANCH  33  36
ATOM     36  N   UNL d   1      10.371  -1.720   1.351  0.00  0.00    -0.116 N 
ATOM     37  O   UNL d   1      11.475  -1.211   1.115  0.00  0.00    -0.532 OA
ATOM     38  O   UNL d   1      10.098  -2.374   2.367  0.00  0.00    -0.532 OA
ENDBRANCH  33  36
ENDBRANCH  28  29
ENDBRANCH   1  28
TORSDOF 9
