REMARK  3 active torsions:
REMARK  status: ('A' for Active; 'I' for Inactive)
REMARK    1  A    between atoms: C_22  and  C_16 
REMARK    2  A    between atoms: C_17  and  C_22 
REMARK    3  A    between atoms: C_18  and  C_22 
ROOT
ATOM      1  C   UNL d   1      -1.113   3.963   0.297  0.00  0.00     0.056 C 
ENDROOT
BRANCH   1   2
ATOM      2  C   UNL d   1      -1.546   3.806   1.754  0.00  0.00    -0.001 C 
ATOM      3  C   UNL d   1      -1.069   4.398   2.868  0.00  0.00    -0.017 C 
ATOM      4  C   UNL d   1      -1.654   4.231   4.217  0.00  0.00    -0.013 C 
ATOM      5  C   UNL d   1      -0.106   5.500   2.975  0.00  0.00    -0.014 A 
ATOM      6  C   UNL d   1      -1.643   5.520   4.792  0.00  0.00    -0.003 C 
ATOM      7  C   UNL d   1      -1.540   3.115   5.033  0.00  0.00     0.014 C 
ATOM      8  C   UNL d   1      -1.993   5.679   6.134  0.00  0.00    -0.014 C 
ATOM      9  C   UNL d   1      -0.547   6.257   4.096  0.00  0.00    -0.013 A 
ATOM     10  C   UNL d   1      -2.579   6.851   6.647  0.00  0.00     0.013 C 
ATOM     11  C   UNL d   1      -1.741   4.591   6.987  0.00  0.00    -0.025 C 
ATOM     12  C   UNL d   1      -2.777   6.990   8.018  0.00  0.00     0.001 C 
ATOM     13  C   UNL d   1      -2.291   6.013   8.884  0.00  0.00     0.001 C 
ATOM     14  C   UNL d   1      -1.771   4.820   8.373  0.00  0.00     0.012 C 
ATOM     15  C   UNL d   1      -1.473   3.322   6.421  0.00  0.00     0.013 C 
ATOM     16  C   UNL d   1       0.276   7.257   4.598  0.00  0.00     0.013 A 
ATOM     17  C   UNL d   1       1.541   7.440   4.021  0.00  0.00     0.001 A 
ATOM     18  C   UNL d   1       1.985   6.630   2.964  0.00  0.00     0.001 A 
ATOM     19  C   UNL d   1       1.158   5.640   2.438  0.00  0.00     0.013 A 
ENDBRANCH   1   2
BRANCH   1  20
ATOM     20  C   UNL d   1      -0.868   5.399  -0.093  0.00  0.00    -0.001 C 
ATOM     21  C   UNL d   1      -1.778   6.378  -0.295  0.00  0.00    -0.017 C 
ATOM     22  C   UNL d   1      -1.390   7.794  -0.528  0.00  0.00    -0.013 C 
ATOM     23  C   UNL d   1      -3.255   6.338  -0.165  0.00  0.00    -0.014 A 
ATOM     24  C   UNL d   1      -2.537   8.588  -0.273  0.00  0.00    -0.003 C 
ATOM     25  C   UNL d   1      -0.223   8.365  -1.005  0.00  0.00     0.014 C 
ATOM     26  C   UNL d   1      -2.461  10.007  -0.331  0.00  0.00    -0.014 C 
ATOM     27  C   UNL d   1      -3.691   7.688  -0.130  0.00  0.00    -0.013 A 
ATOM     28  C   UNL d   1      -3.451  10.886   0.158  0.00  0.00     0.013 C 
ATOM     29  C   UNL d   1      -1.297  10.573  -0.902  0.00  0.00    -0.025 C 
ATOM     30  C   UNL d   1      -3.354  12.266  -0.028  0.00  0.00     0.001 C 
ATOM     31  C   UNL d   1      -2.270  12.800  -0.712  0.00  0.00     0.001 C 
ATOM     32  C   UNL d   1      -1.251  11.952  -1.143  0.00  0.00     0.012 C 
ATOM     33  C   UNL d   1      -0.204   9.742  -1.244  0.00  0.00     0.013 C 
ATOM     34  C   UNL d   1      -5.051   7.977  -0.167  0.00  0.00     0.013 A 
ATOM     35  C   UNL d   1      -5.972   6.929  -0.232  0.00  0.00     0.001 A 
ATOM     36  C   UNL d   1      -5.537   5.602  -0.268  0.00  0.00     0.001 A 
ATOM     37  C   UNL d   1      -4.172   5.298  -0.237  0.00  0.00     0.013 A 
ENDBRANCH   1  20
BRANCH   1  38
ATOM     38  C   UNL d   1      -0.050   2.921   0.055  0.00  0.00    -0.001 C 
ATOM     39  C   UNL d   1       1.072   2.700  -0.652  0.00  0.00    -0.017 A 
ATOM     40  C   UNL d   1       1.771   1.388  -0.465  0.00  0.00    -0.013 A 
ATOM     41  C   UNL d   1       1.841   3.478  -1.648  0.00  0.00    -0.014 A 
ATOM     42  C   UNL d   1       2.976   1.430  -1.206  0.00  0.00    -0.003 A 
ATOM     43  C   UNL d   1       1.367   0.244   0.212  0.00  0.00     0.014 C 
ATOM     44  C   UNL d   1       3.836   0.301  -1.207  0.00  0.00    -0.014 A 
ATOM     45  C   UNL d   1       3.001   2.704  -1.953  0.00  0.00    -0.013 A 
ATOM     46  C   UNL d   1       5.133   0.244  -1.768  0.00  0.00     0.013 A 
ATOM     47  C   UNL d   1       3.358  -0.891  -0.592  0.00  0.00    -0.025 A 
ATOM     48  C   UNL d   1       5.867  -0.946  -1.818  0.00  0.00     0.001 A 
ATOM     49  C   UNL d   1       5.329  -2.118  -1.308  0.00  0.00     0.001 A 
ATOM     50  C   UNL d   1       4.087  -2.084  -0.682  0.00  0.00     0.012 A 
ATOM     51  C   UNL d   1       2.147  -0.899   0.114  0.00  0.00     0.013 C 
ATOM     52  C   UNL d   1       3.861   3.134  -2.959  0.00  0.00     0.013 A 
ATOM     53  C   UNL d   1       3.586   4.322  -3.642  0.00  0.00     0.001 A 
ATOM     54  C   UNL d   1       2.441   5.067  -3.342  0.00  0.00     0.001 A 
ATOM     55  C   UNL d   1       1.553   4.636  -2.354  0.00  0.00     0.013 A 
ENDBRANCH   1  38
TORSDOF 3
