REMARK  1 active torsions:
REMARK  status: ('A' for Active; 'I' for Inactive)
REMARK    1  A    between atoms: C_7  and  C_3 
ROOT
ATOM      1  N   UNL d   1       0.837   0.325   0.729  0.00  0.00    -0.261 N 
ATOM      2  HN  UNL d   1       1.512   0.585   1.448  1.00  0.00     0.194 HD
ATOM      3  C   UNL d   1       0.963  -0.642  -0.121  0.00  0.00     0.052 A 
ATOM      4  C   UNL d   1      -0.199  -0.782  -1.032  0.00  0.00     0.173 A 
ATOM      5  O   UNL d   1      -0.416   0.964   0.481  0.00  0.00    -0.199 OA
ATOM      6  C   UNL d   1      -1.046   0.349  -0.573  0.00  0.00     0.286 A 
ATOM      7  O   UNL d   1      -2.123   0.676  -1.048  0.00  0.00    -0.263 OA
ENDROOT
BRANCH   3   8
ATOM      8  C   UNL d   1       2.141  -1.531  -0.200  0.00  0.00    -0.011 A 
ATOM      9  C   UNL d   1       3.182  -1.369   0.722  0.00  0.00     0.013 A 
ATOM     10  C   UNL d   1       4.308  -2.192   0.660  0.00  0.00     0.001 A 
ATOM     11  C   UNL d   1       4.399  -3.178  -0.321  0.00  0.00     0.000 A 
ATOM     12  C   UNL d   1       3.365  -3.343  -1.242  0.00  0.00     0.001 A 
ATOM     13  C   UNL d   1       2.235  -2.523  -1.183  0.00  0.00     0.013 A 
ENDBRANCH   3   8
TORSDOF 1
