REMARK  1 active torsions:
REMARK  status: ('A' for Active; 'I' for Inactive)
REMARK    1  A    between atoms: C_9  and  C_7 
ROOT
ATOM      1  C   UNL d   1      -0.103  -0.772  -0.035  0.00  0.00     0.066 A 
ATOM      2  N   UNL d   1      -0.690   1.433  -0.040  0.00  0.00    -0.261 N 
ATOM      3  HN  UNL d   1      -1.234   2.295  -0.042  1.00  0.00     0.194 HD
ATOM      4  C   UNL d   1       1.142   0.007  -0.034  0.00  0.00     0.317 A 
ATOM      5  O   UNL d   1       0.746   1.329  -0.039  0.00  0.00    -0.195 OA
ATOM      6  C   UNL d   1      -1.161   0.223  -0.038  0.00  0.00     0.045 A 
ATOM      7  C   UNL d   1      -0.288  -2.098  -0.026  0.00  0.00     0.031 C 
ATOM      8  O   UNL d   1       2.289  -0.397  -0.034  0.00  0.00    -0.257 OA
ATOM      9  C   UNL d   1      -2.619  -0.094  -0.029  0.00  0.00     0.071 C 
ENDROOT
BRANCH   7  10
ATOM     10  C   UNL d   1       0.784  -3.092   0.013  0.00  0.00    -0.035 A 
ATOM     11  C   UNL d   1       1.256  -3.557   1.245  0.00  0.00     0.011 A 
ATOM     12  C   UNL d   1       2.255  -4.532   1.292  0.00  0.00     0.001 A 
ATOM     13  C   UNL d   1       2.784  -5.045   0.109  0.00  0.00     0.000 A 
ATOM     14  C   UNL d   1       2.320  -4.581  -1.122  0.00  0.00     0.001 A 
ATOM     15  C   UNL d   1       1.322  -3.606  -1.171  0.00  0.00     0.011 A 
ENDBRANCH   7  10
TORSDOF 1
