REMARK  7 active torsions:
REMARK  status: ('A' for Active; 'I' for Inactive)
REMARK    1  A    between atoms: C_6  and  N_1 
REMARK    2  A    between atoms: C_2  and  C_8 
REMARK    3  A    between atoms: C_4  and  N_18 
REMARK    4  A    between atoms: N_14  and  C_4 
REMARK    5  A    between atoms: C_16  and  C_7 
REMARK    6  A    between atoms: N_18  and  N_9 
REMARK    7  A    between atoms: C_19  and  N_14 
ROOT
ATOM      1  N   UNL d   1       2.246  -0.402  -8.850  0.00  0.00    -0.307 N 
ATOM      2  HN  UNL d   1       2.224  -1.402  -8.648  1.00  0.00     0.186 HD
ATOM      3  C   UNL d   1       1.855   0.466  -7.971  0.00  0.00     0.144 C 
ENDROOT
BRANCH   1   4
ATOM      4  N   UNL d   1       2.688   0.065 -10.054  0.00  0.00    -0.276 N 
ATOM      5  H   UNL d   1       2.176   0.819 -10.501  0.00  0.00     0.189 HD
BRANCH   4   6
ATOM      6  C   UNL d   1       3.571  -0.685 -10.789  0.00  0.00     0.191 C 
ATOM      7  S   UNL d   1       4.860  -1.536 -10.133  0.00  0.00    -0.039 SA
BRANCH   6   8
ATOM      8  N   UNL d   1       3.451  -0.676 -12.151  0.00  0.00    -0.332 N 
ATOM      9  H   UNL d   1       4.293  -1.017 -12.606  0.00  0.00     0.168 HD
BRANCH   8  10
ATOM     10  C   UNL d   1       2.287  -0.761 -12.949  0.00  0.00     0.034 A 
ATOM     11  C   UNL d   1       0.983  -0.791 -12.442  0.00  0.00     0.032 A 
ATOM     12  C   UNL d   1      -0.104  -0.996 -13.300  0.00  0.00     0.044 A 
ATOM     13  C   UNL d   1       0.112  -1.186 -14.658  0.00  0.00     0.116 A 
ATOM     14  C   UNL d   1       1.396  -1.163 -15.182  0.00  0.00     0.044 A 
ATOM     15  F   UNL d   1      -0.929  -1.417 -15.468  0.00  0.00    -0.206 F 
ATOM     16  C   UNL d   1       2.481  -0.946 -14.328  0.00  0.00     0.032 A 
ENDBRANCH   8  10
ENDBRANCH   6   8
ENDBRANCH   4   6
ENDBRANCH   1   4
BRANCH   3  17
ATOM     17  C   UNL d   1       1.284  -0.020  -6.747  0.00  0.00     0.093 A 
ATOM     18  O   UNL d   1       1.409   0.698  -5.586  0.00  0.00    -0.309 OA
ATOM     19  C   UNL d   1       0.866  -0.061  -4.578  0.00  0.00     0.086 A 
ATOM     20  C   UNL d   1       0.299  -1.201  -5.117  0.00  0.00     0.041 A 
ATOM     21  C   UNL d   1       0.614  -1.199  -6.490  0.00  0.00     0.041 A 
BRANCH  19  22
ATOM     22  C   UNL d   1       1.052   0.400  -3.200  0.00  0.00     0.000 A 
ATOM     23  C   UNL d   1       1.835   1.522  -2.897  0.00  0.00     0.050 A 
ATOM     24  C   UNL d   1       2.102   1.853  -1.556  0.00  0.00     0.103 A 
ATOM     25  C   UNL d   1       1.580   1.087  -0.508  0.00  0.00     0.036 A 
ATOM     26  C   UNL d   1       0.777  -0.011  -0.801  0.00  0.00     0.003 A 
ATOM     27  C   UNL d   1       0.517  -0.347  -2.134  0.00  0.00     0.014 A 
BRANCH  24  28
ATOM     28  N   UNL d   1       2.969   2.997  -1.248  0.00  0.00    -0.116 N 
ATOM     29  O   UNL d   1       3.422   3.650  -2.200  0.00  0.00    -0.532 OA
ATOM     30  O   UNL d   1       3.198   3.244  -0.057  0.00  0.00    -0.532 OA
ENDBRANCH  24  28
ENDBRANCH  19  22
ENDBRANCH   3  17
TORSDOF 7
