REMARK  3 active torsions:
REMARK  status: ('A' for Active; 'I' for Inactive)
REMARK    1  A    between atoms: C_5  and  N_1 
REMARK    2  A    between atoms: C_7  and  C_5 
REMARK    3  A    between atoms: C_10  and  C_7 
ROOT
ATOM      1  N   UNL d   1       1.479  -0.981  -0.201  0.00  0.00    -0.283 N 
ATOM      2  C   UNL d   1       2.164   0.194  -0.439  0.00  0.00     0.373 A 
ATOM      3  C   UNL d   1       0.147  -0.664  -0.067  0.00  0.00     0.074 A 
ATOM      4  O   UNL d   1       1.309   1.299  -0.403  0.00  0.00    -0.259 OA
ATOM      5  C   UNL d   1       0.075   0.710  -0.184  0.00  0.00     0.107 A 
ATOM      6  O   UNL d   1       3.366   0.285  -0.655  0.00  0.00    -0.237 OA
ATOM      7  C   UNL d   1      -0.977  -1.442   0.104  0.00  0.00     0.039 A 
ATOM      8  C   UNL d   1      -1.124   1.386  -0.117  0.00  0.00     0.040 A 
ATOM      9  C   UNL d   1      -2.219  -0.788   0.144  0.00  0.00    -0.060 A 
ATOM     10  C   UNL d   1      -2.283   0.622   0.049  0.00  0.00     0.009 A 
ATOM     11  C   UNL d   1      -3.493  -1.578   0.246  0.00  0.00     0.048 C 
ENDROOT
BRANCH   1  12
ATOM     12  C   UNL d   1       2.062  -2.297  -0.236  0.00  0.00     0.218 C 
BRANCH  12  13
ATOM     13  C   UNL d   1       1.975  -3.066   1.075  0.00  0.00     0.177 C 
ATOM     14  O   UNL d   1       0.970  -3.688   1.419  0.00  0.00    -0.291 OA
BRANCH  13  15
ATOM     15  C   UNL d   1       3.165  -3.092   1.960  0.00  0.00     0.012 A 
ATOM     16  C   UNL d   1       3.918  -1.935   2.201  0.00  0.00     0.018 A 
ATOM     17  C   UNL d   1       5.037  -1.998   3.031  0.00  0.00     0.043 A 
ATOM     18  C   UNL d   1       5.401  -3.210   3.611  0.00  0.00     0.116 A 
ATOM     19  C   UNL d   1       4.652  -4.362   3.390  0.00  0.00     0.043 A 
ATOM     20  F   UNL d   1       6.485  -3.268   4.393  0.00  0.00    -0.206 F 
ATOM     21  C   UNL d   1       3.524  -4.302   2.570  0.00  0.00     0.018 A 
ENDBRANCH  13  15
ENDBRANCH  12  13
ENDBRANCH   1  12
TORSDOF 3
