REMARK  8 active torsions:
REMARK  status: ('A' for Active; 'I' for Inactive)
REMARK    1  A    between atoms: C_4  and  C_1 
REMARK    2  A    between atoms: N_2  and  O_9 
REMARK    3  A    between atoms: O_9  and  C_4 
REMARK    4  A    between atoms: C_5  and  C_17 
REMARK    5  A    between atoms: C_10  and  C_6 
REMARK    6  A    between atoms: N_21  and  C_6 
REMARK    7  A    between atoms: O_16  and  C_11 
REMARK    8  A    between atoms: C_17  and  O_16 
ROOT
ATOM      1  C   UNL d   1      -0.637   1.375  -0.114  0.00  0.00     0.316 C 
ATOM      2  O   UNL d   1      -1.145   0.266  -0.206  0.00  0.00    -0.257 OA
ENDROOT
BRANCH   1   3
ATOM      3  C   UNL d   1       0.819   1.587   0.035  0.00  0.00     0.057 A 
ATOM      4  C   UNL d   1       1.642   0.474   0.116  0.00  0.00     0.107 A 
ATOM      5  N   UNL d   1       2.998   0.534   0.154  0.00  0.00    -0.346 N 
ATOM      6  C   UNL d   1       3.573   1.752   0.097  0.00  0.00     0.142 A 
ATOM      7  HN  UNL d   1       3.562  -0.313   0.222  1.00  0.00     0.167 HD
ATOM      8  C   UNL d   1       2.830   2.923   0.026  0.00  0.00     0.057 A 
ATOM      9  C   UNL d   1       1.435   2.840  -0.001  0.00  0.00     0.023 A 
BRANCH   6  10
ATOM     10  O   UNL d   1       4.933   1.699   0.020  0.00  0.00    -0.327 OA
BRANCH  10  11
ATOM     11  C   UNL d   1       5.636   2.757   0.675  0.00  0.00     0.294 C 
BRANCH  11  12
ATOM     12  C   UNL d   1       7.139   2.491   0.701  0.00  0.00     0.408 C 
ATOM     13  F   UNL d   1       7.488   1.326   0.120  0.00  0.00    -0.169 F 
ATOM     14  F   UNL d   1       7.805   3.480   0.055  0.00  0.00    -0.169 F 
ATOM     15  F   UNL d   1       7.602   2.470   1.974  0.00  0.00    -0.169 F 
ENDBRANCH  11  12
ENDBRANCH  10  11
ENDBRANCH   6  10
ENDBRANCH   1   3
BRANCH   1  16
ATOM     16  O   UNL d   1      -1.280   2.576  -0.168  0.00  0.00    -0.193 OA
BRANCH  16  17
ATOM     17  N   UNL d   1      -2.245   2.527  -1.192  0.00  0.00    -0.246 N 
ATOM     18  C   UNL d   1      -3.016   3.572  -1.177  0.00  0.00     0.109 C 
ATOM     19  HN  UNL d   1      -2.328   1.765  -1.864  1.00  0.00     0.196 HD
BRANCH  18  20
ATOM     20  C   UNL d   1      -3.961   3.747  -2.322  0.00  0.00     0.005 A 
ATOM     21  C   UNL d   1      -4.330   5.033  -2.730  0.00  0.00     0.038 A 
ATOM     22  C   UNL d   1      -5.158   5.190  -3.840  0.00  0.00     0.035 A 
ATOM     23 CL   UNL d   1      -5.593   6.772  -4.360  0.00  0.00    -0.084 Cl
ATOM     24  C   UNL d   1      -5.625   4.079  -4.543  0.00  0.00     0.024 A 
ATOM     25  C   UNL d   1      -5.257   2.796  -4.136  0.00  0.00     0.003 A 
ATOM     26  C   UNL d   1      -4.421   2.629  -3.030  0.00  0.00     0.015 A 
ENDBRANCH  18  20
BRANCH  18  27
ATOM     27  N   UNL d   1      -3.006   4.518  -0.175  0.00  0.00    -0.286 NA
ATOM     28  H   UNL d   1      -2.575   4.161   0.672  0.00  0.00     0.125 HD
ATOM     29  H   UNL d   1      -3.907   4.942   0.021  0.00  0.00     0.125 HD
ENDBRANCH  18  27
ENDBRANCH  16  17
ENDBRANCH   1  16
TORSDOF 8
