REMARK  4 active torsions:
REMARK  status: ('A' for Active; 'I' for Inactive)
REMARK    1  A    between atoms: O_9  and  C_1 
REMARK    2  A    between atoms: C_8  and  C_4 
REMARK    3  A    between atoms: O_10  and  C_5 
REMARK    4  A    between atoms: C_14  and  O_9 
ROOT
ATOM      1  C   UNL d   1       0.722  -1.154   0.011  0.00  0.00     0.130 C 
ATOM      2  N   UNL d   1       0.660   1.383  -0.121  0.00  0.00    -0.336 N 
ATOM      3  HN  UNL d   1       1.105   2.277  -0.328  1.00  0.00     0.164 HD
ATOM      4  C   UNL d   1      -0.632   1.276  -0.086  0.00  0.00     0.189 C 
ATOM      5  C   UNL d   1       1.469   0.182   0.147  0.00  0.00     0.181 C 
ATOM      6  N   UNL d   1      -1.285   0.072   0.119  0.00  0.00    -0.340 N 
ATOM      7  C   UNL d   1      -0.628  -1.136   0.018  0.00  0.00     0.042 C 
ATOM      8  C   UNL d   1       2.010   0.368   1.573  0.00  0.00     0.079 C 
ATOM      9  C   UNL d   1      -1.462  -2.372  -0.165  0.00  0.00     0.071 C 
ATOM     10  H   UNL d   1      -2.297   0.058  -0.002  0.00  0.00     0.167 HD
ENDROOT
BRANCH   1  11
ATOM     11  O   UNL d   1       1.394  -2.311  -0.402  0.00  0.00    -0.308 OA
BRANCH  11  12
ATOM     12  C   UNL d   1       2.368  -2.885   0.381  0.00  0.00     0.076 A 
ATOM     13  C   UNL d   1       2.093  -4.130   0.955  0.00  0.00     0.039 A 
ATOM     14  C   UNL d   1       3.104  -4.842   1.613  0.00  0.00     0.026 A 
ATOM     15  C   UNL d   1       4.389  -4.308   1.698  0.00  0.00     0.034 A 
ATOM     16  C   UNL d   1       4.674  -3.078   1.115  0.00  0.00     0.026 A 
ATOM     17 CL   UNL d   1       5.638  -5.186   2.490  0.00  0.00    -0.084 Cl
ATOM     18  C   UNL d   1       3.671  -2.386   0.431  0.00  0.00     0.039 A 
ENDBRANCH  11  12
ENDBRANCH   1  11
BRANCH   5  19
ATOM     19  O   UNL d   1       2.559   0.180  -0.759  0.00  0.00    -0.365 OA
ATOM     20  H   UNL d   1       2.278   0.833  -1.422  0.00  0.00     0.213 HD
ENDBRANCH   5  19
BRANCH   4  21
ATOM     21  C   UNL d   1      -1.488   2.542  -0.321  0.00  0.00     0.449 C 
ATOM     22  F   UNL d   1      -2.820   2.239  -0.317  0.00  0.00    -0.163 F 
ATOM     23  F   UNL d   1      -1.302   3.485   0.639  0.00  0.00    -0.163 F 
ATOM     24  F   UNL d   1      -1.231   3.132  -1.518  0.00  0.00    -0.163 F 
ENDBRANCH   4  21
TORSDOF 4
