REMARK  2 active torsions:
REMARK  status: ('A' for Active; 'I' for Inactive)
REMARK    1  A    between atoms: C_4  and  N_1 
REMARK    2  A    between atoms: N_8  and  C_7 
ROOT
ATOM      1  C   UNL d   1       3.296  -0.191  -0.151  0.00  0.00     0.072 A 
ATOM      2  C   UNL d   1       3.950   0.671   0.767  0.00  0.00     0.058 A 
ATOM      3  C   UNL d   1       4.023  -1.083  -0.960  0.00  0.00     0.032 A 
ATOM      4  C   UNL d   1       5.354   0.591   0.814  0.00  0.00     0.031 A 
ATOM      5  C   UNL d   1       5.411  -1.112  -0.903  0.00  0.00     0.002 A 
ATOM      6  C   UNL d   1       6.076  -0.279  -0.013  0.00  0.00     0.002 A 
ENDROOT
BRANCH   1   7
ATOM      7  N   UNL d   1       1.902  -0.151  -0.331  0.00  0.00    -0.241 N 
ATOM      8  C   UNL d   1       1.070  -1.192  -0.007  0.00  0.00     0.266 A 
ATOM      9  C   UNL d   1      -0.278  -0.759  -0.354  0.00  0.00     0.048 A 
ATOM     10  O   UNL d   1       1.309  -2.276   0.497  0.00  0.00    -0.267 OA
ATOM     11  C   UNL d   1      -1.491  -1.395  -0.175  0.00  0.00     0.018 A 
ATOM     12  C   UNL d   1      -0.181   0.491  -0.942  0.00  0.00     0.048 A 
ATOM     13  C   UNL d   1      -2.631  -0.742  -0.649  0.00  0.00     0.001 A 
ATOM     14  C   UNL d   1      -2.531   0.511  -1.288  0.00  0.00     0.001 A 
ATOM     15  C   UNL d   1      -1.292   1.146  -1.437  0.00  0.00     0.018 A 
ATOM     16  C   UNL d   1       1.229   0.886  -0.928  0.00  0.00     0.266 A 
ATOM     17  O   UNL d   1       1.624   1.920  -1.438  0.00  0.00    -0.267 OA
ENDBRANCH   1   7
BRANCH   2  18
ATOM     18  N   UNL d   1       3.237   1.567   1.574  0.00  0.00    -0.375 N 
ATOM     19  C   UNL d   1       3.927   2.759   2.110  0.00  0.00     0.149 C 
ATOM     20  C   UNL d   1       2.872   3.794   2.541  0.00  0.00     0.187 C 
ATOM     21  O   UNL d   1       1.947   3.247   3.500  0.00  0.00    -0.388 OA
ATOM     22  C   UNL d   1       1.293   2.086   2.957  0.00  0.00     0.187 C 
ATOM     23  C   UNL d   1       2.314   0.998   2.579  0.00  0.00     0.149 C 
ENDBRANCH   2  18
TORSDOF 2
