REMARK  1 active torsions:
REMARK  status: ('A' for Active; 'I' for Inactive)
REMARK    1  A    between atoms: N_8  and  C_2 
REMARK       I    between atoms: C_10  and  N_8 
ROOT
ATOM      1  O   UNL d   1       1.158   1.460  -0.019  0.00  0.00    -0.272 OA
ATOM      2  C   UNL d   1       2.448  -0.649  -0.017  0.00  0.00     0.112 A 
ATOM      3  C   UNL d   1       2.406   0.848  -0.037  0.00  0.00     0.315 A 
ATOM      4  C   UNL d   1      -0.040   0.717  -0.005  0.00  0.00     0.107 A 
ATOM      5  C   UNL d   1       0.013  -0.673  -0.001  0.00  0.00     0.003 A 
ATOM      6  C   UNL d   1       1.302  -1.341  -0.001  0.00  0.00     0.050 A 
ATOM      7  C   UNL d   1      -1.270   1.381   0.001  0.00  0.00     0.047 A 
ATOM      8  C   UNL d   1      -2.456   0.644   0.005  0.00  0.00     0.046 A 
ATOM      9  C   UNL d   1      -1.173  -1.411   0.003  0.00  0.00     0.038 A 
ATOM     10  C   UNL d   1      -2.400  -0.749   0.004  0.00  0.00     0.036 A 
ATOM     11  O   UNL d   1       3.454   1.496  -0.066  0.00  0.00    -0.257 OA
ATOM     12 BR   UNL d   1      -1.379   3.272   0.005  0.00  0.00    -0.048 Br
ATOM     13 CL   UNL d   1      -3.856  -1.666   0.003  0.00  0.00    -0.084 Cl
ENDROOT
BRANCH   2  14
ATOM     14  N   UNL d   1       3.714  -1.219  -0.017  0.00  0.00    -0.322 N 
ATOM     15  C   UNL d   1       4.037  -2.562   0.006  0.00  0.00     0.218 C 
ATOM     16  O   UNL d   1       3.237  -3.493   0.035  0.00  0.00    -0.274 OA
ATOM     17  C   UNL d   1       5.516  -2.842  -0.004  0.00  0.00     0.117 C 
ATOM     18  H   UNL d   1       4.474  -0.539  -0.036  0.00  0.00     0.169 HD
ENDBRANCH   2  14
TORSDOF 1
