REMARK  0 active torsions:
REMARK  status: ('A' for Active; 'I' for Inactive)
ROOT
ATOM      1  C   UNL d   1       2.300   0.316   0.015  0.00  0.00     0.297 A 
ATOM      2  C   UNL d   1       0.003  -0.375   0.016  0.00  0.00     0.049 A 
ATOM      3  N   UNL d   1       1.457   1.411   0.019  0.00  0.00    -0.319 N 
ATOM      4  C   UNL d   1       1.360  -0.924   0.017  0.00  0.00     0.252 A 
ATOM      5  C   UNL d   1       0.124   1.015   0.014  0.00  0.00     0.049 A 
ATOM      6  C   UNL d   1      -1.217  -1.018   0.009  0.00  0.00     0.060 A 
ATOM      7  O   UNL d   1       3.509   0.304   0.007  0.00  0.00    -0.264 OA
ATOM      8  O   UNL d   1       1.675  -2.090   0.017  0.00  0.00    -0.281 OA
ATOM      9  C   UNL d   1      -0.989   1.830   0.002  0.00  0.00     0.033 A 
ATOM     10  C   UNL d   1      -2.342  -0.201  -0.005  0.00  0.00     0.117 A 
ATOM     11  C   UNL d   1      -2.240   1.203  -0.010  0.00  0.00     0.044 A 
ATOM     12  F   UNL d   1      -3.558  -0.762  -0.017  0.00  0.00    -0.206 F 
ATOM     13  H   UNL d   1       1.799   2.361   0.017  0.00  0.00     0.169 HD
ENDROOT
TORSDOF 0
