REMARK  3 active torsions:
REMARK  status: ('A' for Active; 'I' for Inactive)
REMARK    1  A    between atoms: C_7  and  C_1 
REMARK    2  A    between atoms: C_9  and  C_2 
REMARK    3  A    between atoms: C_13  and  C_7 
ROOT
ATOM      1  C   UNL d   1       2.182   0.645  -0.395  0.00  0.00     0.015 C 
ATOM      2  C   UNL d   1       2.343  -0.686  -0.235  0.00  0.00     0.026 C 
ATOM      3  S   UNL d   1       1.104  -1.817   0.189  0.00  0.00    -0.088 SA
ATOM      4  C   UNL d   1       0.865   1.314  -0.160  0.00  0.00     0.191 C 
ATOM      5  C   UNL d   1      -0.382   0.526  -0.110  0.00  0.00     0.032 A 
ATOM      6  C   UNL d   1      -0.372  -0.862  -0.003  0.00  0.00     0.019 A 
ATOM      7  O   UNL d   1       0.796   2.535  -0.037  0.00  0.00    -0.287 OA
ATOM      8  C   UNL d   1      -1.605   1.218  -0.176  0.00  0.00     0.017 A 
ATOM      9  C   UNL d   1      -1.595  -1.548   0.004  0.00  0.00     0.020 A 
ATOM     10  C   UNL d   1      -2.815   0.525  -0.163  0.00  0.00     0.001 A 
ATOM     11  C   UNL d   1      -2.808  -0.863  -0.082  0.00  0.00     0.001 A 
ENDROOT
BRANCH   1  12
ATOM     12  C   UNL d   1       3.305   1.608  -0.752  0.00  0.00     0.082 C 
BRANCH  12  13
ATOM     13  C   UNL d   1       3.794   1.613  -2.193  0.00  0.00    -0.052 A 
ATOM     14  C   UNL d   1       4.916   2.403  -2.504  0.00  0.00     0.033 A 
ATOM     15  C   UNL d   1       5.476   2.396  -3.787  0.00  0.00     0.056 A 
ATOM     16 CL   UNL d   1       6.849   3.406  -4.071  0.00  0.00    -0.083 Cl
ATOM     17  C   UNL d   1       4.924   1.585  -4.780  0.00  0.00     0.055 A 
ATOM     18  C   UNL d   1       3.787   0.826  -4.497  0.00  0.00     0.026 A 
ATOM     19 CL   UNL d   1       5.594   1.470  -6.368  0.00  0.00    -0.083 Cl
ATOM     20  C   UNL d   1       3.211   0.863  -3.223  0.00  0.00     0.009 A 
ENDBRANCH  12  13
ENDBRANCH   1  12
BRANCH   2  21
ATOM     21  C   UNL d   1       3.659  -1.340  -0.404  0.00  0.00    -0.018 A 
ATOM     22  C   UNL d   1       4.582  -1.360   0.651  0.00  0.00     0.013 A 
ATOM     23  C   UNL d   1       5.842  -1.938   0.475  0.00  0.00     0.001 A 
ATOM     24  C   UNL d   1       6.191  -2.494  -0.755  0.00  0.00     0.000 A 
ATOM     25  C   UNL d   1       5.276  -2.497  -1.804  0.00  0.00     0.001 A 
ATOM     26  C   UNL d   1       4.010  -1.936  -1.625  0.00  0.00     0.013 A 
ENDBRANCH   2  21
TORSDOF 3
