REMARK  5 active torsions:
REMARK  status: ('A' for Active; 'I' for Inactive)
REMARK    1  A    between atoms: C_6  and  S_1 
REMARK    2  A    between atoms: C_12  and  S_1 
REMARK    3  A    between atoms: C_4  and  C_6 
REMARK    4  A    between atoms: C_5  and  C_9 
REMARK    5  A    between atoms: C_16  and  C_12 
ROOT
ATOM      1  S   UNL d   1       0.972   0.048  -0.048  0.00  0.00     0.154 S 
ATOM      2  O   UNL d   1       0.649   0.874  -1.195  0.00  0.00    -0.227 OA
ATOM      3  O   UNL d   1       0.364  -1.262   0.110  0.00  0.00    -0.227 OA
ENDROOT
BRANCH   1   4
ATOM      4  C   UNL d   1       0.539   0.963   1.406  0.00  0.00     0.205 C 
BRANCH   4   5
ATOM      5  C   UNL d   1       1.208   2.289   1.422  0.00  0.00     0.063 C 
ATOM      6  N   UNL d   1       2.376   2.472   1.940  0.00  0.00    -0.324 N 
ATOM      7  C   UNL d   1       2.781   3.792   1.877  0.00  0.00     0.232 C 
ATOM      8  HN  UNL d   1       2.938   1.726   2.350  1.00  0.00     0.169 HD
ATOM      9  O   UNL d   1       3.812   4.201   2.396  0.00  0.00    -0.272 OA
ATOM     10  C   UNL d   1       1.864   4.695   1.079  0.00  0.00     0.183 C 
ATOM     11  S   UNL d   1       0.399   3.682   0.763  0.00  0.00    -0.106 SA
ENDBRANCH   4   5
ENDBRANCH   1   4
BRANCH   1  12
ATOM     12  C   UNL d   1       2.755  -0.142   0.047  0.00  0.00     0.179 C 
BRANCH  12  13
ATOM     13  C   UNL d   1       3.235  -0.933  -1.145  0.00  0.00    -0.043 A 
ATOM     14  C   UNL d   1       3.546  -0.284  -2.351  0.00  0.00     0.024 A 
ATOM     15  C   UNL d   1       4.000  -1.006  -3.468  0.00  0.00     0.048 A 
ATOM     16  C   UNL d   1       4.143  -2.397  -3.362  0.00  0.00     0.016 A 
ATOM     17  C   UNL d   1       3.824  -3.052  -2.174  0.00  0.00     0.001 A 
ATOM     18  C   UNL d   1       3.368  -2.325  -1.072  0.00  0.00     0.008 A 
BRANCH  15  19
ATOM     19  C   UNL d   1       4.333  -0.312  -4.766  0.00  0.00     0.417 C 
ATOM     20  F   UNL d   1       4.105   1.031  -4.743  0.00  0.00    -0.166 F 
ATOM     21  F   UNL d   1       5.644  -0.457  -5.109  0.00  0.00    -0.166 F 
ATOM     22  F   UNL d   1       3.617  -0.795  -5.819  0.00  0.00    -0.166 F 
ENDBRANCH  15  19
ENDBRANCH  12  13
ENDBRANCH   1  12
TORSDOF 5
