REMARK  5 active torsions:
REMARK  status: ('A' for Active; 'I' for Inactive)
REMARK       I    between atoms: N_2  and  C_1 
REMARK    1  A    between atoms: C_3  and  C_1 
REMARK    2  A    between atoms: C_4  and  N_2 
REMARK    3  A    between atoms: O_11  and  C_8 
REMARK    4  A    between atoms: C_18  and  O_11 
REMARK    5  A    between atoms: C_16  and  C_18 
ROOT
ATOM      1  C   UNL d   1       0.950   2.227  -1.318  0.00  0.00     0.068 A 
ATOM      2  C   UNL d   1       2.186   2.033  -1.969  0.00  0.00     0.095 A 
ATOM      3  C   UNL d   1       0.489   3.541  -1.104  0.00  0.00     0.032 A 
ATOM      4  C   UNL d   1       2.888   3.171  -2.420  0.00  0.00     0.039 A 
ATOM      5  C   UNL d   1       1.202   4.649  -1.554  0.00  0.00     0.002 A 
ATOM      6  C   UNL d   1       2.396   4.464  -2.225  0.00  0.00     0.003 A 
ENDROOT
BRANCH   2   7
ATOM      7  O   UNL d   1       2.625   0.731  -2.171  0.00  0.00    -0.344 OA
BRANCH   7   8
ATOM      8  C   UNL d   1       3.928   0.642  -2.770  0.00  0.00     0.214 C 
BRANCH   8   9
ATOM      9  C   UNL d   1       4.387  -0.738  -3.195  0.00  0.00    -0.032 A 
ATOM     10  C   UNL d   1       5.762  -0.913  -3.459  0.00  0.00     0.035 A 
ATOM     11  C   UNL d   1       6.246  -2.095  -4.027  0.00  0.00     0.056 A 
ATOM     12 CL   UNL d   1       7.939  -2.192  -4.357  0.00  0.00    -0.083 Cl
ATOM     13  C   UNL d   1       5.356  -3.124  -4.336  0.00  0.00     0.055 A 
ATOM     14  C   UNL d   1       3.991  -2.967  -4.062  0.00  0.00     0.026 A 
ATOM     15 CL   UNL d   1       5.870  -4.597  -5.079  0.00  0.00    -0.083 Cl
ATOM     16  C   UNL d   1       3.508  -1.777  -3.501  0.00  0.00     0.011 A 
ENDBRANCH   8   9
ENDBRANCH   7   8
ENDBRANCH   2   7
BRANCH   1  17
ATOM     17  N   UNL d   1       0.198   1.133  -0.829  0.00  0.00    -0.319 N 
ATOM     18  C   UNL d   1      -1.177   1.174  -0.610  0.00  0.00     0.280 C 
ATOM     19  O   UNL d   1      -1.914   2.027  -1.095  0.00  0.00    -0.265 OA
ATOM     20  H   UNL d   1       0.675   0.246  -0.714  0.00  0.00     0.169 HD
BRANCH  18  21
ATOM     21  C   UNL d   1      -1.718   0.126   0.234  0.00  0.00     0.142 A 
ATOM     22  O   UNL d   1      -0.900  -0.671   0.987  0.00  0.00    -0.317 OA
ATOM     23  C   UNL d   1      -1.708  -1.444   1.762  0.00  0.00     0.143 A 
ATOM     24  C   UNL d   1      -3.033  -1.185   1.498  0.00  0.00     0.027 A 
ATOM     25  C   UNL d   1      -3.041  -0.178   0.510  0.00  0.00     0.045 A 
ENDBRANCH  18  21
ENDBRANCH   1  17
TORSDOF 5
