REMARK  8 active torsions:
REMARK  status: ('A' for Active; 'I' for Inactive)
REMARK    1  A    between atoms: C_3  and  S_1 
REMARK    2  A    between atoms: N_4  and  S_1 
REMARK    3  A    between atoms: C_2  and  C_8 
REMARK       I    between atoms: N_5  and  C_2 
REMARK    4  A    between atoms: C_21  and  N_4 
REMARK    5  A    between atoms: C_22  and  N_4 
REMARK    6  A    between atoms: C_14  and  N_5 
REMARK    7  A    between atoms: C_24  and  C_21 
REMARK    8  A    between atoms: C_23  and  C_22 
ROOT
ATOM      1  C   UNL d   1       0.357  -0.533  -1.601  0.00  0.00     0.074 A 
ATOM      2  C   UNL d   1      -0.753  -1.279  -4.082  0.00  0.00     0.032 A 
ATOM      3  C   UNL d   1       0.808  -1.687  -2.245  0.00  0.00     0.026 A 
ATOM      4  C   UNL d   1      -0.670   0.224  -2.169  0.00  0.00     0.026 A 
ATOM      5  C   UNL d   1      -1.211  -0.137  -3.410  0.00  0.00     0.018 A 
ATOM      6  C   UNL d   1       0.251  -2.055  -3.475  0.00  0.00     0.018 A 
ENDROOT
BRANCH   2   7
ATOM      7  C   UNL d   1      -1.275  -1.740  -5.418  0.00  0.00     0.256 C 
ATOM      8  N   UNL d   1      -2.125  -0.876  -6.094  0.00  0.00    -0.323 N 
ATOM      9  H   UNL d   1      -2.367  -0.004  -5.654  0.00  0.00     0.169 HD
ATOM     10  O   UNL d   1      -0.903  -2.833  -5.827  0.00  0.00    -0.267 OA
BRANCH   8  11
ATOM     11  C   UNL d   1      -2.645  -1.039  -7.399  0.00  0.00     0.035 A 
ATOM     12  C   UNL d   1      -2.382  -2.141  -8.218  0.00  0.00     0.032 A 
ATOM     13  C   UNL d   1      -2.879  -2.189  -9.525  0.00  0.00     0.044 A 
ATOM     14  C   UNL d   1      -3.647  -1.141 -10.009  0.00  0.00     0.116 A 
ATOM     15  C   UNL d   1      -3.946  -0.050  -9.204  0.00  0.00     0.044 A 
ATOM     16  F   UNL d   1      -4.103  -1.179 -11.268  0.00  0.00    -0.206 F 
ATOM     17  C   UNL d   1      -3.448  -0.001  -7.899  0.00  0.00     0.032 A 
ENDBRANCH   8  11
ENDBRANCH   2   7
BRANCH   1  18
ATOM     18  S   UNL d   1       0.993  -0.115   0.015  0.00  0.00     0.243 S 
ATOM     19  O   UNL d   1       1.853  -1.203   0.424  0.00  0.00    -0.206 OA
ATOM     20  O   UNL d   1      -0.148   0.265   0.826  0.00  0.00    -0.206 OA
BRANCH  18  21
ATOM     21  N   UNL d   1       1.947   1.312  -0.295  0.00  0.00    -0.206 NA
BRANCH  21  22
ATOM     22  C   UNL d   1       1.131   2.568  -0.106  0.00  0.00     0.107 C 
BRANCH  22  23
ATOM     23  C   UNL d   1       1.804   3.873  -0.534  0.00  0.00     0.011 C 
ATOM     24  C   UNL d   1       2.226   3.901  -1.991  0.00  0.00     0.006 C 
ENDBRANCH  22  23
ENDBRANCH  21  22
BRANCH  21  25
ATOM     25  C   UNL d   1       3.263   1.355   0.422  0.00  0.00     0.107 C 
BRANCH  25  26
ATOM     26  C   UNL d   1       4.314   0.387  -0.129  0.00  0.00     0.011 C 
ATOM     27  C   UNL d   1       4.546   0.503  -1.627  0.00  0.00     0.006 C 
ENDBRANCH  25  26
ENDBRANCH  21  25
ENDBRANCH  18  21
ENDBRANCH   1  18
TORSDOF 8
