REMARK  3 active torsions:
REMARK  status: ('A' for Active; 'I' for Inactive)
REMARK       I    between atoms: N_2  and  C_1 
REMARK    1  A    between atoms: O_7  and  C_1 
REMARK    2  A    between atoms: C_5  and  N_2 
REMARK    3  A    between atoms: C_12  and  O_7 
ROOT
ATOM      1  C   UNL d   1       2.328   3.770   2.412  0.00  0.00     0.042 A 
ATOM      2  C   UNL d   1       2.059   2.606   1.678  0.00  0.00     0.054 A 
ATOM      3  C   UNL d   1       0.912   1.856   1.934  0.00  0.00     0.038 A 
ATOM      4  C   UNL d   1       1.452   4.210   3.415  0.00  0.00    -0.040 A 
ATOM      5  C   UNL d   1       0.323   3.432   3.695  0.00  0.00     0.011 A 
ATOM      6 CL   UNL d   1       3.762   4.656   2.021  0.00  0.00    -0.084 Cl
ATOM      7  C   UNL d   1       0.054   2.274   2.958  0.00  0.00     0.030 A 
ATOM      8  C   UNL d   1       1.686   5.482   4.179  0.00  0.00     0.050 C 
ENDROOT
BRANCH   3   9
ATOM      9  N   UNL d   1       0.510   0.726   1.198  0.00  0.00    -0.303 N 
ATOM     10  C   UNL d   1       1.135   0.006   0.213  0.00  0.00     0.365 C 
ATOM     11  O   UNL d   1       0.513  -0.853  -0.403  0.00  0.00    -0.238 OA
ATOM     12  H   UNL d   1      -0.421   0.371   1.371  0.00  0.00     0.171 HD
BRANCH  10  13
ATOM     13  O   UNL d   1       2.446   0.284   0.046  0.00  0.00    -0.299 OA
BRANCH  13  14
ATOM     14  C   UNL d   1       3.233  -0.446  -0.921  0.00  0.00     0.125 C 
ATOM     15  C   UNL d   1       3.225  -1.953  -0.681  0.00  0.00     0.040 C 
ATOM     16  C   UNL d   1       2.856  -0.064  -2.348  0.00  0.00     0.040 C 
ENDBRANCH  13  14
ENDBRANCH  10  13
ENDBRANCH   3   9
TORSDOF 3
