REMARK  7 active torsions:
REMARK  status: ('A' for Active; 'I' for Inactive)
REMARK    1  A    between atoms: C_7  and  C_1 
REMARK    2  A    between atoms: C_11  and  C_6 
REMARK    3  A    between atoms: O_13  and  C_7 
REMARK    4  A    between atoms: O_8  and  C_11 
REMARK    5  A    between atoms: C_10  and  O_8 
REMARK    6  A    between atoms: O_15  and  C_12 
REMARK    7  A    between atoms: C_18  and  O_13 
ROOT
ATOM      1  C   UNL d   1      -0.675  -0.853   0.109  0.00  0.00     0.104 A 
ATOM      2  C   UNL d   1       0.006  -0.938  -1.100  0.00  0.00     0.029 A 
ATOM      3  N   UNL d   1       0.837   0.144  -1.369  0.00  0.00    -0.354 N 
ATOM      4  HN  UNL d   1       1.397   0.245  -2.216  1.00  0.00     0.166 HD
ATOM      5  S   UNL d   1      -0.223   0.607   0.914  0.00  0.00    -0.067 SA
ATOM      6  C   UNL d   1       0.805   1.020  -0.388  0.00  0.00     0.076 A 
ATOM      7  C   UNL d   1      -0.022  -1.998  -2.148  0.00  0.00     0.070 C 
ENDROOT
BRANCH   6   8
ATOM      8  C   UNL d   1       1.519   2.341  -0.417  0.00  0.00     0.240 C 
BRANCH   8   9
ATOM      9  O   UNL d   1       2.826   2.158   0.146  0.00  0.00    -0.342 OA
BRANCH   9  10
ATOM     10  C   UNL d   1       3.687   3.217  -0.029  0.00  0.00     0.102 A 
ATOM     11  C   UNL d   1       4.551   3.613   1.010  0.00  0.00     0.101 A 
ATOM     12  C   UNL d   1       5.427   4.689   0.793  0.00  0.00     0.039 A 
ATOM     13  C   UNL d   1       5.483   5.353  -0.429  0.00  0.00     0.003 A 
ATOM     14  C   UNL d   1       4.660   4.939  -1.463  0.00  0.00     0.003 A 
ATOM     15  C   UNL d   1       3.781   3.873  -1.270  0.00  0.00     0.039 A 
BRANCH  11  16
ATOM     16  O   UNL d   1       4.666   3.110   2.277  0.00  0.00    -0.353 OA
ATOM     17  C   UNL d   1       4.001   1.902   2.602  0.00  0.00     0.210 C 
ENDBRANCH  11  16
ENDBRANCH   9  10
ENDBRANCH   8   9
ENDBRANCH   6   8
BRANCH   1  18
ATOM     18  C   UNL d   1      -1.605  -1.737   0.781  0.00  0.00     0.302 C 
ATOM     19  O   UNL d   1      -2.105  -1.554   1.885  0.00  0.00    -0.259 OA
BRANCH  18  20
ATOM     20  O   UNL d   1      -1.806  -2.864   0.043  0.00  0.00    -0.317 OA
BRANCH  20  21
ATOM     21  C   UNL d   1      -2.371  -3.982   0.741  0.00  0.00     0.174 C 
ATOM     22  C   UNL d   1      -1.237  -4.754   1.392  0.00  0.00     0.034 C 
ENDBRANCH  20  21
ENDBRANCH  18  20
ENDBRANCH   1  18
TORSDOF 7
