REMARK  2 active torsions:
REMARK  status: ('A' for Active; 'I' for Inactive)
REMARK    1  A    between atoms: N_8  and  C_12 
REMARK    2  A    between atoms: C_16  and  C_11 
ROOT
ATOM      1  N   UNL d   1      -1.135   1.588   0.171  0.00  0.00    -0.255 N 
ATOM      2  C   UNL d   1      -0.255   0.559   0.169  0.00  0.00     0.160 A 
ATOM      3  C   UNL d   1      -2.477   1.290   0.137  0.00  0.00     0.271 A 
ATOM      4  C   UNL d   1      -2.591  -0.198   0.079  0.00  0.00     0.077 A 
ATOM      5  N   UNL d   1       0.994   0.934   0.208  0.00  0.00    -0.334 N 
ATOM      6  HN  UNL d   1       1.830   0.349   0.219  1.00  0.00     0.168 HD
ATOM      7  S   UNL d   1      -1.020  -0.981   0.117  0.00  0.00    -0.048 SA
ATOM      8  C   UNL d   1      -0.416   2.753   0.206  0.00  0.00     0.071 A 
ATOM      9  C   UNL d   1       0.913   2.314   0.233  0.00  0.00     0.061 A 
ATOM     10  C   UNL d   1      -3.738  -0.886  -0.009  0.00  0.00     0.036 C 
ATOM     11  O   UNL d   1      -3.334   2.153   0.153  0.00  0.00    -0.266 OA
ATOM     12  C   UNL d   1      -0.781   4.103   0.213  0.00  0.00     0.032 A 
ATOM     13  C   UNL d   1       1.939   3.270   0.276  0.00  0.00     0.032 A 
ATOM     14  C   UNL d   1       0.259   5.035   0.254  0.00  0.00     0.002 A 
ATOM     15  C   UNL d   1       1.596   4.629   0.288  0.00  0.00     0.002 A 
ENDROOT
BRANCH  10  16
ATOM     16  C   UNL d   1      -5.069  -0.279  -0.074  0.00  0.00    -0.035 A 
ATOM     17  C   UNL d   1      -5.613   0.085  -1.312  0.00  0.00     0.014 A 
ATOM     18  C   UNL d   1      -6.886   0.658  -1.383  0.00  0.00     0.037 A 
ATOM     19  C   UNL d   1      -7.615   0.867  -0.206  0.00  0.00     0.102 A 
ATOM     20  C   UNL d   1      -7.073   0.520   1.039  0.00  0.00     0.037 A 
ATOM     21  C   UNL d   1      -5.798  -0.052   1.100  0.00  0.00     0.014 A 
BRANCH  19  22
ATOM     22  N   UNL d   1      -8.966   1.439  -0.278  0.00  0.00    -0.116 N 
ATOM     23  O   UNL d   1      -9.416   1.716  -1.399  0.00  0.00    -0.532 OA
ATOM     24  O   UNL d   1      -9.582   1.599   0.785  0.00  0.00    -0.532 OA
ENDBRANCH  19  22
ENDBRANCH  10  16
TORSDOF 2
