REMARK  5 active torsions:
REMARK  status: ('A' for Active; 'I' for Inactive)
REMARK    1  A    between atoms: N_9  and  C_3 
REMARK    2  A    between atoms: C_7  and  C_4 
REMARK    3  A    between atoms: C_10  and  C_14 
REMARK    4  A    between atoms: O_22  and  C_10 
REMARK    5  A    between atoms: C_26  and  O_22 
ROOT
ATOM      1  N   UNL d   1       0.506  -1.106  -0.277  0.00  0.00    -0.349 N 
ATOM      2  HN  UNL d   1       0.013  -1.991  -0.394  1.00  0.00     0.166 HD
ATOM      3  C   UNL d   1       1.860   1.341   0.029  0.00  0.00     0.045 A 
ATOM      4  C   UNL d   1       0.334  -0.105  -1.175  0.00  0.00     0.119 A 
ATOM      5  C   UNL d   1       1.333  -0.922   0.769  0.00  0.00     0.084 A 
ATOM      6  C   UNL d   1       2.043   0.286   0.974  0.00  0.00     0.020 A 
ATOM      7  C   UNL d   1       0.979   1.119  -1.036  0.00  0.00     0.064 A 
ATOM      8  C   UNL d   1       1.521  -1.963   1.679  0.00  0.00     0.143 A 
ATOM      9  F   UNL d   1       0.879  -3.131   1.498  0.00  0.00    -0.204 F 
ATOM     10  C   UNL d   1       2.926   0.362   2.083  0.00  0.00     0.016 A 
ATOM     11  C   UNL d   1       3.073  -0.690   2.987  0.00  0.00     0.004 A 
ATOM     12  C   UNL d   1       2.366  -1.864   2.781  0.00  0.00     0.045 A 
ENDROOT
BRANCH   3  13
ATOM     13  N   UNL d   1       2.596   2.545   0.123  0.00  0.00    -0.380 N 
ATOM     14  C   UNL d   1       2.896   3.242  -1.139  0.00  0.00     0.124 C 
ATOM     15  C   UNL d   1       4.067   4.195  -0.911  0.00  0.00     0.034 C 
ATOM     16  C   UNL d   1       3.763   5.196   0.215  0.00  0.00     0.088 C 
ATOM     17  C   UNL d   1       3.327   4.436   1.481  0.00  0.00     0.034 C 
ATOM     18  C   UNL d   1       2.177   3.456   1.204  0.00  0.00     0.124 C 
BRANCH  16  19
ATOM     19  C   UNL d   1       2.704   6.212  -0.201  0.00  0.00     0.263 C 
ATOM     20  O   UNL d   1       1.751   6.540   0.489  0.00  0.00    -0.265 OA
BRANCH  19  21
ATOM     21  O   UNL d   1       2.962   6.695  -1.448  0.00  0.00    -0.322 OA
BRANCH  21  22
ATOM     22  C   UNL d   1       1.915   7.460  -2.065  0.00  0.00     0.174 C 
ATOM     23  C   UNL d   1       2.215   8.943  -1.989  0.00  0.00     0.034 C 
ENDBRANCH  21  22
ENDBRANCH  19  21
ENDBRANCH  16  19
ENDBRANCH   3  13
BRANCH   4  24
ATOM     24  C   UNL d   1      -0.561  -0.323  -2.386  0.00  0.00     0.432 C 
ATOM     25  F   UNL d   1      -1.092  -1.573  -2.486  0.00  0.00    -0.165 F 
ATOM     26  F   UNL d   1      -1.619   0.537  -2.414  0.00  0.00    -0.165 F 
ATOM     27  F   UNL d   1       0.105  -0.111  -3.563  0.00  0.00    -0.165 F 
ENDBRANCH   4  24
TORSDOF 5
