REMARK  5 active torsions:
REMARK  status: ('A' for Active; 'I' for Inactive)
REMARK    1  A    between atoms: S_11  and  C_2 
REMARK    2  A    between atoms: C_6  and  C_3 
REMARK    3  A    between atoms: C_13  and  S_11 
REMARK    4  A    between atoms: C_14  and  C_12 
REMARK    5  A    between atoms: C_16  and  C_13 
ROOT
ATOM      1  C   UNL d   1      -0.513  -5.121   0.570  0.00  0.00     0.088 C 
ATOM      2  C   UNL d   1      -1.771  -5.749   0.432  0.00  0.00     0.092 C 
ATOM      3  C   UNL d   1      -0.397  -3.740   0.295  0.00  0.00    -0.004 C 
ATOM      4  N   UNL d   1      -2.913  -5.051   0.195  0.00  0.00    -0.352 N 
ATOM      5  HN  UNL d   1      -3.816  -5.514   0.094  1.00  0.00     0.166 HD
ATOM      6  C   UNL d   1      -1.576  -3.032   0.117  0.00  0.00    -0.024 C 
ATOM      7  C   UNL d   1      -2.783  -3.718   0.100  0.00  0.00     0.017 C 
ATOM      8  C   UNL d   1       0.596  -5.815   1.170  0.00  0.00     0.103 C 
ATOM      9  N   UNL d   1       1.468  -6.311   1.750  0.00  0.00    -0.191 NA
ATOM     10  C   UNL d   1      -1.802  -1.557  -0.007  0.00  0.00     0.042 C 
ATOM     11  C   UNL d   1      -3.947  -2.768   0.033  0.00  0.00     0.058 C 
ATOM     12  C   UNL d   1      -3.273  -1.445   0.419  0.00  0.00     0.011 C 
ENDROOT
BRANCH   2  13
ATOM     13  S   UNL d   1      -1.960  -7.539   0.586  0.00  0.00    -0.106 SA
BRANCH  13  14
ATOM     14  C   UNL d   1      -3.717  -7.778   0.122  0.00  0.00     0.119 C 
BRANCH  14  15
ATOM     15  C   UNL d   1      -4.175  -9.228   0.176  0.00  0.00    -0.049 A 
ATOM     16  C   UNL d   1      -4.109  -9.968   1.368  0.00  0.00     0.008 A 
ATOM     17  C   UNL d   1      -4.602 -11.277   1.431  0.00  0.00     0.001 A 
ATOM     18  C   UNL d   1      -5.179 -11.865   0.308  0.00  0.00     0.000 A 
ATOM     19  C   UNL d   1      -5.261 -11.144  -0.881  0.00  0.00     0.001 A 
ATOM     20  C   UNL d   1      -4.763  -9.836  -0.946  0.00  0.00     0.008 A 
ENDBRANCH  14  15
ENDBRANCH  13  14
ENDBRANCH   2  13
BRANCH   3  21
ATOM     21  C   UNL d   1       0.888  -3.018   0.251  0.00  0.00     0.014 C 
ATOM     22  C   UNL d   1       1.672  -2.876  -0.827  0.00  0.00     0.012 C 
BRANCH  22  23
ATOM     23  C   UNL d   1       1.438  -3.464  -2.153  0.00  0.00    -0.036 A 
ATOM     24  C   UNL d   1       0.771  -2.750  -3.155  0.00  0.00     0.011 A 
ATOM     25  C   UNL d   1       0.517  -3.347  -4.394  0.00  0.00     0.001 A 
ATOM     26  C   UNL d   1       0.936  -4.655  -4.639  0.00  0.00     0.000 A 
ATOM     27  C   UNL d   1       1.634  -5.356  -3.658  0.00  0.00     0.001 A 
ATOM     28  C   UNL d   1       1.891  -4.761  -2.422  0.00  0.00     0.011 A 
ENDBRANCH  22  23
ENDBRANCH   3  21
TORSDOF 5
