REMARK  5 active torsions:
REMARK  status: ('A' for Active; 'I' for Inactive)
REMARK       I    between atoms: N_2  and  C_1 
REMARK    1  A    between atoms: C_7  and  C_1 
REMARK    2  A    between atoms: C_10  and  N_3 
REMARK    3  A    between atoms: C_13  and  C_10 
REMARK    4  A    between atoms: O_11  and  C_13 
REMARK    5  A    between atoms: C_12  and  O_11 
ROOT
ATOM      1  C   UNL d   1       1.130  -0.011  -0.075  0.00  0.00     0.253 C 
ATOM      2  N   UNL d   1       0.426  -1.194   0.139  0.00  0.00    -0.345 N 
ATOM      3  N   UNL d   1      -0.412  -4.005  -0.091  0.00  0.00     0.093 N 
ATOM      4  O   UNL d   1       0.851   0.770  -0.984  0.00  0.00    -0.267 OA
ATOM      5  C   UNL d   1       0.534  -2.097   1.290  0.00  0.00     0.156 C 
ATOM      6  C   UNL d   1      -0.659  -1.550  -0.777  0.00  0.00     0.156 C 
ATOM      7  C   UNL d   1      -0.561  -3.030  -1.203  0.00  0.00     0.292 C 
ATOM      8  C   UNL d   1       0.685  -3.553   0.800  0.00  0.00     0.292 C 
ENDROOT
BRANCH   3   9
ATOM      9  C   UNL d   1      -1.648  -4.209   0.685  0.00  0.00     0.299 C 
BRANCH   9  10
ATOM     10  C   UNL d   1      -2.805  -4.844  -0.097  0.00  0.00     0.206 C 
BRANCH  10  11
ATOM     11  O   UNL d   1      -3.875  -5.077   0.824  0.00  0.00    -0.349 OA
BRANCH  11  12
ATOM     12  C   UNL d   1      -5.043  -5.556   0.297  0.00  0.00     0.068 A 
ATOM     13  C   UNL d   1      -5.266  -5.871  -1.044  0.00  0.00     0.037 A 
ATOM     14  C   UNL d   1      -6.514  -6.349  -1.455  0.00  0.00     0.003 A 
ATOM     15  C   UNL d   1      -7.541  -6.512  -0.527  0.00  0.00     0.000 A 
ATOM     16  C   UNL d   1      -7.323  -6.202   0.812  0.00  0.00     0.003 A 
ATOM     17  C   UNL d   1      -6.076  -5.725   1.221  0.00  0.00     0.037 A 
ENDBRANCH  11  12
ENDBRANCH  10  11
ENDBRANCH   9  10
ENDBRANCH   3   9
BRANCH   1  18
ATOM     18  C   UNL d   1       2.248   0.364   0.824  0.00  0.00     0.032 A 
ATOM     19  C   UNL d   1       3.258  -0.534   1.183  0.00  0.00     0.017 A 
ATOM     20  C   UNL d   1       4.252  -0.146   2.082  0.00  0.00     0.001 A 
ATOM     21  C   UNL d   1       4.277   1.160   2.573  0.00  0.00     0.000 A 
ATOM     22  C   UNL d   1       3.319   2.083   2.155  0.00  0.00     0.001 A 
ATOM     23  C   UNL d   1       2.305   1.688   1.281  0.00  0.00     0.017 A 
ENDBRANCH   1  18
TORSDOF 5
