REMARK  5 active torsions:
REMARK  status: ('A' for Active; 'I' for Inactive)
REMARK       I    between atoms: N_2  and  C_1 
REMARK       I    between atoms: N_3  and  C_1 
REMARK    1  A    between atoms: C_6  and  N_3 
REMARK    2  A    between atoms: C_17  and  N_4 
REMARK    3  A    between atoms: C_20  and  C_17 
REMARK    4  A    between atoms: O_18  and  C_20 
REMARK    5  A    between atoms: C_19  and  O_18 
ROOT
ATOM      1  C   UNL d   1       0.778  -0.190  -0.126  0.00  0.00     0.322 C 
ATOM      2  N   UNL d   1       0.401   0.918  -0.876  0.00  0.00    -0.332 N 
ATOM      3  N   UNL d   1       1.705  -1.013  -0.735  0.00  0.00    -0.309 N 
ATOM      4  N   UNL d   1      -1.914   2.029  -2.608  0.00  0.00     0.092 N 
ATOM      5  O   UNL d   1       0.296  -0.404   0.984  0.00  0.00    -0.247 OA
ATOM      6  C   UNL d   1      -0.662   1.789  -0.356  0.00  0.00     0.157 C 
ATOM      7  C   UNL d   1      -1.975   1.735  -1.163  0.00  0.00     0.292 C 
ATOM      8  C   UNL d   1       0.305   0.933  -3.375  0.00  0.00     0.050 C 
ATOM      9  C   UNL d   1       1.037   1.363  -2.110  0.00  0.00     0.129 C 
ATOM     10  C   UNL d   1      -1.227   0.974  -3.350  0.00  0.00     0.274 C 
ATOM     11  H   UNL d   1       1.694  -0.998  -1.741  0.00  0.00     0.170 HD
ENDROOT
BRANCH   3  12
ATOM     12  C   UNL d   1       2.345  -2.121  -0.143  0.00  0.00     0.037 A 
ATOM     13  C   UNL d   1       2.461  -2.290   1.239  0.00  0.00     0.042 A 
ATOM     14  C   UNL d   1       3.020  -3.458   1.784  0.00  0.00    -0.024 A 
ATOM     15  C   UNL d   1       3.090  -3.653   3.173  0.00  0.00     0.012 A 
ATOM     16  C   UNL d   1       3.495  -4.469   0.919  0.00  0.00    -0.026 A 
ATOM     17  C   UNL d   1       3.587  -4.844   3.702  0.00  0.00     0.001 A 
ATOM     18  C   UNL d   1       4.029  -5.852   2.849  0.00  0.00     0.001 A 
ATOM     19  C   UNL d   1       3.994  -5.662   1.467  0.00  0.00     0.012 A 
ATOM     20  C   UNL d   1       3.445  -4.259  -0.467  0.00  0.00     0.014 A 
ATOM     21  C   UNL d   1       2.884  -3.091  -0.992  0.00  0.00     0.030 A 
ENDBRANCH   3  12
BRANCH   4  22
ATOM     22  C   UNL d   1      -1.534   3.416  -2.897  0.00  0.00     0.299 C 
BRANCH  22  23
ATOM     23  C   UNL d   1      -1.532   3.812  -4.383  0.00  0.00     0.206 C 
BRANCH  23  24
ATOM     24  O   UNL d   1      -1.121   5.181  -4.471  0.00  0.00    -0.349 OA
BRANCH  24  25
ATOM     25  C   UNL d   1      -0.930   5.691  -5.725  0.00  0.00     0.068 A 
ATOM     26  C   UNL d   1      -1.163   5.021  -6.927  0.00  0.00     0.037 A 
ATOM     27  C   UNL d   1      -0.926   5.662  -8.146  0.00  0.00     0.003 A 
ATOM     28  C   UNL d   1      -0.459   6.975  -8.171  0.00  0.00     0.000 A 
ATOM     29  C   UNL d   1      -0.228   7.650  -6.975  0.00  0.00     0.003 A 
ATOM     30  C   UNL d   1      -0.463   7.008  -5.758  0.00  0.00     0.037 A 
ENDBRANCH  24  25
ENDBRANCH  23  24
ENDBRANCH  22  23
ENDBRANCH   4  22
TORSDOF 5
