REMARK  4 active torsions:
REMARK  status: ('A' for Active; 'I' for Inactive)
REMARK    1  A    between atoms: S_7  and  C_1 
REMARK    2  A    between atoms: S_8  and  C_2 
REMARK    3  A    between atoms: C_11  and  S_7 
REMARK    4  A    between atoms: C_12  and  S_8 
ROOT
ATOM      1  C   UNL d   1       2.316   0.740  -0.266  0.00  0.00     0.109 A 
ATOM      2  C   UNL d   1       2.388  -0.631   0.014  0.00  0.00     0.109 A 
ATOM      3  N   UNL d   1       1.127   1.401  -0.278  0.00  0.00    -0.346 N 
ATOM      4  HN  UNL d   1       1.081   2.408  -0.434  1.00  0.00     0.167 HD
ATOM      5  N   UNL d   1       1.262  -1.367   0.216  0.00  0.00    -0.346 N 
ATOM      6  HN  UNL d   1       1.310  -2.367   0.410  1.00  0.00     0.167 HD
ATOM      7  C   UNL d   1       0.016   0.673  -0.076  0.00  0.00     0.060 A 
ATOM      8  C   UNL d   1       0.082  -0.723   0.150  0.00  0.00     0.060 A 
ATOM      9  C   UNL d   1      -1.226   1.294  -0.117  0.00  0.00     0.032 A 
ATOM     10  C   UNL d   1      -1.100  -1.439   0.283  0.00  0.00     0.032 A 
ATOM     11  C   UNL d   1      -2.407   0.565   0.025  0.00  0.00     0.002 A 
ATOM     12  C   UNL d   1      -2.344  -0.810   0.214  0.00  0.00     0.002 A 
ENDROOT
BRANCH   1  13
ATOM     13  S   UNL d   1       3.725   1.734  -0.720  0.00  0.00    -0.070 SA
BRANCH  13  14
ATOM     14  C   UNL d   1       3.535   1.893  -2.494  0.00  0.00     0.007 A 
ATOM     15  C   UNL d   1       4.004   3.066  -3.102  0.00  0.00     0.020 A 
ATOM     16  C   UNL d   1       3.936   3.229  -4.490  0.00  0.00     0.025 A 
ATOM     17  C   UNL d   1       3.400   2.216  -5.281  0.00  0.00     0.034 A 
ATOM     18  C   UNL d   1       2.928   1.046  -4.694  0.00  0.00     0.025 A 
ATOM     19 CL   UNL d   1       3.332   2.406  -6.989  0.00  0.00    -0.084 Cl
ATOM     20  C   UNL d   1       3.001   0.883  -3.306  0.00  0.00     0.020 A 
ENDBRANCH  13  14
ENDBRANCH   1  13
BRANCH   2  21
ATOM     21  S   UNL d   1       3.899  -1.579  -0.049  0.00  0.00    -0.070 SA
BRANCH  21  22
ATOM     22  C   UNL d   1       4.384  -1.685   1.663  0.00  0.00     0.007 A 
ATOM     23  C   UNL d   1       3.540  -2.215   2.646  0.00  0.00     0.020 A 
ATOM     24  C   UNL d   1       3.998  -2.388   3.957  0.00  0.00     0.025 A 
ATOM     25  C   UNL d   1       5.306  -2.040   4.287  0.00  0.00     0.034 A 
ATOM     26  C   UNL d   1       6.155  -1.504   3.322  0.00  0.00     0.025 A 
ATOM     27 CL   UNL d   1       5.884  -2.295   5.887  0.00  0.00    -0.084 Cl
ATOM     28  C   UNL d   1       5.694  -1.328   2.014  0.00  0.00     0.020 A 
ENDBRANCH  21  22
ENDBRANCH   2  21
TORSDOF 4
