REMARK  9 active torsions:
REMARK  status: ('A' for Active; 'I' for Inactive)
REMARK    1  A    between atoms: C_5  and  C_1 
REMARK    2  A    between atoms: C_7  and  C_2 
REMARK       I    between atoms: N_9  and  C_7 
REMARK    3  A    between atoms: N_12  and  N_9 
REMARK       I    between atoms: C_10  and  N_12 
REMARK    4  A    between atoms: C_11  and  C_10 
REMARK    5  A    between atoms: C_17  and  C_11 
REMARK    6  A    between atoms: O_20  and  C_17 
REMARK    7  A    between atoms: O_21  and  C_17 
REMARK    8  A    between atoms: C_26  and  O_20 
REMARK    9  A    between atoms: C_27  and  O_21 
ROOT
ATOM      1  C   UNL d   1       0.184  -2.327  -0.920  0.00  0.00     0.275 C 
ATOM      2  N   UNL d   1      -0.555  -3.480  -1.137  0.00  0.00    -0.263 N 
ATOM      3  O   UNL d   1      -0.323  -1.211  -0.886  0.00  0.00    -0.266 OA
ATOM      4  H   UNL d   1      -0.180  -4.391  -0.873  0.00  0.00     0.190 HD
ENDROOT
BRANCH   1   5
ATOM      5  C   UNL d   1       1.614  -2.549  -0.736  0.00  0.00     0.094 A 
ATOM      6  C   UNL d   1       2.565  -1.812   0.061  0.00  0.00     0.088 A 
ATOM      7  N   UNL d   1       3.785  -2.361  -0.066  0.00  0.00    -0.259 N 
ATOM      8  O   UNL d   1       3.678  -3.381  -0.966  0.00  0.00    -0.241 OA
ATOM      9  HN  UNL d   1       4.633  -2.070   0.419  1.00  0.00     0.195 HD
ATOM     10  C   UNL d   1       2.393  -3.514  -1.363  0.00  0.00     0.090 A 
ATOM     11  C   UNL d   1       2.182  -4.577  -2.369  0.00  0.00     0.080 C 
BRANCH   6  12
ATOM     12  C   UNL d   1       2.383  -0.677   0.975  0.00  0.00     0.054 A 
ATOM     13  C   UNL d   1       3.312   0.378   1.100  0.00  0.00     0.049 A 
ATOM     14 CL   UNL d   1       4.750   0.518   0.138  0.00  0.00    -0.083 Cl
ATOM     15  C   UNL d   1       3.113   1.413   2.032  0.00  0.00     0.025 A 
ATOM     16  C   UNL d   1       1.979   1.429   2.840  0.00  0.00     0.005 A 
ATOM     17  C   UNL d   1       1.058   0.392   2.737  0.00  0.00     0.043 A 
ATOM     18  C   UNL d   1       1.273  -0.648   1.830  0.00  0.00     0.130 A 
ATOM     19  F   UNL d   1       0.393  -1.662   1.838  0.00  0.00    -0.205 F 
ENDBRANCH   6  12
ENDBRANCH   1   5
BRANCH   2  20
ATOM     20  N   UNL d   1      -1.969  -3.439  -1.200  0.00  0.00    -0.267 N 
ATOM     21  C   UNL d   1      -2.597  -4.647  -1.004  0.00  0.00     0.240 C 
ATOM     22  O   UNL d   1      -1.946  -5.642  -0.661  0.00  0.00    -0.272 OA
ATOM     23  H   UNL d   1      -2.379  -2.723  -1.807  0.00  0.00     0.190 HD
BRANCH  21  24
ATOM     24  C   UNL d   1      -4.096  -4.747  -1.164  0.00  0.00     0.165 C 
BRANCH  24  25
ATOM     25  C   UNL d   1      -4.873  -3.495  -1.561  0.00  0.00     0.268 C 
BRANCH  25  26
ATOM     26  O   UNL d   1      -4.407  -3.114  -2.865  0.00  0.00    -0.361 OA
BRANCH  26  27
ATOM     27  C   UNL d   1      -5.159  -2.043  -3.442  0.00  0.00     0.166 C 
ATOM     28  C   UNL d   1      -4.558  -1.693  -4.792  0.00  0.00     0.033 C 
ENDBRANCH  26  27
ENDBRANCH  25  26
BRANCH  25  29
ATOM     29  O   UNL d   1      -6.278  -3.782  -1.586  0.00  0.00    -0.361 OA
BRANCH  29  30
ATOM     30  C   UNL d   1      -6.864  -3.930  -0.291  0.00  0.00     0.166 C 
ATOM     31  C   UNL d   1      -8.366  -4.093  -0.420  0.00  0.00     0.033 C 
ENDBRANCH  29  30
ENDBRANCH  25  29
ENDBRANCH  24  25
ENDBRANCH  21  24
ENDBRANCH   2  20
TORSDOF 9
