REMARK  2 active torsions:
REMARK  status: ('A' for Active; 'I' for Inactive)
REMARK    1  A    between atoms: C_2  and  C_1 
REMARK       I    between atoms: N_3  and  C_2 
REMARK    2  A    between atoms: C_5  and  N_3 
ROOT
ATOM      1  C   UNL d   1      -1.682   3.276   0.549  0.00  0.00    -0.043 A 
ATOM      2  C   UNL d   1      -0.777   1.448   1.904  0.00  0.00     0.035 A 
ATOM      3  C   UNL d   1      -1.589   4.125   1.656  0.00  0.00     0.017 A 
ATOM      4  C   UNL d   1      -1.271   1.938   0.690  0.00  0.00     0.037 A 
ATOM      5  C   UNL d   1      -1.135   3.638   2.885  0.00  0.00     0.022 A 
ATOM      6  C   UNL d   1      -0.741   2.301   3.008  0.00  0.00     0.031 A 
ATOM      7 BR   UNL d   1      -2.053   5.964   1.557  0.00  0.00    -0.051 Br
ATOM      8  C   UNL d   1      -2.170   3.741  -0.795  0.00  0.00     0.049 C 
ENDROOT
BRANCH   2   9
ATOM      9  N   UNL d   1      -0.293   0.133   2.078  0.00  0.00    -0.323 N 
ATOM     10  C   UNL d   1      -0.009  -0.802   1.083  0.00  0.00     0.277 C 
ATOM     11  O   UNL d   1      -0.134  -0.570  -0.123  0.00  0.00    -0.268 OA
ATOM     12  H   UNL d   1      -0.043  -0.126   3.030  0.00  0.00     0.169 HD
BRANCH  10  13
ATOM     13  C   UNL d   1       0.528  -2.174   1.575  0.00  0.00     0.269 C 
ATOM     14 CL   UNL d   1       0.571  -2.274   3.362  0.00  0.00    -0.073 Cl
ATOM     15 CL   UNL d   1       2.185  -2.381   0.947  0.00  0.00    -0.073 Cl
ATOM     16 CL   UNL d   1      -0.541  -3.454   0.947  0.00  0.00    -0.073 Cl
ENDBRANCH  10  13
ENDBRANCH   2   9
TORSDOF 2
