REMARK  3 active torsions:
REMARK  status: ('A' for Active; 'I' for Inactive)
REMARK    1  A    between atoms: N_2  and  C_1 
REMARK    2  A    between atoms: N_13  and  C_1 
REMARK    3  A    between atoms: C_4  and  N_3 
ROOT
ATOM      1  C   UNL d   1      -2.889  -3.041  -2.566  0.00  0.00     0.103 A 
ATOM      2  N   UNL d   1      -3.348  -4.309  -2.473  0.00  0.00    -0.351 N 
ATOM      3  HN  UNL d   1      -3.180  -4.857  -1.629  1.00  0.00     0.166 HD
ATOM      4  N   UNL d   1      -5.611  -5.303  -6.614  0.00  0.00    -0.191 NA
ATOM      5  C   UNL d   1      -5.012  -4.802  -5.753  0.00  0.00     0.101 C 
ATOM      6  C   UNL d   1      -4.277  -4.181  -4.701  0.00  0.00     0.060 A 
ATOM      7  C   UNL d   1      -3.083  -2.327  -3.753  0.00  0.00     0.050 A 
ATOM      8  C   UNL d   1      -4.034  -4.844  -3.514  0.00  0.00     0.112 A 
ATOM      9  C   UNL d   1      -3.775  -2.895  -4.826  0.00  0.00     0.028 A 
ENDROOT
BRANCH   1  10
ATOM     10  N   UNL d   1      -2.228  -2.487  -1.490  0.00  0.00    -0.366 N 
ATOM     11  C   UNL d   1      -2.236  -1.043  -1.235  0.00  0.00     0.144 C 
ATOM     12  C   UNL d   1      -0.899  -0.416  -1.635  0.00  0.00     0.145 C 
ATOM     13  N   UNL d   1       0.268  -0.956  -0.930  0.00  0.00    -0.357 N 
ATOM     14  C   UNL d   1       0.578  -2.377  -1.131  0.00  0.00     0.127 C 
ATOM     15  C   UNL d   1      -0.236  -3.342  -0.261  0.00  0.00     0.040 C 
ATOM     16  C   UNL d   1      -1.766  -3.320  -0.386  0.00  0.00     0.126 C 
BRANCH  13  17
ATOM     17  C   UNL d   1       0.915  -0.226   0.037  0.00  0.00     0.169 C 
ATOM     18  S   UNL d   1       0.164   0.513   1.336  0.00  0.00    -0.041 SA
BRANCH  17  19
ATOM     19  N   UNL d   1       2.264  -0.072  -0.106  0.00  0.00    -0.371 N 
ATOM     20  C   UNL d   1       2.975  -0.075  -1.369  0.00  0.00     0.148 C 
ATOM     21  H   UNL d   1       2.686   0.474   0.637  0.00  0.00     0.161 HD
ENDBRANCH  17  19
ENDBRANCH  13  17
ENDBRANCH   1  10
TORSDOF 3
