REMARK  2 active torsions:
REMARK  status: ('A' for Active; 'I' for Inactive)
REMARK    1  A    between atoms: C_3  and  C_1 
REMARK    2  A    between atoms: C_18  and  N_2 
ROOT
ATOM      1  C   UNL d   1      -0.494  -2.760  -0.030  0.00  0.00     0.033 C 
ATOM      2  C   UNL d   1      -1.168  -3.573  -0.957  0.00  0.00    -0.034 C 
ATOM      3  C   UNL d   1      -1.263  -4.984  -0.701  0.00  0.00     0.000 A 
ATOM      4  C   UNL d   1      -0.590  -5.490   0.451  0.00  0.00     0.045 A 
ATOM      5  N   UNL d   1       0.002  -4.709   1.347  0.00  0.00    -0.364 N 
ATOM      6  HN  UNL d   1       0.455  -5.101   2.173  1.00  0.00     0.165 HD
ATOM      7  C   UNL d   1      -1.986  -5.898  -1.508  0.00  0.00     0.054 A 
ATOM      8  C   UNL d   1      -0.019  -3.384   1.127  0.00  0.00     0.104 C 
ATOM      9  C   UNL d   1      -0.551  -6.848   0.713  0.00  0.00     0.070 A 
ATOM     10  C   UNL d   1      -1.996  -7.232  -1.155  0.00  0.00     0.105 A 
ATOM     11  C   UNL d   1      -1.274  -7.695  -0.087  0.00  0.00     0.107 A 
ATOM     12  O   UNL d   1      -2.699  -8.225  -1.763  0.00  0.00    -0.323 OA
ATOM     13  O   UNL d   1      -1.406  -9.035   0.095  0.00  0.00    -0.323 OA
ATOM     14  C   UNL d   1      -2.454  -9.320  -0.852  0.00  0.00     0.352 C 
ATOM     15  C   UNL d   1      -1.798  -3.006  -2.209  0.00  0.00     0.050 C 
ENDROOT
BRANCH   1  16
ATOM     16  C   UNL d   1      -0.240  -1.321  -0.178  0.00  0.00     0.150 C 
ATOM     17  N   UNL d   1       0.942  -0.662   0.180  0.00  0.00    -0.224 N 
ATOM     18  N   UNL d   1       0.683   0.662   0.249  0.00  0.00     0.001 NA
ATOM     19  N   UNL d   1      -0.540   0.815  -0.231  0.00  0.00    -0.007 NA
ATOM     20  N   UNL d   1      -1.126  -0.394  -0.493  0.00  0.00    -0.269 N 
ATOM     21  HN  UNL d   1      -2.065  -0.549  -0.860  1.00  0.00     0.185 HD
BRANCH  17  22
ATOM     22  C   UNL d   1       2.197  -1.202   0.559  0.00  0.00     0.056 A 
ATOM     23  C   UNL d   1       2.674  -2.383  -0.032  0.00  0.00     0.034 A 
ATOM     24  C   UNL d   1       3.808  -3.010   0.483  0.00  0.00     0.044 A 
ATOM     25  C   UNL d   1       4.464  -2.451   1.573  0.00  0.00     0.116 A 
ATOM     26  C   UNL d   1       4.030  -1.252   2.135  0.00  0.00     0.044 A 
ATOM     27  F   UNL d   1       5.521  -3.082   2.099  0.00  0.00    -0.206 F 
ATOM     28  C   UNL d   1       2.906  -0.608   1.615  0.00  0.00     0.034 A 
ENDBRANCH  17  22
ENDBRANCH   1  16
TORSDOF 2
