REMARK  7 active torsions:
REMARK  status: ('A' for Active; 'I' for Inactive)
REMARK    1  A    between atoms: C_2  and  C_1 
REMARK       I    between atoms: N_4  and  C_2 
REMARK       I    between atoms: C_3  and  N_5 
REMARK    2  A    between atoms: C_10  and  C_3 
REMARK    3  A    between atoms: N_5  and  N_4 
REMARK    4  A    between atoms: C_6  and  C_14 
REMARK    5  A    between atoms: C_23  and  C_7 
REMARK    6  A    between atoms: C_24  and  C_23 
REMARK    7  A    between atoms: C_25  and  C_24 
ROOT
ATOM      1  C   UNL d   1       3.015   2.315  -0.001  0.00  0.00     0.271 C 
ATOM      2  N   UNL d   1       4.393   2.165  -0.020  0.00  0.00    -0.263 N 
ATOM      3  O   UNL d   1       2.500   3.434  -0.007  0.00  0.00    -0.266 OA
ATOM      4  H   UNL d   1       4.904   1.287  -0.058  0.00  0.00     0.190 HD
ENDROOT
BRANCH   1   5
ATOM      5  C   UNL d   1       2.143   1.101   0.007  0.00  0.00     0.050 A 
ATOM      6  C   UNL d   1       0.743   1.264  -0.005  0.00  0.00     0.040 A 
ATOM      7  C   UNL d   1      -0.095   0.146   0.002  0.00  0.00     0.034 A 
ATOM      8  C   UNL d   1       0.500  -1.107   0.012  0.00  0.00     0.108 A 
ATOM      9  N   UNL d   1       1.840  -1.310   0.024  0.00  0.00    -0.373 N 
ATOM     10  C   UNL d   1       2.628  -0.201   0.026  0.00  0.00     0.104 A 
ATOM     11  HN  UNL d   1       2.238  -2.249   0.032  1.00  0.00     0.164 HD
BRANCH   7  12
ATOM     12  C   UNL d   1      -1.526   0.246   0.001  0.00  0.00    -0.066 C 
ATOM     13  C   UNL d   1      -2.732   0.205   0.010  0.00  0.00    -0.101 C 
BRANCH  13  14
ATOM     14  C   UNL d   1      -4.188   0.046   0.027  0.00  0.00     0.094 C 
BRANCH  14  15
ATOM     15  C   UNL d   1      -4.640  -0.903  -1.085  0.00  0.00     0.012 C 
BRANCH  15  16
ATOM     16  C   UNL d   1      -6.154  -1.106  -1.061  0.00  0.00    -0.004 C 
ATOM     17  C   UNL d   1      -6.612  -2.041  -2.169  0.00  0.00     0.005 C 
ENDBRANCH  15  16
ENDBRANCH  14  15
ENDBRANCH  13  14
ENDBRANCH   7  12
ENDBRANCH   1   5
BRANCH   2  18
ATOM     18  N   UNL d   1       5.190   3.335  -0.072  0.00  0.00    -0.263 N 
ATOM     19  C   UNL d   1       6.470   3.289   0.455  0.00  0.00     0.270 C 
ATOM     20  O   UNL d   1       6.947   2.282   0.972  0.00  0.00    -0.266 OA
ATOM     21  H   UNL d   1       4.673   4.213  -0.128  0.00  0.00     0.190 HD
BRANCH  19  22
ATOM     22  C   UNL d   1       7.289   4.533   0.343  0.00  0.00     0.033 A 
ATOM     23  C   UNL d   1       8.230   4.823   1.344  0.00  0.00     0.019 A 
ATOM     24  C   UNL d   1       9.087   5.923   1.216  0.00  0.00     0.025 A 
ATOM     25  C   UNL d   1       9.020   6.725   0.078  0.00  0.00     0.034 A 
ATOM     26  C   UNL d   1       8.094   6.444  -0.926  0.00  0.00     0.025 A 
ATOM     27 CL   UNL d   1      10.100   8.053  -0.099  0.00  0.00    -0.084 Cl
ATOM     28  C   UNL d   1       7.224   5.352  -0.794  0.00  0.00     0.019 A 
ENDBRANCH  19  22
ENDBRANCH   2  18
TORSDOF 7
