REMARK  10 active torsions:
REMARK  status: ('A' for Active; 'I' for Inactive)
REMARK    1  A    between atoms: C_8  and  S_1 
REMARK    2  A    between atoms: O_21  and  S_1 
REMARK    3  A    between atoms: S_2  and  C_7 
REMARK    4  A    between atoms: O_20  and  S_2 
REMARK    5  A    between atoms: C_22  and  O_20 
REMARK    6  A    between atoms: C_23  and  O_21 
REMARK    7  A    between atoms: C_24  and  C_22 
REMARK    8  A    between atoms: C_25  and  C_23 
REMARK    9  A    between atoms: C_26  and  C_24 
REMARK   10  A    between atoms: C_27  and  C_25 
ROOT
ATOM      1  C   UNL d   1      -2.420   5.163   1.938  0.00  0.00    -0.041 A 
ATOM      2  C   UNL d   1      -1.339   3.172   1.255  0.00  0.00    -0.041 A 
ATOM      3  C   UNL d   1      -1.227   5.500   1.260  0.00  0.00    -0.019 A 
ATOM      4  C   UNL d   1      -0.577   4.282   0.823  0.00  0.00    -0.019 A 
ATOM      5  C   UNL d   1      -2.876   7.481   2.278  0.00  0.00     0.087 A 
ATOM      6  C   UNL d   1       0.264   1.695   0.283  0.00  0.00     0.087 A 
ATOM      7  C   UNL d   1      -2.587   3.653   1.978  0.00  0.00     0.078 A 
ATOM      8  C   UNL d   1      -3.262   6.143   2.447  0.00  0.00     0.034 A 
ATOM      9  C   UNL d   1      -0.926   1.869   1.006  0.00  0.00     0.034 A 
ATOM     10  C   UNL d   1       0.590   4.103   0.098  0.00  0.00     0.014 A 
ATOM     11  C   UNL d   1      -0.848   6.824   1.103  0.00  0.00     0.014 A 
ATOM     12  C   UNL d   1      -1.681   7.823   1.615  0.00  0.00     0.027 A 
ATOM     13  C   UNL d   1       1.008   2.799  -0.180  0.00  0.00     0.027 A 
ENDROOT
BRANCH   5  14
ATOM     14  S   UNL d   1      -3.966   8.774   2.838  0.00  0.00     0.298 S 
ATOM     15  O   UNL d   1      -3.334  10.046   2.536  0.00  0.00    -0.193 OA
ATOM     16  O   UNL d   1      -5.284   8.459   2.328  0.00  0.00    -0.193 OA
BRANCH  14  17
ATOM     17  O   UNL d   1      -3.998   8.613   4.461  0.00  0.00    -0.272 OA
BRANCH  17  18
ATOM     18  C   UNL d   1      -4.799   9.552   5.168  0.00  0.00     0.190 C 
BRANCH  18  19
ATOM     19  C   UNL d   1      -4.706   9.313   6.673  0.00  0.00     0.027 C 
BRANCH  19  20
ATOM     20  C   UNL d   1      -3.281   9.493   7.199  0.00  0.00    -0.002 C 
ATOM     21  C   UNL d   1      -3.211   9.310   8.707  0.00  0.00     0.005 C 
ENDBRANCH  19  20
ENDBRANCH  18  19
ENDBRANCH  17  18
ENDBRANCH  14  17
ENDBRANCH   5  14
BRANCH   6  22
ATOM     22  S   UNL d   1       0.896   0.050   0.009  0.00  0.00     0.298 S 
ATOM     23  O   UNL d   1       1.104  -0.535   1.318  0.00  0.00    -0.193 OA
ATOM     24  O   UNL d   1       1.987   0.155  -0.943  0.00  0.00    -0.193 OA
BRANCH  22  25
ATOM     25  O   UNL d   1      -0.316  -0.760  -0.722  0.00  0.00    -0.272 OA
BRANCH  25  26
ATOM     26  C   UNL d   1      -0.043  -2.113  -1.071  0.00  0.00     0.190 C 
BRANCH  26  27
ATOM     27  C   UNL d   1      -1.211  -2.715  -1.849  0.00  0.00     0.027 C 
BRANCH  27  28
ATOM     28  C   UNL d   1      -1.498  -1.946  -3.140  0.00  0.00    -0.002 C 
ATOM     29  C   UNL d   1      -2.648  -2.560  -3.923  0.00  0.00     0.005 C 
ENDBRANCH  27  28
ENDBRANCH  26  27
ENDBRANCH  25  26
ENDBRANCH  22  25
ENDBRANCH   6  22
TORSDOF 10
