REMARK  6 active torsions:
REMARK  status: ('A' for Active; 'I' for Inactive)
REMARK    1  A    between atoms: C_7  and  C_1 
REMARK    2  A    between atoms: C_9  and  N_2 
REMARK    3  A    between atoms: C_15  and  C_3 
REMARK       I    between atoms: N_8  and  C_7 
REMARK    4  A    between atoms: N_10  and  N_8 
REMARK    5  A    between atoms: C_13  and  N_10 
REMARK    6  A    between atoms: C_22  and  C_15 
ROOT
ATOM      1  C   UNL d   1      -0.145   1.275   0.014  0.00  0.00     0.074 C 
ATOM      2  N   UNL d   1       0.979  -0.664   0.067  0.00  0.00    -0.260 N 
ATOM      3  C   UNL d   1       1.147   0.736   0.083  0.00  0.00     0.051 C 
ATOM      4  N   UNL d   1      -0.310  -0.987  -0.217  0.00  0.00    -0.304 N 
ATOM      5  HN  UNL d   1      -0.685  -1.913  -0.421  1.00  0.00     0.186 HD
ATOM      6  C   UNL d   1      -0.976   0.156  -0.175  0.00  0.00     0.127 C 
ENDROOT
BRANCH   1   7
ATOM      7  C   UNL d   1      -0.669   2.636   0.021  0.00  0.00     0.269 C 
ATOM      8  N   UNL d   1       0.153   3.649   0.495  0.00  0.00    -0.283 N 
ATOM      9  H   UNL d   1       0.867   3.410   1.174  0.00  0.00     0.184 HD
ATOM     10  O   UNL d   1      -1.829   2.876  -0.324  0.00  0.00    -0.266 OA
BRANCH   8  11
ATOM     11  N   UNL d   1      -0.498   4.888   0.742  0.00  0.00    -0.203 NA
ATOM     12  H   UNL d   1      -1.475   4.835   0.412  0.00  0.00     0.153 HD
BRANCH  11  13
ATOM     13  C   UNL d   1       0.150   6.021   0.185  0.00  0.00     0.029 A 
ATOM     14  C   UNL d   1       1.543   6.147   0.128  0.00  0.00     0.048 A 
ATOM     15  C   UNL d   1       2.129   7.347  -0.300  0.00  0.00     0.035 A 
ATOM     16 CL   UNL d   1       3.844   7.479  -0.353  0.00  0.00    -0.084 Cl
ATOM     17  C   UNL d   1       1.342   8.438  -0.658  0.00  0.00     0.024 A 
ATOM     18  C   UNL d   1      -0.044   8.335  -0.587  0.00  0.00     0.003 A 
ATOM     19  C   UNL d   1      -0.630   7.141  -0.157  0.00  0.00     0.025 A 
ENDBRANCH  11  13
ENDBRANCH   8  11
ENDBRANCH   1   7
BRANCH   3  20
ATOM     20  C   UNL d   1       2.474   1.441   0.068  0.00  0.00     0.060 C 
BRANCH  20  21
ATOM     21  C   UNL d   1       3.338   1.149  -1.160  0.00  0.00     0.002 C 
ATOM     22  C   UNL d   1       2.730   1.678  -2.453  0.00  0.00     0.005 C 
ENDBRANCH  20  21
ENDBRANCH   3  20
BRANCH   2  23
ATOM     23  C   UNL d   1       1.877  -1.754   0.317  0.00  0.00     0.056 A 
ATOM     24  C   UNL d   1       3.079  -1.612   1.016  0.00  0.00     0.031 A 
ATOM     25  C   UNL d   1       3.869  -2.734   1.302  0.00  0.00     0.002 A 
ATOM     26  C   UNL d   1       3.469  -4.007   0.897  0.00  0.00     0.000 A 
ATOM     27  C   UNL d   1       2.281  -4.164   0.196  0.00  0.00     0.002 A 
ATOM     28  C   UNL d   1       1.489  -3.047  -0.088  0.00  0.00     0.031 A 
ENDBRANCH   2  23
TORSDOF 6
