REMARK  6 active torsions:
REMARK  status: ('A' for Active; 'I' for Inactive)
REMARK    1  A    between atoms: O_8  and  C_1 
REMARK    2  A    between atoms: C_9  and  C_1 
REMARK    3  A    between atoms: N_2  and  O_8 
REMARK    4  A    between atoms: C_4  and  C_5 
REMARK    5  A    between atoms: C_6  and  C_4 
REMARK    6  A    between atoms: N_16  and  C_5 
ROOT
ATOM      1  N   UNL d   1      -1.150  -1.198  -0.202  0.00  0.00    -0.250 N 
ATOM      2  HN  UNL d   1      -0.144  -1.201  -0.371  1.00  0.00     0.196 HD
ATOM      3  C   UNL d   1      -1.813  -2.231   0.219  0.00  0.00     0.080 C 
ENDROOT
BRANCH   1   4
ATOM      4  O   UNL d   1      -1.977  -0.067  -0.401  0.00  0.00    -0.194 OA
BRANCH   4   5
ATOM      5  C   UNL d   1      -1.196   0.988  -0.800  0.00  0.00     0.315 C 
ATOM      6  O   UNL d   1       0.013   0.983  -0.982  0.00  0.00    -0.257 OA
BRANCH   5   7
ATOM      7  C   UNL d   1      -2.006   2.224  -1.008  0.00  0.00     0.041 A 
ATOM      8  C   UNL d   1      -1.329   3.372  -1.458  0.00  0.00     0.019 A 
ATOM      9  C   UNL d   1      -2.017   4.570  -1.677  0.00  0.00     0.025 A 
ATOM     10  C   UNL d   1      -3.388   4.626  -1.447  0.00  0.00     0.034 A 
ATOM     11  C   UNL d   1      -4.074   3.497  -1.000  0.00  0.00     0.025 A 
ATOM     12 CL   UNL d   1      -4.238   6.097  -1.715  0.00  0.00    -0.084 Cl
ATOM     13  C   UNL d   1      -3.386   2.294  -0.779  0.00  0.00     0.019 A 
ENDBRANCH   5   7
ENDBRANCH   4   5
ENDBRANCH   1   4
BRANCH   3  14
ATOM     14  C   UNL d   1      -1.019  -3.510   0.493  0.00  0.00     0.117 C 
BRANCH  14  15
ATOM     15  C   UNL d   1      -1.004  -4.387  -0.726  0.00  0.00    -0.011 A 
ATOM     16  S   UNL d   1      -2.248  -5.538  -0.990  0.00  0.00    -0.106 SA
ATOM     17  C   UNL d   1      -1.517  -6.094  -2.433  0.00  0.00     0.050 A 
ATOM     18  C   UNL d   1      -0.348  -5.422  -2.712  0.00  0.00     0.008 A 
ATOM     19  C   UNL d   1      -0.051  -4.438  -1.725  0.00  0.00     0.015 A 
ENDBRANCH  14  15
ENDBRANCH   3  14
BRANCH   3  20
ATOM     20  N   UNL d   1      -3.172  -2.260   0.434  0.00  0.00    -0.290 NA
ATOM     21  H   UNL d   1      -3.613  -3.169   0.325  0.00  0.00     0.125 HD
ATOM     22  H   UNL d   1      -3.669  -1.514  -0.036  0.00  0.00     0.125 HD
ENDBRANCH   3  20
TORSDOF 6
