REMARK  4 active torsions:
REMARK  status: ('A' for Active; 'I' for Inactive)
REMARK    1  A    between atoms: C_4  and  S_1 
REMARK    2  A    between atoms: N_11  and  S_1 
REMARK       I    between atoms: C_2  and  N_5 
REMARK    3  A    between atoms: C_3  and  C_2 
REMARK    4  A    between atoms: N_5  and  C_10 
ROOT
ATOM      1  C   UNL d   1       0.378  -0.695   1.574  0.00  0.00     0.076 A 
ATOM      2  C   UNL d   1       0.421  -2.087   1.432  0.00  0.00     0.054 A 
ATOM      3  C   UNL d   1       0.291  -2.907   2.554  0.00  0.00     0.036 A 
ATOM      4  C   UNL d   1       0.209  -0.105   2.828  0.00  0.00     0.025 A 
ATOM      5  C   UNL d   1       0.068  -0.919   3.949  0.00  0.00     0.004 A 
ATOM      6  C   UNL d   1       0.111  -2.311   3.812  0.00  0.00     0.029 A 
ENDROOT
BRANCH   3   7
ATOM      7  N   UNL d   1       0.348  -4.315   2.514  0.00  0.00    -0.322 N 
ATOM      8  C   UNL d   1       0.511  -5.134   1.408  0.00  0.00     0.263 C 
ATOM      9  O   UNL d   1       0.596  -4.727   0.253  0.00  0.00    -0.267 OA
ATOM     10  H   UNL d   1       0.271  -4.798   3.400  0.00  0.00     0.169 HD
BRANCH   8  11
ATOM     11  C   UNL d   1       0.569  -6.566   1.704  0.00  0.00     0.072 A 
ATOM     12  S   UNL d   1       0.452  -7.193   3.296  0.00  0.00    -0.097 SA
ATOM     13  C   UNL d   1       0.591  -8.807   2.748  0.00  0.00     0.050 A 
ATOM     14  C   UNL d   1       0.731  -8.877   1.381  0.00  0.00     0.009 A 
ATOM     15  C   UNL d   1       0.722  -7.587   0.781  0.00  0.00     0.025 A 
ENDBRANCH   8  11
ENDBRANCH   3   7
BRANCH   1  16
ATOM     16  S   UNL d   1       0.631   0.325   0.151  0.00  0.00     0.239 S 
ATOM     17  O   UNL d   1       1.380  -0.407  -0.842  0.00  0.00    -0.206 OA
ATOM     18  O   UNL d   1       1.015   1.650   0.582  0.00  0.00    -0.206 OA
BRANCH  16  19
ATOM     19  N   UNL d   1      -0.926   0.477  -0.457  0.00  0.00    -0.225 NA
ATOM     20  H   UNL d   1      -0.983   0.021  -1.369  0.00  0.00     0.136 HD
ATOM     21  H   UNL d   1      -1.193   1.462  -0.472  0.00  0.00     0.136 HD
ENDBRANCH  16  19
ENDBRANCH   1  16
TORSDOF 4
