REMARK  5 active torsions:
REMARK  status: ('A' for Active; 'I' for Inactive)
REMARK    1  A    between atoms: N_2  and  C_1 
REMARK    2  A    between atoms: N_9  and  N_2 
REMARK    3  A    between atoms: C_3  and  N_9 
REMARK    4  A    between atoms: N_4  and  C_3 
REMARK    5  A    between atoms: C_5  and  N_4 
ROOT
ATOM      1  N   UNL d   1      -1.062  -2.826   0.179  0.00  0.00    -0.293 N 
ATOM      2  H   UNL d   1      -0.182  -2.398   0.442  0.00  0.00     0.183 HD
ENDROOT
BRANCH   1   3
ATOM      3  C   UNL d   1      -1.117  -4.198   0.028  0.00  0.00     0.187 C 
ATOM      4  S   UNL d   1      -2.534  -5.072  -0.179  0.00  0.00    -0.040 SA
BRANCH   3   5
ATOM      5  N   UNL d   1       0.077  -4.855  -0.131  0.00  0.00    -0.331 N 
ATOM      6  H   UNL d   1      -0.013  -5.718  -0.649  0.00  0.00     0.168 HD
BRANCH   5   7
ATOM      7  C   UNL d   1       1.383  -4.448   0.218  0.00  0.00     0.056 A 
ATOM      8  C   UNL d   1       1.727  -3.711   1.368  0.00  0.00     0.062 A 
ATOM      9  C   UNL d   1       3.046  -3.297   1.579  0.00  0.00     0.050 A 
ATOM     10 CL   UNL d   1       0.616  -3.390   2.655  0.00  0.00    -0.082 Cl
ATOM     11  C   UNL d   1       4.034  -3.652   0.669  0.00  0.00     0.035 A 
ATOM     12  C   UNL d   1       3.726  -4.449  -0.428  0.00  0.00     0.026 A 
ATOM     13 CL   UNL d   1       5.651  -3.123   0.917  0.00  0.00    -0.084 Cl
ATOM     14  C   UNL d   1       2.407  -4.858  -0.646  0.00  0.00     0.033 A 
ENDBRANCH   5   7
ENDBRANCH   3   5
ENDBRANCH   1   3
BRANCH   1  15
ATOM     15  N   UNL d   1      -2.192  -2.144   0.674  0.00  0.00    -0.200 NA
ATOM     16  H   UNL d   1      -3.043  -2.696   0.509  0.00  0.00     0.153 HD
BRANCH  15  17
ATOM     17  C   UNL d   1      -2.358  -0.830   0.142  0.00  0.00     0.073 A 
ATOM     18  C   UNL d   1      -2.317  -0.513  -1.229  0.00  0.00     0.073 A 
ATOM     19 CL   UNL d   1      -1.985  -1.660  -2.477  0.00  0.00    -0.081 Cl
ATOM     20  C   UNL d   1      -2.598   0.794  -1.625  0.00  0.00     0.113 A 
ATOM     21  N   UNL d   1      -2.932   1.796  -0.781  0.00  0.00    -0.372 N 
ATOM     22  C   UNL d   1      -3.000   1.472   0.529  0.00  0.00     0.113 A 
ATOM     23  HN  UNL d   1      -3.122   2.742  -1.113  1.00  0.00     0.164 HD
ATOM     24  C   UNL d   1      -2.737   0.201   1.027  0.00  0.00     0.073 A 
ATOM     25 CL   UNL d   1      -2.873  -0.057   2.731  0.00  0.00    -0.081 Cl
ENDBRANCH  15  17
ENDBRANCH   1  15
TORSDOF 5
