REMARK  4 active torsions:
REMARK  status: ('A' for Active; 'I' for Inactive)
REMARK    1  A    between atoms: N_4  and  C_1 
REMARK    2  A    between atoms: N_2  and  N_4 
REMARK    3  A    between atoms: C_5  and  N_2 
REMARK    4  A    between atoms: C_7  and  C_5 
ROOT
ATOM      1  N   UNL d   1       1.082  -1.940  -1.577  0.00  0.00    -0.302 N 
ATOM      2  HN  UNL d   1       0.530  -1.237  -1.086  1.00  0.00     0.186 HD
ENDROOT
BRANCH   1   3
ATOM      3  N   UNL d   1       2.446  -1.909  -1.524  0.00  0.00    -0.276 N 
ATOM      4  H   UNL d   1       3.013  -2.610  -1.977  0.00  0.00     0.189 HD
BRANCH   3   5
ATOM      5  C   UNL d   1       3.150  -0.942  -0.843  0.00  0.00     0.186 C 
ATOM      6  S   UNL d   1       4.817  -1.020  -0.854  0.00  0.00    -0.040 SA
ATOM      7  N   UNL d   1       2.376  -0.006  -0.223  0.00  0.00    -0.370 N 
ATOM      8  C   UNL d   1       2.804   1.119   0.580  0.00  0.00     0.148 C 
ATOM      9  H   UNL d   1       1.383  -0.178  -0.350  0.00  0.00     0.161 HD
ENDBRANCH   3   5
ENDBRANCH   1   3
BRANCH   1  10
ATOM     10  C   UNL d   1       0.494  -2.881  -2.267  0.00  0.00     0.032 C 
ATOM     11  C   UNL d   1       1.204  -3.973  -3.051  0.00  0.00     0.070 C 
BRANCH  10  12
ATOM     12  C   UNL d   1      -1.018  -2.907  -2.302  0.00  0.00    -0.012 A 
ATOM     13  C   UNL d   1      -1.743  -1.930  -1.601  0.00  0.00     0.016 A 
ATOM     14  C   UNL d   1      -3.142  -1.932  -1.621  0.00  0.00     0.043 A 
ATOM     15  C   UNL d   1      -3.818  -2.909  -2.341  0.00  0.00     0.116 A 
ATOM     16  C   UNL d   1      -3.123  -3.885  -3.039  0.00  0.00     0.043 A 
ATOM     17  F   UNL d   1      -5.157  -2.909  -2.362  0.00  0.00    -0.206 F 
ATOM     18  C   UNL d   1      -1.724  -3.887  -3.020  0.00  0.00     0.016 A 
ENDBRANCH  10  12
ENDBRANCH   1  10
TORSDOF 4
