REMARK  5 active torsions:
REMARK  status: ('A' for Active; 'I' for Inactive)
REMARK    1  A    between atoms: C_6  and  N_1 
REMARK    2  A    between atoms: C_8  and  C_2 
REMARK    3  A    between atoms: C_7  and  C_9 
REMARK    4  A    between atoms: O_19  and  C_7 
REMARK    5  A    between atoms: C_24  and  O_19 
ROOT
ATOM      1  N   UNL d   1       2.517  -0.055  -0.003  0.00  0.00    -0.345 N 
ATOM      2  C   UNL d   1       1.631   1.119   0.057  0.00  0.00     0.359 C 
ATOM      3  N   UNL d   1       0.267   0.632   0.301  0.00  0.00     0.122 N 
ATOM      4  C   UNL d   1       1.672  -1.257   0.026  0.00  0.00     0.161 C 
ATOM      5  C   UNL d   1       0.270  -0.703  -0.318  0.00  0.00     0.244 C 
ATOM      6  C   UNL d   1      -0.879   1.436  -0.062  0.00  0.00     0.276 C 
ATOM      7  C   UNL d   1      -0.924  -1.501   0.187  0.00  0.00     0.037 C 
ATOM      8  C   UNL d   1      -2.158   0.698   0.369  0.00  0.00     0.030 C 
ATOM      9  C   UNL d   1      -2.205  -0.738  -0.170  0.00  0.00     0.004 C 
ENDROOT
BRANCH   1  10
ATOM     10  C   UNL d   1       3.882  -0.041   0.048  0.00  0.00     0.032 A 
ATOM     11  C   UNL d   1       4.590   1.003   0.663  0.00  0.00     0.030 A 
ATOM     12  C   UNL d   1       5.988   1.037   0.681  0.00  0.00     0.020 A 
ATOM     13  C   UNL d   1       6.715   0.026   0.056  0.00  0.00     0.039 A 
ATOM     14  C   UNL d   1       6.043  -1.022  -0.565  0.00  0.00     0.020 A 
ATOM     15  C   UNL d   1       4.643  -1.051  -0.560  0.00  0.00     0.030 A 
BRANCH  13  16
ATOM     16  C   UNL d   1       8.192  -0.014   0.114  0.00  0.00     0.293 C 
ATOM     17  O   UNL d   1       8.841  -1.038   0.070  0.00  0.00    -0.259 OA
BRANCH  16  18
ATOM     18  O   UNL d   1       8.677   1.245   0.291  0.00  0.00    -0.318 OA
BRANCH  18  19
ATOM     19  C   UNL d   1      10.003   1.313   0.826  0.00  0.00     0.174 C 
ATOM     20  C   UNL d   1       9.876   1.339   2.338  0.00  0.00     0.034 C 
ENDBRANCH  18  19
ENDBRANCH  16  18
ENDBRANCH  13  16
ENDBRANCH   1  10
BRANCH   2  21
ATOM     21  C   UNL d   1       1.808   1.959  -1.218  0.00  0.00    -0.006 A 
ATOM     22  C   UNL d   1       2.121   1.371  -2.460  0.00  0.00     0.013 A 
ATOM     23  C   UNL d   1       2.324   2.150  -3.601  0.00  0.00     0.024 A 
ATOM     24  C   UNL d   1       2.195   3.533  -3.519  0.00  0.00     0.034 A 
ATOM     25  C   UNL d   1       1.869   4.139  -2.307  0.00  0.00     0.024 A 
ATOM     26 CL   UNL d   1       2.449   4.495  -4.921  0.00  0.00    -0.084 Cl
ATOM     27  C   UNL d   1       1.679   3.357  -1.163  0.00  0.00     0.013 A 
ENDBRANCH   2  21
TORSDOF 5
