REMARK  7 active torsions:
REMARK  status: ('A' for Active; 'I' for Inactive)
REMARK    1  A    between atoms: N_2  and  C_1 
REMARK    2  A    between atoms: C_3  and  N_2 
REMARK    3  A    between atoms: O_17  and  C_5 
REMARK    4  A    between atoms: O_19  and  C_7 
REMARK    5  A    between atoms: C_20  and  N_10 
REMARK    6  A    between atoms: C_14  and  C_22 
REMARK    7  A    between atoms: C_22  and  C_20 
ROOT
ATOM      1  C   UNL d   1       1.191  -0.368   0.266  0.00  0.00     0.172 C 
ATOM      2  S   UNL d   1       0.503  -1.298  -0.934  0.00  0.00    -0.041 SA
ATOM      3  N   UNL d   1       2.496   0.002   0.149  0.00  0.00    -0.367 N 
ATOM      4  H   UNL d   1       2.903  -0.377  -0.697  0.00  0.00     0.161 HD
ENDROOT
BRANCH   3   5
ATOM      5  C   UNL d   1       3.406   0.096   1.290  0.00  0.00     0.126 C 
BRANCH   5   6
ATOM      6  C   UNL d   1       4.841   0.409   0.861  0.00  0.00     0.058 C 
BRANCH   6   7
ATOM      7  C   UNL d   1       5.736   0.512   2.071  0.00  0.00    -0.054 A 
ATOM      8  C   UNL d   1       6.414  -0.621   2.549  0.00  0.00     0.046 A 
ATOM      9  C   UNL d   1       7.152  -0.585   3.744  0.00  0.00     0.102 A 
ATOM     10  C   UNL d   1       7.218   0.623   4.460  0.00  0.00     0.101 A 
ATOM     11  C   UNL d   1       6.550   1.755   3.973  0.00  0.00     0.040 A 
ATOM     12  C   UNL d   1       5.822   1.707   2.786  0.00  0.00     0.010 A 
BRANCH   9  13
ATOM     13  O   UNL d   1       7.772  -1.687   4.272  0.00  0.00    -0.353 OA
ATOM     14  C   UNL d   1       7.699  -2.907   3.546  0.00  0.00     0.210 C 
ENDBRANCH   9  13
BRANCH  10  15
ATOM     15  O   UNL d   1       7.824   0.850   5.669  0.00  0.00    -0.353 OA
ATOM     16  C   UNL d   1       8.962   0.063   5.987  0.00  0.00     0.210 C 
ENDBRANCH  10  15
ENDBRANCH   6   7
ENDBRANCH   5   6
ENDBRANCH   3   5
BRANCH   1  17
ATOM     17  N   UNL d   1       0.496  -0.089   1.397  0.00  0.00    -0.333 N 
ATOM     18  H   UNL d   1      -0.310  -0.687   1.543  0.00  0.00     0.168 HD
BRANCH  17  19
ATOM     19  C   UNL d   1       0.429   1.138   2.098  0.00  0.00     0.040 A 
ATOM     20  C   UNL d   1      -0.099   1.160   3.403  0.00  0.00    -0.034 A 
ATOM     21  C   UNL d   1      -0.288   2.397   4.043  0.00  0.00     0.032 A 
ATOM     22  C   UNL d   1      -0.450  -0.087   4.171  0.00  0.00     0.050 C 
ATOM     23  C   UNL d   1       0.050   3.587   3.401  0.00  0.00     0.034 A 
ATOM     24  C   UNL d   1       0.601   3.563   2.126  0.00  0.00     0.026 A 
ATOM     25 CL   UNL d   1      -0.231   5.092   4.186  0.00  0.00    -0.084 Cl
ATOM     26  C   UNL d   1       0.794   2.341   1.477  0.00  0.00     0.032 A 
ENDBRANCH  17  19
ENDBRANCH   1  17
TORSDOF 7
