REMARK  6 active torsions:
REMARK  status: ('A' for Active; 'I' for Inactive)
REMARK    1  A    between atoms: N_4  and  C_1 
REMARK    2  A    between atoms: N_7  and  C_1 
REMARK    3  A    between atoms: C_3  and  N_4 
REMARK    4  A    between atoms: C_10  and  N_7 
REMARK    5  A    between atoms: C_15  and  C_10 
REMARK    6  A    between atoms: C_12  and  C_15 
ROOT
ATOM      1  C   UNL d   1       1.099  -0.131   0.156  0.00  0.00     0.172 C 
ATOM      2  S   UNL d   1       0.392  -1.059  -1.042  0.00  0.00    -0.041 SA
ENDROOT
BRANCH   1   3
ATOM      3  N   UNL d   1       0.453   0.543   1.160  0.00  0.00    -0.332 N 
ATOM      4  H   UNL d   1       0.677   1.534   1.201  0.00  0.00     0.168 HD
BRANCH   3   5
ATOM      5  C   UNL d   1      -0.727   0.146   1.834  0.00  0.00     0.058 A 
ATOM      6  C   UNL d   1      -1.627   1.109   2.327  0.00  0.00     0.082 A 
ATOM      7  C   UNL d   1      -2.728   0.702   3.098  0.00  0.00     0.058 A 
ATOM      8 CL   UNL d   1      -1.377   2.783   1.937  0.00  0.00    -0.080 Cl
ATOM      9 CL   UNL d   1      -3.884   1.819   3.736  0.00  0.00    -0.082 Cl
ATOM     10  C   UNL d   1      -2.920  -0.653   3.390  0.00  0.00     0.026 A 
ATOM     11  C   UNL d   1      -2.032  -1.605   2.899  0.00  0.00     0.004 A 
ATOM     12  C   UNL d   1      -0.944  -1.209   2.124  0.00  0.00     0.031 A 
ENDBRANCH   3   5
ENDBRANCH   1   3
BRANCH   1  13
ATOM     13  N   UNL d   1       2.459   0.023   0.119  0.00  0.00    -0.367 N 
ATOM     14  H   UNL d   1       2.871  -0.534  -0.623  0.00  0.00     0.161 HD
BRANCH  13  15
ATOM     15  C   UNL d   1       3.296   0.238   1.297  0.00  0.00     0.126 C 
BRANCH  15  16
ATOM     16  C   UNL d   1       4.783   0.196   0.935  0.00  0.00     0.058 C 
BRANCH  16  17
ATOM     17  C   UNL d   1       5.689   0.328   2.133  0.00  0.00    -0.057 A 
ATOM     18  C   UNL d   1       6.079  -0.806   2.862  0.00  0.00     0.007 A 
ATOM     19  C   UNL d   1       6.938  -0.684   3.955  0.00  0.00     0.001 A 
ATOM     20  C   UNL d   1       7.414   0.570   4.333  0.00  0.00     0.000 A 
ATOM     21  C   UNL d   1       7.022   1.704   3.623  0.00  0.00     0.001 A 
ATOM     22  C   UNL d   1       6.163   1.584   2.530  0.00  0.00     0.007 A 
ENDBRANCH  16  17
ENDBRANCH  15  16
ENDBRANCH  13  15
ENDBRANCH   1  13
TORSDOF 6
