REMARK  7 active torsions:
REMARK  status: ('A' for Active; 'I' for Inactive)
REMARK    1  A    between atoms: C_3  and  C_1 
REMARK    2  A    between atoms: O_10  and  C_2 
REMARK    3  A    between atoms: C_7  and  C_3 
REMARK    4  A    between atoms: C_13  and  C_7 
REMARK    5  A    between atoms: O_18  and  C_8 
REMARK    6  A    between atoms: C_11  and  C_13 
REMARK    7  A    between atoms: O_19  and  C_12 
ROOT
ATOM      1  C   UNL d   1       2.855  -0.428   0.119  0.00  0.00     0.162 C 
ATOM      2  O   UNL d   1       3.498   0.550  -0.240  0.00  0.00    -0.292 OA
ENDROOT
BRANCH   1   3
ATOM      3  C   UNL d   1       1.352  -0.419   0.103  0.00  0.00     0.043 A 
ATOM      4  C   UNL d   1       0.506   0.609   0.557  0.00  0.00     0.084 A 
ATOM      5  C   UNL d   1      -0.897   0.435   0.452  0.00  0.00     0.074 A 
ATOM      6  C   UNL d   1      -1.468  -0.722  -0.077  0.00  0.00     0.070 A 
ATOM      7  C   UNL d   1      -0.628  -1.734  -0.513  0.00  0.00     0.038 A 
ATOM      8  C   UNL d   1       0.755  -1.579  -0.437  0.00  0.00     0.021 A 
BRANCH   4   9
ATOM      9  O   UNL d   1       0.768   1.792   1.190  0.00  0.00    -0.355 OA
ATOM     10  C   UNL d   1       2.047   2.392   1.145  0.00  0.00     0.210 C 
ENDBRANCH   4   9
BRANCH   6  11
ATOM     11  O   UNL d   1      -2.798  -0.991  -0.211  0.00  0.00    -0.356 OA
ATOM     12  C   UNL d   1      -3.707   0.053   0.115  0.00  0.00     0.210 C 
ENDBRANCH   6  11
ENDBRANCH   1   3
BRANCH   1  13
ATOM     13  C   UNL d   1       3.538  -1.742   0.485  0.00  0.00     0.088 C 
BRANCH  13  14
ATOM     14  C   UNL d   1       5.058  -1.636   0.621  0.00  0.00     0.046 C 
BRANCH  14  15
ATOM     15  C   UNL d   1       5.650  -3.013   0.839  0.00  0.00    -0.058 A 
ATOM     16  C   UNL d   1       5.906  -3.858  -0.252  0.00  0.00     0.010 A 
ATOM     17  C   UNL d   1       6.371  -5.164  -0.055  0.00  0.00     0.037 A 
ATOM     18  C   UNL d   1       6.589  -5.642   1.236  0.00  0.00     0.068 A 
ATOM     19  C   UNL d   1       6.347  -4.797   2.323  0.00  0.00     0.037 A 
ATOM     20  C   UNL d   1       5.880  -3.494   2.130  0.00  0.00     0.010 A 
BRANCH  18  21
ATOM     21  O   UNL d   1       7.022  -6.895   1.571  0.00  0.00    -0.356 OA
ATOM     22  C   UNL d   1       7.276  -7.798   0.502  0.00  0.00     0.210 C 
ENDBRANCH  18  21
ENDBRANCH  14  15
ENDBRANCH  13  14
ENDBRANCH   1  13
TORSDOF 7
