REMARK  6 active torsions:
REMARK  status: ('A' for Active; 'I' for Inactive)
REMARK    1  A    between atoms: C_2  and  C_1 
REMARK    2  A    between atoms: S_7  and  C_2 
REMARK    3  A    between atoms: C_13  and  C_3 
REMARK    4  A    between atoms: C_9  and  S_7 
REMARK    5  A    between atoms: O_15  and  C_13 
REMARK    6  A    between atoms: C_20  and  O_15 
ROOT
ATOM      1  C   UNL d   1      -0.017  -1.389   0.265  0.00  0.00     0.079 C 
ATOM      2  C   UNL d   1      -1.070  -1.143  -0.602  0.00  0.00     0.117 C 
ATOM      3  N   UNL d   1       0.215   0.677  -0.694  0.00  0.00    -0.265 N 
ATOM      4  HN  UNL d   1       0.558   1.614  -0.909  1.00  0.00     0.194 HD
ATOM      5  O   UNL d   1      -0.975   0.121  -1.091  0.00  0.00    -0.239 OA
ATOM      6  C   UNL d   1       0.835  -0.261   0.034  0.00  0.00     0.046 C 
ATOM      7  C   UNL d   1       2.280  -0.054   0.312  0.00  0.00     0.071 C 
ENDROOT
BRANCH   1   8
ATOM      8  C   UNL d   1       0.150  -2.615   1.026  0.00  0.00     0.228 C 
ATOM      9  O   UNL d   1      -0.347  -3.682   0.679  0.00  0.00    -0.279 OA
BRANCH   8  10
ATOM     10  S   UNL d   1       1.210  -2.519   2.417  0.00  0.00    -0.044 SA
BRANCH  10  11
ATOM     11  C   UNL d   1       0.181  -2.498   3.876  0.00  0.00     0.047 A 
ATOM     12  C   UNL d   1      -1.121  -2.996   3.977  0.00  0.00     0.136 A 
ATOM     13  C   UNL d   1      -1.791  -3.048   5.201  0.00  0.00     0.086 A 
ATOM     14  F   UNL d   1      -1.767  -3.459   2.901  0.00  0.00    -0.205 F 
ATOM     15  C   UNL d   1      -1.155  -2.585   6.348  0.00  0.00     0.119 A 
ATOM     16  C   UNL d   1       0.123  -2.054   6.283  0.00  0.00     0.044 A 
ATOM     17  F   UNL d   1      -1.778  -2.663   7.530  0.00  0.00    -0.206 F 
ATOM     18  C   UNL d   1       0.789  -2.011   5.053  0.00  0.00     0.025 A 
ENDBRANCH  10  11
ENDBRANCH   8  10
ENDBRANCH   1   8
BRANCH   2  19
ATOM     19  C   UNL d   1      -2.166  -1.955  -1.185  0.00  0.00     0.244 C 
BRANCH  19  20
ATOM     20  O   UNL d   1      -3.277  -1.910  -0.299  0.00  0.00    -0.345 OA
BRANCH  20  21
ATOM     21  C   UNL d   1      -4.426  -2.498  -0.764  0.00  0.00     0.069 A 
ATOM     22  C   UNL d   1      -4.570  -3.197  -1.968  0.00  0.00     0.037 A 
ATOM     23  C   UNL d   1      -5.809  -3.739  -2.325  0.00  0.00     0.003 A 
ATOM     24  C   UNL d   1      -6.908  -3.589  -1.483  0.00  0.00     0.000 A 
ATOM     25  C   UNL d   1      -6.769  -2.901  -0.281  0.00  0.00     0.003 A 
ATOM     26  C   UNL d   1      -5.532  -2.360   0.076  0.00  0.00     0.037 A 
ENDBRANCH  20  21
ENDBRANCH  19  20
ENDBRANCH   2  19
TORSDOF 6
