REMARK  5 active torsions:
REMARK  status: ('A' for Active; 'I' for Inactive)
REMARK       I    between atoms: N_2  and  C_1 
REMARK    1  A    between atoms: C_3  and  C_1 
REMARK    2  A    between atoms: C_4  and  N_2 
REMARK    3  A    between atoms: N_6  and  C_3 
REMARK    4  A    between atoms: C_13  and  N_6 
REMARK    5  A    between atoms: C_16  and  C_13 
ROOT
ATOM      1  C   UNL d   1       0.842   0.328   0.154  0.00  0.00     0.283 C 
ATOM      2  N   UNL d   1       0.376  -0.955   0.407  0.00  0.00    -0.318 N 
ATOM      3  O   UNL d   1       1.849   0.754   0.715  0.00  0.00    -0.265 OA
ATOM      4  H   UNL d   1       0.648  -1.188   1.358  0.00  0.00     0.169 HD
ENDROOT
BRANCH   1   5
ATOM      5  C   UNL d   1       0.133   1.243  -0.819  0.00  0.00     0.165 C 
ATOM      6  S   UNL d   1      -1.284   1.979  -0.340  0.00  0.00    -0.055 SA
BRANCH   5   7
ATOM      7  N   UNL d   1       0.720   1.550  -2.020  0.00  0.00    -0.372 N 
ATOM      8  H   UNL d   1       0.263   2.290  -2.541  0.00  0.00     0.161 HD
BRANCH   7   9
ATOM      9  C   UNL d   1       2.093   1.255  -2.386  0.00  0.00     0.159 C 
BRANCH   9  10
ATOM     10  C   UNL d   1       2.218   1.260  -3.886  0.00  0.00    -0.041 A 
ATOM     11  C   UNL d   1       2.967   2.240  -4.553  0.00  0.00     0.009 A 
ATOM     12  C   UNL d   1       3.016   2.255  -5.949  0.00  0.00     0.001 A 
ATOM     13  C   UNL d   1       2.322   1.298  -6.687  0.00  0.00     0.000 A 
ATOM     14  C   UNL d   1       1.581   0.317  -6.034  0.00  0.00     0.001 A 
ATOM     15  C   UNL d   1       1.532   0.296  -4.641  0.00  0.00     0.009 A 
ENDBRANCH   9  10
ENDBRANCH   7   9
ENDBRANCH   5   7
ENDBRANCH   1   5
BRANCH   2  16
ATOM     16  C   UNL d   1      -0.891  -1.425   0.020  0.00  0.00     0.074 A 
ATOM     17  C   UNL d   1      -1.923  -1.472   0.966  0.00  0.00     0.146 A 
ATOM     18  C   UNL d   1      -3.183  -1.944   0.632  0.00  0.00     0.086 A 
ATOM     19  F   UNL d   1      -1.704  -1.011   2.207  0.00  0.00    -0.204 F 
ATOM     20  C   UNL d   1      -3.391  -2.437  -0.649  0.00  0.00     0.119 A 
ATOM     21  C   UNL d   1      -2.363  -2.445  -1.593  0.00  0.00     0.044 A 
ATOM     22  F   UNL d   1      -4.593  -2.925  -0.982  0.00  0.00    -0.206 F 
ATOM     23  C   UNL d   1      -1.107  -1.924  -1.265  0.00  0.00     0.036 A 
ENDBRANCH   2  16
TORSDOF 5
