REMARK  3 active torsions:
REMARK  status: ('A' for Active; 'I' for Inactive)
REMARK       I    between atoms: C_4  and  N_1 
REMARK    1  A    between atoms: C_3  and  C_4 
REMARK    2  A    between atoms: C_13  and  C_5 
REMARK    3  A    between atoms: C_16  and  N_11 
ROOT
ATOM      1  N   UNL d   1       0.929   0.460   0.058  0.00  0.00    -0.279 N 
ATOM      2  C   UNL d   1       0.516  -0.868   0.221  0.00  0.00     0.155 C 
ATOM      3  C   UNL d   1       2.065   0.862   0.748  0.00  0.00     0.265 C 
ATOM      4  S   UNL d   1      -1.235  -0.864   0.392  0.00  0.00    -0.057 SA
ATOM      5  C   UNL d   1       0.031   1.100  -0.962  0.00  0.00     0.068 C 
ATOM      6  C   UNL d   1      -1.356   0.647  -0.473  0.00  0.00     0.005 C 
ATOM      7  N   UNL d   1       1.308  -1.879   0.077  0.00  0.00    -0.335 N 
ATOM      8  HN  UNL d   1       2.307  -1.704  -0.029  1.00  0.00     0.168 HD
ATOM      9  O   UNL d   1       2.679   0.108   1.500  0.00  0.00    -0.267 OA
ATOM     10  C   UNL d   1      -2.536   1.277  -0.555  0.00  0.00     0.029 C 
ATOM     11  C   UNL d   1       0.085   2.610  -1.219  0.00  0.00     0.044 C 
ATOM     12  C   UNL d   1       0.304   0.458  -2.357  0.00  0.00     0.044 C 
ENDROOT
BRANCH   3  13
ATOM     13  C   UNL d   1       2.531   2.233   0.679  0.00  0.00     0.093 C 
ATOM     14  C   UNL d   1       3.871   2.730   0.504  0.00  0.00     0.085 C 
ATOM     15  N   UNL d   1       3.838   4.069   0.401  0.00  0.00    -0.259 N 
ATOM     16  O   UNL d   1       2.606   4.458   0.869  0.00  0.00    -0.241 OA
ATOM     17  HN  UNL d   1       4.578   4.675   0.047  1.00  0.00     0.195 HD
ATOM     18  C   UNL d   1       1.864   3.357   1.141  0.00  0.00     0.090 C 
ATOM     19  C   UNL d   1       0.614   3.615   1.883  0.00  0.00     0.080 C 
BRANCH  14  20
ATOM     20  C   UNL d   1       5.157   2.012   0.477  0.00  0.00     0.015 A 
ATOM     21  C   UNL d   1       6.293   2.491   1.177  0.00  0.00     0.046 A 
ATOM     22 CL   UNL d   1       6.296   3.920   2.159  0.00  0.00    -0.083 Cl
ATOM     23  C   UNL d   1       7.498   1.771   1.161  0.00  0.00     0.025 A 
ATOM     24  C   UNL d   1       7.590   0.561   0.481  0.00  0.00     0.002 A 
ATOM     25  C   UNL d   1       6.477   0.070  -0.192  0.00  0.00     0.001 A 
ATOM     26  C   UNL d   1       5.274   0.791  -0.202  0.00  0.00     0.015 A 
ENDBRANCH  14  20
ENDBRANCH   3  13
BRANCH   7  27
ATOM     27  C   UNL d   1       0.852  -3.217   0.059  0.00  0.00     0.056 A 
ATOM     28  C   UNL d   1       1.457  -4.198   0.864  0.00  0.00     0.060 A 
ATOM     29 CL   UNL d   1       2.775  -3.811   1.913  0.00  0.00    -0.082 Cl
ATOM     30  C   UNL d   1       1.028  -5.532   0.821  0.00  0.00     0.026 A 
ATOM     31  C   UNL d   1      -0.010  -5.911  -0.029  0.00  0.00     0.002 A 
ATOM     32  C   UNL d   1      -0.590  -4.966  -0.867  0.00  0.00     0.002 A 
ATOM     33  C   UNL d   1      -0.139  -3.642  -0.844  0.00  0.00     0.031 A 
ENDBRANCH   7  27
TORSDOF 3
