REMARK  5 active torsions:
REMARK  status: ('A' for Active; 'I' for Inactive)
REMARK    1  A    between atoms: C_9  and  C_1 
REMARK       I    between atoms: N_20  and  C_1 
REMARK    2  A    between atoms: C_13  and  N_2 
REMARK    3  A    between atoms: C_4  and  C_13 
REMARK       I    between atoms: N_10  and  C_4 
REMARK    4  A    between atoms: C_22  and  N_10 
REMARK    5  A    between atoms: C_21  and  C_22 
ROOT
ATOM      1  C   UNL d   1      -3.561  -2.164  -2.446  0.00  0.00     0.246 C 
ATOM      2  N   UNL d   1      -3.897  -1.021  -3.137  0.00  0.00    -0.355 N 
ATOM      3  O   UNL d   1      -4.389  -2.882  -1.890  0.00  0.00    -0.272 OA
ATOM      4  H   UNL d   1      -3.166  -0.442  -3.527  0.00  0.00     0.162 HD
ENDROOT
BRANCH   1   5
ATOM      5  C   UNL d   1      -2.060  -2.473  -2.425  0.00  0.00     0.374 C 
BRANCH   5   6
ATOM      6  N   UNL d   1      -1.376  -2.089  -1.175  0.00  0.00     0.097 N 
ATOM      7  C   UNL d   1      -1.921  -2.787  -0.009  0.00  0.00     0.273 C 
ATOM      8  C   UNL d   1      -0.956  -2.600   1.160  0.00  0.00     0.044 C 
ATOM      9  C   UNL d   1      -0.832  -1.118   1.525  0.00  0.00     0.081 C 
ATOM     10  C   UNL d   1      -0.447  -0.308   0.274  0.00  0.00     0.044 C 
ATOM     11  C   UNL d   1      -1.313  -0.641  -0.951  0.00  0.00     0.273 C 
BRANCH   9  12
ATOM     12  C   UNL d   1      -2.109  -0.589   2.173  0.00  0.00     0.219 C 
ATOM     13  O   UNL d   1      -2.720   0.399   1.787  0.00  0.00    -0.273 OA
ATOM     14  N   UNL d   1      -2.536  -1.269   3.278  0.00  0.00    -0.370 N 
ATOM     15  H   UNL d   1      -2.128  -2.135   3.599  0.00  0.00     0.159 HD
ATOM     16  H   UNL d   1      -3.409  -0.970   3.693  0.00  0.00     0.159 HD
ENDBRANCH   9  12
ENDBRANCH   5   6
ENDBRANCH   1   5
BRANCH   2  17
ATOM     17  C   UNL d   1      -5.259  -0.545  -3.220  0.00  0.00     0.161 C 
BRANCH  17  18
ATOM     18  C   UNL d   1      -5.658  -0.326  -4.657  0.00  0.00    -0.038 A 
ATOM     19  C   UNL d   1      -5.541   0.945  -5.242  0.00  0.00     0.048 A 
ATOM     20  C   UNL d   1      -5.876   1.082  -6.573  0.00  0.00     0.105 A 
ATOM     21  O   UNL d   1      -5.806   2.234  -7.292  0.00  0.00    -0.323 OA
ATOM     22  C   UNL d   1      -6.318   0.019  -7.325  0.00  0.00     0.105 A 
ATOM     23  C   UNL d   1      -6.218   1.765  -8.593  0.00  0.00     0.352 A 
ATOM     24  O   UNL d   1      -6.580   0.369  -8.612  0.00  0.00    -0.323 OA
ATOM     25  C   UNL d   1      -6.455  -1.241  -6.786  0.00  0.00     0.040 A 
ATOM     26  C   UNL d   1      -6.116  -1.413  -5.439  0.00  0.00     0.012 A 
ENDBRANCH  17  18
ENDBRANCH   2  17
TORSDOF 5
