REMARK  3 active torsions:
REMARK  status: ('A' for Active; 'I' for Inactive)
REMARK    1  A    between atoms: C_4  and  C_1 
REMARK    2  A    between atoms: C_16  and  C_7 
REMARK    3  A    between atoms: O_25  and  C_16 
ROOT
ATOM      1  C   UNL d   1       4.182  -1.198  -0.212  0.00  0.00     0.050 C 
ATOM      2  N   UNL d   1       4.961  -1.804  -1.143  0.00  0.00    -0.355 N 
ATOM      3  HN  UNL d   1       4.793  -1.659  -2.139  1.00  0.00     0.166 HD
ATOM      4  C   UNL d   1       5.476  -2.102   1.547  0.00  0.00     0.052 C 
ATOM      5  C   UNL d   1       6.119  -2.943   0.632  0.00  0.00     0.008 C 
ATOM      6  C   UNL d   1       5.972  -2.611  -0.718  0.00  0.00     0.044 C 
ATOM      7  C   UNL d   1       4.460  -1.260   1.137  0.00  0.00     0.049 C 
ATOM      8  C   UNL d   1       6.932  -4.027   1.009  0.00  0.00     0.027 C 
ATOM      9  C   UNL d   1       6.989  -3.062  -1.569  0.00  0.00     0.042 C 
ATOM     10  C   UNL d   1       7.862  -4.553   0.126  0.00  0.00    -0.025 C 
ATOM     11  C   UNL d   1       8.018  -3.930  -1.119  0.00  0.00    -0.024 C 
ATOM     12  C   UNL d   1       8.715  -5.589   0.528  0.00  0.00     0.012 C 
ATOM     13  C   UNL d   1       9.220  -4.171  -1.813  0.00  0.00     0.012 C 
ATOM     14  C   UNL d   1      10.174  -5.063  -1.304  0.00  0.00     0.001 C 
ATOM     15  C   UNL d   1       9.885  -5.829  -0.177  0.00  0.00     0.001 C 
ENDROOT
BRANCH   1  16
ATOM     16  C   UNL d   1       3.007  -0.418  -0.619  0.00  0.00     0.064 C 
ATOM     17  C   UNL d   1       2.853   0.982  -0.142  0.00  0.00     0.199 C 
ATOM     18  C   UNL d   1       1.478   1.541  -0.139  0.00  0.00     0.055 A 
ATOM     19  O   UNL d   1       3.821   1.599   0.265  0.00  0.00    -0.286 OA
ATOM     20  C   UNL d   1       1.135   2.734   0.532  0.00  0.00    -0.044 A 
ATOM     21  C   UNL d   1       0.498   0.825  -0.837  0.00  0.00     0.090 A 
ATOM     22  C   UNL d   1      -0.179   3.221   0.401  0.00  0.00     0.014 A 
ATOM     23  C   UNL d   1       2.088   3.558   1.355  0.00  0.00     0.049 C 
ATOM     24  C   UNL d   1      -1.151   2.525  -0.325  0.00  0.00    -0.059 A 
ATOM     25  C   UNL d   1      -0.809   1.311  -0.928  0.00  0.00     0.045 A 
ATOM     26  C   UNL d   1      -2.528   3.106  -0.462  0.00  0.00     0.048 C 
ATOM     27  O   UNL d   1       0.748  -0.374  -1.467  0.00  0.00    -0.321 OA
ATOM     28  C   UNL d   1       1.961  -0.980  -1.234  0.00  0.00     0.160 C 
ENDBRANCH   1  16
BRANCH   4  29
ATOM     29  C   UNL d   1       6.049  -1.874   2.895  0.00  0.00     0.177 C 
ATOM     30  O   UNL d   1       6.313  -2.750   3.696  0.00  0.00    -0.646 OA
BRANCH  29  31
ATOM     31  O   UNL d   1       6.309  -0.561   3.109  0.00  0.00    -0.773 OA
ATOM     32  H   UNL d   1       6.211   0.033   2.329  0.00  0.00     0.167 HD
ENDBRANCH  29  31
ENDBRANCH   4  29
TORSDOF 3
