REMARK  3 active torsions:
REMARK  status: ('A' for Active; 'I' for Inactive)
REMARK       I    between atoms: N_2  and  C_1 
REMARK       I    between atoms: N_3  and  C_1 
REMARK    1  A    between atoms: C_5  and  N_2 
REMARK    2  A    between atoms: C_8  and  N_3 
REMARK    3  A    between atoms: C_10  and  C_8 
ROOT
ATOM      1  C   UNL d   1       0.812  -0.077   0.020  0.00  0.00     0.320 C 
ATOM      2  N   UNL d   1       2.178  -0.261   0.037  0.00  0.00    -0.309 N 
ATOM      3  N   UNL d   1       0.150  -1.115   0.634  0.00  0.00    -0.339 N 
ATOM      4  O   UNL d   1       0.212   0.852  -0.507  0.00  0.00    -0.247 OA
ATOM      5  H   UNL d   1       2.495  -1.170   0.340  0.00  0.00     0.170 HD
ATOM      6  H   UNL d   1       0.645  -1.690   1.297  0.00  0.00     0.164 HD
ENDROOT
BRANCH   2   7
ATOM      7  C   UNL d   1       3.143   0.585  -0.553  0.00  0.00     0.037 A 
ATOM      8  C   UNL d   1       2.860   1.871  -1.021  0.00  0.00     0.048 A 
ATOM      9  C   UNL d   1       3.851   2.624  -1.653  0.00  0.00     0.013 A 
ATOM     10 BR   UNL d   1       3.440   4.353  -2.304  0.00  0.00    -0.051 Br
ATOM     11  C   UNL d   1       5.136   2.115  -1.817  0.00  0.00     0.019 A 
ATOM     12  C   UNL d   1       5.436   0.847  -1.324  0.00  0.00     0.004 A 
ATOM     13  C   UNL d   1       4.447   0.089  -0.689  0.00  0.00     0.029 A 
ENDBRANCH   2   7
BRANCH   3  14
ATOM     14  C   UNL d   1      -1.297  -1.150   0.676  0.00  0.00     0.162 C 
BRANCH  14  15
ATOM     15  C   UNL d   1      -1.828  -0.958   2.074  0.00  0.00    -0.040 A 
ATOM     16  C   UNL d   1      -1.576   0.229   2.778  0.00  0.00     0.009 A 
ATOM     17  C   UNL d   1      -2.106   0.422   4.056  0.00  0.00     0.001 A 
ATOM     18  C   UNL d   1      -2.899  -0.564   4.639  0.00  0.00     0.000 A 
ATOM     19  C   UNL d   1      -3.161  -1.745   3.947  0.00  0.00     0.001 A 
ATOM     20  C   UNL d   1      -2.629  -1.942   2.672  0.00  0.00     0.009 A 
ENDBRANCH  14  15
ENDBRANCH   3  14
TORSDOF 3
