REMARK  5 active torsions:
REMARK  status: ('A' for Active; 'I' for Inactive)
REMARK    1  A    between atoms: N_7  and  C_1 
REMARK    2  A    between atoms: N_3  and  C_2 
REMARK    3  A    between atoms: N_11  and  C_6 
REMARK    4  A    between atoms: C_13  and  N_7 
REMARK    5  A    between atoms: C_14  and  N_11 
ROOT
ATOM      1  C   UNL d   1      -0.498   1.183   0.153  0.00  0.00     0.141 A 
ATOM      2  C   UNL d   1       0.888   1.202   0.235  0.00  0.00     0.146 A 
ATOM      3  N   UNL d   1      -1.125  -0.002  -0.037  0.00  0.00    -0.327 N 
ATOM      4  HN  UNL d   1      -2.144  -0.021  -0.095  1.00  0.00     0.169 HD
ATOM      5  C   UNL d   1      -0.440  -1.159  -0.150  0.00  0.00     0.107 A 
ATOM      6  C   UNL d   1       1.632   0.025   0.113  0.00  0.00     0.043 A 
ATOM      7  C   UNL d   1       0.950  -1.171  -0.085  0.00  0.00     0.051 A 
ENDROOT
BRANCH   1   8
ATOM      8  N   UNL d   1      -1.275   2.354   0.311  0.00  0.00    -0.340 N 
ATOM      9  H   UNL d   1      -0.922   3.105  -0.281  0.00  0.00     0.167 HD
BRANCH   8  10
ATOM     10  C   UNL d   1      -2.672   2.452   0.515  0.00  0.00     0.033 A 
ATOM     11  C   UNL d   1      -3.417   1.441   1.138  0.00  0.00     0.029 A 
ATOM     12  C   UNL d   1      -4.790   1.576   1.354  0.00  0.00     0.002 A 
ATOM     13  C   UNL d   1      -5.441   2.746   0.982  0.00  0.00     0.000 A 
ATOM     14  C   UNL d   1      -4.713   3.785   0.407  0.00  0.00     0.002 A 
ATOM     15  C   UNL d   1      -3.338   3.642   0.186  0.00  0.00     0.029 A 
ENDBRANCH   8  10
ENDBRANCH   1   8
BRANCH   2  16
ATOM     16  N   UNL d   1       1.583   2.444   0.462  0.00  0.00    -0.112 N 
ATOM     17  O   UNL d   1       1.333   3.383  -0.304  0.00  0.00    -0.532 OA
ATOM     18  O   UNL d   1       2.408   2.469   1.388  0.00  0.00    -0.532 OA
ENDBRANCH   2  16
BRANCH   5  19
ATOM     19  N   UNL d   1      -1.112  -2.381  -0.373  0.00  0.00    -0.342 N 
ATOM     20  H   UNL d   1      -0.755  -3.100   0.246  0.00  0.00     0.167 HD
BRANCH  19  21
ATOM     21  C   UNL d   1      -2.474  -2.592  -0.692  0.00  0.00     0.033 A 
ATOM     22  C   UNL d   1      -3.276  -1.618  -1.299  0.00  0.00     0.029 A 
ATOM     23  C   UNL d   1      -4.597  -1.887  -1.669  0.00  0.00     0.002 A 
ATOM     24  C   UNL d   1      -5.132  -3.155  -1.467  0.00  0.00     0.000 A 
ATOM     25  C   UNL d   1      -4.344  -4.150  -0.897  0.00  0.00     0.002 A 
ATOM     26  C   UNL d   1      -3.025  -3.872  -0.521  0.00  0.00     0.029 A 
ENDBRANCH  19  21
ENDBRANCH   5  19
TORSDOF 5
