REMARK  4 active torsions:
REMARK  status: ('A' for Active; 'I' for Inactive)
REMARK    1  A    between atoms: N_3  and  C_1 
REMARK    2  A    between atoms: C_2  and  N_3 
REMARK    3  A    between atoms: C_11  and  N_5 
REMARK    4  A    between atoms: C_10  and  C_11 
ROOT
ATOM      1  C   UNL d   1       1.136  -0.094  -0.154  0.00  0.00     0.172 C 
ATOM      2  S   UNL d   1       0.296   1.330  -0.376  0.00  0.00    -0.041 SA
ATOM      3  N   UNL d   1       2.377  -0.199  -0.681  0.00  0.00    -0.363 N 
ATOM      4  H   UNL d   1       2.669   0.657  -1.137  0.00  0.00     0.162 HD
ENDROOT
BRANCH   1   5
ATOM      5  N   UNL d   1       0.526  -1.127   0.456  0.00  0.00    -0.332 N 
ATOM      6  H   UNL d   1      -0.483  -1.012   0.485  0.00  0.00     0.168 HD
BRANCH   5   7
ATOM      7  C   UNL d   1       0.997  -2.156   1.311  0.00  0.00     0.046 A 
ATOM      8  C   UNL d   1       2.137  -2.040   2.139  0.00  0.00    -0.035 A 
ATOM      9  C   UNL d   1       2.469  -3.108   3.000  0.00  0.00     0.009 A 
ATOM     10  C   UNL d   1       3.034  -0.835   2.237  0.00  0.00     0.050 C 
ATOM     11  C   UNL d   1       1.673  -4.244   3.089  0.00  0.00     0.001 A 
ATOM     12  C   UNL d   1       0.540  -4.347   2.297  0.00  0.00     0.009 A 
ATOM     13  C   UNL d   1       0.195  -3.323   1.397  0.00  0.00    -0.035 A 
ATOM     14  C   UNL d   1      -1.028  -3.567   0.548  0.00  0.00     0.050 C 
ENDBRANCH   5   7
ENDBRANCH   1   5
BRANCH   3  15
ATOM     15  C   UNL d   1       2.998  -1.401  -1.207  0.00  0.00     0.162 C 
BRANCH  15  16
ATOM     16  C   UNL d   1       2.736  -1.534  -2.680  0.00  0.00    -0.025 A 
ATOM     17  C   UNL d   1       1.607  -2.202  -3.144  0.00  0.00     0.096 A 
ATOM     18  N   UNL d   1       1.293  -2.349  -4.452  0.00  0.00    -0.375 N 
ATOM     19  C   UNL d   1       2.138  -1.790  -5.344  0.00  0.00     0.087 A 
ATOM     20  HN  UNL d   1       0.460  -2.858  -4.749  1.00  0.00     0.164 HD
ATOM     21  C   UNL d   1       3.281  -1.093  -4.989  0.00  0.00     0.018 A 
ATOM     22  C   UNL d   1       3.581  -0.963  -3.635  0.00  0.00     0.011 A 
ENDBRANCH  15  16
ENDBRANCH   3  15
TORSDOF 4
