REMARK  10 active torsions:
REMARK  status: ('A' for Active; 'I' for Inactive)
REMARK    1  A    between atoms: C_2  and  C_1 
REMARK    2  A    between atoms: C_4  and  C_1 
REMARK    3  A    between atoms: C_5  and  C_2 
REMARK    4  A    between atoms: S_3  and  C_5 
REMARK    5  A    between atoms: C_6  and  S_3 
REMARK    6  A    between atoms: C_11  and  C_5 
REMARK    7  A    between atoms: O_8  and  C_7 
REMARK    8  A    between atoms: C_13  and  O_8 
REMARK    9  A    between atoms: N_12  and  C_10 
REMARK   10  A    between atoms: C_14  and  C_13 
ROOT
ATOM      1  C   UNL d   1       0.443  -1.218   0.730  0.00  0.00     0.104 C 
ENDROOT
BRANCH   1   2
ATOM      2  C   UNL d   1       1.253  -0.210  -0.151  0.00  0.00     0.163 C 
ATOM      3  O   UNL d   1       0.852   0.957  -0.197  0.00  0.00    -0.292 OA
BRANCH   2   4
ATOM      4  C   UNL d   1       2.411  -0.606  -1.056  0.00  0.00     0.043 C 
ATOM      5  C   UNL d   1       2.708   0.041  -2.278  0.00  0.00     0.083 C 
ATOM      6  C   UNL d   1       3.769  -0.458  -3.082  0.00  0.00     0.038 C 
ATOM      7  C   UNL d   1       4.621  -1.465  -2.647  0.00  0.00     0.003 C 
ATOM      8  C   UNL d   1       4.411  -2.017  -1.408  0.00  0.00     0.001 C 
ATOM      9  C   UNL d   1       3.320  -1.592  -0.648  0.00  0.00     0.018 C 
BRANCH   5  10
ATOM     10  O   UNL d   1       2.005   1.172  -2.670  0.00  0.00    -0.346 OA
BRANCH  10  11
ATOM     11  C   UNL d   1       2.716   1.981  -3.624  0.00  0.00     0.214 C 
BRANCH  11  12
ATOM     12  C   UNL d   1       2.306   3.424  -3.802  0.00  0.00    -0.034 A 
ATOM     13  C   UNL d   1       1.458   4.106  -2.931  0.00  0.00     0.009 A 
ATOM     14  C   UNL d   1       1.227   5.474  -3.114  0.00  0.00     0.001 A 
ATOM     15  C   UNL d   1       1.844   6.169  -4.158  0.00  0.00     0.000 A 
ATOM     16  C   UNL d   1       2.688   5.498  -5.036  0.00  0.00     0.001 A 
ATOM     17  C   UNL d   1       2.915   4.136  -4.859  0.00  0.00     0.009 A 
ENDBRANCH  11  12
ENDBRANCH  10  11
ENDBRANCH   5  10
ENDBRANCH   2   4
ENDBRANCH   1   2
BRANCH   1  18
ATOM     18  C   UNL d   1       1.133  -2.315   1.562  0.00  0.00     0.092 C 
BRANCH  18  19
ATOM     19  S   UNL d   1       2.433  -1.581   2.674  0.00  0.00    -0.118 SA
BRANCH  19  20
ATOM     20  C   UNL d   1       3.528  -2.984   3.031  0.00  0.00     0.022 A 
ATOM     21  C   UNL d   1       4.322  -2.919   4.198  0.00  0.00     0.022 A 
ATOM     22  C   UNL d   1       5.187  -3.977   4.503  0.00  0.00     0.024 A 
ATOM     23  C   UNL d   1       5.352  -5.048   3.620  0.00  0.00     0.002 A 
ATOM     24  C   UNL d   1       4.616  -5.089   2.445  0.00  0.00     0.001 A 
ATOM     25  C   UNL d   1       3.703  -4.071   2.158  0.00  0.00     0.020 A 
BRANCH  21  26
ATOM     26  N   UNL d   1       4.115  -1.920   5.173  0.00  0.00    -0.302 NA
ATOM     27  H   UNL d   1       3.673  -1.095   4.770  0.00  0.00     0.124 HD
ATOM     28  H   UNL d   1       4.944  -1.698   5.714  0.00  0.00     0.124 HD
ENDBRANCH  21  26
ENDBRANCH  19  20
ENDBRANCH  18  19
BRANCH  18  29
ATOM     29  C   UNL d   1       0.207  -3.277   2.321  0.00  0.00    -0.044 A 
ATOM     30  C   UNL d   1      -0.002  -3.211   3.712  0.00  0.00     0.008 A 
ATOM     31  C   UNL d   1      -0.660  -4.237   4.396  0.00  0.00     0.001 A 
ATOM     32  C   UNL d   1      -1.167  -5.328   3.698  0.00  0.00     0.000 A 
ATOM     33  C   UNL d   1      -1.034  -5.382   2.314  0.00  0.00     0.001 A 
ATOM     34  C   UNL d   1      -0.357  -4.366   1.631  0.00  0.00     0.008 A 
ENDBRANCH  18  29
ENDBRANCH   1  18
TORSDOF 10
