REMARK  3 active torsions:
REMARK  status: ('A' for Active; 'I' for Inactive)
REMARK    1  A    between atoms: C_9  and  N_1 
REMARK    2  A    between atoms: C_7  and  N_3 
REMARK    3  A    between atoms: C_15  and  C_9 
ROOT
ATOM      1  N   UNL d   1      -0.686   1.122  -0.104  0.00  0.00    -0.261 N 
ATOM      2  C   UNL d   1      -1.356  -0.103  -0.156  0.00  0.00     0.332 C 
ATOM      3  N   UNL d   1      -0.543  -1.230   0.017  0.00  0.00    -0.303 N 
ATOM      4  C   UNL d   1       0.692   1.264  -0.014  0.00  0.00     0.274 C 
ATOM      5  C   UNL d   1       1.481   0.014   0.021  0.00  0.00     0.128 C 
ATOM      6  C   UNL d   1       0.828  -1.150   0.050  0.00  0.00     0.124 C 
ATOM      7  C   UNL d   1       2.896   0.065   0.056  0.00  0.00     0.106 C 
ATOM      8  N   UNL d   1       4.057   0.037   0.081  0.00  0.00    -0.191 NA
ATOM      9  O   UNL d   1      -2.571  -0.193  -0.341  0.00  0.00    -0.246 OA
ATOM     10  O   UNL d   1       1.265   2.350   0.032  0.00  0.00    -0.266 OA
ENDROOT
BRANCH   1  11
ATOM     11  C   UNL d   1      -1.499   2.332  -0.068  0.00  0.00     0.175 C 
BRANCH  11  12
ATOM     12  C   UNL d   1      -1.973   2.627   1.341  0.00  0.00    -0.040 A 
ATOM     13  C   UNL d   1      -1.167   3.349   2.233  0.00  0.00     0.009 A 
ATOM     14  C   UNL d   1      -1.577   3.549   3.553  0.00  0.00     0.001 A 
ATOM     15  C   UNL d   1      -2.791   3.026   3.995  0.00  0.00     0.000 A 
ATOM     16  C   UNL d   1      -3.603   2.312   3.116  0.00  0.00     0.001 A 
ATOM     17  C   UNL d   1      -3.197   2.115   1.797  0.00  0.00     0.009 A 
ENDBRANCH  11  12
ENDBRANCH   1  11
BRANCH   3  18
ATOM     18  C   UNL d   1      -1.141  -2.543   0.125  0.00  0.00     0.094 A 
ATOM     19  C   UNL d   1      -2.119  -2.873   1.228  0.00  0.00     0.028 A 
ATOM     20  C   UNL d   1      -0.759  -3.495   1.237  0.00  0.00     0.028 A 
ENDBRANCH   3  18
TORSDOF 3
