REMARK  6 active torsions:
REMARK  status: ('A' for Active; 'I' for Inactive)
REMARK       I    between atoms: C_2  and  N_1 
REMARK    1  A    between atoms: C_4  and  C_2 
REMARK    2  A    between atoms: C_6  and  C_3 
REMARK    3  A    between atoms: O_15  and  C_6 
REMARK    4  A    between atoms: O_16  and  C_8 
REMARK    5  A    between atoms: O_18  and  C_10 
REMARK    6  A    between atoms: C_20  and  O_15 
ROOT
ATOM      1  N   UNL d   1       1.365   0.078   0.242  0.00  0.00    -0.347 N 
ATOM      2  C   UNL d   1       2.616   0.062   0.873  0.00  0.00     0.253 C 
ATOM      3  C   UNL d   1      -0.901   1.105   0.368  0.00  0.00     0.103 C 
ATOM      4  C   UNL d   1       0.555   1.260  -0.061  0.00  0.00     0.140 C 
ATOM      5  O   UNL d   1       3.195  -0.993   1.143  0.00  0.00    -0.267 OA
ATOM      6  C   UNL d   1       0.822  -1.191  -0.259  0.00  0.00     0.126 C 
ATOM      7  C   UNL d   1      -1.496  -0.168  -0.233  0.00  0.00     0.018 C 
ATOM      8  C   UNL d   1      -0.647  -1.388   0.117  0.00  0.00     0.021 C 
ENDROOT
BRANCH   2   9
ATOM      9  C   UNL d   1       3.311   1.318   1.288  0.00  0.00     0.035 A 
ATOM     10  C   UNL d   1       4.037   1.304   2.493  0.00  0.00     0.056 A 
ATOM     11  C   UNL d   1       4.735   2.438   2.947  0.00  0.00     0.102 A 
ATOM     12  C   UNL d   1       4.665   3.622   2.192  0.00  0.00     0.101 A 
ATOM     13  C   UNL d   1       3.974   3.617   0.972  0.00  0.00     0.040 A 
ATOM     14  C   UNL d   1       3.347   2.464   0.498  0.00  0.00     0.020 A 
BRANCH  11  15
ATOM     15  O   UNL d   1       5.485   2.448   4.093  0.00  0.00    -0.353 OA
ATOM     16  C   UNL d   1       5.636   1.236   4.820  0.00  0.00     0.210 C 
ENDBRANCH  11  15
BRANCH  12  17
ATOM     17  O   UNL d   1       5.202   4.853   2.466  0.00  0.00    -0.353 OA
ATOM     18  C   UNL d   1       6.018   5.014   3.615  0.00  0.00     0.210 C 
ENDBRANCH  12  17
ENDBRANCH   2   9
BRANCH   3  19
ATOM     19  C   UNL d   1      -1.087   1.146   1.876  0.00  0.00     0.264 C 
ATOM     20  O   UNL d   1      -2.063   0.687   2.450  0.00  0.00    -0.265 OA
BRANCH  19  21
ATOM     21  O   UNL d   1      -0.112   1.880   2.482  0.00  0.00    -0.322 OA
BRANCH  21  22
ATOM     22  C   UNL d   1      -0.403   2.310   3.817  0.00  0.00     0.174 C 
ATOM     23  C   UNL d   1      -1.186   3.607   3.720  0.00  0.00     0.034 C 
ENDBRANCH  21  22
ENDBRANCH  19  21
ENDBRANCH   3  19
TORSDOF 6
