REMARK  1 active torsions:
REMARK  status: ('A' for Active; 'I' for Inactive)
REMARK    1  A    between atoms: C_5  and  C_1 
ROOT
ATOM      1  C   UNL d   1      -2.140  -0.857   0.332  0.00  0.00     0.161 C 
ATOM      2  N   UNL d   1      -0.931  -1.681   0.162  0.00  0.00    -0.274 NA
ATOM      3  S   UNL d   1      -1.745   0.905   0.104  0.00  0.00    -0.103 SA
ATOM      4  C   UNL d   1       0.199  -0.837   0.065  0.00  0.00     0.026 A 
ATOM      5  C   UNL d   1      -0.024   0.542   0.066  0.00  0.00     0.023 A 
ATOM      6  C   UNL d   1       1.499  -1.323  -0.002  0.00  0.00     0.025 A 
ATOM      7  C   UNL d   1       1.022   1.450   0.011  0.00  0.00     0.020 A 
ATOM      8  C   UNL d   1       2.566  -0.419  -0.050  0.00  0.00     0.002 A 
ATOM      9  C   UNL d   1       2.328   0.961  -0.040  0.00  0.00     0.001 A 
ATOM     10  H   UNL d   1      -0.978  -2.318  -0.627  0.00  0.00     0.129 HD
ENDROOT
BRANCH   1  11
ATOM     11  C   UNL d   1      -3.270  -1.330  -0.562  0.00  0.00    -0.027 A 
ATOM     12  C   UNL d   1      -4.483  -1.742   0.023  0.00  0.00     0.049 A 
ATOM     13  C   UNL d   1      -5.510  -2.144  -0.804  0.00  0.00     0.105 A 
ATOM     14  O   UNL d   1      -6.740  -2.552  -0.396  0.00  0.00    -0.323 OA
ATOM     15  C   UNL d   1      -5.377  -2.159  -2.171  0.00  0.00     0.105 A 
ATOM     16  C   UNL d   1      -7.379  -2.798  -1.666  0.00  0.00     0.352 A 
ATOM     17  O   UNL d   1      -6.508  -2.580  -2.797  0.00  0.00    -0.323 OA
ATOM     18  C   UNL d   1      -4.207  -1.775  -2.789  0.00  0.00     0.040 A 
ATOM     19  C   UNL d   1      -3.147  -1.355  -1.976  0.00  0.00     0.012 A 
ENDBRANCH   1  11
TORSDOF 1
