REMARK  4 active torsions:
REMARK  status: ('A' for Active; 'I' for Inactive)
REMARK    1  A    between atoms: N_11  and  C_2 
REMARK    2  A    between atoms: C_21  and  C_3 
REMARK    3  A    between atoms: C_4  and  N_12 
REMARK    4  A    between atoms: C_9  and  C_15 
ROOT
ATOM      1  N   UNL d   1       1.918   2.870  -0.004  0.00  0.00    -0.267 NA
ATOM      2  N   UNL d   1       3.011   5.492   0.783  0.00  0.00    -0.216 N 
ATOM      3  C   UNL d   1       2.238   4.664   1.709  0.00  0.00     0.156 C 
ATOM      4  C   UNL d   1       2.395   3.175   1.378  0.00  0.00     0.117 C 
ATOM      5  C   UNL d   1       2.809   4.651  -1.535  0.00  0.00     0.035 C 
ATOM      6  C   UNL d   1       2.450   5.729  -0.523  0.00  0.00     0.142 C 
ATOM      7  C   UNL d   1       2.923   3.211  -1.035  0.00  0.00     0.098 C 
ENDROOT
BRANCH   1   8
ATOM      8  C   UNL d   1       1.554   1.509  -0.105  0.00  0.00     0.097 A 
ATOM      9  C   UNL d   1       0.498   1.034  -0.934  0.00  0.00     0.048 A 
ATOM     10  C   UNL d   1      -0.437   1.640  -1.886  0.00  0.00    -0.003 A 
ATOM     11  C   UNL d   1       0.264  -0.336  -0.849  0.00  0.00     0.089 A 
ATOM     12  C   UNL d   1      -1.289   0.688  -2.421  0.00  0.00     0.065 A 
ATOM     13  S   UNL d   1      -0.996  -0.883  -1.848  0.00  0.00    -0.082 SA
ATOM     14  N   UNL d   1       0.908  -1.233  -0.083  0.00  0.00    -0.346 N 
ATOM     15  C   UNL d   1       1.863  -0.680   0.650  0.00  0.00     0.182 A 
ATOM     16  HN  UNL d   1       0.686  -2.229  -0.068  1.00  0.00     0.167 HD
ATOM     17  N   UNL d   1       2.215   0.608   0.676  0.00  0.00    -0.342 N 
ATOM     18  HN  UNL d   1       2.978   0.918   1.278  1.00  0.00     0.167 HD
BRANCH  10  19
ATOM     19  C   UNL d   1      -0.572   3.032  -2.341  0.00  0.00    -0.024 A 
ATOM     20  C   UNL d   1      -0.726   3.315  -3.710  0.00  0.00     0.012 A 
ATOM     21  C   UNL d   1      -0.777   4.632  -4.178  0.00  0.00     0.001 A 
ATOM     22  C   UNL d   1      -0.689   5.689  -3.285  0.00  0.00     0.000 A 
ATOM     23  C   UNL d   1      -0.626   5.425  -1.920  0.00  0.00     0.001 A 
ATOM     24  C   UNL d   1      -0.564   4.104  -1.449  0.00  0.00     0.012 A 
ENDBRANCH  10  19
ENDBRANCH   1   8
BRANCH   2  25
ATOM     25  C   UNL d   1       4.071   6.235   1.226  0.00  0.00     0.680 A 
ATOM     26  N   UNL d   1       4.657   7.074   0.365  0.00  0.00    -0.186 N 
ATOM     27  C   UNL d   1       5.674   7.864   0.800  0.00  0.00     0.133 A 
ATOM     28  HN  UNL d   1       4.346   7.120  -0.605  1.00  0.00     0.184 HD
ATOM     29  C   UNL d   1       6.125   7.795   2.103  0.00  0.00     0.052 A 
ATOM     30  C   UNL d   1       5.487   6.894   2.914  0.00  0.00     0.108 A 
ATOM     31  N   UNL d   1       4.476   6.116   2.500  0.00  0.00    -0.202 N 
ATOM     32  HN  UNL d   1       4.029   5.453   3.134  1.00  0.00     0.183 HD
BRANCH  27  33
ATOM     33  C   UNL d   1       6.310   8.832  -0.173  0.00  0.00     0.433 C 
ATOM     34  F   UNL d   1       5.724   8.870  -1.400  0.00  0.00    -0.165 F 
ATOM     35  F   UNL d   1       6.285  10.118   0.288  0.00  0.00    -0.165 F 
ATOM     36  F   UNL d   1       7.630   8.556  -0.398  0.00  0.00    -0.165 F 
ENDBRANCH  27  33
ENDBRANCH   2  25
TORSDOF 4
