REMARK  5 active torsions:
REMARK  status: ('A' for Active; 'I' for Inactive)
REMARK    1  A    between atoms: O_2  and  C_1 
REMARK    2  A    between atoms: N_4  and  C_1 
REMARK    3  A    between atoms: C_5  and  O_2 
REMARK    4  A    between atoms: C_12  and  N_4 
REMARK    5  A    between atoms: C_13  and  N_4 
ROOT
ATOM      1  O   UNL d   1       0.321  -0.124  -1.024  0.00  0.00    -0.284 OA
ENDROOT
BRANCH   1   2
ATOM      2  C   UNL d   1       1.083   0.051   0.142  0.00  0.00     0.217 C 
ATOM      3  S   UNL d   1       0.349   0.553   1.560  0.00  0.00    -0.033 SA
BRANCH   2   4
ATOM      4  N   UNL d   1       2.446  -0.170  -0.059  0.00  0.00    -0.353 N 
BRANCH   4   5
ATOM      5  C   UNL d   1       3.358  -0.479   1.049  0.00  0.00     0.121 C 
ATOM      6  C   UNL d   1       4.149   0.726   1.528  0.00  0.00     0.026 C 
ENDBRANCH   4   5
BRANCH   4   7
ATOM      7  C   UNL d   1       3.021  -0.155  -1.408  0.00  0.00     0.121 C 
ATOM      8  C   UNL d   1       3.040  -1.522  -2.066  0.00  0.00     0.026 C 
ENDBRANCH   4   7
ENDBRANCH   2   4
ENDBRANCH   1   2
BRANCH   1   9
ATOM      9  C   UNL d   1      -0.980  -0.687  -1.192  0.00  0.00     0.078 A 
ATOM     10  C   UNL d   1      -1.611  -0.393  -2.401  0.00  0.00     0.038 A 
ATOM     11  C   UNL d   1      -2.823  -1.015  -2.715  0.00  0.00     0.021 A 
ATOM     12  C   UNL d   1      -3.389  -1.922  -1.817  0.00  0.00     0.006 A 
ATOM     13  C   UNL d   1      -2.761  -2.201  -0.602  0.00  0.00     0.021 A 
ATOM     14  I   UNL d   1      -5.150  -2.907  -2.317  0.00  0.00    -0.045 I 
ATOM     15  C   UNL d   1      -1.541  -1.594  -0.294  0.00  0.00     0.038 A 
ENDBRANCH   1   9
TORSDOF 5
