REMARK  4 active torsions:
REMARK  status: ('A' for Active; 'I' for Inactive)
REMARK    1  A    between atoms: C_2  and  C_1 
REMARK       I    between atoms: N_9  and  C_2 
REMARK    2  A    between atoms: C_11  and  C_4 
REMARK    3  A    between atoms: C_6  and  N_9 
REMARK    4  A    between atoms: O_15  and  C_11 
ROOT
ATOM      1  C   UNL d   1       2.422  -2.034   0.970  0.00  0.00     0.070 A 
ATOM      2  C   UNL d   1       2.035  -3.090   0.112  0.00  0.00     0.052 A 
ATOM      3  C   UNL d   1       3.751  -1.565   1.007  0.00  0.00    -0.043 A 
ATOM      4  C   UNL d   1       3.007  -3.667  -0.711  0.00  0.00     0.030 A 
ATOM      5  C   UNL d   1       4.324  -3.203  -0.691  0.00  0.00     0.003 A 
ATOM      6  C   UNL d   1       4.693  -2.162   0.158  0.00  0.00     0.008 A 
ATOM      7  C   UNL d   1       4.227  -0.462   1.914  0.00  0.00     0.049 C 
ENDROOT
BRANCH   2   8
ATOM      8  N   UNL d   1       0.678  -3.510   0.067  0.00  0.00    -0.321 N 
ATOM      9  C   UNL d   1       0.196  -4.715  -0.423  0.00  0.00     0.266 C 
ATOM     10  O   UNL d   1       0.920  -5.663  -0.717  0.00  0.00    -0.267 OA
ATOM     11  H   UNL d   1      -0.008  -2.902   0.506  0.00  0.00     0.169 HD
BRANCH   9  12
ATOM     12  C   UNL d   1      -1.244  -4.820  -0.480  0.00  0.00     0.110 A 
ATOM     13  C   UNL d   1      -2.063  -5.938  -0.396  0.00  0.00     0.043 A 
ATOM     14  N   UNL d   1      -3.420  -5.672  -0.551  0.00  0.00    -0.296 N 
ATOM     15  C   UNL d   1      -1.662  -7.346  -0.150  0.00  0.00     0.071 C 
ATOM     16  N   UNL d   1      -3.654  -4.387  -0.754  0.00  0.00    -0.061 NA
ATOM     17  HN  UNL d   1      -4.149  -6.384  -0.512  1.00  0.00     0.183 HD
ATOM     18  S   UNL d   1      -2.261  -3.469  -0.762  0.00  0.00     0.007 SA
ENDBRANCH   9  12
ENDBRANCH   2   8
BRANCH   1  19
ATOM     19  C   UNL d   1       1.417  -1.446   1.876  0.00  0.00     0.179 C 
ATOM     20  O   UNL d   1       1.004  -0.305   1.786  0.00  0.00    -0.646 OA
BRANCH  19  21
ATOM     21  O   UNL d   1       0.963  -2.352   2.770  0.00  0.00    -0.773 OA
ATOM     22  H   UNL d   1       1.457  -3.198   2.768  0.00  0.00     0.167 HD
ENDBRANCH  19  21
ENDBRANCH   1  19
TORSDOF 4
