REMARK  4 active torsions:
REMARK  status: ('A' for Active; 'I' for Inactive)
REMARK    1  A    between atoms: C_6  and  C_1 
REMARK    2  A    between atoms: C_8  and  C_6 
REMARK    3  A    between atoms: S_9  and  C_8 
REMARK    4  A    between atoms: C_13  and  S_9 
ROOT
ATOM      1  C   UNL d   1       2.426  -0.267   0.069  0.00  0.00     0.059 A 
ATOM      2  S   UNL d   1       1.717  -1.735  -0.439  0.00  0.00    -0.085 SA
ATOM      3  C   UNL d   1       1.458   0.712   0.287  0.00  0.00    -0.029 A 
ATOM      4  C   UNL d   1       0.123   0.239  -0.023  0.00  0.00    -0.010 A 
ATOM      5  C   UNL d   1       0.128  -1.099  -0.415  0.00  0.00     0.016 A 
ATOM      6  C   UNL d   1      -1.129   0.910   0.012  0.00  0.00     0.037 A 
ATOM      7  C   UNL d   1      -1.060  -1.784  -0.746  0.00  0.00     0.021 A 
ATOM      8  C   UNL d   1      -2.305   0.237  -0.326  0.00  0.00     0.035 A 
ATOM      9  C   UNL d   1       1.743   2.110   0.760  0.00  0.00     0.050 C 
ATOM     10  C   UNL d   1      -2.275  -1.097  -0.697  0.00  0.00     0.025 A 
ATOM     11 CL   UNL d   1      -3.807   1.078  -0.286  0.00  0.00    -0.084 Cl
ENDROOT
BRANCH   1  12
ATOM     12  C   UNL d   1       3.887  -0.131   0.189  0.00  0.00     0.176 C 
ATOM     13  O   UNL d   1       4.413   0.985   0.239  0.00  0.00    -0.291 OA
BRANCH  12  14
ATOM     14  C   UNL d   1       4.753  -1.397   0.171  0.00  0.00     0.164 C 
BRANCH  14  15
ATOM     15  S   UNL d   1       6.265  -1.164   1.177  0.00  0.00    -0.122 SA
BRANCH  15  16
ATOM     16  C   UNL d   1       7.133  -2.694   0.880  0.00  0.00     0.001 A 
ATOM     17  C   UNL d   1       7.432  -3.146  -0.408  0.00  0.00     0.019 A 
ATOM     18  C   UNL d   1       8.207  -4.297  -0.593  0.00  0.00     0.008 A 
ATOM     19  C   UNL d   1       8.706  -5.005   0.507  0.00  0.00    -0.062 A 
ATOM     20  C   UNL d   1       8.393  -4.560   1.795  0.00  0.00     0.008 A 
ATOM     21  C   UNL d   1       9.581  -6.205   0.296  0.00  0.00     0.048 C 
ATOM     22  C   UNL d   1       7.618  -3.411   1.979  0.00  0.00     0.019 A 
ENDBRANCH  15  16
ENDBRANCH  14  15
ENDBRANCH  12  14
ENDBRANCH   1  12
TORSDOF 4
