REMARK  4 active torsions:
REMARK  status: ('A' for Active; 'I' for Inactive)
REMARK    1  A    between atoms: N_3  and  S_1 
REMARK    2  A    between atoms: C_8  and  S_1 
REMARK    3  A    between atoms: C_2  and  C_4 
REMARK    4  A    between atoms: N_6  and  N_3 
REMARK       I    between atoms: C_4  and  N_6 
ROOT
ATOM      1  N   UNL d   1       0.454   1.492   0.415  0.00  0.00    -0.220 N 
ATOM      2  H   UNL d   1      -0.533   1.643   0.177  0.00  0.00     0.200 HD
ENDROOT
BRANCH   1   3
ATOM      3  S   UNL d   1       1.148  -0.015   0.088  0.00  0.00     0.276 S 
ATOM      4  O   UNL d   1       0.719  -0.913   1.141  0.00  0.00    -0.199 OA
ATOM      5  O   UNL d   1       2.557   0.205  -0.162  0.00  0.00    -0.199 OA
BRANCH   3   6
ATOM      6  C   UNL d   1       0.369  -0.524  -1.419  0.00  0.00     0.081 A 
ATOM      7  C   UNL d   1       1.008  -0.290  -2.640  0.00  0.00     0.026 A 
ATOM      8  C   UNL d   1       0.475  -0.829  -3.813  0.00  0.00     0.008 A 
ATOM      9  C   UNL d   1      -0.691  -1.607  -3.774  0.00  0.00    -0.062 A 
ATOM     10  C   UNL d   1      -1.331  -1.822  -2.546  0.00  0.00     0.008 A 
ATOM     11  C   UNL d   1      -1.214  -2.232  -5.036  0.00  0.00     0.048 C 
ATOM     12  C   UNL d   1      -0.801  -1.287  -1.368  0.00  0.00     0.026 A 
ENDBRANCH   3   6
ENDBRANCH   1   3
BRANCH   1  13
ATOM     13  N   UNL d   1       0.970   2.205   1.580  0.00  0.00    -0.256 N 
ATOM     14  C   UNL d   1       0.165   3.107   2.252  0.00  0.00     0.277 C 
ATOM     15  O   UNL d   1      -0.956   3.394   1.824  0.00  0.00    -0.265 OA
ATOM     16  H   UNL d   1       1.867   1.910   1.961  0.00  0.00     0.191 HD
BRANCH  14  17
ATOM     17  C   UNL d   1       0.718   3.663   3.483  0.00  0.00     0.074 A 
ATOM     18  S   UNL d   1       2.230   3.159   4.114  0.00  0.00    -0.096 SA
ATOM     19  C   UNL d   1       2.103   4.207   5.455  0.00  0.00     0.057 A 
ATOM     20  C   UNL d   1       0.937   4.948   5.446  0.00  0.00    -0.054 A 
ATOM     21  C   UNL d   1       0.139   4.617   4.301  0.00  0.00     0.031 A 
ATOM     22  C   UNL d   1       0.567   5.950   6.487  0.00  0.00     0.048 C 
ENDBRANCH  14  17
ENDBRANCH   1  13
TORSDOF 4
