REMARK  4 active torsions:
REMARK  status: ('A' for Active; 'I' for Inactive)
REMARK    1  A    between atoms: C_4  and  C_3 
REMARK    2  A    between atoms: C_18  and  C_5 
REMARK    3  A    between atoms: C_9  and  C_13 
REMARK    4  A    between atoms: C_17  and  C_10 
ROOT
ATOM      1  N   UNL d   1       1.407  -0.586  -0.144  0.00  0.00    -0.346 N 
ATOM      2  HN  UNL d   1       2.286  -1.080  -0.301  1.00  0.00     0.167 HD
ATOM      3  C   UNL d   1       1.281   0.786  -0.024  0.00  0.00     0.076 A 
ATOM      4  C   UNL d   1       0.224  -1.164  -0.026  0.00  0.00     0.101 A 
ATOM      5  S   UNL d   1      -1.092  -0.064   0.193  0.00  0.00    -0.080 SA
ATOM      6  C   UNL d   1       0.001   1.252   0.169  0.00  0.00     0.084 A 
ENDROOT
BRANCH   3   7
ATOM      7  C   UNL d   1       2.463   1.677  -0.105  0.00  0.00     0.128 A 
ATOM      8  C   UNL d   1       3.753   1.275  -0.349  0.00  0.00     0.074 A 
ATOM      9  C   UNL d   1       4.517   2.468  -0.368  0.00  0.00     0.068 A 
ATOM     10  N   UNL d   1       3.729   3.528  -0.126  0.00  0.00    -0.260 N 
ATOM     11  O   UNL d   1       2.450   3.030   0.039  0.00  0.00    -0.235 OA
ATOM     12  HN  UNL d   1       4.016   4.505  -0.074  1.00  0.00     0.195 HD
BRANCH   9  13
ATOM     13  C   UNL d   1       5.948   2.613  -0.626  0.00  0.00    -0.006 A 
ATOM     14  C   UNL d   1       6.833   1.554  -0.378  0.00  0.00     0.039 A 
ATOM     15  C   UNL d   1       8.201   1.690  -0.646  0.00  0.00     0.056 A 
ATOM     16 CL   UNL d   1       9.219   0.334  -0.312  0.00  0.00    -0.083 Cl
ATOM     17  C   UNL d   1       8.697   2.889  -1.167  0.00  0.00     0.055 A 
ATOM     18  C   UNL d   1       7.822   3.948  -1.417  0.00  0.00     0.026 A 
ATOM     19 CL   UNL d   1      10.370   3.125  -1.524  0.00  0.00    -0.083 Cl
ATOM     20  C   UNL d   1       6.458   3.812  -1.145  0.00  0.00     0.015 A 
ENDBRANCH   9  13
ENDBRANCH   3   7
BRANCH   4  21
ATOM     21  C   UNL d   1       0.004  -2.623  -0.057  0.00  0.00     0.066 A 
ATOM     22  N   UNL d   1      -1.277  -3.060   0.055  0.00  0.00    -0.363 N 
ATOM     23  C   UNL d   1      -1.491  -4.396   0.040  0.00  0.00     0.104 A 
ATOM     24  HN  UNL d   1      -2.052  -2.403   0.146  1.00  0.00     0.165 HD
ATOM     25  C   UNL d   1      -0.485  -5.341  -0.083  0.00  0.00     0.063 A 
ATOM     26  C   UNL d   1       0.828  -4.873  -0.193  0.00  0.00     0.020 A 
ATOM     27  C   UNL d   1       1.077  -3.502  -0.180  0.00  0.00     0.033 A 
BRANCH  25  28
ATOM     28  C   UNL d   1      -0.808  -6.803  -0.098  0.00  0.00     0.418 C 
ATOM     29  F   UNL d   1      -2.139  -7.069   0.010  0.00  0.00    -0.166 F 
ATOM     30  F   UNL d   1      -0.399  -7.412  -1.245  0.00  0.00    -0.166 F 
ATOM     31  F   UNL d   1      -0.209  -7.480   0.919  0.00  0.00    -0.166 F 
ENDBRANCH  25  28
ENDBRANCH   4  21
TORSDOF 4
