REMARK  4 active torsions:
REMARK  status: ('A' for Active; 'I' for Inactive)
REMARK       I    between atoms: N_2  and  C_1 
REMARK    1  A    between atoms: C_3  and  C_1 
REMARK    2  A    between atoms: C_4  and  N_2 
REMARK    3  A    between atoms: N_6  and  C_4 
REMARK    4  A    between atoms: C_9  and  N_6 
ROOT
ATOM      1  C   UNL d   1      -0.907  -0.577  -0.932  0.00  0.00     0.260 C 
ATOM      2  N   UNL d   1       0.424  -0.249  -1.169  0.00  0.00    -0.299 N 
ATOM      3  O   UNL d   1      -1.684  -1.033  -1.762  0.00  0.00    -0.267 OA
ATOM      4  H   UNL d   1       0.982   0.022  -0.371  0.00  0.00     0.171 HD
ENDROOT
BRANCH   2   5
ATOM      5  C   UNL d   1       1.102  -0.129  -2.375  0.00  0.00     0.179 C 
ATOM      6  S   UNL d   1       0.447  -0.035  -3.905  0.00  0.00    -0.040 SA
BRANCH   5   7
ATOM      7  N   UNL d   1       2.463   0.024  -2.250  0.00  0.00    -0.332 N 
ATOM      8  H   UNL d   1       2.920   0.453  -3.053  0.00  0.00     0.168 HD
BRANCH   7   9
ATOM      9  C   UNL d   1       3.342  -0.602  -1.333  0.00  0.00     0.056 A 
ATOM     10  C   UNL d   1       4.655  -0.122  -1.199  0.00  0.00     0.060 A 
ATOM     11 CL   UNL d   1       5.174   1.306  -2.026  0.00  0.00    -0.082 Cl
ATOM     12  C   UNL d   1       5.567  -0.770  -0.363  0.00  0.00     0.026 A 
ATOM     13  C   UNL d   1       5.183  -1.918   0.329  0.00  0.00     0.002 A 
ATOM     14  C   UNL d   1       3.887  -2.411   0.194  0.00  0.00     0.002 A 
ATOM     15  C   UNL d   1       2.970  -1.757  -0.632  0.00  0.00     0.031 A 
ENDBRANCH   7   9
ENDBRANCH   5   7
ENDBRANCH   2   5
BRANCH   1  16
ATOM     16  C   UNL d   1      -1.367  -0.433   0.471  0.00  0.00     0.071 A 
ATOM     17  C   UNL d   1      -2.217  -1.409   1.006  0.00  0.00     0.135 A 
ATOM     18  C   UNL d   1      -2.707  -1.301   2.303  0.00  0.00     0.085 A 
ATOM     19  F   UNL d   1      -2.555  -2.495   0.297  0.00  0.00    -0.205 F 
ATOM     20  C   UNL d   1      -2.343  -0.205   3.071  0.00  0.00     0.119 A 
ATOM     21  C   UNL d   1      -1.502   0.782   2.563  0.00  0.00     0.043 A 
ATOM     22  F   UNL d   1      -2.808  -0.095   4.322  0.00  0.00    -0.206 F 
ATOM     23  C   UNL d   1      -1.011   0.675   1.256  0.00  0.00     0.023 A 
ENDBRANCH   1  16
TORSDOF 4
