REMARK  7 active torsions:
REMARK  status: ('A' for Active; 'I' for Inactive)
REMARK    1  A    between atoms: N_2  and  C_1 
REMARK    2  A    between atoms: O_11  and  C_3 
REMARK    3  A    between atoms: O_12  and  C_4 
REMARK    4  A    between atoms: C_5  and  C_13 
REMARK    5  A    between atoms: C_6  and  C_14 
REMARK    6  A    between atoms: C_21  and  O_11 
REMARK    7  A    between atoms: C_20  and  O_12 
ROOT
ATOM      1  C   UNL d   1      -0.170  -1.389  -0.004  0.00  0.00     0.205 A 
ATOM      2  C   UNL d   1       1.027  -0.732  -0.094  0.00  0.00     0.186 A 
ATOM      3  C   UNL d   1      -1.301  -0.617  -0.003  0.00  0.00     0.186 A 
ATOM      4  N   UNL d   1      -1.263   0.736  -0.039  0.00  0.00    -0.331 N 
ATOM      5  HN  UNL d   1      -2.109   1.300   0.035  1.00  0.00     0.168 HD
ATOM      6  N   UNL d   1       1.094   0.615  -0.236  0.00  0.00    -0.331 N 
ATOM      7  HN  UNL d   1       1.984   1.091  -0.383  1.00  0.00     0.168 HD
ATOM      8  C   UNL d   1      -0.056   1.290  -0.176  0.00  0.00     0.184 A 
ENDROOT
BRANCH   2   9
ATOM      9  O   UNL d   1       2.220  -1.451  -0.039  0.00  0.00    -0.291 OA
BRANCH   9  10
ATOM     10  C   UNL d   1       3.352  -0.742   0.302  0.00  0.00     0.078 A 
ATOM     11  C   UNL d   1       3.362   0.180   1.353  0.00  0.00     0.053 A 
ATOM     12  C   UNL d   1       4.462   1.022   1.550  0.00  0.00     0.050 A 
ATOM     13  C   UNL d   1       5.608   0.827   0.764  0.00  0.00     0.016 A 
ATOM     14  C   UNL d   1       5.635  -0.171  -0.215  0.00  0.00     0.004 A 
ATOM     15  C   UNL d   1       4.502  -0.951  -0.456  0.00  0.00     0.037 A 
BRANCH  12  16
ATOM     16  C   UNL d   1       4.381   2.163   2.532  0.00  0.00     0.417 C 
ATOM     17  F   UNL d   1       3.168   2.261   3.150  0.00  0.00    -0.166 F 
ATOM     18  F   UNL d   1       5.302   2.073   3.527  0.00  0.00    -0.166 F 
ATOM     19  F   UNL d   1       4.584   3.371   1.935  0.00  0.00    -0.166 F 
ENDBRANCH  12  16
ENDBRANCH   9  10
ENDBRANCH   2   9
BRANCH   1  20
ATOM     20  N   UNL d   1      -0.238  -2.805   0.065  0.00  0.00    -0.107 N 
ATOM     21  O   UNL d   1       0.185  -3.343   1.096  0.00  0.00    -0.531 OA
ATOM     22  O   UNL d   1      -0.715  -3.393  -0.915  0.00  0.00    -0.531 OA
ENDBRANCH   1  20
BRANCH   3  23
ATOM     23  O   UNL d   1      -2.541  -1.228   0.112  0.00  0.00    -0.291 OA
BRANCH  23  24
ATOM     24  C   UNL d   1      -3.613  -0.660  -0.540  0.00  0.00     0.078 A 
ATOM     25  C   UNL d   1      -4.869  -0.901   0.023  0.00  0.00     0.053 A 
ATOM     26  C   UNL d   1      -6.032  -0.414  -0.595  0.00  0.00     0.050 A 
ATOM     27  C   UNL d   1      -5.914   0.330  -1.780  0.00  0.00     0.016 A 
ATOM     28  C   UNL d   1      -4.663   0.559  -2.350  0.00  0.00     0.004 A 
ATOM     29  C   UNL d   1      -3.518   0.047  -1.743  0.00  0.00     0.037 A 
BRANCH  26  30
ATOM     30  C   UNL d   1      -7.398  -0.699  -0.025  0.00  0.00     0.417 C 
ATOM     31  F   UNL d   1      -7.370  -1.389   1.148  0.00  0.00    -0.166 F 
ATOM     32  F   UNL d   1      -8.108   0.436   0.225  0.00  0.00    -0.166 F 
ATOM     33  F   UNL d   1      -8.166  -1.439  -0.874  0.00  0.00    -0.166 F 
ENDBRANCH  26  30
ENDBRANCH  23  24
ENDBRANCH   3  23
TORSDOF 7
