REMARK  4 active torsions:
REMARK  status: ('A' for Active; 'I' for Inactive)
REMARK       I    between atoms: N_3  and  C_1 
REMARK       I    between atoms: N_7  and  C_1 
REMARK    1  A    between atoms: C_2  and  N_4 
REMARK    2  A    between atoms: C_6  and  O_17 
REMARK    3  A    between atoms: C_20  and  N_7 
REMARK    4  A    between atoms: O_17  and  C_24 
ROOT
ATOM      1  C   UNL d   1      -0.783   0.466   5.344  0.00  0.00     0.141 A 
ATOM      2  C   UNL d   1      -1.363  -0.437   6.263  0.00  0.00     0.158 A 
ATOM      3  C   UNL d   1      -1.215  -1.859   6.143  0.00  0.00     0.121 C 
ATOM      4  N   UNL d   1      -1.111  -3.012   6.008  0.00  0.00    -0.190 NA
ATOM      5  N   UNL d   1      -0.874   1.796   5.614  0.00  0.00    -0.349 N 
ATOM      6  HN  UNL d   1      -0.461   2.488   4.989  1.00  0.00     0.167 HD
ATOM      7  N   UNL d   1      -2.035  -0.054   7.389  0.00  0.00    -0.353 N 
ATOM      8  HN  UNL d   1      -2.457  -0.730   8.026  1.00  0.00     0.166 HD
ATOM      9  C   UNL d   1      -1.529   2.177   6.738  0.00  0.00     0.106 A 
ATOM     10  C   UNL d   1      -2.105   1.272   7.604  0.00  0.00     0.106 A 
ENDROOT
BRANCH   1  11
ATOM     11  N   UNL d   1      -0.101   0.112   4.195  0.00  0.00    -0.362 N 
ATOM     12  C   UNL d   1      -0.543  -0.963   3.296  0.00  0.00     0.144 C 
ATOM     13  C   UNL d   1      -0.815  -0.440   1.869  0.00  0.00     0.147 C 
ATOM     14  N   UNL d   1       0.307   0.357   1.358  0.00  0.00    -0.331 N 
ATOM     15  C   UNL d   1       1.025   0.200   0.178  0.00  0.00     0.323 C 
ATOM     16  C   UNL d   1       0.645   1.483   2.243  0.00  0.00     0.147 C 
ATOM     17  N   UNL d   1       0.631  -0.846  -0.626  0.00  0.00    -0.309 N 
ATOM     18  O   UNL d   1       1.943   0.968  -0.101  0.00  0.00    -0.247 OA
ATOM     19  H   UNL d   1      -0.077  -1.460  -0.274  0.00  0.00     0.170 HD
ATOM     20  C   UNL d   1       0.952   1.006   3.673  0.00  0.00     0.144 C 
BRANCH  17  21
ATOM     21  C   UNL d   1       1.125  -1.197  -1.904  0.00  0.00     0.036 A 
ATOM     22  C   UNL d   1       2.129  -0.507  -2.585  0.00  0.00     0.032 A 
ATOM     23  C   UNL d   1       2.560  -0.924  -3.856  0.00  0.00     0.039 A 
ATOM     24  C   UNL d   1       2.005  -2.053  -4.452  0.00  0.00     0.078 A 
ATOM     25  C   UNL d   1       0.979  -2.727  -3.787  0.00  0.00     0.039 A 
ATOM     26  C   UNL d   1       0.547  -2.309  -2.525  0.00  0.00     0.032 A 
BRANCH  24  27
ATOM     27  O   UNL d   1       2.356  -2.605  -5.647  0.00  0.00    -0.255 OA
BRANCH  27  28
ATOM     28  C   UNL d   1       3.557  -2.175  -6.265  0.00  0.00     0.530 C 
ATOM     29  F   UNL d   1       4.568  -2.023  -5.383  0.00  0.00    -0.144 F 
ATOM     30  F   UNL d   1       3.934  -3.115  -7.162  0.00  0.00    -0.144 F 
ATOM     31  F   UNL d   1       3.358  -1.016  -6.928  0.00  0.00    -0.144 F 
ENDBRANCH  27  28
ENDBRANCH  24  27
ENDBRANCH  17  21
ENDBRANCH   1  11
TORSDOF 4
