REMARK  5 active torsions:
REMARK  status: ('A' for Active; 'I' for Inactive)
REMARK    1  A    between atoms: C_6  and  C_1 
REMARK    2  A    between atoms: C_5  and  C_2 
REMARK    3  A    between atoms: S_10  and  C_5 
REMARK    4  A    between atoms: C_8  and  C_11 
REMARK    5  A    between atoms: C_13  and  S_10 
ROOT
ATOM      1  C   UNL d   1       2.813   0.491   0.258  0.00  0.00     0.233 C 
ATOM      2  O   UNL d   1       2.126   0.351   1.256  0.00  0.00    -0.279 OA
ENDROOT
BRANCH   1   3
ATOM      3  C   UNL d   1       3.284  -0.632  -0.543  0.00  0.00     0.095 A 
ATOM      4  C   UNL d   1       2.673  -1.870  -0.716  0.00  0.00     0.139 A 
ATOM      5  N   UNL d   1       3.469  -2.806  -1.404  0.00  0.00    -0.349 N 
ATOM      6  C   UNL d   1       4.626  -2.282  -1.730  0.00  0.00     0.048 A 
ATOM      7  HN  UNL d   1       3.185  -3.762  -1.620  1.00  0.00     0.166 HD
ATOM      8  C   UNL d   1       5.751  -3.031  -2.356  0.00  0.00     0.076 C 
ATOM      9  S   UNL d   1       4.809  -0.632  -1.336  0.00  0.00    -0.070 SA
BRANCH   4  10
ATOM     10  C   UNL d   1       1.309  -2.306  -0.236  0.00  0.00     0.434 C 
ATOM     11  F   UNL d   1       0.534  -1.283   0.200  0.00  0.00    -0.165 F 
ATOM     12  F   UNL d   1       0.602  -2.897  -1.238  0.00  0.00    -0.165 F 
ATOM     13  F   UNL d   1       1.388  -3.211   0.773  0.00  0.00    -0.165 F 
ENDBRANCH   4  10
ENDBRANCH   1   3
BRANCH   1  14
ATOM     14  S   UNL d   1       3.414   2.078  -0.211  0.00  0.00    -0.047 SA
BRANCH  14  15
ATOM     15  C   UNL d   1       2.019   3.183  -0.228  0.00  0.00     0.009 A 
ATOM     16  C   UNL d   1       2.165   4.344  -1.008  0.00  0.00     0.035 A 
ATOM     17  C   UNL d   1       1.170   5.337  -1.051  0.00  0.00     0.049 A 
ATOM     18  C   UNL d   1       0.016   5.166  -0.280  0.00  0.00     0.016 A 
ATOM     19  C   UNL d   1      -0.149   4.016   0.489  0.00  0.00     0.002 A 
ATOM     20  C   UNL d   1       0.844   3.029   0.511  0.00  0.00     0.019 A 
BRANCH  17  21
ATOM     21  C   UNL d   1       1.339   6.566  -1.911  0.00  0.00     0.417 C 
ATOM     22  F   UNL d   1       2.498   6.572  -2.629  0.00  0.00    -0.166 F 
ATOM     23  F   UNL d   1       0.338   6.700  -2.823  0.00  0.00    -0.166 F 
ATOM     24  F   UNL d   1       1.344   7.717  -1.185  0.00  0.00    -0.166 F 
ENDBRANCH  17  21
ENDBRANCH  14  15
ENDBRANCH   1  14
TORSDOF 5
