REMARK  8 active torsions:
REMARK  status: ('A' for Active; 'I' for Inactive)
REMARK       I    between atoms: N_2  and  C_1 
REMARK       I    between atoms: N_6  and  C_1 
REMARK    1  A    between atoms: C_3  and  N_2 
REMARK    2  A    between atoms: C_14  and  N_6 
REMARK    3  A    between atoms: O_10  and  C_15 
REMARK    4  A    between atoms: C_13  and  O_10 
REMARK    5  A    between atoms: C_11  and  C_14 
REMARK    6  A    between atoms: C_15  and  C_11 
REMARK    7  A    between atoms: O_23  and  C_11 
REMARK    8  A    between atoms: O_24  and  C_16 
ROOT
ATOM      1  C   UNL d   1      -1.429   1.701   0.061  0.00  0.00     0.320 C 
ATOM      2  N   UNL d   1      -2.255   2.802   0.082  0.00  0.00    -0.306 N 
ATOM      3  N   UNL d   1      -1.823   0.815  -0.904  0.00  0.00    -0.340 N 
ATOM      4  O   UNL d   1      -0.496   1.484   0.827  0.00  0.00    -0.247 OA
ATOM      5  H   UNL d   1      -3.211   2.592  -0.180  0.00  0.00     0.171 HD
ATOM      6  H   UNL d   1      -2.337   1.173  -1.699  0.00  0.00     0.164 HD
ENDROOT
BRANCH   3   7
ATOM      7  C   UNL d   1      -1.235  -0.507  -1.020  0.00  0.00     0.158 C 
BRANCH   7   8
ATOM      8  C   UNL d   1      -1.732  -1.232  -2.277  0.00  0.00     0.160 C 
BRANCH   8   9
ATOM      9  C   UNL d   1      -1.203  -2.672  -2.323  0.00  0.00     0.209 C 
BRANCH   9  10
ATOM     10  O   UNL d   1      -1.621  -3.275  -3.551  0.00  0.00    -0.349 OA
BRANCH  10  11
ATOM     11  C   UNL d   1      -1.301  -4.591  -3.739  0.00  0.00     0.069 A 
ATOM     12  C   UNL d   1      -0.495  -5.362  -2.903  0.00  0.00     0.039 A 
ATOM     13  C   UNL d   1      -0.235  -6.705  -3.211  0.00  0.00     0.039 A 
ATOM     14  C   UNL d   1      -0.777  -7.285  -4.359  0.00  0.00     0.068 A 
ATOM     15  C   UNL d   1      -1.581  -6.508  -5.197  0.00  0.00     0.039 A 
ATOM     16  C   UNL d   1      -1.841  -5.172  -4.887  0.00  0.00     0.039 A 
BRANCH  14  17
ATOM     17  O   UNL d   1      -0.591  -8.575  -4.769  0.00  0.00    -0.356 OA
ATOM     18  C   UNL d   1       0.217  -9.402  -3.941  0.00  0.00     0.210 C 
ENDBRANCH  14  17
ENDBRANCH  10  11
ENDBRANCH   9  10
ENDBRANCH   8   9
BRANCH   8  19
ATOM     19  O   UNL d   1      -3.170  -1.206  -2.296  0.00  0.00    -0.392 OA
ATOM     20  H   UNL d   1      -3.491  -1.819  -1.613  0.00  0.00     0.210 HD
ENDBRANCH   8  19
ENDBRANCH   7   8
ENDBRANCH   3   7
BRANCH   2  21
ATOM     21  C   UNL d   1      -2.094   3.884   0.968  0.00  0.00     0.075 A 
ATOM     22  C   UNL d   1      -3.244   4.460   1.520  0.00  0.00     0.146 A 
ATOM     23  C   UNL d   1      -3.161   5.508   2.427  0.00  0.00     0.086 A 
ATOM     24  F   UNL d   1      -4.450   3.961   1.205  0.00  0.00    -0.204 F 
ATOM     25  C   UNL d   1      -1.909   6.012   2.748  0.00  0.00     0.119 A 
ATOM     26  C   UNL d   1      -0.751   5.482   2.183  0.00  0.00     0.044 A 
ATOM     27  F   UNL d   1      -1.812   7.028   3.615  0.00  0.00    -0.206 F 
ATOM     28  C   UNL d   1      -0.840   4.405   1.297  0.00  0.00     0.036 A 
ENDBRANCH   2  21
TORSDOF 8
