REMARK  6 active torsions:
REMARK  status: ('A' for Active; 'I' for Inactive)
REMARK    1  A    between atoms: C_5  and  C_1 
REMARK       I    between atoms: C_2  and  N_4 
REMARK    2  A    between atoms: C_3  and  C_2 
REMARK    3  A    between atoms: N_6  and  C_3 
REMARK    4  A    between atoms: N_4  and  C_8 
REMARK    5  A    between atoms: C_14  and  N_6 
REMARK    6  A    between atoms: C_15  and  C_14 
ROOT
ATOM      1  C   UNL d   1       2.748  -4.678   0.589  0.00  0.00     0.283 C 
ATOM      2  N   UNL d   1       1.476  -4.685   0.046  0.00  0.00    -0.321 N 
ATOM      3  O   UNL d   1       3.425  -5.698   0.561  0.00  0.00    -0.265 OA
ATOM      4  H   UNL d   1       1.122  -5.634   0.006  0.00  0.00     0.169 HD
ENDROOT
BRANCH   1   5
ATOM      5  C   UNL d   1       3.324  -3.491   1.352  0.00  0.00     0.165 C 
ATOM      6  S   UNL d   1       2.494  -2.850   2.649  0.00  0.00    -0.055 SA
BRANCH   5   7
ATOM      7  N   UNL d   1       4.623  -3.090   1.096  0.00  0.00    -0.372 N 
ATOM      8  H   UNL d   1       5.065  -2.585   1.857  0.00  0.00     0.161 HD
BRANCH   7   9
ATOM      9  C   UNL d   1       5.502  -3.693   0.112  0.00  0.00     0.159 C 
BRANCH   9  10
ATOM     10  C   UNL d   1       6.701  -2.824  -0.168  0.00  0.00    -0.041 A 
ATOM     11  C   UNL d   1       7.994  -3.364  -0.140  0.00  0.00     0.009 A 
ATOM     12  C   UNL d   1       9.099  -2.577  -0.477  0.00  0.00     0.001 A 
ATOM     13  C   UNL d   1       8.922  -1.244  -0.844  0.00  0.00     0.000 A 
ATOM     14  C   UNL d   1       7.644  -0.692  -0.862  0.00  0.00     0.001 A 
ATOM     15  C   UNL d   1       6.539  -1.477  -0.527  0.00  0.00     0.009 A 
ENDBRANCH   9  10
ENDBRANCH   7   9
ENDBRANCH   5   7
ENDBRANCH   1   5
BRANCH   2  16
ATOM     16  C   UNL d   1       0.538  -3.656  -0.015  0.00  0.00     0.035 A 
ATOM     17  C   UNL d   1       0.848  -2.400  -0.539  0.00  0.00     0.045 A 
ATOM     18  C   UNL d   1      -0.111  -1.374  -0.519  0.00  0.00     0.050 A 
ATOM     19  C   UNL d   1      -1.382  -1.635   0.021  0.00  0.00     0.016 A 
ATOM     20  C   UNL d   1      -1.703  -2.904   0.499  0.00  0.00     0.003 A 
ATOM     21  C   UNL d   1      -0.752  -3.921   0.455  0.00  0.00     0.029 A 
BRANCH  18  22
ATOM     22  C   UNL d   1       0.220   0.004  -1.033  0.00  0.00     0.417 C 
ATOM     23  F   UNL d   1       1.463   0.095  -1.585  0.00  0.00    -0.166 F 
ATOM     24  F   UNL d   1       0.176   0.946  -0.052  0.00  0.00    -0.166 F 
ATOM     25  F   UNL d   1      -0.646   0.426  -1.997  0.00  0.00    -0.166 F 
ENDBRANCH  18  22
ENDBRANCH   2  16
TORSDOF 6
