REMARK  5 active torsions:
REMARK  status: ('A' for Active; 'I' for Inactive)
REMARK    1  A    between atoms: C_2  and  N_1 
REMARK    2  A    between atoms: N_4  and  C_3 
REMARK    3  A    between atoms: C_10  and  N_4 
REMARK    4  A    between atoms: C_11  and  N_5 
REMARK    5  A    between atoms: C_17  and  C_11 
ROOT
ATOM      1  N   UNL d   1       1.794   0.628  -1.025  0.00  0.00     0.092 N 
ATOM      2  C   UNL d   1      -0.546  -1.183  -1.494  0.00  0.00     0.086 C 
ATOM      3  C   UNL d   1       0.873  -1.641  -1.816  0.00  0.00     0.055 C 
ATOM      4  C   UNL d   1      -0.590   0.311  -1.839  0.00  0.00     0.055 C 
ATOM      5  C   UNL d   1       2.011  -0.794  -1.252  0.00  0.00     0.275 C 
ATOM      6  C   UNL d   1       0.419   1.119  -1.020  0.00  0.00     0.275 C 
ENDROOT
BRANCH   2   7
ATOM      7  N   UNL d   1      -1.027  -1.419  -0.126  0.00  0.00    -0.370 N 
ATOM      8  H   UNL d   1      -1.717  -0.744   0.202  0.00  0.00     0.161 HD
BRANCH   7   9
ATOM      9  C   UNL d   1      -1.246  -2.580   0.576  0.00  0.00     0.135 C 
ATOM     10  C   UNL d   1      -0.580  -3.788   0.436  0.00  0.00     0.146 C 
ATOM     11  C   UNL d   1      -0.497  -4.692   1.509  0.00  0.00     0.041 C 
ATOM     12  C   UNL d   1      -1.353  -4.528   2.576  0.00  0.00     0.020 C 
ATOM     13  C   UNL d   1      -2.195  -3.424   2.542  0.00  0.00     0.090 C 
ATOM     14  N   UNL d   1      -2.093  -2.427   1.627  0.00  0.00    -0.351 N 
ATOM     15  HN  UNL d   1      -2.645  -1.574   1.727  1.00  0.00     0.166 HD
BRANCH  10  16
ATOM     16  N   UNL d   1      -0.765  -4.474  -0.826  0.00  0.00    -0.112 N 
ATOM     17  O   UNL d   1      -1.921  -4.709  -1.196  0.00  0.00    -0.532 OA
ATOM     18  O   UNL d   1       0.264  -4.897  -1.390  0.00  0.00    -0.532 OA
ENDBRANCH  10  16
ENDBRANCH   7   9
ENDBRANCH   2   7
BRANCH   1  19
ATOM     19  C   UNL d   1       2.620   1.162   0.086  0.00  0.00     0.311 C 
BRANCH  19  20
ATOM     20  C   UNL d   1       2.148   0.807   1.491  0.00  0.00    -0.030 A 
ATOM     21  C   UNL d   1       2.540  -0.388   2.113  0.00  0.00     0.009 A 
ATOM     22  C   UNL d   1       1.995  -0.768   3.342  0.00  0.00     0.001 A 
ATOM     23  C   UNL d   1       1.071   0.055   3.980  0.00  0.00     0.000 A 
ATOM     24  C   UNL d   1       0.714   1.272   3.406  0.00  0.00     0.001 A 
ATOM     25  C   UNL d   1       1.257   1.650   2.176  0.00  0.00     0.009 A 
ENDBRANCH  19  20
ENDBRANCH   1  19
TORSDOF 5
