REMARK  3 active torsions:
REMARK  status: ('A' for Active; 'I' for Inactive)
REMARK    1  A    between atoms: C_5  and  C_8 
REMARK       I    between atoms: N_10  and  C_5 
REMARK    2  A    between atoms: C_16  and  N_10 
REMARK    3  A    between atoms: C_17  and  C_16 
ROOT
ATOM      1  C   UNL d   1      -3.852   1.092   0.001  0.00  0.00     0.252 C 
ATOM      2  N   UNL d   1      -4.205   2.424  -0.053  0.00  0.00    -0.353 N 
ATOM      3  O   UNL d   1      -2.679   0.729   0.060  0.00  0.00    -0.268 OA
ATOM      4  H   UNL d   1      -5.163   2.718  -0.157  0.00  0.00     0.163 HD
ENDROOT
BRANCH   1   5
ATOM      5  C   UNL d   1      -4.934   0.058  -0.010  0.00  0.00     0.034 A 
ATOM      6  C   UNL d   1      -6.301   0.370   0.019  0.00  0.00     0.049 A 
ATOM      7  C   UNL d   1      -7.259  -0.671   0.027  0.00  0.00     0.064 A 
ATOM      8  N   UNL d   1      -8.641  -0.514   0.055  0.00  0.00    -0.292 N 
ATOM      9  C   UNL d   1      -6.819  -1.997   0.010  0.00  0.00     0.047 A 
ATOM     10  N   UNL d   1      -9.271  -1.677   0.057  0.00  0.00    -0.061 NA
ATOM     11  HN  UNL d   1      -9.112   0.390   0.073  1.00  0.00     0.183 HD
ATOM     12  S   UNL d   1      -8.231  -2.984   0.028  0.00  0.00     0.002 SA
ATOM     13  C   UNL d   1      -5.464  -2.338  -0.013  0.00  0.00     0.023 A 
ATOM     14  C   UNL d   1      -4.536  -1.288  -0.023  0.00  0.00     0.018 A 
ENDBRANCH   1   5
BRANCH   2  15
ATOM     15  C   UNL d   1      -3.210   3.472   0.090  0.00  0.00     0.161 C 
BRANCH  15  16
ATOM     16  C   UNL d   1      -2.805   4.130  -1.206  0.00  0.00    -0.038 A 
ATOM     17  C   UNL d   1      -2.450   5.485  -1.209  0.00  0.00     0.025 A 
ATOM     18  C   UNL d   1      -2.001   6.063  -2.388  0.00  0.00     0.088 A 
ATOM     19  N   UNL d   1      -1.878   5.393  -3.551  0.00  0.00    -0.375 N 
ATOM     20  C   UNL d   1      -2.203   4.083  -3.528  0.00  0.00     0.088 A 
ATOM     21  HN  UNL d   1      -1.557   5.852  -4.404  1.00  0.00     0.164 HD
ATOM     22  C   UNL d   1      -2.658   3.416  -2.399  0.00  0.00     0.025 A 
ENDBRANCH  15  16
ENDBRANCH   2  15
TORSDOF 3
