REMARK  8 active torsions:
REMARK  status: ('A' for Active; 'I' for Inactive)
REMARK    1  A    between atoms: C_7  and  N_1 
REMARK    2  A    between atoms: S_8  and  C_2 
REMARK    3  A    between atoms: C_15  and  S_8 
REMARK    4  A    between atoms: C_9  and  C_15 
REMARK       I    between atoms: N_10  and  C_9 
REMARK    5  A    between atoms: C_16  and  N_10 
REMARK    6  A    between atoms: O_17  and  C_18 
REMARK    7  A    between atoms: C_20  and  O_17 
REMARK    8  A    between atoms: C_28  and  C_20 
ROOT
ATOM      1  N   UNL d   1       0.903  -0.808  -0.060  0.00  0.00    -0.241 N 
ATOM      2  C   UNL d   1       0.862   0.504  -0.431  0.00  0.00     0.170 A 
ATOM      3  C   UNL d   1      -0.413  -1.118   0.219  0.00  0.00     0.347 A 
ATOM      4  N   UNL d   1      -0.307   1.075  -0.336  0.00  0.00    -0.275 N 
ATOM      5  HN  UNL d   1      -0.552   2.045  -0.533  1.00  0.00     0.189 HD
ATOM      6  N   UNL d   1      -1.117   0.075   0.084  0.00  0.00    -0.249 N 
ATOM      7  O   UNL d   1      -0.921  -2.179   0.530  0.00  0.00    -0.245 OA
ATOM      8  H   UNL d   1      -2.124   0.176   0.175  0.00  0.00     0.192 HD
ENDROOT
BRANCH   1   9
ATOM      9  C   UNL d   1       1.985  -1.716  -0.068  0.00  0.00     0.046 C 
ATOM     10  C   UNL d   1       1.791  -3.074  -0.360  0.00  0.00     0.033 C 
ATOM     11  C   UNL d   1       2.885  -3.911  -0.612  0.00  0.00     0.039 C 
ATOM     12  C   UNL d   1       4.178  -3.403  -0.551  0.00  0.00     0.069 C 
ATOM     13  C   UNL d   1       4.382  -2.112  -0.073  0.00  0.00     0.039 C 
ATOM     14  C   UNL d   1       3.292  -1.278   0.164  0.00  0.00     0.033 C 
BRANCH  12  15
ATOM     15  O   UNL d   1       5.186  -4.213  -0.999  0.00  0.00    -0.347 OA
BRANCH  15  16
ATOM     16  C   UNL d   1       6.289  -3.488  -1.554  0.00  0.00     0.214 C 
BRANCH  16  17
ATOM     17  C   UNL d   1       7.014  -4.342  -2.556  0.00  0.00    -0.034 A 
ATOM     18  C   UNL d   1       6.626  -4.334  -3.904  0.00  0.00     0.009 A 
ATOM     19  C   UNL d   1       7.321  -5.097  -4.840  0.00  0.00     0.001 A 
ATOM     20  C   UNL d   1       8.400  -5.881  -4.435  0.00  0.00     0.000 A 
ATOM     21  C   UNL d   1       8.781  -5.908  -3.094  0.00  0.00     0.001 A 
ATOM     22  C   UNL d   1       8.088  -5.145  -2.156  0.00  0.00     0.009 A 
ENDBRANCH  16  17
ENDBRANCH  15  16
ENDBRANCH  12  15
ENDBRANCH   1   9
BRANCH   2  23
ATOM     23  S   UNL d   1       2.164   1.417  -1.120  0.00  0.00    -0.083 SA
BRANCH  23  24
ATOM     24  C   UNL d   1       2.119   0.774  -2.816  0.00  0.00     0.185 C 
BRANCH  24  25
ATOM     25  C   UNL d   1       0.950   1.221  -3.684  0.00  0.00     0.231 C 
ATOM     26  N   UNL d   1       0.006   2.031  -3.091  0.00  0.00    -0.327 N 
ATOM     27  H   UNL d   1       0.202   2.345  -2.144  0.00  0.00     0.169 HD
ATOM     28  O   UNL d   1       0.927   0.857  -4.861  0.00  0.00    -0.272 OA
BRANCH  26  29
ATOM     29  C   UNL d   1      -1.149   2.567  -3.691  0.00  0.00     0.034 A 
ATOM     30  C   UNL d   1      -1.661   2.119  -4.911  0.00  0.00     0.031 A 
ATOM     31  C   UNL d   1      -2.745   2.769  -5.506  0.00  0.00     0.026 A 
ATOM     32  C   UNL d   1      -3.326   3.864  -4.876  0.00  0.00     0.034 A 
ATOM     33  C   UNL d   1      -2.869   4.281  -3.629  0.00  0.00     0.026 A 
ATOM     34 CL   UNL d   1      -4.603   4.717  -5.651  0.00  0.00    -0.084 Cl
ATOM     35  C   UNL d   1      -1.792   3.620  -3.028  0.00  0.00     0.031 A 
ENDBRANCH  26  29
ENDBRANCH  24  25
ENDBRANCH  23  24
ENDBRANCH   2  23
TORSDOF 8
