REMARK  5 active torsions:
REMARK  status: ('A' for Active; 'I' for Inactive)
REMARK    1  A    between atoms: C_3  and  C_1 
REMARK       I    between atoms: C_2  and  N_5 
REMARK       I    between atoms: N_6  and  C_2 
REMARK       I    between atoms: N_7  and  C_3 
REMARK    2  A    between atoms: N_5  and  C_4 
REMARK    3  A    between atoms: C_12  and  N_6 
REMARK    4  A    between atoms: C_17  and  N_7 
REMARK    5  A    between atoms: C_8  and  C_17 
ROOT
ATOM      1  C   UNL d   1       1.467  -3.291  -2.653  0.00  0.00     0.325 C 
ATOM      2  N   UNL d   1       1.847  -2.478  -1.604  0.00  0.00    -0.308 N 
ATOM      3  N   UNL d   1       2.424  -4.282  -2.861  0.00  0.00    -0.309 N 
ATOM      4  O   UNL d   1       0.406  -3.195  -3.258  0.00  0.00    -0.247 OA
ATOM      5  H   UNL d   1       2.837  -2.475  -1.362  0.00  0.00     0.170 HD
ATOM      6  H   UNL d   1       3.140  -4.313  -2.150  0.00  0.00     0.170 HD
ENDROOT
BRANCH   2   7
ATOM      7  C   UNL d   1       1.073  -1.498  -0.939  0.00  0.00     0.052 A 
ATOM      8  C   UNL d   1       1.712  -0.561  -0.088  0.00  0.00     0.058 A 
ATOM      9  C   UNL d   1       0.945   0.478   0.466  0.00  0.00     0.019 A 
ATOM     10  C   UNL d   1      -0.434   0.544   0.253  0.00  0.00     0.001 A 
ATOM     11  C   UNL d   1      -1.072  -0.440  -0.492  0.00  0.00     0.002 A 
ATOM     12  C   UNL d   1      -0.321  -1.449  -1.088  0.00  0.00     0.030 A 
BRANCH   8  13
ATOM     13  C   UNL d   1       3.167  -0.750   0.273  0.00  0.00     0.253 C 
ATOM     14  N   UNL d   1       3.749   0.133   1.162  0.00  0.00    -0.356 N 
ATOM     15  H   UNL d   1       3.262   0.949   1.490  0.00  0.00     0.162 HD
ATOM     16  O   UNL d   1       3.787  -1.715  -0.173  0.00  0.00    -0.268 OA
BRANCH  14  17
ATOM     17  C   UNL d   1       4.962  -0.218   1.873  0.00  0.00     0.127 C 
BRANCH  17  18
ATOM     18  C   UNL d   1       6.068   0.775   1.718  0.00  0.00     0.003 A 
ATOM     19  C   UNL d   1       5.871   2.241   2.008  0.00  0.00     0.007 A 
ATOM     20  C   UNL d   1       6.143   1.785   0.601  0.00  0.00     0.007 A 
ENDBRANCH  17  18
ENDBRANCH  14  17
ENDBRANCH   8  13
ENDBRANCH   2   7
BRANCH   3  21
ATOM     21  C   UNL d   1       2.072  -5.527  -3.426  0.00  0.00     0.037 C 
ATOM     22  C   UNL d   1       1.122  -5.655  -4.441  0.00  0.00     0.042 C 
ATOM     23  C   UNL d   1       0.525  -6.890  -4.700  0.00  0.00    -0.024 A 
ATOM     24  C   UNL d   1      -0.514  -7.015  -5.633  0.00  0.00     0.012 A 
ATOM     25  C   UNL d   1       0.921  -8.019  -3.945  0.00  0.00    -0.026 A 
ATOM     26  C   UNL d   1      -1.213  -8.215  -5.760  0.00  0.00     0.001 A 
ATOM     27  C   UNL d   1      -0.870  -9.305  -4.963  0.00  0.00     0.001 A 
ATOM     28  C   UNL d   1       0.205  -9.216  -4.080  0.00  0.00     0.012 A 
ATOM     29  C   UNL d   1       1.994  -7.907  -3.050  0.00  0.00     0.014 C 
ATOM     30  C   UNL d   1       2.586  -6.666  -2.805  0.00  0.00     0.030 C 
ENDBRANCH   3  21
TORSDOF 5
