REMARK  3 active torsions:
REMARK  status: ('A' for Active; 'I' for Inactive)
REMARK    1  A    between atoms: N_9  and  C_1 
REMARK    2  A    between atoms: C_7  and  C_5 
REMARK    3  A    between atoms: C_13  and  N_9 
ROOT
ATOM      1  C   UNL d   1       0.717  -1.029  -0.465  0.00  0.00     0.149 A 
ATOM      2  S   UNL d   1       0.195   0.325  -1.395  0.00  0.00    -0.052 SA
ATOM      3  N   UNL d   1       0.712  -0.824   0.836  0.00  0.00    -0.345 N 
ATOM      4  HN  UNL d   1       0.968  -1.522   1.534  1.00  0.00     0.167 HD
ATOM      5  C   UNL d   1       0.015   1.262   0.039  0.00  0.00     0.034 A 
ATOM      6  C   UNL d   1       0.315   0.460   1.122  0.00  0.00     0.110 A 
ENDROOT
BRANCH   5   7
ATOM      7  C   UNL d   1      -0.398   2.671   0.023  0.00  0.00    -0.015 A 
ATOM      8  C   UNL d   1      -1.164   3.193   1.079  0.00  0.00     0.052 A 
ATOM      9  C   UNL d   1      -1.529   4.544   1.113  0.00  0.00     0.102 A 
ATOM     10  O   UNL d   1      -2.311   4.909   2.181  0.00  0.00    -0.348 OA
ATOM     11  C   UNL d   1      -1.083   5.410   0.108  0.00  0.00     0.102 A 
ATOM     12  C   UNL d   1      -3.311   5.870   1.839  0.00  0.00     0.178 C 
ATOM     13  C   UNL d   1      -2.768   7.287   1.924  0.00  0.00     0.053 C 
ATOM     14  C   UNL d   1      -1.377   7.398   1.324  0.00  0.00     0.178 C 
ATOM     15  O   UNL d   1      -1.313   6.761   0.049  0.00  0.00    -0.348 OA
ATOM     16  C   UNL d   1      -0.345   4.896  -0.958  0.00  0.00     0.040 A 
ATOM     17  C   UNL d   1      -0.003   3.542  -1.002  0.00  0.00     0.016 A 
ENDBRANCH   5   7
BRANCH   1  18
ATOM     18  N   UNL d   1       1.085  -2.188  -1.063  0.00  0.00    -0.337 N 
ATOM     19  H   UNL d   1       0.957  -2.265  -2.065  0.00  0.00     0.168 HD
BRANCH  18  20
ATOM     20  C   UNL d   1       2.067  -3.066  -0.556  0.00  0.00     0.035 A 
ATOM     21  C   UNL d   1       3.060  -2.642   0.339  0.00  0.00     0.053 A 
ATOM     22  C   UNL d   1       4.009  -3.537   0.831  0.00  0.00     0.036 A 
ATOM     23 CL   UNL d   1       5.233  -2.974   1.903  0.00  0.00    -0.084 Cl
ATOM     24  C   UNL d   1       3.977  -4.874   0.454  0.00  0.00     0.024 A 
ATOM     25  C   UNL d   1       2.985  -5.318  -0.420  0.00  0.00     0.004 A 
ATOM     26  C   UNL d   1       2.037  -4.419  -0.922  0.00  0.00     0.029 A 
ENDBRANCH  18  20
ENDBRANCH   1  18
TORSDOF 3
