REMARK  5 active torsions:
REMARK  status: ('A' for Active; 'I' for Inactive)
REMARK    1  A    between atoms: S_10  and  C_1 
REMARK    2  A    between atoms: N_4  and  C_3 
REMARK    3  A    between atoms: C_14  and  C_5 
REMARK    4  A    between atoms: C_9  and  C_13 
REMARK    5  A    between atoms: C_11  and  S_10 
ROOT
ATOM      1  C   UNL d   1      -0.002   1.054   0.035  0.00  0.00     0.151 A 
ATOM      2  N   UNL d   1       0.805  -0.057   0.132  0.00  0.00    -0.330 N 
ATOM      3  C   UNL d   1      -0.013  -1.181   0.035  0.00  0.00     0.061 A 
ATOM      4  N   UNL d   1      -1.266   0.731  -0.088  0.00  0.00    -0.344 N 
ATOM      5  HN  UNL d   1      -2.061   1.363  -0.179  1.00  0.00     0.167 HD
ATOM      6  C   UNL d   1      -1.286  -0.637  -0.068  0.00  0.00     0.120 A 
ATOM      7  C   UNL d   1       2.235  -0.056   0.345  0.00  0.00     0.158 C 
ENDROOT
BRANCH   1   8
ATOM      8  S   UNL d   1       0.561   2.684   0.225  0.00  0.00    -0.051 SA
BRANCH   8   9
ATOM      9  C   UNL d   1       0.647   3.229  -1.480  0.00  0.00     0.041 A 
ATOM     10  C   UNL d   1       1.768   3.883  -2.015  0.00  0.00     0.120 A 
ATOM     11  C   UNL d   1       1.759   4.473  -3.293  0.00  0.00     0.053 A 
ATOM     12  C   UNL d   1       0.600   4.422  -4.077  0.00  0.00     0.050 A 
ATOM     13  C   UNL d   1      -0.518   3.742  -3.569  0.00  0.00     0.017 A 
ATOM     14  C   UNL d   1      -0.497   3.163  -2.290  0.00  0.00     0.022 A 
BRANCH  10  15
ATOM     15  N   UNL d   1       3.001   3.990  -1.261  0.00  0.00    -0.114 N 
ATOM     16  O   UNL d   1       3.559   2.930  -0.931  0.00  0.00    -0.532 OA
ATOM     17  O   UNL d   1       3.441   5.127  -1.055  0.00  0.00    -0.532 OA
ENDBRANCH  10  15
BRANCH  12  18
ATOM     18  C   UNL d   1       0.530   5.113  -5.419  0.00  0.00     0.417 C 
ATOM     19  F   UNL d   1       1.682   5.760  -5.751  0.00  0.00    -0.166 F 
ATOM     20  F   UNL d   1       0.279   4.248  -6.439  0.00  0.00    -0.166 F 
ATOM     21  F   UNL d   1      -0.453   6.052  -5.467  0.00  0.00    -0.166 F 
ENDBRANCH  12  18
ENDBRANCH   8   9
ENDBRANCH   1   8
BRANCH   3  22
ATOM     22  C   UNL d   1       0.390  -2.596   0.087  0.00  0.00    -0.008 A 
ATOM     23  C   UNL d   1      -0.459  -3.549   0.673  0.00  0.00     0.015 A 
ATOM     24  C   UNL d   1      -0.100  -4.904   0.731  0.00  0.00     0.024 A 
ATOM     25  C   UNL d   1       1.123  -5.317   0.212  0.00  0.00     0.034 A 
ATOM     26  C   UNL d   1       1.973  -4.395  -0.386  0.00  0.00     0.024 A 
ATOM     27 CL   UNL d   1       1.580  -6.973   0.298  0.00  0.00    -0.084 Cl
ATOM     28  C   UNL d   1       1.597  -3.049  -0.465  0.00  0.00     0.015 A 
ENDBRANCH   3  22
TORSDOF 5
