REMARK  4 active torsions:
REMARK  status: ('A' for Active; 'I' for Inactive)
REMARK    1  A    between atoms: N_6  and  C_1 
REMARK    2  A    between atoms: O_7  and  C_1 
REMARK    3  A    between atoms: C_8  and  N_6 
REMARK    4  A    between atoms: C_11  and  O_7 
ROOT
ATOM      1  C   UNL d   1       0.982   0.203  -0.221  0.00  0.00     0.238 C 
ATOM      2  N   UNL d   1       0.264   1.042  -0.897  0.00  0.00    -0.259 N 
ATOM      3  HN  UNL d   1      -0.752   0.961  -0.923  1.00  0.00     0.181 HD
ATOM      4  C   UNL d   1       0.890   2.012  -1.555  0.00  0.00     0.185 C 
ATOM      5  N   UNL d   1       1.478   2.822  -2.139  0.00  0.00    -0.172 NA
ENDROOT
BRANCH   1   6
ATOM      6  N   UNL d   1       2.351   0.165  -0.082  0.00  0.00    -0.321 N 
ATOM      7  H   UNL d   1       2.915   0.692  -0.738  0.00  0.00     0.169 HD
BRANCH   6   8
ATOM      8  C   UNL d   1       3.081  -0.489   0.926  0.00  0.00     0.036 A 
ATOM      9  C   UNL d   1       4.277  -1.138   0.597  0.00  0.00     0.053 A 
ATOM     10  C   UNL d   1       4.968  -1.877   1.559  0.00  0.00     0.036 A 
ATOM     11 CL   UNL d   1       6.412  -2.707   1.122  0.00  0.00    -0.084 Cl
ATOM     12  C   UNL d   1       4.489  -1.968   2.864  0.00  0.00     0.024 A 
ATOM     13  C   UNL d   1       3.311  -1.312   3.209  0.00  0.00     0.004 A 
ATOM     14  C   UNL d   1       2.609  -0.587   2.244  0.00  0.00     0.029 A 
ENDBRANCH   6   8
ENDBRANCH   1   6
BRANCH   1  15
ATOM     15  O   UNL d   1       0.350  -0.868   0.432  0.00  0.00    -0.279 OA
BRANCH  15  16
ATOM     16  C   UNL d   1      -0.955  -1.282   0.092  0.00  0.00     0.079 A 
ATOM     17  C   UNL d   1      -1.394  -1.323  -1.231  0.00  0.00     0.037 A 
ATOM     18  C   UNL d   1      -2.691  -1.745  -1.511  0.00  0.00     0.003 A 
ATOM     19  C   UNL d   1      -3.524  -2.167  -0.474  0.00  0.00     0.000 A 
ATOM     20  C   UNL d   1      -3.057  -2.177   0.843  0.00  0.00     0.003 A 
ATOM     21  C   UNL d   1      -1.765  -1.736   1.131  0.00  0.00     0.037 A 
ENDBRANCH  15  16
ENDBRANCH   1  15
TORSDOF 4
