REMARK  2 active torsions:
REMARK  status: ('A' for Active; 'I' for Inactive)
REMARK    1  A    between atoms: N_4  and  C_2 
REMARK    2  A    between atoms: C_8  and  C_3 
ROOT
ATOM      1  C   UNL d   1       0.130   1.067  -0.062  0.00  0.00     0.048 A 
ATOM      2  C   UNL d   1       1.485   1.510  -0.106  0.00  0.00     0.097 A 
ATOM      3  C   UNL d   1      -1.182   1.718   0.044  0.00  0.00    -0.003 A 
ATOM      4  C   UNL d   1      -0.031  -0.316  -0.101  0.00  0.00     0.089 A 
ATOM      5  C   UNL d   1      -2.205   0.782   0.060  0.00  0.00     0.065 A 
ATOM      6  S   UNL d   1      -1.653  -0.822  -0.056  0.00  0.00    -0.082 SA
ATOM      7  N   UNL d   1       2.469   0.575  -0.142  0.00  0.00    -0.342 N 
ATOM      8  HN  UNL d   1       3.448   0.861  -0.150  1.00  0.00     0.167 HD
ATOM      9  N   UNL d   1       0.932  -1.250  -0.164  0.00  0.00    -0.346 N 
ATOM     10  HN  UNL d   1       0.747  -2.253  -0.204  1.00  0.00     0.167 HD
ATOM     11  C   UNL d   1       2.149  -0.724  -0.168  0.00  0.00     0.182 A 
ENDROOT
BRANCH   2  12
ATOM     12  N   UNL d   1       1.869   2.849  -0.029  0.00  0.00    -0.264 NA
ATOM     13  C   UNL d   1       3.159   3.074   0.630  0.00  0.00     0.136 C 
ATOM     14  C   UNL d   1       3.178   4.523   1.065  0.00  0.00    -0.038 A 
ATOM     15  C   UNL d   1       3.652   4.915   2.320  0.00  0.00     0.009 A 
ATOM     16  C   UNL d   1       2.679   5.491   0.172  0.00  0.00    -0.050 A 
ATOM     17  C   UNL d   1       3.597   6.256   2.702  0.00  0.00     0.001 A 
ATOM     18  C   UNL d   1       3.078   7.213   1.827  0.00  0.00     0.001 A 
ATOM     19  C   UNL d   1       2.633   6.833   0.562  0.00  0.00     0.007 A 
ATOM     20  C   UNL d   1       2.251   5.043  -1.203  0.00  0.00     0.054 C 
ATOM     21  C   UNL d   1       1.668   3.612  -1.272  0.00  0.00     0.102 C 
ENDBRANCH   2  12
BRANCH   3  22
ATOM     22  C   UNL d   1      -1.525   3.146   0.123  0.00  0.00    -0.024 A 
ATOM     23  C   UNL d   1      -2.618   3.666  -0.594  0.00  0.00     0.024 A 
ATOM     24  C   UNL d   1      -2.923   5.041  -0.582  0.00  0.00    -0.025 A 
ATOM     25  C   UNL d   1      -4.051   5.555  -1.243  0.00  0.00     0.012 A 
ATOM     26  C   UNL d   1      -2.073   5.927   0.112  0.00  0.00    -0.026 A 
ATOM     27  C   UNL d   1      -4.320   6.925  -1.237  0.00  0.00     0.001 A 
ATOM     28  C   UNL d   1      -3.447   7.802  -0.601  0.00  0.00     0.001 A 
ATOM     29  C   UNL d   1      -2.325   7.307   0.066  0.00  0.00     0.012 A 
ATOM     30  C   UNL d   1      -1.003   5.407   0.850  0.00  0.00     0.013 A 
ATOM     31  C   UNL d   1      -0.767   4.029   0.894  0.00  0.00     0.013 A 
ENDBRANCH   3  22
TORSDOF 2
