REMARK  6 active torsions:
REMARK  status: ('A' for Active; 'I' for Inactive)
REMARK    1  A    between atoms: C_9  and  C_1 
REMARK    2  A    between atoms: O_14  and  C_2 
REMARK    3  A    between atoms: C_6  and  C_3 
REMARK    4  A    between atoms: O_15  and  C_4 
REMARK    5  A    between atoms: O_16  and  C_5 
REMARK    6  A    between atoms: O_20  and  C_17 
ROOT
ATOM      1  C   UNL d   1      -0.676  -0.789   0.770  0.00  0.00     0.055 C 
ATOM      2  C   UNL d   1       0.342  -1.135  -0.058  0.00  0.00     0.035 C 
ATOM      3  C   UNL d   1      -1.162  -1.712   1.749  0.00  0.00     0.100 C 
ATOM      4  N   UNL d   1      -1.596  -2.451   2.539  0.00  0.00    -0.191 NA
ENDROOT
BRANCH   1   5
ATOM      5  C   UNL d   1      -1.342   0.537   0.620  0.00  0.00    -0.015 A 
ATOM      6  C   UNL d   1      -2.709   0.678   0.919  0.00  0.00     0.015 A 
ATOM      7  C   UNL d   1      -3.353   1.920   0.828  0.00  0.00     0.037 A 
ATOM      8  C   UNL d   1      -2.645   3.049   0.427  0.00  0.00     0.068 A 
ATOM      9  C   UNL d   1      -1.292   2.923   0.117  0.00  0.00     0.037 A 
ATOM     10  C   UNL d   1      -0.643   1.686   0.219  0.00  0.00     0.015 A 
BRANCH   8  11
ATOM     11  O   UNL d   1      -3.149   4.312   0.299  0.00  0.00    -0.356 OA
ATOM     12  C   UNL d   1      -4.517   4.498   0.639  0.00  0.00     0.210 C 
ENDBRANCH   8  11
ENDBRANCH   1   5
BRANCH   2  13
ATOM     13  C   UNL d   1       1.007  -2.442  -0.042  0.00  0.00    -0.029 A 
ATOM     14  C   UNL d   1       0.517  -3.464  -0.850  0.00  0.00     0.051 A 
ATOM     15  C   UNL d   1       1.100  -4.742  -0.835  0.00  0.00     0.105 A 
ATOM     16  C   UNL d   1       2.203  -5.011   0.011  0.00  0.00     0.135 A 
ATOM     17  C   UNL d   1       2.672  -3.976   0.855  0.00  0.00     0.105 A 
ATOM     18  C   UNL d   1       2.075  -2.704   0.806  0.00  0.00     0.051 A 
BRANCH  15  19
ATOM     19  O   UNL d   1       0.535  -5.762  -1.565  0.00  0.00    -0.353 OA
ATOM     20  C   UNL d   1      -0.051  -5.384  -2.811  0.00  0.00     0.210 C 
ENDBRANCH  15  19
BRANCH  16  21
ATOM     21  O   UNL d   1       2.859  -6.208   0.108  0.00  0.00    -0.351 OA
ATOM     22  C   UNL d   1       2.671  -7.233  -0.854  0.00  0.00     0.210 C 
ENDBRANCH  16  21
BRANCH  17  23
ATOM     23  O   UNL d   1       3.647  -4.011   1.819  0.00  0.00    -0.353 OA
ATOM     24  C   UNL d   1       4.568  -5.085   1.901  0.00  0.00     0.210 C 
ENDBRANCH  17  23
ENDBRANCH   2  13
TORSDOF 6
