REMARK  1 active torsions:
REMARK  status: ('A' for Active; 'I' for Inactive)
REMARK    1  A    between atoms: C_8  and  N_5 
ROOT
ATOM      1  C   UNL d   1       1.678   0.034   0.018  0.00  0.00     0.141 C 
ATOM      2  N   UNL d   1       1.404  -1.217  -0.131  0.00  0.00    -0.369 N 
ATOM      3  HN  UNL d   1       2.067  -1.976   0.024  1.00  0.00     0.161 HD
ATOM      4  S   UNL d   1       0.342   1.151  -0.224  0.00  0.00    -0.083 SA
ATOM      5  N   UNL d   1       2.854   0.633   0.355  0.00  0.00    -0.337 N 
ATOM      6  C   UNL d   1      -0.843  -0.222  -0.079  0.00  0.00     0.024 C 
ATOM      7  C   UNL d   1       0.005  -1.404  -0.553  0.00  0.00     0.142 C 
ATOM      8  C   UNL d   1      -1.273  -0.388   1.383  0.00  0.00     0.029 C 
ATOM      9  C   UNL d   1      -2.054   0.009  -0.977  0.00  0.00     0.029 C 
ATOM     10  H   UNL d   1       2.829   1.643   0.363  0.00  0.00     0.168 HD
ENDROOT
BRANCH   5  11
ATOM     11  C   UNL d   1       3.964   0.064   0.999  0.00  0.00     0.034 A 
ATOM     12  C   UNL d   1       3.995  -1.256   1.466  0.00  0.00     0.029 A 
ATOM     13  C   UNL d   1       5.132  -1.780   2.089  0.00  0.00     0.002 A 
ATOM     14  C   UNL d   1       6.272  -0.997   2.234  0.00  0.00     0.000 A 
ATOM     15  C   UNL d   1       6.278   0.306   1.746  0.00  0.00     0.002 A 
ATOM     16  C   UNL d   1       5.136   0.828   1.128  0.00  0.00     0.029 A 
ENDBRANCH   5  11
TORSDOF 1
