REMARK  9 active torsions:
REMARK  status: ('A' for Active; 'I' for Inactive)
REMARK    1  A    between atoms: C_3  and  C_1 
REMARK    2  A    between atoms: O_4  and  C_2 
REMARK    3  A    between atoms: N_6  and  C_3 
REMARK    4  A    between atoms: C_12  and  O_4 
REMARK       I    between atoms: C_5  and  N_6 
REMARK    5  A    between atoms: C_15  and  C_5 
REMARK    6  A    between atoms: C_8  and  C_16 
REMARK    7  A    between atoms: O_14  and  C_8 
REMARK    8  A    between atoms: S_11  and  C_15 
REMARK    9  A    between atoms: C_16  and  S_11 
ROOT
ATOM      1  C   UNL d   1       0.268   1.006  -0.115  0.00  0.00     0.015 A 
ATOM      2  C   UNL d   1       1.671   0.964  -0.229  0.00  0.00     0.085 A 
ATOM      3  C   UNL d   1      -0.423  -0.221  -0.086  0.00  0.00     0.044 A 
ATOM      4 CL   UNL d   1      -2.147  -0.325   0.034  0.00  0.00    -0.084 Cl
ATOM      5  C   UNL d   1       2.342  -0.260  -0.400  0.00  0.00     0.038 A 
ATOM      6  C   UNL d   1       1.643  -1.458  -0.353  0.00  0.00     0.004 A 
ATOM      7  C   UNL d   1       0.263  -1.440  -0.184  0.00  0.00     0.024 A 
ENDROOT
BRANCH   1   8
ATOM      8  C   UNL d   1      -0.465   2.328  -0.089  0.00  0.00     0.165 C 
BRANCH   8   9
ATOM      9  N   UNL d   1      -0.232   3.180   1.065  0.00  0.00    -0.356 N 
ATOM     10  C   UNL d   1      -0.577   2.781   2.345  0.00  0.00     0.227 C 
ATOM     11  O   UNL d   1      -0.803   1.614   2.647  0.00  0.00    -0.273 OA
ATOM     12  H   UNL d   1      -0.256   4.175   0.875  0.00  0.00     0.162 HD
BRANCH  10  13
ATOM     13  C   UNL d   1      -0.631   3.916   3.360  0.00  0.00     0.177 C 
BRANCH  13  14
ATOM     14  S   UNL d   1       0.588   3.701   4.697  0.00  0.00    -0.149 SA
BRANCH  14  15
ATOM     15  C   UNL d   1       2.127   3.791   3.736  0.00  0.00     0.184 C 
BRANCH  15  16
ATOM     16  C   UNL d   1       2.388   5.149   3.115  0.00  0.00     0.149 C 
ATOM     17  O   UNL d   1       1.679   6.139   3.211  0.00  0.00    -0.649 OA
BRANCH  16  18
ATOM     18  O   UNL d   1       3.527   5.176   2.378  0.00  0.00    -0.776 OA
ATOM     19  H   UNL d   1       4.002   4.322   2.323  0.00  0.00     0.167 HD
ENDBRANCH  16  18
ENDBRANCH  15  16
ENDBRANCH  14  15
ENDBRANCH  13  14
ENDBRANCH  10  13
ENDBRANCH   8   9
ENDBRANCH   1   8
BRANCH   2  20
ATOM     20  O   UNL d   1       2.363   2.159  -0.243  0.00  0.00    -0.310 OA
BRANCH  20  21
ATOM     21  C   UNL d   1       3.586   2.217   0.393  0.00  0.00     0.076 A 
ATOM     22  C   UNL d   1       4.558   3.026  -0.195  0.00  0.00     0.037 A 
ATOM     23  C   UNL d   1       5.817   3.146   0.395  0.00  0.00     0.003 A 
ATOM     24  C   UNL d   1       6.100   2.473   1.583  0.00  0.00     0.000 A 
ATOM     25  C   UNL d   1       5.122   1.687   2.190  0.00  0.00     0.003 A 
ATOM     26  C   UNL d   1       3.863   1.566   1.601  0.00  0.00     0.037 A 
ENDBRANCH  20  21
ENDBRANCH   2  20
TORSDOF 9
