REMARK  4 active torsions:
REMARK  status: ('A' for Active; 'I' for Inactive)
REMARK    1  A    between atoms: N_2  and  S_1 
REMARK    2  A    between atoms: C_6  and  S_1 
REMARK    3  A    between atoms: C_5  and  N_2 
REMARK    4  A    between atoms: C_3  and  C_5 
ROOT
ATOM      1  N   UNL d   1       0.645  -0.894   1.238  0.00  0.00    -0.309 N 
ATOM      2  C   UNL d   1       1.033  -0.016   0.110  0.00  0.00     0.163 C 
ENDROOT
BRANCH   1   3
ATOM      3  S   UNL d   1       1.635  -0.648   2.599  0.00  0.00     0.260 S 
ATOM      4  O   UNL d   1       1.435   0.717   3.051  0.00  0.00    -0.200 OA
ATOM      5  O   UNL d   1       2.962  -1.097   2.248  0.00  0.00    -0.200 OA
BRANCH   3   6
ATOM      6  C   UNL d   1       1.063  -1.733   3.891  0.00  0.00     0.079 A 
ATOM      7  C   UNL d   1       1.209  -3.116   3.760  0.00  0.00     0.027 A 
ATOM      8  C   UNL d   1       0.832  -3.948   4.820  0.00  0.00     0.025 A 
ATOM      9  C   UNL d   1       0.319  -3.400   5.998  0.00  0.00     0.034 A 
ATOM     10  C   UNL d   1       0.192  -2.019   6.137  0.00  0.00     0.025 A 
ATOM     11 CL   UNL d   1      -0.139  -4.428   7.298  0.00  0.00    -0.084 Cl
ATOM     12  C   UNL d   1       0.583  -1.184   5.090  0.00  0.00     0.027 A 
ENDBRANCH   3   6
ENDBRANCH   1   3
BRANCH   1  13
ATOM     13  C   UNL d   1      -0.813  -1.229   1.285  0.00  0.00     0.172 C 
BRANCH  13  14
ATOM     14  C   UNL d   1      -1.871  -0.112   1.575  0.00  0.00     0.269 C 
ATOM     15  N   UNL d   1      -1.774   1.107   0.730  0.00  0.00     0.093 N 
ATOM     16  C   UNL d   1      -2.631   2.186   1.271  0.00  0.00     0.302 C 
ATOM     17  C   UNL d   1      -2.149   0.872  -0.667  0.00  0.00     0.310 C 
ATOM     18  C   UNL d   1      -2.360   2.482   2.756  0.00  0.00     0.302 C 
ATOM     19  N   UNL d   1      -2.646   1.308   3.598  0.00  0.00     0.088 N 
ATOM     20  C   UNL d   1      -1.859   0.167   3.104  0.00  0.00     0.309 C 
ATOM     21  C   UNL d   1      -2.251   1.592   4.984  0.00  0.00     0.310 C 
ENDBRANCH  13  14
ENDBRANCH   1  13
TORSDOF 4
