REMARK  5 active torsions:
REMARK  status: ('A' for Active; 'I' for Inactive)
REMARK    1  A    between atoms: N_5  and  C_1 
REMARK       I    between atoms: C_6  and  N_5 
REMARK       I    between atoms: N_10  and  C_6 
REMARK    2  A    between atoms: C_13  and  C_7 
REMARK    3  A    between atoms: C_9  and  O_11 
REMARK    4  A    between atoms: C_17  and  N_10 
REMARK    5  A    between atoms: O_11  and  C_18 
ROOT
ATOM      1  N   UNL d   1       2.159  -1.339  -0.166  0.00  0.00    -0.293 N 
ATOM      2  C   UNL d   1       3.399  -0.624  -0.192  0.00  0.00     0.326 C 
ATOM      3  N   UNL d   1       4.424  -1.380   0.318  0.00  0.00    -0.309 N 
ATOM      4  O   UNL d   1       3.454   0.504  -0.638  0.00  0.00    -0.247 OA
ATOM      5  H   UNL d   1       2.135  -2.302   0.135  0.00  0.00     0.172 HD
ATOM      6  H   UNL d   1       4.239  -2.316   0.645  0.00  0.00     0.170 HD
ENDROOT
BRANCH   1   7
ATOM      7  C   UNL d   1       0.945  -0.714  -0.472  0.00  0.00     0.126 C 
ATOM      8  C   UNL d   1       0.716   0.593  -0.819  0.00  0.00     0.081 C 
ATOM      9  C   UNL d   1      -0.686   0.791  -0.715  0.00  0.00     0.062 C 
ATOM     10  N   UNL d   1      -1.301  -0.388  -0.528  0.00  0.00    -0.298 N 
ATOM     11  N   UNL d   1      -0.301  -1.278  -0.416  0.00  0.00    -0.285 N 
ATOM     12  HN  UNL d   1      -2.304  -0.568  -0.482  1.00  0.00     0.187 HD
ATOM     13  H   UNL d   1      -0.552  -2.240  -0.234  0.00  0.00     0.188 HD
BRANCH   9  14
ATOM     14  C   UNL d   1      -1.389   2.081  -0.655  0.00  0.00    -0.008 A 
ATOM     15  C   UNL d   1      -0.687   3.291  -0.798  0.00  0.00     0.014 A 
ATOM     16  C   UNL d   1      -1.307   4.514  -0.532  0.00  0.00     0.001 A 
ATOM     17  C   UNL d   1      -2.640   4.546  -0.136  0.00  0.00     0.000 A 
ATOM     18  C   UNL d   1      -3.365   3.359  -0.045  0.00  0.00     0.001 A 
ATOM     19  C   UNL d   1      -2.745   2.134  -0.309  0.00  0.00     0.014 A 
ENDBRANCH   9  14
ENDBRANCH   1   7
BRANCH   3  20
ATOM     20  C   UNL d   1       5.780  -0.967   0.364  0.00  0.00     0.036 A 
ATOM     21  C   UNL d   1       6.216   0.314  -0.000  0.00  0.00     0.032 A 
ATOM     22  C   UNL d   1       7.578   0.644  -0.020  0.00  0.00     0.039 A 
ATOM     23  C   UNL d   1       8.530  -0.286   0.377  0.00  0.00     0.078 A 
ATOM     24  C   UNL d   1       8.099  -1.562   0.754  0.00  0.00     0.039 A 
ATOM     25  C   UNL d   1       6.739  -1.900   0.760  0.00  0.00     0.032 A 
BRANCH  23  26
ATOM     26  O   UNL d   1       9.875  -0.105   0.438  0.00  0.00    -0.255 OA
BRANCH  26  27
ATOM     27  C   UNL d   1      10.423   1.206   0.392  0.00  0.00     0.530 C 
ATOM     28  F   UNL d   1       9.590   2.150   0.881  0.00  0.00    -0.144 F 
ATOM     29  F   UNL d   1      11.543   1.220   1.152  0.00  0.00    -0.144 F 
ATOM     30  F   UNL d   1      10.762   1.523  -0.871  0.00  0.00    -0.144 F 
ENDBRANCH  26  27
ENDBRANCH  23  26
ENDBRANCH   3  20
TORSDOF 5
