REMARK  2 active torsions:
REMARK  status: ('A' for Active; 'I' for Inactive)
REMARK    1  A    between atoms: C_7  and  C_3 
REMARK    2  A    between atoms: C_10  and  C_4 
ROOT
ATOM      1  N   UNL d   1       1.400  -0.587   0.013  0.00  0.00    -0.349 N 
ATOM      2  HN  UNL d   1       2.283  -1.097   0.058  1.00  0.00     0.166 HD
ATOM      3  C   UNL d   1       0.207  -1.151  -0.036  0.00  0.00     0.085 A 
ATOM      4  C   UNL d   1       1.288   0.797  -0.006  0.00  0.00     0.050 A 
ATOM      5  S   UNL d   1      -1.111  -0.038  -0.012  0.00  0.00    -0.081 SA
ATOM      6  C   UNL d   1      -0.009   1.268   0.004  0.00  0.00     0.082 A 
ENDROOT
BRANCH   3   7
ATOM      7  C   UNL d   1      -0.030  -2.606  -0.060  0.00  0.00     0.001 A 
ATOM      8  C   UNL d   1      -1.160  -3.174  -0.664  0.00  0.00     0.057 A 
ATOM      9  C   UNL d   1      -1.345  -4.555  -0.655  0.00  0.00     0.123 A 
ATOM     10  F   UNL d   1      -2.440  -5.061  -1.242  0.00  0.00    -0.206 F 
ATOM     11  C   UNL d   1      -0.423  -5.412  -0.056  0.00  0.00    -0.023 A 
ATOM     12  C   UNL d   1       0.715  -4.858   0.536  0.00  0.00     0.011 A 
ATOM     13  C   UNL d   1      -0.665  -6.891  -0.061  0.00  0.00     0.051 C 
ATOM     14  C   UNL d   1       0.910  -3.470   0.528  0.00  0.00     0.015 A 
ENDBRANCH   3   7
BRANCH   4  15
ATOM     15  C   UNL d   1       2.466   1.659  -0.007  0.00  0.00    -0.009 A 
ATOM     16  C   UNL d   1       2.436   2.944  -0.573  0.00  0.00     0.015 A 
ATOM     17  C   UNL d   1       3.574   3.758  -0.557  0.00  0.00     0.024 A 
ATOM     18  C   UNL d   1       4.751   3.291   0.021  0.00  0.00     0.034 A 
ATOM     19  C   UNL d   1       4.803   2.014   0.576  0.00  0.00     0.024 A 
ATOM     20 CL   UNL d   1       6.147   4.295   0.046  0.00  0.00    -0.084 Cl
ATOM     21  C   UNL d   1       3.665   1.201   0.557  0.00  0.00     0.015 A 
ENDBRANCH   4  15
TORSDOF 2
