REMARK  2 active torsions:
REMARK  status: ('A' for Active; 'I' for Inactive)
REMARK    1  A    between atoms: N_5  and  C_1 
REMARK    2  A    between atoms: O_11  and  C_3 
ROOT
ATOM      1  C   UNL d   1      -1.512  -1.414   0.009  0.00  0.00     0.204 A 
ATOM      2  C   UNL d   1      -2.039  -0.022  -0.005  0.00  0.00     0.283 A 
ATOM      3  C   UNL d   1      -0.188  -1.679   0.001  0.00  0.00     0.117 A 
ATOM      4  N   UNL d   1      -1.095   1.011   0.003  0.00  0.00    -0.316 N 
ATOM      5  C   UNL d   1       0.774  -0.561  -0.009  0.00  0.00     0.027 A 
ATOM      6  C   UNL d   1       0.309   0.764   0.002  0.00  0.00     0.050 A 
ATOM      7  O   UNL d   1      -3.242   0.229  -0.024  0.00  0.00    -0.265 OA
ATOM      8  C   UNL d   1      -1.583   2.386   0.005  0.00  0.00     0.159 C 
ATOM      9  C   UNL d   1       2.162  -0.800  -0.019  0.00  0.00     0.017 A 
ATOM     10  C   UNL d   1       1.241   1.816   0.014  0.00  0.00     0.031 A 
ATOM     11  C   UNL d   1       3.075   0.254  -0.005  0.00  0.00     0.001 A 
ATOM     12  C   UNL d   1       2.614   1.563   0.015  0.00  0.00     0.002 A 
ENDROOT
BRANCH   1  13
ATOM     13  N   UNL d   1      -2.453  -2.530   0.039  0.00  0.00    -0.107 N 
ATOM     14  O   UNL d   1      -3.667  -2.311   0.051  0.00  0.00    -0.531 OA
ATOM     15  O   UNL d   1      -1.977  -3.681   0.056  0.00  0.00    -0.531 OA
ENDBRANCH   1  13
BRANCH   3  16
ATOM     16  O   UNL d   1       0.407  -2.932   0.011  0.00  0.00    -0.357 OA
ATOM     17  H   UNL d   1      -0.281  -3.633   0.031  0.00  0.00     0.217 HD
ENDBRANCH   3  16
TORSDOF 2
