REMARK  4 active torsions:
REMARK  status: ('A' for Active; 'I' for Inactive)
REMARK    1  A    between atoms: C_5  and  C_1 
REMARK    2  A    between atoms: N_3  and  C_2 
REMARK       I    between atoms: C_4  and  N_3 
REMARK    3  A    between atoms: C_8  and  C_4 
REMARK    4  A    between atoms: O_10  and  C_5 
ROOT
ATOM      1  C   UNL d   1       1.101  -0.059   0.197  0.00  0.00     0.070 A 
ATOM      2  C   UNL d   1       0.490   1.214   0.154  0.00  0.00     0.052 A 
ATOM      3  C   UNL d   1       0.324  -1.235   0.123  0.00  0.00    -0.043 A 
ATOM      4  C   UNL d   1      -0.904   1.300   0.083  0.00  0.00     0.030 A 
ATOM      5  C   UNL d   1      -1.681   0.144   0.018  0.00  0.00     0.003 A 
ATOM      6  C   UNL d   1      -1.073  -1.109   0.031  0.00  0.00     0.008 A 
ATOM      7  C   UNL d   1       0.883  -2.630   0.199  0.00  0.00     0.049 C 
ENDROOT
BRANCH   2   8
ATOM      8  N   UNL d   1       1.282   2.390   0.134  0.00  0.00    -0.322 N 
ATOM      9  C   UNL d   1       0.908   3.597   0.692  0.00  0.00     0.256 C 
ATOM     10  O   UNL d   1      -0.048   3.775   1.437  0.00  0.00    -0.267 OA
ATOM     11  H   UNL d   1       2.256   2.300  -0.146  0.00  0.00     0.169 HD
BRANCH   9  12
ATOM     12  C   UNL d   1       1.841   4.715   0.422  0.00  0.00     0.032 A 
ATOM     13  C   UNL d   1       2.268   4.982  -0.884  0.00  0.00     0.017 A 
ATOM     14  C   UNL d   1       3.115   6.064  -1.123  0.00  0.00     0.001 A 
ATOM     15  C   UNL d   1       3.539   6.868  -0.064  0.00  0.00     0.000 A 
ATOM     16  C   UNL d   1       3.113   6.599   1.238  0.00  0.00     0.001 A 
ATOM     17  C   UNL d   1       2.256   5.526   1.483  0.00  0.00     0.017 A 
ENDBRANCH   9  12
ENDBRANCH   2   8
BRANCH   1  18
ATOM     18  C   UNL d   1       2.566  -0.138   0.422  0.00  0.00     0.179 C 
ATOM     19  O   UNL d   1       3.336  -0.769  -0.280  0.00  0.00    -0.646 OA
BRANCH  18  20
ATOM     20  O   UNL d   1       2.959   0.599   1.484  0.00  0.00    -0.773 OA
ATOM     21  H   UNL d   1       2.223   1.021   1.974  0.00  0.00     0.167 HD
ENDBRANCH  18  20
ENDBRANCH   1  18
TORSDOF 4
