REMARK  8 active torsions:
REMARK  status: ('A' for Active; 'I' for Inactive)
REMARK    1  A    between atoms: C_5  and  C_1 
REMARK    2  A    between atoms: N_2  and  C_5 
REMARK    3  A    between atoms: O_17  and  C_3 
REMARK    4  A    between atoms: C_6  and  C_7 
REMARK    5  A    between atoms: O_19  and  C_8 
REMARK    6  A    between atoms: O_15  and  C_10 
REMARK    7  A    between atoms: C_18  and  O_15 
REMARK    8  A    between atoms: C_20  and  C_18 
ROOT
ATOM      1  C   UNL d   1       1.622  -0.273  -0.368  0.00  0.00    -0.007 C 
ATOM      2  C   UNL d   1       1.233   0.956  -0.935  0.00  0.00     0.078 C 
ATOM      3  C   UNL d   1      -0.084   1.190  -1.349  0.00  0.00     0.074 C 
ATOM      4  C   UNL d   1       0.597  -1.165  -0.031  0.00  0.00     0.014 C 
ATOM      5  C   UNL d   1      -1.071   0.237  -1.119  0.00  0.00     0.071 C 
ATOM      6  C   UNL d   1      -0.737  -0.912  -0.399  0.00  0.00     0.037 C 
ENDROOT
BRANCH   1   7
ATOM      7  C   UNL d   1       3.092  -0.541  -0.097  0.00  0.00     0.158 C 
BRANCH   7   8
ATOM      8  N   UNL d   1       3.630  -1.899  -0.172  0.00  0.00    -0.408 N 
ATOM      9  C   UNL d   1       3.274  -2.706  -1.325  0.00  0.00     0.118 C 
ATOM     10  C   UNL d   1       4.022  -4.044  -1.410  0.00  0.00     0.029 C 
ATOM     11  C   UNL d   1       5.238  -4.162  -0.485  0.00  0.00     0.024 C 
ATOM     12  C   UNL d   1       4.855  -3.745   0.955  0.00  0.00     0.029 C 
ATOM     13  C   UNL d   1       3.849  -2.587   1.078  0.00  0.00     0.118 C 
BRANCH  11  14
ATOM     14  C   UNL d   1       6.498  -3.533  -1.085  0.00  0.00    -0.021 A 
ATOM     15  C   UNL d   1       7.273  -4.143  -2.100  0.00  0.00     0.074 A 
ATOM     16  C   UNL d   1       8.380  -3.467  -2.645  0.00  0.00     0.037 A 
ATOM     17  C   UNL d   1       8.751  -2.202  -2.206  0.00  0.00     0.003 A 
ATOM     18  C   UNL d   1       7.998  -1.586  -1.213  0.00  0.00     0.001 A 
ATOM     19  C   UNL d   1       6.900  -2.247  -0.664  0.00  0.00     0.010 A 
BRANCH  15  20
ATOM     20  O   UNL d   1       6.992  -5.304  -2.771  0.00  0.00    -0.355 OA
ATOM     21  C   UNL d   1       6.725  -6.472  -2.012  0.00  0.00     0.210 C 
ENDBRANCH  15  20
ENDBRANCH  11  14
ENDBRANCH   7   8
ENDBRANCH   1   7
BRANCH   2  22
ATOM     22  O   UNL d   1       2.124   1.980  -1.142  0.00  0.00    -0.355 OA
ATOM     23  C   UNL d   1       2.534   2.565   0.100  0.00  0.00     0.210 C 
ENDBRANCH   2  22
BRANCH   5  24
ATOM     24  O   UNL d   1      -2.309   0.539  -1.627  0.00  0.00    -0.347 OA
BRANCH  24  25
ATOM     25  C   UNL d   1      -3.223  -0.554  -1.744  0.00  0.00     0.214 C 
BRANCH  25  26
ATOM     26  C   UNL d   1      -4.303  -0.295  -2.779  0.00  0.00    -0.034 A 
ATOM     27  C   UNL d   1      -4.056   0.456  -3.938  0.00  0.00     0.009 A 
ATOM     28  C   UNL d   1      -5.038   0.581  -4.926  0.00  0.00     0.001 A 
ATOM     29  C   UNL d   1      -6.273  -0.050  -4.773  0.00  0.00     0.000 A 
ATOM     30  C   UNL d   1      -6.529  -0.802  -3.632  0.00  0.00     0.001 A 
ATOM     31  C   UNL d   1      -5.551  -0.927  -2.641  0.00  0.00     0.009 A 
ENDBRANCH  25  26
ENDBRANCH  24  25
ENDBRANCH   5  24
TORSDOF 8
