REMARK  6 active torsions:
REMARK  status: ('A' for Active; 'I' for Inactive)
REMARK    1  A    between atoms: C_8  and  C_1 
REMARK       I    between atoms: N_9  and  C_1 
REMARK    2  A    between atoms: C_2  and  C_11 
REMARK    3  A    between atoms: C_12  and  N_9 
REMARK    4  A    between atoms: S_10  and  C_13 
REMARK    5  A    between atoms: C_11  and  S_10 
REMARK    6  A    between atoms: C_13  and  C_12 
ROOT
ATOM      1  C   UNL d   1       1.084   0.067  -0.170  0.00  0.00     0.221 C 
ATOM      2  O   UNL d   1       0.540   0.527  -1.171  0.00  0.00    -0.273 OA
ATOM      3  N   UNL d   1       2.455  -0.035  -0.072  0.00  0.00    -0.360 N 
ATOM      4  H   UNL d   1       2.853  -0.602   0.666  0.00  0.00     0.162 HD
ENDROOT
BRANCH   3   5
ATOM      5  C   UNL d   1       3.281   0.187  -1.247  0.00  0.00     0.132 C 
BRANCH   5   6
ATOM      6  C   UNL d   1       4.768  -0.066  -0.994  0.00  0.00     0.094 C 
BRANCH   6   7
ATOM      7  S   UNL d   1       5.024  -1.790  -0.455  0.00  0.00    -0.161 SA
BRANCH   7   8
ATOM      8  C   UNL d   1       6.847  -1.815  -0.427  0.00  0.00     0.139 C 
BRANCH   8   9
ATOM      9  C   UNL d   1       7.325  -3.166  -0.041  0.00  0.00     0.061 A 
ATOM     10  O   UNL d   1       8.014  -3.259   1.135  0.00  0.00    -0.326 OA
ATOM     11  C   UNL d   1       8.323  -4.569   1.310  0.00  0.00     0.142 A 
ATOM     12  C   UNL d   1       7.852  -5.322   0.260  0.00  0.00     0.027 A 
ATOM     13  C   UNL d   1       7.220  -4.414  -0.621  0.00  0.00     0.035 A 
ENDBRANCH   8   9
ENDBRANCH   7   8
ENDBRANCH   6   7
ENDBRANCH   5   6
ENDBRANCH   3   5
BRANCH   1  14
ATOM     14  C   UNL d   1       0.311  -0.372   1.081  0.00  0.00     0.078 C 
ATOM     15  C   UNL d   1       0.606  -1.818   1.511  0.00  0.00     0.014 C 
ATOM     16  C   UNL d   1      -0.013  -2.848   0.569  0.00  0.00     0.001 C 
ATOM     17  C   UNL d   1      -1.514  -2.636   0.411  0.00  0.00     0.000 C 
ATOM     18  C   UNL d   1      -1.845  -1.210  -0.017  0.00  0.00     0.001 C 
ATOM     19  C   UNL d   1      -1.204  -0.171   0.905  0.00  0.00     0.014 C 
ENDBRANCH   1  14
TORSDOF 6
