REMARK  4 active torsions:
REMARK  status: ('A' for Active; 'I' for Inactive)
REMARK    1  A    between atoms: C_12  and  C_3 
REMARK    2  A    between atoms: C_11  and  C_6 
REMARK    3  A    between atoms: O_13  and  C_11 
REMARK    4  A    between atoms: C_14  and  O_13 
ROOT
ATOM      1  C   UNL d   1      -0.051   0.866  -0.028  0.00  0.00     0.172 A 
ATOM      2  N   UNL d   1      -0.310  -0.419   0.347  0.00  0.00    -0.235 N 
ATOM      3  C   UNL d   1      -2.119   0.637   0.113  0.00  0.00     0.207 A 
ATOM      4  N   UNL d   1      -1.130   1.570  -0.190  0.00  0.00    -0.316 N 
ATOM      5  HN  UNL d   1      -1.227   2.547  -0.465  1.00  0.00     0.169 HD
ATOM      6  C   UNL d   1       1.933  -0.560   0.140  0.00  0.00     0.108 A 
ATOM      7  N   UNL d   1      -1.642  -0.585   0.471  0.00  0.00    -0.273 N 
ATOM      8  HN  UNL d   1      -2.160  -1.415   0.759  1.00  0.00     0.189 HD
ATOM      9  C   UNL d   1       0.805  -1.239   0.457  0.00  0.00     0.056 A 
ATOM     10  S   UNL d   1       1.631   1.153  -0.250  0.00  0.00    -0.044 SA
ATOM     11  C   UNL d   1       0.626  -2.669   0.834  0.00  0.00     0.072 C 
ENDROOT
BRANCH   6  12
ATOM     12  C   UNL d   1       3.299  -1.130  -0.041  0.00  0.00     0.307 C 
ATOM     13  O   UNL d   1       3.598  -2.294   0.174  0.00  0.00    -0.258 OA
BRANCH  12  14
ATOM     14  O   UNL d   1       4.136  -0.156  -0.561  0.00  0.00    -0.273 OA
BRANCH  14  15
ATOM     15  C   UNL d   1       5.200  -0.612  -1.353  0.00  0.00     0.101 A 
ATOM     16  C   UNL d   1       4.984  -1.207  -2.603  0.00  0.00     0.068 A 
ATOM     17 CL   UNL d   1       3.399  -1.525  -3.210  0.00  0.00    -0.081 Cl
ATOM     18  C   UNL d   1       6.076  -1.498  -3.422  0.00  0.00     0.026 A 
ATOM     19  C   UNL d   1       7.369  -1.174  -3.004  0.00  0.00     0.002 A 
ATOM     20  C   UNL d   1       7.574  -0.565  -1.764  0.00  0.00     0.003 A 
ATOM     21  C   UNL d   1       6.489  -0.279  -0.934  0.00  0.00     0.039 A 
ENDBRANCH  14  15
ENDBRANCH  12  14
ENDBRANCH   6  12
BRANCH   3  22
ATOM     22  C   UNL d   1      -3.595   0.966   0.015  0.00  0.00     0.450 C 
ATOM     23  F   UNL d   1      -3.820   2.239  -0.414  0.00  0.00    -0.163 F 
ATOM     24  F   UNL d   1      -4.244   0.149  -0.860  0.00  0.00    -0.163 F 
ATOM     25  F   UNL d   1      -4.231   0.845   1.212  0.00  0.00    -0.163 F 
ENDBRANCH   3  22
TORSDOF 4
