REMARK  3 active torsions:
REMARK  status: ('A' for Active; 'I' for Inactive)
REMARK    1  A    between atoms: C_7  and  C_1 
REMARK    2  A    between atoms: N_8  and  C_2 
REMARK    3  A    between atoms: O_14  and  C_11 
ROOT
ATOM      1  C   UNL d   1      -0.117  -1.321   0.008  0.00  0.00     0.089 A 
ATOM      2  C   UNL d   1       1.036  -0.707   0.499  0.00  0.00     0.110 A 
ATOM      3  N   UNL d   1      -0.641   0.806  -0.522  0.00  0.00    -0.059 NA
ATOM      4  N   UNL d   1      -1.035  -0.453  -0.583  0.00  0.00    -0.289 N 
ATOM      5  HN  UNL d   1      -1.909  -0.756  -1.013  1.00  0.00     0.183 HD
ATOM      6  S   UNL d   1       0.832   0.987   0.235  0.00  0.00     0.019 SA
ENDROOT
BRANCH   1   7
ATOM      7  C   UNL d   1      -0.391  -2.756   0.041  0.00  0.00    -0.005 A 
ATOM      8  C   UNL d   1       0.050  -3.574   1.092  0.00  0.00     0.016 A 
ATOM      9  C   UNL d   1      -0.196  -4.951   1.084  0.00  0.00     0.037 A 
ATOM     10  C   UNL d   1      -0.912  -5.529   0.038  0.00  0.00     0.068 A 
ATOM     11  C   UNL d   1      -1.409  -4.716  -0.981  0.00  0.00     0.037 A 
ATOM     12  C   UNL d   1      -1.144  -3.342  -0.986  0.00  0.00     0.016 A 
BRANCH  10  13
ATOM     13  O   UNL d   1      -1.225  -6.856  -0.062  0.00  0.00    -0.356 OA
ATOM     14  C   UNL d   1      -0.296  -7.752   0.539  0.00  0.00     0.210 C 
ENDBRANCH  10  13
ENDBRANCH   1   7
BRANCH   2  15
ATOM     15  N   UNL d   1       2.159  -1.222   1.070  0.00  0.00    -0.391 N 
ATOM     16  H   UNL d   1       2.409  -2.188   0.879  0.00  0.00     0.157 HD
ATOM     17  H   UNL d   1       2.973  -0.617   1.160  0.00  0.00     0.157 HD
ENDBRANCH   2  15
TORSDOF 3
