REMARK  5 active torsions:
REMARK  status: ('A' for Active; 'I' for Inactive)
REMARK    1  A    between atoms: C_8  and  C_3 
REMARK    2  A    between atoms: C_9  and  N_4 
REMARK    3  A    between atoms: N_7  and  C_10 
REMARK    4  A    between atoms: O_18  and  C_8 
REMARK    5  A    between atoms: C_20  and  O_18 
ROOT
ATOM      1  N   UNL d   1       0.924  -0.598  -0.300  0.00  0.00    -0.288 N 
ATOM      2  HN  UNL d   1       1.755  -1.132  -0.553  1.00  0.00     0.188 HD
ATOM      3  C   UNL d   1      -0.318  -1.072  -0.095  0.00  0.00     0.126 C 
ATOM      4  N   UNL d   1       0.837   0.740  -0.098  0.00  0.00    -0.260 N 
ATOM      5  C   UNL d   1      -1.232  -0.009   0.066  0.00  0.00     0.064 C 
ATOM      6  C   UNL d   1      -0.485   1.149   0.014  0.00  0.00     0.033 C 
ATOM      7  C   UNL d   1      -0.982   2.548  -0.007  0.00  0.00     0.070 C 
ENDROOT
BRANCH   4   8
ATOM      8  C   UNL d   1       2.031   1.514  -0.045  0.00  0.00     0.056 A 
ATOM      9  C   UNL d   1       3.159   1.080  -0.761  0.00  0.00     0.034 A 
ATOM     10  C   UNL d   1       4.309   1.874  -0.810  0.00  0.00     0.038 A 
ATOM     11  C   UNL d   1       4.342   3.085  -0.107  0.00  0.00     0.103 A 
ATOM     12  C   UNL d   1       3.251   3.483   0.677  0.00  0.00     0.038 A 
ATOM     13  C   UNL d   1       2.099   2.693   0.709  0.00  0.00     0.034 A 
BRANCH  11  14
ATOM     14  N   UNL d   1       5.520   3.956  -0.204  0.00  0.00    -0.116 N 
ATOM     15  O   UNL d   1       5.498   5.026   0.421  0.00  0.00    -0.532 OA
ATOM     16  O   UNL d   1       6.460   3.578  -0.917  0.00  0.00    -0.532 OA
ENDBRANCH  11  14
ENDBRANCH   4   8
BRANCH   3  17
ATOM     17  C   UNL d   1      -0.641  -2.503  -0.022  0.00  0.00     0.311 C 
ATOM     18  O   UNL d   1      -1.777  -2.913   0.214  0.00  0.00    -0.258 OA
BRANCH  17  19
ATOM     19  O   UNL d   1       0.457  -3.304  -0.142  0.00  0.00    -0.317 OA
BRANCH  19  20
ATOM     20  C   UNL d   1       0.300  -4.644   0.337  0.00  0.00     0.175 C 
ATOM     21  C   UNL d   1       0.611  -4.657   1.823  0.00  0.00     0.034 C 
ENDBRANCH  19  20
ENDBRANCH  17  19
ENDBRANCH   3  17
TORSDOF 5
