REMARK  7 active torsions:
REMARK  status: ('A' for Active; 'I' for Inactive)
REMARK    1  A    between atoms: N_2  and  C_1 
REMARK    2  A    between atoms: N_4  and  C_1 
REMARK    3  A    between atoms: C_5  and  N_2 
REMARK    4  A    between atoms: C_14  and  N_4 
REMARK    5  A    between atoms: C_12  and  C_14 
REMARK    6  A    between atoms: C_15  and  C_12 
REMARK    7  A    between atoms: O_13  and  C_15 
ROOT
ATOM      1  C   UNL d   1       1.024   0.182   0.056  0.00  0.00     0.172 C 
ATOM      2  S   UNL d   1       0.200  -0.859   1.070  0.00  0.00    -0.041 SA
ENDROOT
BRANCH   1   3
ATOM      3  N   UNL d   1       0.486   1.096  -0.814  0.00  0.00    -0.333 N 
ATOM      4  H   UNL d   1       0.983   1.183  -1.695  0.00  0.00     0.168 HD
BRANCH   3   5
ATOM      5  C   UNL d   1      -0.704   1.837  -0.689  0.00  0.00     0.034 A 
ATOM      6  C   UNL d   1      -1.208   2.228   0.553  0.00  0.00     0.031 A 
ATOM      7  C   UNL d   1      -2.328   3.064   0.629  0.00  0.00     0.026 A 
ATOM      8  C   UNL d   1      -2.950   3.494  -0.540  0.00  0.00     0.034 A 
ATOM      9  C   UNL d   1      -2.461   3.103  -1.784  0.00  0.00     0.026 A 
ATOM     10 CL   UNL d   1      -4.318   4.533  -0.446  0.00  0.00    -0.084 Cl
ATOM     11  C   UNL d   1      -1.324   2.290  -1.858  0.00  0.00     0.031 A 
ENDBRANCH   3   5
ENDBRANCH   1   3
BRANCH   1  12
ATOM     12  N   UNL d   1       2.391   0.094   0.027  0.00  0.00    -0.367 N 
ATOM     13  H   UNL d   1       2.755  -0.599   0.674  0.00  0.00     0.161 HD
BRANCH  12  14
ATOM     14  C   UNL d   1       3.286   1.189  -0.316  0.00  0.00     0.124 C 
BRANCH  14  15
ATOM     15  C   UNL d   1       4.215   0.852  -1.473  0.00  0.00     0.046 C 
BRANCH  15  16
ATOM     16  C   UNL d   1       3.491   0.618  -2.794  0.00  0.00     0.168 C 
BRANCH  16  17
ATOM     17  O   UNL d   1       2.624   1.719  -3.075  0.00  0.00    -0.396 OA
ATOM     18  C   UNL d   1       2.015   1.593  -4.355  0.00  0.00     0.201 C 
ENDBRANCH  16  17
ENDBRANCH  15  16
ENDBRANCH  14  15
ENDBRANCH  12  14
ENDBRANCH   1  12
TORSDOF 7
