REMARK  5 active torsions:
REMARK  status: ('A' for Active; 'I' for Inactive)
REMARK       I    between atoms: N_2  and  C_4 
REMARK    1  A    between atoms: C_5  and  N_2 
REMARK    2  A    between atoms: C_4  and  C_3 
REMARK    3  A    between atoms: N_15  and  C_5 
REMARK    4  A    between atoms: C_18  and  N_15 
REMARK    5  A    between atoms: O_24  and  C_19 
ROOT
ATOM      1  N   UNL d   1      -3.603  -2.767   0.192  0.00  0.00    -0.299 N 
ATOM      2  C   UNL d   1      -3.707  -1.409  -0.062  0.00  0.00     0.257 C 
ATOM      3  O   UNL d   1      -2.990  -0.798  -0.843  0.00  0.00    -0.267 OA
ATOM      4  H   UNL d   1      -4.481  -3.262   0.244  0.00  0.00     0.171 HD
ENDROOT
BRANCH   1   5
ATOM      5  C   UNL d   1      -2.579  -3.601  -0.104  0.00  0.00     0.179 C 
ATOM      6  S   UNL d   1      -2.972  -5.172  -0.545  0.00  0.00    -0.040 SA
BRANCH   5   7
ATOM      7  N   UNL d   1      -1.268  -3.290  -0.010  0.00  0.00    -0.333 N 
ATOM      8  H   UNL d   1      -0.700  -4.018  -0.431  0.00  0.00     0.168 HD
BRANCH   7   9
ATOM      9  C   UNL d   1      -0.557  -2.505   0.933  0.00  0.00     0.034 A 
ATOM     10  C   UNL d   1       0.795  -2.838   1.117  0.00  0.00     0.032 A 
ATOM     11  C   UNL d   1       1.568  -2.234   2.119  0.00  0.00     0.039 A 
ATOM     12  C   UNL d   1       1.007  -1.254   2.931  0.00  0.00     0.068 A 
ATOM     13  C   UNL d   1      -0.309  -0.868   2.709  0.00  0.00     0.039 A 
ATOM     14  C   UNL d   1      -1.092  -1.507   1.739  0.00  0.00     0.032 A 
BRANCH  12  15
ATOM     15  O   UNL d   1       1.633  -0.601   3.956  0.00  0.00    -0.356 OA
ATOM     16  C   UNL d   1       2.777  -1.244   4.504  0.00  0.00     0.210 C 
ENDBRANCH  12  15
ENDBRANCH   7   9
ENDBRANCH   5   7
ENDBRANCH   1   5
BRANCH   2  17
ATOM     17  C   UNL d   1      -4.785  -0.677   0.693  0.00  0.00     0.034 A 
ATOM     18  C   UNL d   1      -4.789   0.733   0.556  0.00  0.00     0.051 A 
ATOM     19  C   UNL d   1      -5.708   1.412   1.377  0.00  0.00     0.086 A 
ATOM     20  C   UNL d   1      -6.610   0.717   2.280  0.00  0.00     0.085 A 
ATOM     21  N   UNL d   1      -5.920   2.727   1.506  0.00  0.00    -0.240 N 
ATOM     22  N   UNL d   1      -7.345   1.626   2.929  0.00  0.00    -0.240 N 
ATOM     23  C   UNL d   1      -6.624  -0.682   2.392  0.00  0.00     0.035 A 
ATOM     24  O   UNL d   1      -6.917   2.858   2.458  0.00  0.00    -0.156 OA
ATOM     25  HN  UNL d   1      -8.070   1.450   3.625  1.00  0.00     0.197 HD
ATOM     26  C   UNL d   1      -5.680  -1.351   1.584  0.00  0.00     0.019 A 
ATOM     27  HN  UNL d   1      -5.446   3.479   1.005  1.00  0.00     0.197 HD
ENDBRANCH   2  17
TORSDOF 5
