REMARK  6 active torsions:
REMARK  status: ('A' for Active; 'I' for Inactive)
REMARK    1  A    between atoms: N_2  and  C_1 
REMARK    2  A    between atoms: N_3  and  C_1 
REMARK    3  A    between atoms: C_4  and  N_2 
REMARK    4  A    between atoms: C_7  and  N_3 
REMARK    5  A    between atoms: C_10  and  C_7 
REMARK    6  A    between atoms: O_9  and  C_10 
ROOT
ATOM      1  C   UNL d   1       1.111  -0.134  -0.065  0.00  0.00     0.172 C 
ATOM      2  S   UNL d   1       2.678   0.448  -0.160  0.00  0.00    -0.041 SA
ENDROOT
BRANCH   1   3
ATOM      3  N   UNL d   1       0.623  -1.003   0.866  0.00  0.00    -0.331 N 
ATOM      4  H   UNL d   1       0.031  -1.746   0.489  0.00  0.00     0.168 HD
BRANCH   3   5
ATOM      5  C   UNL d   1       1.025  -1.132   2.216  0.00  0.00     0.073 A 
ATOM      6  C   UNL d   1       0.954  -2.378   2.842  0.00  0.00     0.143 A 
ATOM      7  F   UNL d   1       0.595  -3.466   2.139  0.00  0.00    -0.204 F 
ATOM      8  C   UNL d   1       1.284  -2.529   4.189  0.00  0.00     0.044 A 
ATOM      9  C   UNL d   1       1.653  -1.412   4.941  0.00  0.00     0.003 A 
ATOM     10  C   UNL d   1       1.699  -0.157   4.337  0.00  0.00     0.002 A 
ATOM     11  C   UNL d   1       1.394  -0.019   2.978  0.00  0.00     0.033 A 
ENDBRANCH   3   5
ENDBRANCH   1   3
BRANCH   1  12
ATOM     12  N   UNL d   1       0.245   0.297  -1.020  0.00  0.00    -0.356 N 
ATOM     13  H   UNL d   1       0.708   0.883  -1.705  0.00  0.00     0.162 HD
BRANCH  12  14
ATOM     14  C   UNL d   1      -1.235   0.248  -1.086  0.00  0.00     0.046 C 
ATOM     15  C   UNL d   1      -1.878   0.654   0.253  0.00  0.00     0.040 C 
ATOM     16  C   UNL d   1      -1.661   1.298  -2.136  0.00  0.00     0.040 C 
BRANCH  14  17
ATOM     17  C   UNL d   1      -1.755  -1.135  -1.555  0.00  0.00     0.194 C 
BRANCH  17  18
ATOM     18  O   UNL d   1      -1.457  -2.175  -0.622  0.00  0.00    -0.398 OA
ATOM     19  H   UNL d   1      -1.869  -2.985  -0.970  0.00  0.00     0.209 HD
ENDBRANCH  17  18
ENDBRANCH  14  17
ENDBRANCH  12  14
ENDBRANCH   1  12
TORSDOF 6
