REMARK  6 active torsions:
REMARK  status: ('A' for Active; 'I' for Inactive)
REMARK    1  A    between atoms: C_12  and  C_1 
REMARK    2  A    between atoms: O_15  and  C_3 
REMARK    3  A    between atoms: C_4  and  N_11 
REMARK    4  A    between atoms: N_13  and  C_4 
REMARK    5  A    between atoms: N_11  and  N_6 
REMARK    6  A    between atoms: C_17  and  N_13 
ROOT
ATOM      1  N   UNL d   1       0.837   4.284   0.149  0.00  0.00    -0.309 N 
ATOM      2  HN  UNL d   1       1.766   3.907   0.336  1.00  0.00     0.186 HD
ATOM      3  C   UNL d   1      -0.202   3.520   0.043  0.00  0.00     0.121 C 
ENDROOT
BRANCH   3   4
ATOM      4  C   UNL d   1      -0.046   2.052   0.070  0.00  0.00     0.017 A 
ATOM      5  C   UNL d   1      -1.163   1.214   0.044  0.00  0.00     0.099 A 
ATOM      6  C   UNL d   1      -0.983  -0.174   0.030  0.00  0.00     0.069 A 
ATOM      7 CL   UNL d   1      -2.349  -1.228  -0.002  0.00  0.00    -0.081 Cl
ATOM      8  C   UNL d   1       0.298  -0.726   0.034  0.00  0.00     0.050 A 
ATOM      9  C   UNL d   1       1.406   0.118   0.056  0.00  0.00     0.036 A 
ATOM     10  C   UNL d   1       1.243   1.501   0.077  0.00  0.00     0.039 A 
ATOM     11 CL   UNL d   1       2.989  -0.553   0.041  0.00  0.00    -0.084 Cl
BRANCH   5  12
ATOM     12  O   UNL d   1      -2.422   1.756   0.026  0.00  0.00    -0.358 OA
ATOM     13  H   UNL d   1      -3.063   1.015   0.028  0.00  0.00     0.217 HD
ENDBRANCH   5  12
ENDBRANCH   3   4
BRANCH   1  14
ATOM     14  N   UNL d   1       0.621   5.617  -0.002  0.00  0.00    -0.277 N 
ATOM     15  H   UNL d   1      -0.301   5.937  -0.268  0.00  0.00     0.189 HD
BRANCH  14  16
ATOM     16  C   UNL d   1       1.663   6.512   0.054  0.00  0.00     0.186 C 
ATOM     17  S   UNL d   1       3.145   6.256   0.786  0.00  0.00    -0.040 SA
BRANCH  16  18
ATOM     18  N   UNL d   1       1.470   7.703  -0.595  0.00  0.00    -0.366 N 
ATOM     19  H   UNL d   1       2.298   8.289  -0.572  0.00  0.00     0.161 HD
BRANCH  18  20
ATOM     20  C   UNL d   1       0.535   7.950  -1.680  0.00  0.00     0.117 C 
ATOM     21  C   UNL d   1       0.889   7.148  -2.923  0.00  0.00     0.026 C 
ENDBRANCH  18  20
ENDBRANCH  16  18
ENDBRANCH  14  16
ENDBRANCH   1  14
TORSDOF 6
