REMARK  4 active torsions:
REMARK  status: ('A' for Active; 'I' for Inactive)
REMARK    1  A    between atoms: C_2  and  C_1 
REMARK    2  A    between atoms: O_9  and  C_2 
REMARK    3  A    between atoms: C_12  and  C_5 
REMARK    4  A    between atoms: C_13  and  O_9 
ROOT
ATOM      1  C   UNL d   1       1.057  -1.632  -0.353  0.00  0.00     0.081 A 
ATOM      2  N   UNL d   1       2.241   0.389  -0.567  0.00  0.00    -0.298 N 
ATOM      3  HN  UNL d   1       3.118   0.897  -0.687  1.00  0.00     0.187 HD
ATOM      4  C   UNL d   1       2.272  -0.961  -0.481  0.00  0.00     0.075 A 
ATOM      5  N   UNL d   1       1.062   1.097  -0.496  0.00  0.00    -0.299 N 
ATOM      6  HN  UNL d   1       1.083   2.114  -0.574  1.00  0.00     0.187 HD
ATOM      7  C   UNL d   1      -0.173  -0.922  -0.256  0.00  0.00     0.011 A 
ATOM      8  C   UNL d   1      -0.105   0.476  -0.328  0.00  0.00     0.059 A 
ATOM      9  C   UNL d   1      -1.450  -1.519  -0.075  0.00  0.00     0.015 A 
ATOM     10  C   UNL d   1      -1.266   1.232  -0.213  0.00  0.00     0.032 A 
ATOM     11  C   UNL d   1      -2.603  -0.744   0.052  0.00  0.00     0.001 A 
ATOM     12  C   UNL d   1      -2.511   0.638  -0.017  0.00  0.00     0.002 A 
ENDROOT
BRANCH   1  13
ATOM     13  C   UNL d   1       1.004  -3.093  -0.338  0.00  0.00     0.301 C 
ATOM     14  O   UNL d   1       0.974  -3.762  -1.361  0.00  0.00    -0.259 OA
BRANCH  13  15
ATOM     15  O   UNL d   1       0.928  -3.513   0.972  0.00  0.00    -0.275 OA
BRANCH  15  16
ATOM     16  C   UNL d   1       0.935  -4.905   1.077  0.00  0.00     0.079 A 
ATOM     17  C   UNL d   1       2.099  -5.511   1.548  0.00  0.00     0.039 A 
ATOM     18  C   UNL d   1       2.143  -6.899   1.666  0.00  0.00     0.026 A 
ATOM     19  C   UNL d   1       1.025  -7.663   1.327  0.00  0.00     0.034 A 
ATOM     20  C   UNL d   1      -0.147  -7.048   0.883  0.00  0.00     0.026 A 
ATOM     21 CL   UNL d   1       1.094  -9.378   1.458  0.00  0.00    -0.084 Cl
ATOM     22  C   UNL d   1      -0.200  -5.658   0.766  0.00  0.00     0.039 A 
ENDBRANCH  15  16
ENDBRANCH  13  15
ENDBRANCH   1  13
BRANCH   4  23
ATOM     23  C   UNL d   1       3.654  -1.511  -0.439  0.00  0.00    -0.007 A 
ATOM     24  C   UNL d   1       4.686  -0.722   0.122  0.00  0.00     0.014 A 
ATOM     25  C   UNL d   1       6.011  -1.160   0.196  0.00  0.00     0.001 A 
ATOM     26  C   UNL d   1       6.348  -2.418  -0.284  0.00  0.00     0.000 A 
ATOM     27  C   UNL d   1       5.362  -3.219  -0.851  0.00  0.00     0.001 A 
ATOM     28  C   UNL d   1       4.036  -2.766  -0.940  0.00  0.00     0.014 A 
ENDBRANCH   4  23
TORSDOF 4
