REMARK  6 active torsions:
REMARK  status: ('A' for Active; 'I' for Inactive)
REMARK    1  A    between atoms: C_2  and  S_1 
REMARK    2  A    between atoms: N_5  and  S_1 
REMARK    3  A    between atoms: C_9  and  N_5 
REMARK    4  A    between atoms: C_8  and  C_6 
REMARK       I    between atoms: N_14  and  C_8 
REMARK    5  A    between atoms: C_19  and  N_14 
REMARK    6  A    between atoms: C_15  and  C_19 
ROOT
ATOM      1  C   UNL d   1       2.160   2.248  -2.186  0.00  0.00     0.054 A 
ATOM      2  C   UNL d   1       0.944   1.545  -2.177  0.00  0.00     0.038 A 
ATOM      3  C   UNL d   1       2.327   3.349  -3.041  0.00  0.00     0.019 A 
ATOM      4  C   UNL d   1      -0.110   1.984  -2.987  0.00  0.00     0.025 A 
ATOM      5  C   UNL d   1       1.268   3.776  -3.846  0.00  0.00     0.001 A 
ATOM      6  C   UNL d   1       0.047   3.105  -3.804  0.00  0.00     0.002 A 
ENDROOT
BRANCH   2   7
ATOM      7  N   UNL d   1       0.746   0.380  -1.361  0.00  0.00    -0.179 NA
ATOM      8  H   UNL d   1       1.389   0.349  -0.557  0.00  0.00     0.146 HD
BRANCH   7   9
ATOM      9  S   UNL d   1       0.728  -1.124  -2.143  0.00  0.00     0.263 S 
ATOM     10  O   UNL d   1       0.515  -2.130  -1.123  0.00  0.00    -0.204 OA
ATOM     11  O   UNL d   1      -0.116  -1.065  -3.323  0.00  0.00    -0.204 OA
BRANCH   9  12
ATOM     12  C   UNL d   1       2.307  -1.535  -2.779  0.00  0.00     0.161 A 
ATOM     13  N   UNL d   1       3.413  -0.698  -2.749  0.00  0.00    -0.341 N 
ATOM     14  C   UNL d   1       4.393  -1.410  -3.261  0.00  0.00     0.183 A 
ATOM     15  HN  UNL d   1       3.457   0.261  -2.404  1.00  0.00     0.167 HD
ATOM     16  N   UNL d   1       3.971  -2.657  -3.631  0.00  0.00    -0.354 N 
ATOM     17  C   UNL d   1       2.642  -2.751  -3.352  0.00  0.00     0.134 A 
ATOM     18  C   UNL d   1       4.816  -3.686  -4.188  0.00  0.00     0.156 C 
ENDBRANCH   9  12
ENDBRANCH   7   9
ENDBRANCH   2   7
BRANCH   1  19
ATOM     19  C   UNL d   1       3.201   1.952  -1.166  0.00  0.00     0.253 C 
ATOM     20  N   UNL d   1       4.516   2.123  -1.547  0.00  0.00    -0.356 N 
ATOM     21  H   UNL d   1       4.723   1.894  -2.511  0.00  0.00     0.162 HD
ATOM     22  O   UNL d   1       2.854   1.591  -0.046  0.00  0.00    -0.268 OA
BRANCH  20  23
ATOM     23  C   UNL d   1       5.545   1.905  -0.558  0.00  0.00     0.127 C 
BRANCH  23  24
ATOM     24  C   UNL d   1       6.902   2.121  -1.146  0.00  0.00     0.003 A 
ATOM     25  C   UNL d   1       7.475   1.183  -2.177  0.00  0.00     0.007 A 
ATOM     26  C   UNL d   1       8.024   1.178  -0.780  0.00  0.00     0.007 A 
ENDBRANCH  23  24
ENDBRANCH  20  23
ENDBRANCH   1  19
TORSDOF 6
