REMARK  3 active torsions:
REMARK  status: ('A' for Active; 'I' for Inactive)
REMARK    1  A    between atoms: N_2  and  S_1 
REMARK    2  A    between atoms: C_8  and  S_1 
REMARK       I    between atoms: C_11  and  N_12 
REMARK    3  A    between atoms: N_12  and  C_18 
ROOT
ATOM      1  S   UNL d   1       1.192   0.113  -0.058  0.00  0.00     0.244 S 
ATOM      2  O   UNL d   1       1.049   1.352   0.669  0.00  0.00    -0.206 OA
ATOM      3  O   UNL d   1       0.693  -1.132   0.489  0.00  0.00    -0.206 OA
ENDROOT
BRANCH   1   4
ATOM      4  N   UNL d   1       2.860  -0.110  -0.394  0.00  0.00    -0.189 NA
ATOM      5  C   UNL d   1       3.567   1.080  -0.949  0.00  0.00     0.211 C 
ATOM      6  C   UNL d   1       3.780   2.174   0.085  0.00  0.00     0.238 C 
ATOM      7  O   UNL d   1       3.911   3.357  -0.222  0.00  0.00    -0.272 OA
ATOM      8  N   UNL d   1       3.910   1.754   1.390  0.00  0.00    -0.296 N 
ATOM      9  C   UNL d   1       3.840   0.457   1.847  0.00  0.00     0.238 C 
ATOM     10  H   UNL d   1       4.046   2.473   2.086  0.00  0.00     0.171 HD
ATOM     11  C   UNL d   1       3.615  -0.616   0.792  0.00  0.00     0.211 C 
ATOM     12  O   UNL d   1       4.040   0.193   3.030  0.00  0.00    -0.272 OA
ENDBRANCH   1   4
BRANCH   1  13
ATOM     13  C   UNL d   1       0.474   0.318  -1.666  0.00  0.00     0.074 A 
ATOM     14  C   UNL d   1      -0.008  -0.792  -2.364  0.00  0.00     0.027 A 
ATOM     15  C   UNL d   1      -0.582  -0.616  -3.627  0.00  0.00     0.031 A 
ATOM     16  C   UNL d   1      -0.674   0.661  -4.201  0.00  0.00     0.034 A 
ATOM     17  C   UNL d   1      -0.220   1.761  -3.469  0.00  0.00     0.031 A 
ATOM     18  C   UNL d   1       0.338   1.598  -2.200  0.00  0.00     0.027 A 
BRANCH  16  19
ATOM     19  N   UNL d   1      -1.223   0.762  -5.499  0.00  0.00    -0.328 N 
ATOM     20  C   UNL d   1      -1.330   1.910  -6.265  0.00  0.00     0.218 C 
ATOM     21  O   UNL d   1      -0.980   3.042  -5.943  0.00  0.00    -0.274 OA
ATOM     22  C   UNL d   1      -1.934   1.676  -7.625  0.00  0.00     0.117 C 
ATOM     23  H   UNL d   1      -1.537  -0.104  -5.917  0.00  0.00     0.169 HD
ENDBRANCH  16  19
ENDBRANCH   1  13
TORSDOF 3
