REMARK  5 active torsions:
REMARK  status: ('A' for Active; 'I' for Inactive)
REMARK    1  A    between atoms: C_14  and  C_1 
REMARK    2  A    between atoms: C_6  and  C_9 
REMARK    3  A    between atoms: C_26  and  C_7 
REMARK    4  A    between atoms: C_10  and  N_8 
REMARK    5  A    between atoms: N_13  and  C_14 
ROOT
ATOM      1  N   UNL d   1       3.881  -0.495  -0.061  0.00  0.00    -0.266 NA
ATOM      2  N   UNL d   1       1.629  -2.306   0.063  0.00  0.00    -0.405 N 
ATOM      3  C   UNL d   1       3.100  -0.781  -1.289  0.00  0.00     0.116 C 
ATOM      4  C   UNL d   1       3.140  -0.692   1.206  0.00  0.00     0.116 C 
ATOM      5  C   UNL d   1       2.305  -2.101  -1.203  0.00  0.00     0.132 C 
ATOM      6  C   UNL d   1       2.431  -2.053   1.246  0.00  0.00     0.132 C 
ENDROOT
BRANCH   1   7
ATOM      7  C   UNL d   1       4.440   0.804  -0.133  0.00  0.00     0.082 A 
ATOM      8  N   UNL d   1       3.949   1.789   0.647  0.00  0.00    -0.356 N 
ATOM      9  C   UNL d   1       4.467   3.032   0.523  0.00  0.00     0.105 A 
ATOM     10  HN  UNL d   1       3.203   1.600   1.317  1.00  0.00     0.166 HD
ATOM     11  C   UNL d   1       5.474   3.364  -0.366  0.00  0.00     0.063 A 
ATOM     12  C   UNL d   1       5.993   2.341  -1.156  0.00  0.00     0.021 A 
ATOM     13  C   UNL d   1       5.471   1.050  -1.037  0.00  0.00     0.043 A 
BRANCH  11  14
ATOM     14  C   UNL d   1       5.976   4.773  -0.466  0.00  0.00     0.418 C 
ATOM     15  F   UNL d   1       5.339   5.639   0.369  0.00  0.00    -0.166 F 
ATOM     16  F   UNL d   1       7.301   4.878  -0.176  0.00  0.00    -0.166 F 
ATOM     17  F   UNL d   1       5.828   5.289  -1.716  0.00  0.00    -0.166 F 
ENDBRANCH  11  14
ENDBRANCH   1   7
BRANCH   2  18
ATOM     18  C   UNL d   1       0.192  -2.370   0.148  0.00  0.00     0.176 C 
BRANCH  18  19
ATOM     19  C   UNL d   1      -0.589  -1.120  -0.097  0.00  0.00     0.050 A 
ATOM     20  N   UNL d   1      -0.101   0.162  -0.143  0.00  0.00    -0.346 N 
ATOM     21  C   UNL d   1      -1.177   1.014  -0.254  0.00  0.00     0.081 A 
ATOM     22  H   UNL d   1       0.856   0.447  -0.011  0.00  0.00     0.167 HD
ATOM     23  N   UNL d   1      -2.294   0.341  -0.398  0.00  0.00    -0.348 N 
ATOM     24  C   UNL d   1      -1.958  -0.973  -0.233  0.00  0.00     0.031 A 
ATOM     25  HN  UNL d   1      -3.221   0.720  -0.592  1.00  0.00     0.167 HD
ATOM     26  C   UNL d   1      -3.033  -1.984  -0.107  0.00  0.00     0.070 C 
BRANCH  21  27
ATOM     27  C   UNL d   1      -1.089   2.491  -0.085  0.00  0.00     0.072 C 
ATOM     28  C   UNL d   1      -1.941   2.910   1.108  0.00  0.00     0.013 C 
ENDBRANCH  21  27
ENDBRANCH  18  19
ENDBRANCH   2  18
TORSDOF 5
