REMARK  1 active torsions:
REMARK  status: ('A' for Active; 'I' for Inactive)
REMARK    1  A    between atoms: C_2  and  C_1 
REMARK       I    between atoms: C_10  and  N_3 
ROOT
ATOM      1  C   UNL d   1       2.450   0.008   0.092  0.00  0.00     0.041 A 
ATOM      2  S   UNL d   1       1.587   1.470  -0.150  0.00  0.00    -0.087 SA
ATOM      3  C   UNL d   1       1.578  -1.073   0.200  0.00  0.00    -0.031 A 
ATOM      4  C   UNL d   1       0.184  -0.659   0.119  0.00  0.00    -0.010 A 
ATOM      5  C   UNL d   1       0.058   0.722  -0.005  0.00  0.00     0.016 A 
ATOM      6  C   UNL d   1      -1.010  -1.428   0.149  0.00  0.00     0.037 A 
ATOM      7  C   UNL d   1      -1.200   1.359  -0.035  0.00  0.00     0.021 A 
ATOM      8  C   UNL d   1      -2.258  -0.803   0.085  0.00  0.00     0.035 A 
ATOM      9  C   UNL d   1       1.951  -2.516   0.372  0.00  0.00     0.050 C 
ATOM     10  C   UNL d   1      -2.356   0.578   0.010  0.00  0.00     0.025 A 
ATOM     11 CL   UNL d   1      -3.689  -1.760   0.093  0.00  0.00    -0.084 Cl
ENDROOT
BRANCH   1  12
ATOM     12  C   UNL d   1       3.898  -0.001   0.035  0.00  0.00     0.078 A 
ATOM     13  N   UNL d   1       4.774   0.987   0.508  0.00  0.00    -0.224 N 
ATOM     14  N   UNL d   1       6.062   0.734   0.114  0.00  0.00    -0.302 N 
ATOM     15  C   UNL d   1       4.533   2.110   1.325  0.00  0.00     0.239 C 
ATOM     16  C   UNL d   1       6.010  -0.440  -0.504  0.00  0.00     0.110 A 
ATOM     17  HN  UNL d   1       6.883   1.321   0.263  1.00  0.00     0.186 HD
ATOM     18  C   UNL d   1       4.705  -0.932  -0.598  0.00  0.00     0.051 A 
ATOM     19  O   UNL d   1       3.566   2.153   2.071  0.00  0.00    -0.272 OA
ATOM     20  C   UNL d   1       5.568   3.195   1.223  0.00  0.00     0.119 C 
ENDBRANCH   1  12
TORSDOF 1
