REMARK  4 active torsions:
REMARK  status: ('A' for Active; 'I' for Inactive)
REMARK    1  A    between atoms: C_2  and  C_1 
REMARK    2  A    between atoms: C_14  and  C_3 
REMARK    3  A    between atoms: C_16  and  N_4 
REMARK    4  A    between atoms: C_13  and  N_5 
ROOT
ATOM      1  C   UNL d   1      -0.323   1.178  -0.079  0.00  0.00     0.057 C 
ATOM      2  C   UNL d   1       1.018   0.810  -0.014  0.00  0.00     0.083 C 
ATOM      3  N   UNL d   1       0.977  -0.602   0.046  0.00  0.00    -0.255 N 
ATOM      4  N   UNL d   1      -0.283  -1.083  -0.134  0.00  0.00    -0.303 N 
ATOM      5  HN  UNL d   1      -0.567  -2.057  -0.241  1.00  0.00     0.186 HD
ATOM      6  C   UNL d   1      -1.060  -0.011  -0.139  0.00  0.00     0.125 C 
ENDROOT
BRANCH   1   7
ATOM      7  C   UNL d   1      -0.919   2.535  -0.141  0.00  0.00     0.152 C 
ATOM      8  N   UNL d   1      -2.093   2.957   0.468  0.00  0.00    -0.224 N 
ATOM      9  N   UNL d   1      -2.426   4.157  -0.062  0.00  0.00     0.001 NA
ATOM     10  N   UNL d   1      -1.393   4.520  -0.810  0.00  0.00    -0.007 NA
ATOM     11  N   UNL d   1      -0.445   3.532  -0.858  0.00  0.00    -0.269 N 
ATOM     12  HN  UNL d   1       0.448   3.563  -1.351  1.00  0.00     0.185 HD
BRANCH   8  13
ATOM     13  C   UNL d   1      -2.822   2.393   1.545  0.00  0.00     0.056 A 
ATOM     14  C   UNL d   1      -2.204   1.548   2.478  0.00  0.00     0.032 A 
ATOM     15  C   UNL d   1      -2.944   0.991   3.523  0.00  0.00     0.009 A 
ATOM     16  C   UNL d   1      -4.309   1.263   3.649  0.00  0.00    -0.062 A 
ATOM     17  C   UNL d   1      -4.915   2.135   2.737  0.00  0.00     0.009 A 
ATOM     18  C   UNL d   1      -5.090   0.649   4.773  0.00  0.00     0.048 C 
ATOM     19  C   UNL d   1      -4.176   2.712   1.699  0.00  0.00     0.032 A 
ENDBRANCH   8  13
ENDBRANCH   1   7
BRANCH   2  20
ATOM     20  C   UNL d   1       2.257   1.626  -0.048  0.00  0.00    -0.000 A 
ATOM     21  C   UNL d   1       2.480   2.789   0.730  0.00  0.00    -0.049 A 
ATOM     22  C   UNL d   1       1.484   3.420   1.665  0.00  0.00     0.049 C 
ATOM     23  C   UNL d   1       3.716   3.462   0.629  0.00  0.00     0.007 A 
ATOM     24  C   UNL d   1       4.750   2.974  -0.162  0.00  0.00     0.001 A 
ATOM     25  C   UNL d   1       4.546   1.833  -0.920  0.00  0.00     0.001 A 
ATOM     26  C   UNL d   1       3.304   1.198  -0.897  0.00  0.00     0.014 A 
ENDBRANCH   2  20
BRANCH   3  27
ATOM     27  C   UNL d   1       2.007  -1.560   0.274  0.00  0.00     0.058 A 
ATOM     28  C   UNL d   1       3.153  -1.260   1.022  0.00  0.00     0.057 A 
ATOM     29  C   UNL d   1       4.164  -2.214   1.167  0.00  0.00     0.058 A 
ATOM     30 CL   UNL d   1       5.564  -1.755   2.078  0.00  0.00    -0.082 Cl
ATOM     31  C   UNL d   1       4.035  -3.479   0.589  0.00  0.00     0.055 A 
ATOM     32  C   UNL d   1       2.873  -3.803  -0.117  0.00  0.00     0.028 A 
ATOM     33 CL   UNL d   1       5.266  -4.685   0.699  0.00  0.00    -0.083 Cl
ATOM     34  C   UNL d   1       1.858  -2.854  -0.263  0.00  0.00     0.033 A 
ENDBRANCH   3  27
TORSDOF 4
