REMARK  3 active torsions:
REMARK  status: ('A' for Active; 'I' for Inactive)
REMARK    1  A    between atoms: C_10  and  C_1 
REMARK    2  A    between atoms: C_13  and  C_2 
REMARK    3  A    between atoms: C_3  and  C_8 
ROOT
ATOM      1  C   UNL d   1      -4.833   0.073  -0.067  0.00  0.00    -0.008 A 
ATOM      2  C   UNL d   1      -2.027  -0.034   0.033  0.00  0.00     0.018 A 
ATOM      3  C   UNL d   1      -4.168  -1.159  -0.004  0.00  0.00     0.015 A 
ATOM      4  C   UNL d   1      -4.074   1.251  -0.085  0.00  0.00     0.015 A 
ATOM      5  C   UNL d   1      -2.679   1.198  -0.028  0.00  0.00     0.021 A 
ATOM      6  C   UNL d   1      -2.772  -1.214   0.041  0.00  0.00     0.021 A 
ENDROOT
BRANCH   2   7
ATOM      7  C   UNL d   1      -0.601  -0.072   0.074  0.00  0.00    -0.061 C 
ATOM      8  C   UNL d   1       0.599  -0.062   0.083  0.00  0.00    -0.061 C 
BRANCH   8   9
ATOM      9  C   UNL d   1       2.030  -0.028   0.053  0.00  0.00     0.018 A 
ATOM     10  C   UNL d   1       2.754  -1.221  -0.011  0.00  0.00     0.020 A 
ATOM     11  C   UNL d   1       4.148  -1.188  -0.078  0.00  0.00     0.001 A 
ATOM     12  C   UNL d   1       4.818   0.035  -0.081  0.00  0.00     0.000 A 
ATOM     13  C   UNL d   1       4.097   1.227  -0.009  0.00  0.00     0.001 A 
ATOM     14  C   UNL d   1       2.703   1.196   0.060  0.00  0.00     0.020 A 
ENDBRANCH   8   9
ENDBRANCH   2   7
BRANCH   1  15
ATOM     15  C   UNL d   1      -6.291   0.137  -0.110  0.00  0.00     0.059 A 
ATOM     16  N   UNL d   1      -7.113  -0.782   0.495  0.00  0.00    -0.300 N 
ATOM     17  N   UNL d   1      -8.423  -0.530   0.344  0.00  0.00    -0.311 N 
ATOM     18  H   UNL d   1      -6.841  -1.596   1.036  0.00  0.00     0.187 HD
ATOM     19  C   UNL d   1      -8.444   0.593  -0.375  0.00  0.00     0.109 A 
ATOM     20  HN  UNL d   1      -9.215  -1.070   0.695  1.00  0.00     0.186 HD
ATOM     21  C   UNL d   1      -7.152   1.053  -0.683  0.00  0.00     0.050 A 
ENDBRANCH   1  15
TORSDOF 3
