REMARK  2 active torsions:
REMARK  status: ('A' for Active; 'I' for Inactive)
REMARK    1  A    between atoms: C_2  and  N_1 
REMARK       I    between atoms: C_5  and  N_6 
REMARK    2  A    between atoms: N_6  and  C_8 
ROOT
ATOM      1  C   UNL d   1       0.365  -0.458   1.136  0.00  0.00     0.111 A 
ATOM      2  C   UNL d   1      -0.775  -1.219   0.836  0.00  0.00     0.066 A 
ATOM      3  C   UNL d   1      -1.540  -1.758   1.867  0.00  0.00     0.037 A 
ATOM      4  C   UNL d   1       0.769  -0.199   2.455  0.00  0.00    -0.029 A 
ATOM      5  C   UNL d   1      -0.014  -0.745   3.481  0.00  0.00     0.011 A 
ATOM      6  C   UNL d   1      -1.152  -1.512   3.191  0.00  0.00     0.030 A 
ATOM      7  C   UNL d   1       1.976   0.613   2.829  0.00  0.00     0.050 C 
ENDROOT
BRANCH   3   8
ATOM      8  N   UNL d   1      -2.690  -2.551   1.658  0.00  0.00    -0.327 N 
ATOM      9  C   UNL d   1      -3.224  -2.936   0.440  0.00  0.00     0.218 C 
ATOM     10  O   UNL d   1      -2.789  -2.649  -0.670  0.00  0.00    -0.274 OA
ATOM     11  C   UNL d   1      -4.457  -3.795   0.565  0.00  0.00     0.117 C 
ATOM     12  H   UNL d   1      -3.162  -2.880   2.492  0.00  0.00     0.169 HD
ENDBRANCH   3   8
BRANCH   1  13
ATOM     13  N   UNL d   1       1.120   0.053   0.005  0.00  0.00    -0.115 N 
ATOM     14  O   UNL d   1       0.547   0.859  -0.739  0.00  0.00    -0.532 OA
ATOM     15  O   UNL d   1       2.280  -0.361  -0.132  0.00  0.00    -0.532 OA
ENDBRANCH   1  13
TORSDOF 2
