REMARK  6 active torsions:
REMARK  status: ('A' for Active; 'I' for Inactive)
REMARK    1  A    between atoms: C_4  and  N_1 
REMARK    2  A    between atoms: S_15  and  C_2 
REMARK    3  A    between atoms: O_19  and  C_10 
REMARK    4  A    between atoms: O_21  and  C_12 
REMARK    5  A    between atoms: C_23  and  S_15 
REMARK    6  A    between atoms: C_16  and  C_23 
ROOT
ATOM      1  N   UNL d   1       2.413  -0.657   0.087  0.00  0.00    -0.255 N 
ATOM      2  C   UNL d   1       2.348   0.729  -0.091  0.00  0.00     0.155 C 
ATOM      3  C   UNL d   1       1.268  -1.361   0.469  0.00  0.00     0.267 C 
ATOM      4  N   UNL d   1       1.245   1.405  -0.074  0.00  0.00    -0.335 N 
ATOM      5  HN  UNL d   1       1.258   2.421  -0.166  1.00  0.00     0.168 HD
ATOM      6  C   UNL d   1      -0.012  -0.642   0.337  0.00  0.00     0.059 A 
ATOM      7  C   UNL d   1       0.036   0.722   0.073  0.00  0.00     0.049 A 
ATOM      8  O   UNL d   1       1.249  -2.506   0.910  0.00  0.00    -0.267 OA
ATOM      9  C   UNL d   1      -1.232  -1.321   0.408  0.00  0.00     0.019 A 
ATOM     10  C   UNL d   1      -1.160   1.420  -0.090  0.00  0.00     0.030 A 
ATOM     11  C   UNL d   1      -2.420  -0.621   0.215  0.00  0.00     0.001 A 
ATOM     12  C   UNL d   1      -2.387   0.752  -0.025  0.00  0.00     0.002 A 
ENDROOT
BRANCH   1  13
ATOM     13  C   UNL d   1       3.618  -1.417  -0.049  0.00  0.00     0.081 A 
ATOM     14  C   UNL d   1       4.744  -1.063   0.717  0.00  0.00     0.071 A 
ATOM     15  C   UNL d   1       5.986  -1.679   0.523  0.00  0.00     0.092 A 
ATOM     16  C   UNL d   1       6.073  -2.732  -0.395  0.00  0.00     0.070 A 
ATOM     17  C   UNL d   1       4.944  -3.157  -1.098  0.00  0.00     0.065 A 
ATOM     18 CL   UNL d   1       7.572  -3.536  -0.704  0.00  0.00    -0.081 Cl
ATOM     19  C   UNL d   1       3.718  -2.500  -0.945  0.00  0.00     0.097 A 
BRANCH  15  20
ATOM     20  O   UNL d   1       7.137  -1.313   1.171  0.00  0.00    -0.354 OA
ATOM     21  C   UNL d   1       7.100  -0.140   1.976  0.00  0.00     0.210 C 
ENDBRANCH  15  20
BRANCH  19  22
ATOM     22  O   UNL d   1       2.705  -3.051  -1.685  0.00  0.00    -0.354 OA
ATOM     23  C   UNL d   1       1.966  -2.178  -2.529  0.00  0.00     0.210 C 
ENDBRANCH  19  22
ENDBRANCH   1  13
BRANCH   2  24
ATOM     24  S   UNL d   1       3.782   1.714  -0.358  0.00  0.00    -0.089 SA
BRANCH  24  25
ATOM     25  C   UNL d   1       4.244   1.218  -2.032  0.00  0.00     0.108 C 
BRANCH  25  26
ATOM     26  C   UNL d   1       5.372   2.084  -2.510  0.00  0.00    -0.026 C 
ATOM     27  C   UNL d   1       5.343   2.815  -3.628  0.00  0.00     0.007 C 
ENDBRANCH  25  26
ENDBRANCH  24  25
ENDBRANCH   2  24
TORSDOF 6
