REMARK  2 active torsions:
REMARK  status: ('A' for Active; 'I' for Inactive)
REMARK    1  A    between atoms: C_2  and  S_1 
REMARK    2  A    between atoms: N_7  and  S_1 
ROOT
ATOM      1  C   UNL d   1       0.493  -0.469   1.550  0.00  0.00     0.092 A 
ATOM      2  C   UNL d   1       0.619  -1.845   1.815  0.00  0.00     0.045 A 
ATOM      3  C   UNL d   1      -0.023   0.386   2.534  0.00  0.00     0.029 A 
ATOM      4  C   UNL d   1      -0.399  -0.149   3.777  0.00  0.00     0.021 A 
ATOM      5  C   UNL d   1       0.237  -2.357   3.053  0.00  0.00     0.012 A 
ATOM      6  I   UNL d   1      -0.301   2.461   2.342  0.00  0.00    -0.043 I 
ATOM      7  C   UNL d   1      -0.271  -1.516   4.036  0.00  0.00     0.020 A 
ATOM      8 BR   UNL d   1       0.402  -4.207   3.398  0.00  0.00    -0.051 Br
ENDROOT
BRANCH   1   9
ATOM      9  S   UNL d   1       0.969   0.085  -0.062  0.00  0.00     0.240 S 
ATOM     10  O   UNL d   1      -0.121   0.819  -0.658  0.00  0.00    -0.206 OA
ATOM     11  O   UNL d   1       1.621  -1.000  -0.759  0.00  0.00    -0.206 OA
BRANCH   9  12
ATOM     12  N   UNL d   1       2.201   1.182   0.249  0.00  0.00    -0.225 NA
ATOM     13  H   UNL d   1       1.898   2.126   0.006  0.00  0.00     0.136 HD
ATOM     14  H   UNL d   1       3.053   0.887  -0.229  0.00  0.00     0.136 HD
ENDBRANCH   9  12
ENDBRANCH   1   9
TORSDOF 2
