REMARK  5 active torsions:
REMARK  status: ('A' for Active; 'I' for Inactive)
REMARK    1  A    between atoms: N_2  and  C_1 
REMARK    2  A    between atoms: C_3  and  N_2 
REMARK    3  A    between atoms: C_9  and  N_5 
REMARK    4  A    between atoms: O_10  and  C_8 
REMARK    5  A    between atoms: C_11  and  C_9 
ROOT
ATOM      1  C   UNL d   1       1.216   0.436  -0.264  0.00  0.00     0.172 C 
ATOM      2  S   UNL d   1       0.509   0.643   1.235  0.00  0.00    -0.041 SA
ATOM      3  N   UNL d   1       2.467   0.914  -0.463  0.00  0.00    -0.363 N 
ATOM      4  H   UNL d   1       2.886   1.291   0.377  0.00  0.00     0.162 HD
ENDROOT
BRANCH   1   5
ATOM      5  N   UNL d   1       0.510  -0.131  -1.267  0.00  0.00    -0.331 N 
ATOM      6  H   UNL d   1      -0.491  -0.180  -1.101  0.00  0.00     0.168 HD
BRANCH   5   7
ATOM      7  C   UNL d   1       0.954  -1.092  -2.207  0.00  0.00     0.068 A 
ATOM      8  C   UNL d   1       0.142  -1.433  -3.304  0.00  0.00     0.095 A 
ATOM      9  C   UNL d   1       0.522  -2.489  -4.143  0.00  0.00     0.039 A 
ATOM     10  C   UNL d   1       1.698  -3.202  -3.907  0.00  0.00     0.003 A 
ATOM     11  C   UNL d   1       2.505  -2.866  -2.826  0.00  0.00     0.002 A 
ATOM     12  C   UNL d   1       2.137  -1.815  -1.984  0.00  0.00     0.032 A 
BRANCH   8  13
ATOM     13  O   UNL d   1      -1.065  -0.865  -3.620  0.00  0.00    -0.354 OA
ATOM     14  C   UNL d   1      -1.122   0.559  -3.580  0.00  0.00     0.210 C 
ENDBRANCH   8  13
ENDBRANCH   5   7
ENDBRANCH   1   5
BRANCH   3  15
ATOM     15  C   UNL d   1       3.015   1.431  -1.712  0.00  0.00     0.160 C 
BRANCH  15  16
ATOM     16  C   UNL d   1       2.725   2.896  -1.948  0.00  0.00    -0.038 A 
ATOM     17  C   UNL d   1       2.566   3.821  -0.911  0.00  0.00     0.025 A 
ATOM     18  C   UNL d   1       2.368   5.158  -1.225  0.00  0.00     0.088 A 
ATOM     19  N   UNL d   1       2.330   5.639  -2.485  0.00  0.00    -0.375 N 
ATOM     20  C   UNL d   1       2.497   4.740  -3.476  0.00  0.00     0.088 A 
ATOM     21  HN  UNL d   1       2.183   6.630  -2.678  1.00  0.00     0.164 HD
ATOM     22  C   UNL d   1       2.696   3.383  -3.262  0.00  0.00     0.025 A 
ENDBRANCH  15  16
ENDBRANCH   3  15
TORSDOF 5
