REMARK  2 active torsions:
REMARK  status: ('A' for Active; 'I' for Inactive)
REMARK    1  A    between atoms: N_9  and  C_6 
REMARK    2  A    between atoms: N_15  and  N_9 
REMARK       I    between atoms: C_16  and  N_15 
ROOT
ATOM      1  C   UNL d   1       1.147  -1.090   0.118  0.00  0.00     0.074 A 
ATOM      2  S   UNL d   1      -0.201  -2.146   0.262  0.00  0.00    -0.066 SA
ATOM      3  C   UNL d   1       0.739   0.232  -0.029  0.00  0.00     0.067 A 
ATOM      4  C   UNL d   1      -1.306  -0.864   0.129  0.00  0.00     0.087 A 
ATOM      5  C   UNL d   1      -0.690   0.373  -0.007  0.00  0.00     0.026 A 
ATOM      6  C   UNL d   1       2.514  -1.391   0.125  0.00  0.00     0.119 A 
ATOM      7  N   UNL d   1       3.391  -0.368  -0.042  0.00  0.00    -0.341 N 
ATOM      8  HN  UNL d   1       4.396  -0.540  -0.070  1.00  0.00     0.167 HD
ATOM      9  N   UNL d   1       1.623   1.254  -0.171  0.00  0.00    -0.350 N 
ATOM     10  HN  UNL d   1       1.334   2.227  -0.270  1.00  0.00     0.166 HD
ATOM     11  N   UNL d   1      -2.634  -1.103   0.165  0.00  0.00    -0.360 N 
ATOM     12  HN  UNL d   1      -3.026  -2.040   0.260  1.00  0.00     0.166 HD
ATOM     13  C   UNL d   1       2.904   0.876  -0.170  0.00  0.00     0.182 A 
ATOM     14  C   UNL d   1      -1.540   1.497  -0.099  0.00  0.00     0.018 A 
ATOM     15  C   UNL d   1      -3.396   0.004   0.066  0.00  0.00     0.089 A 
ATOM     16  C   UNL d   1      -2.918   1.298  -0.060  0.00  0.00     0.018 A 
ENDROOT
BRANCH   6  17
ATOM     17  N   UNL d   1       2.987  -2.696   0.336  0.00  0.00    -0.186 NA
ATOM     18  H   UNL d   1       2.274  -3.419   0.215  0.00  0.00     0.154 HD
BRANCH  17  19
ATOM     19  N   UNL d   1       4.170  -2.977  -0.362  0.00  0.00    -0.286 N 
ATOM     20  C   UNL d   1       4.446  -4.307  -0.604  0.00  0.00     0.228 C 
ATOM     21  O   UNL d   1       3.646  -5.215  -0.382  0.00  0.00    -0.273 OA
ATOM     22  C   UNL d   1       5.816  -4.563  -1.166  0.00  0.00     0.118 C 
ATOM     23  H   UNL d   1       4.867  -2.237  -0.370  0.00  0.00     0.184 HD
ENDBRANCH  17  19
ENDBRANCH   6  17
TORSDOF 2
