REMARK  7 active torsions:
REMARK  status: ('A' for Active; 'I' for Inactive)
REMARK    1  A    between atoms: C_5  and  C_1 
REMARK    2  A    between atoms: N_8  and  C_2 
REMARK       I    between atoms: C_10  and  N_8 
REMARK    3  A    between atoms: O_23  and  C_9 
REMARK       I    between atoms: N_18  and  C_10 
REMARK    4  A    between atoms: C_11  and  C_12 
REMARK       I    between atoms: C_12  and  N_17 
REMARK    5  A    between atoms: O_24  and  C_13 
REMARK    6  A    between atoms: O_25  and  C_14 
REMARK    7  A    between atoms: N_17  and  N_18 
ROOT
ATOM      1  N   UNL d   1       1.867  -4.086   0.632  0.00  0.00    -0.303 N 
ATOM      2  C   UNL d   1       1.555  -2.896   0.019  0.00  0.00     0.339 C 
ATOM      3  N   UNL d   1       2.663  -2.064  -0.009  0.00  0.00    -0.248 N 
ATOM      4  O   UNL d   1       0.498  -2.602  -0.530  0.00  0.00    -0.245 OA
ATOM      5  H   UNL d   1       2.851  -4.270   0.730  0.00  0.00     0.171 HD
ATOM      6  H   UNL d   1       3.396  -2.117   0.698  0.00  0.00     0.192 HD
ENDROOT
BRANCH   1   7
ATOM      7  C   UNL d   1       1.014  -5.148   0.892  0.00  0.00     0.097 A 
ATOM      8  C   UNL d   1       1.413  -6.516   1.120  0.00  0.00     0.097 A 
ATOM      9  N   UNL d   1       0.334  -7.271   1.377  0.00  0.00    -0.258 N 
ATOM     10  O   UNL d   1      -0.753  -6.434   1.325  0.00  0.00    -0.240 OA
ATOM     11  HN  UNL d   1       0.323  -8.271   1.574  1.00  0.00     0.195 HD
ATOM     12  C   UNL d   1      -0.350  -5.160   1.080  0.00  0.00     0.101 A 
ATOM     13  C   UNL d   1      -1.427  -4.153   1.172  0.00  0.00     0.081 C 
BRANCH   8  14
ATOM     14  C   UNL d   1       2.753  -7.124   1.097  0.00  0.00     0.038 A 
ATOM     15  C   UNL d   1       3.823  -6.594   1.848  0.00  0.00     0.048 A 
ATOM     16 CL   UNL d   1       3.678  -5.204   2.875  0.00  0.00    -0.083 Cl
ATOM     17  C   UNL d   1       5.092  -7.194   1.833  0.00  0.00     0.025 A 
ATOM     18  C   UNL d   1       5.313  -8.359   1.109  0.00  0.00     0.003 A 
ATOM     19  C   UNL d   1       4.271  -8.911   0.373  0.00  0.00     0.025 A 
ATOM     20  C   UNL d   1       3.010  -8.294   0.347  0.00  0.00     0.048 A 
ATOM     21 CL   UNL d   1       1.838  -9.040  -0.692  0.00  0.00    -0.083 Cl
ENDBRANCH   8  14
ENDBRANCH   1   7
BRANCH   3  22
ATOM     22  N   UNL d   1       2.601  -0.860  -0.715  0.00  0.00    -0.262 N 
ATOM     23  C   UNL d   1       3.744  -0.079  -0.717  0.00  0.00     0.270 C 
ATOM     24  O   UNL d   1       4.690  -0.322   0.024  0.00  0.00    -0.266 OA
ATOM     25  H   UNL d   1       1.803  -0.756  -1.333  0.00  0.00     0.190 HD
BRANCH  23  26
ATOM     26  C   UNL d   1       3.813   1.064  -1.677  0.00  0.00     0.039 A 
ATOM     27  C   UNL d   1       2.855   1.290  -2.671  0.00  0.00     0.057 A 
ATOM     28  C   UNL d   1       2.972   2.377  -3.557  0.00  0.00     0.105 A 
ATOM     29  C   UNL d   1       4.081   3.244  -3.484  0.00  0.00     0.135 A 
ATOM     30  C   UNL d   1       5.071   2.974  -2.514  0.00  0.00     0.105 A 
ATOM     31  C   UNL d   1       4.915   1.915  -1.610  0.00  0.00     0.057 A 
BRANCH  28  32
ATOM     32  O   UNL d   1       2.042   2.533  -4.557  0.00  0.00    -0.353 OA
ATOM     33  C   UNL d   1       0.684   2.400  -4.131  0.00  0.00     0.210 C 
ENDBRANCH  28  32
BRANCH  29  34
ATOM     34  O   UNL d   1       4.298   4.367  -4.234  0.00  0.00    -0.351 OA
ATOM     35  C   UNL d   1       3.335   4.832  -5.163  0.00  0.00     0.210 C 
ENDBRANCH  29  34
BRANCH  30  36
ATOM     36  O   UNL d   1       6.214   3.703  -2.294  0.00  0.00    -0.353 OA
ATOM     37  C   UNL d   1       6.891   4.196  -3.448  0.00  0.00     0.210 C 
ENDBRANCH  30  36
ENDBRANCH  23  26
ENDBRANCH   3  22
TORSDOF 7
