REMARK  4 active torsions:
REMARK  status: ('A' for Active; 'I' for Inactive)
REMARK    1  A    between atoms: O_2  and  C_1 
REMARK    2  A    between atoms: C_7  and  O_2 
REMARK    3  A    between atoms: O_10  and  C_6 
REMARK    4  A    between atoms: C_11  and  C_7 
ROOT
ATOM      1  C   UNL d   1       1.290   0.571   0.010  0.00  0.00     0.124 A 
ATOM      2  C   UNL d   1       1.129  -0.818   0.029  0.00  0.00     0.041 A 
ATOM      3  N   UNL d   1      -0.112  -1.395   0.086  0.00  0.00    -0.367 N 
ATOM      4  HN  UNL d   1      -0.207  -2.411   0.080  1.00  0.00     0.165 HD
ATOM      5  C   UNL d   1       0.109   1.333   0.094  0.00  0.00     0.102 A 
ATOM      6  C   UNL d   1      -1.206  -0.609   0.151  0.00  0.00     0.091 A 
ATOM      7  C   UNL d   1      -1.149   0.762   0.166  0.00  0.00     0.056 A 
ATOM      8  C   UNL d   1       2.195  -1.865  -0.069  0.00  0.00     0.071 C 
ENDROOT
BRANCH   1   9
ATOM      9  O   UNL d   1       2.401   1.369  -0.076  0.00  0.00    -0.342 OA
BRANCH   9  10
ATOM     10  C   UNL d   1       3.687   0.780  -0.206  0.00  0.00     0.214 C 
BRANCH  10  11
ATOM     11  C   UNL d   1       4.777   1.821  -0.359  0.00  0.00    -0.034 A 
ATOM     12  C   UNL d   1       4.713   3.069   0.277  0.00  0.00     0.009 A 
ATOM     13  C   UNL d   1       5.786   3.962   0.199  0.00  0.00     0.001 A 
ATOM     14  C   UNL d   1       6.939   3.609  -0.502  0.00  0.00     0.000 A 
ATOM     15  C   UNL d   1       7.019   2.376  -1.133  0.00  0.00     0.001 A 
ATOM     16  C   UNL d   1       5.948   1.483  -1.057  0.00  0.00     0.009 A 
ENDBRANCH  10  11
ENDBRANCH   9  10
ENDBRANCH   1   9
BRANCH   5  17
ATOM     17  O   UNL d   1       0.171   2.706   0.101  0.00  0.00    -0.358 OA
ATOM     18  H   UNL d   1       1.121   2.918   0.013  0.00  0.00     0.217 HD
ENDBRANCH   5  17
TORSDOF 4
