REMARK  2 active torsions:
REMARK  status: ('A' for Active; 'I' for Inactive)
REMARK       I    between atoms: C_2  and  N_1 
REMARK    1  A    between atoms: C_4  and  C_2 
REMARK    2  A    between atoms: S_9  and  C_3 
ROOT
ATOM      1  N   UNL d   1       0.632   1.111  -0.045  0.00  0.00    -0.294 N 
ATOM      2  C   UNL d   1       1.335   2.261   0.383  0.00  0.00     0.261 C 
ATOM      3  C   UNL d   1      -0.733   1.101  -0.363  0.00  0.00     0.144 C 
ATOM      4  N   UNL d   1      -1.468   0.043  -0.411  0.00  0.00    -0.370 N 
ATOM      5  HN  UNL d   1      -2.446   0.102  -0.694  1.00  0.00     0.161 HD
ATOM      6  O   UNL d   1       0.830   3.282   0.844  0.00  0.00    -0.267 OA
ATOM      7  C   UNL d   1       1.321  -0.181  -0.078  0.00  0.00     0.136 C 
ATOM      8  C   UNL d   1      -0.874  -1.233  -0.056  0.00  0.00     0.123 C 
ATOM      9  C   UNL d   1       0.503  -1.312  -0.663  0.00  0.00     0.040 C 
ENDROOT
BRANCH   2  10
ATOM     10  C   UNL d   1       2.816   2.219   0.437  0.00  0.00     0.049 A 
ATOM     11  C   UNL d   1       3.615   2.916  -0.479  0.00  0.00     0.022 A 
ATOM     12  I   UNL d   1       2.834   4.051  -2.054  0.00  0.00    -0.043 I 
ATOM     13  C   UNL d   1       5.010   2.863  -0.357  0.00  0.00     0.019 A 
ATOM     14  C   UNL d   1       5.602   2.120   0.668  0.00  0.00     0.001 A 
ATOM     15  C   UNL d   1       4.807   1.450   1.595  0.00  0.00     0.001 A 
ATOM     16  C   UNL d   1       3.418   1.522   1.496  0.00  0.00     0.018 A 
ENDBRANCH   2  10
BRANCH   3  17
ATOM     17  S   UNL d   1      -1.486   2.610  -0.862  0.00  0.00    -0.098 SA
ATOM     18  C   UNL d   1      -3.228   2.225  -0.592  0.00  0.00     0.099 C 
ENDBRANCH   3  17
TORSDOF 2
