REMARK  3 active torsions:
REMARK  status: ('A' for Active; 'I' for Inactive)
REMARK    1  A    between atoms: C_4  and  C_1 
REMARK       I    between atoms: N_7  and  C_4 
REMARK    2  A    between atoms: N_8  and  N_7 
REMARK    3  A    between atoms: C_9  and  N_8 
ROOT
ATOM      1  C   UNL d   1       3.941  -0.111   0.043  0.00  0.00     0.274 C 
ATOM      2  N   UNL d   1       4.554  -1.344   0.241  0.00  0.00    -0.282 N 
ATOM      3  O   UNL d   1       4.640   0.894  -0.121  0.00  0.00    -0.266 OA
ATOM      4  H   UNL d   1       4.028  -2.105   0.662  0.00  0.00     0.184 HD
ENDROOT
BRANCH   1   5
ATOM      5  C   UNL d   1       2.482  -0.097   0.072  0.00  0.00     0.097 A 
ATOM      6  S   UNL d   1       1.709   1.436   0.061  0.00  0.00    -0.082 SA
ATOM      7  C   UNL d   1       0.134   0.759   0.064  0.00  0.00     0.017 A 
ATOM      8  C   UNL d   1      -1.084   1.466   0.042  0.00  0.00     0.020 A 
ATOM      9  C   UNL d   1       0.178  -0.636   0.084  0.00  0.00     0.004 A 
ATOM     10  C   UNL d   1      -2.283   0.754   0.026  0.00  0.00     0.001 A 
ATOM     11  C   UNL d   1      -2.274  -0.633   0.038  0.00  0.00     0.001 A 
ATOM     12  C   UNL d   1      -1.062  -1.330   0.073  0.00  0.00     0.014 A 
ATOM     13  C   UNL d   1       1.543  -1.112   0.109  0.00  0.00     0.068 A 
ATOM     14 CL   UNL d   1       1.883  -2.801   0.153  0.00  0.00    -0.082 Cl
ENDBRANCH   1   5
BRANCH   2  15
ATOM     15  N   UNL d   1       5.928  -1.321   0.547  0.00  0.00    -0.203 NA
ATOM     16  H   UNL d   1       6.320  -0.375   0.430  0.00  0.00     0.153 HD
BRANCH  15  17
ATOM     17  C   UNL d   1       6.726  -2.297  -0.099  0.00  0.00     0.030 A 
ATOM     18  C   UNL d   1       6.205  -3.442  -0.720  0.00  0.00     0.049 A 
ATOM     19  C   UNL d   1       7.060  -4.421  -1.234  0.00  0.00     0.037 A 
ATOM     20 CL   UNL d   1       6.392  -5.809  -2.004  0.00  0.00    -0.084 Cl
ATOM     21  C   UNL d   1       8.440  -4.299  -1.119  0.00  0.00     0.047 A 
ATOM     22  C   UNL d   1       8.965  -3.180  -0.484  0.00  0.00     0.037 A 
ATOM     23  C   UNL d   1       8.122  -2.190   0.023  0.00  0.00     0.049 A 
ATOM     24 CL   UNL d   1      10.669  -3.023  -0.303  0.00  0.00    -0.084 Cl
ENDBRANCH  15  17
ENDBRANCH   2  15
TORSDOF 3
