REMARK  3 active torsions:
REMARK  status: ('A' for Active; 'I' for Inactive)
REMARK       I    between atoms: N_2  and  C_1 
REMARK    1  A    between atoms: C_5  and  C_1 
REMARK    2  A    between atoms: C_15  and  N_3 
REMARK    3  A    between atoms: C_14  and  C_15 
ROOT
ATOM      1  C   UNL d   1       0.923   0.009  -0.197  0.00  0.00     0.253 C 
ATOM      2  N   UNL d   1       0.331   1.128   0.406  0.00  0.00    -0.345 N 
ATOM      3  N   UNL d   1      -0.644   3.597   1.729  0.00  0.00     0.095 N 
ATOM      4  O   UNL d   1       1.947   0.086  -0.870  0.00  0.00    -0.267 OA
ATOM      5  C   UNL d   1       0.832   2.450   0.006  0.00  0.00     0.156 C 
ATOM      6  C   UNL d   1      -0.912   1.129   1.188  0.00  0.00     0.156 C 
ATOM      7  C   UNL d   1       0.705   3.496   1.127  0.00  0.00     0.292 C 
ATOM      8  C   UNL d   1      -1.007   2.258   2.232  0.00  0.00     0.292 C 
ENDROOT
BRANCH   3   9
ATOM      9  C   UNL d   1      -1.670   4.091   0.794  0.00  0.00     0.311 C 
BRANCH   9  10
ATOM     10  C   UNL d   1      -1.400   5.477   0.251  0.00  0.00    -0.027 A 
ATOM     11  C   UNL d   1      -1.284   5.673  -1.136  0.00  0.00     0.048 A 
ATOM     12  C   UNL d   1      -1.051   6.954  -1.591  0.00  0.00     0.105 A 
ATOM     13  O   UNL d   1      -0.914   7.315  -2.894  0.00  0.00    -0.323 OA
ATOM     14  C   UNL d   1      -0.935   8.018  -0.732  0.00  0.00     0.105 A 
ATOM     15  C   UNL d   1      -0.690   8.733  -2.756  0.00  0.00     0.352 A 
ATOM     16  O   UNL d   1      -0.710   9.189  -1.388  0.00  0.00    -0.323 OA
ATOM     17  C   UNL d   1      -1.044   7.868   0.633  0.00  0.00     0.040 A 
ATOM     18  C   UNL d   1      -1.280   6.580   1.126  0.00  0.00     0.012 A 
ENDBRANCH   9  10
ENDBRANCH   3   9
BRANCH   1  19
ATOM     19  C   UNL d   1       0.342  -1.353  -0.004  0.00  0.00     0.032 A 
ATOM     20  C   UNL d   1      -1.032  -1.605  -0.071  0.00  0.00     0.018 A 
ATOM     21  C   UNL d   1      -1.533  -2.879   0.205  0.00  0.00     0.025 A 
ATOM     22  C   UNL d   1      -0.652  -3.928   0.456  0.00  0.00     0.034 A 
ATOM     23  C   UNL d   1       0.725  -3.713   0.428  0.00  0.00     0.025 A 
ATOM     24 CL   UNL d   1      -1.273  -5.497   0.786  0.00  0.00    -0.084 Cl
ATOM     25  C   UNL d   1       1.222  -2.425   0.204  0.00  0.00     0.018 A 
ENDBRANCH   1  19
TORSDOF 3
