REMARK  8 active torsions:
REMARK  status: ('A' for Active; 'I' for Inactive)
REMARK       I    between atoms: N_2  and  C_1 
REMARK       I    between atoms: N_4  and  C_1 
REMARK    1  A    between atoms: C_3  and  N_2 
REMARK    2  A    between atoms: C_14  and  N_4 
REMARK    3  A    between atoms: O_10  and  C_15 
REMARK    4  A    between atoms: C_13  and  O_10 
REMARK    5  A    between atoms: C_12  and  C_14 
REMARK    6  A    between atoms: C_15  and  C_12 
REMARK    7  A    between atoms: O_21  and  C_12 
REMARK    8  A    between atoms: O_22  and  C_16 
ROOT
ATOM      1  C   UNL d   1       1.005   0.406   0.011  0.00  0.00     0.320 C 
ATOM      2  N   UNL d   1       2.352   0.180   0.212  0.00  0.00    -0.309 N 
ATOM      3  N   UNL d   1       0.290   0.365   1.181  0.00  0.00    -0.340 N 
ATOM      4  O   UNL d   1       0.448   0.614  -1.057  0.00  0.00    -0.247 OA
ATOM      5  H   UNL d   1       2.608  -0.256   1.084  0.00  0.00     0.170 HD
ATOM      6  H   UNL d   1       0.758   0.264   2.072  0.00  0.00     0.164 HD
ENDROOT
BRANCH   3   7
ATOM      7  C   UNL d   1      -1.157   0.517   1.198  0.00  0.00     0.158 C 
BRANCH   7   8
ATOM      8  C   UNL d   1      -1.619   1.067   2.550  0.00  0.00     0.160 C 
BRANCH   8   9
ATOM      9  C   UNL d   1      -3.147   1.177   2.617  0.00  0.00     0.209 C 
BRANCH   9  10
ATOM     10  O   UNL d   1      -3.526   1.725   3.886  0.00  0.00    -0.349 OA
BRANCH  10  11
ATOM     11  C   UNL d   1      -4.869   1.832   4.130  0.00  0.00     0.069 A 
ATOM     12  C   UNL d   1      -5.880   1.549   3.212  0.00  0.00     0.039 A 
ATOM     13  C   UNL d   1      -7.225   1.690   3.572  0.00  0.00     0.039 A 
ATOM     14  C   UNL d   1      -7.574   2.119   4.851  0.00  0.00     0.068 A 
ATOM     15  C   UNL d   1      -6.562   2.408   5.768  0.00  0.00     0.039 A 
ATOM     16  C   UNL d   1      -5.217   2.266   5.409  0.00  0.00     0.039 A 
BRANCH  14  17
ATOM     17  O   UNL d   1      -8.850   2.296   5.309  0.00  0.00    -0.356 OA
ATOM     18  C   UNL d   1      -9.899   1.999   4.394  0.00  0.00     0.210 C 
ENDBRANCH  14  17
ENDBRANCH  10  11
ENDBRANCH   9  10
ENDBRANCH   8   9
BRANCH   8  19
ATOM     19  O   UNL d   1      -1.109   0.201   3.582  0.00  0.00    -0.392 OA
ATOM     20  H   UNL d   1      -1.600  -0.639   3.532  0.00  0.00     0.210 HD
ENDBRANCH   8  19
ENDBRANCH   7   8
ENDBRANCH   3   7
BRANCH   2  21
ATOM     21  C   UNL d   1       3.352   0.266  -0.783  0.00  0.00     0.037 A 
ATOM     22  C   UNL d   1       3.141   0.941  -1.989  0.00  0.00     0.036 A 
ATOM     23  C   UNL d   1       4.128   0.997  -2.976  0.00  0.00    -0.059 A 
ATOM     24  C   UNL d   1       3.863   1.728  -4.257  0.00  0.00     0.048 C 
ATOM     25  C   UNL d   1       5.350   0.358  -2.753  0.00  0.00     0.013 A 
ATOM     26  C   UNL d   1       5.596  -0.307  -1.543  0.00  0.00    -0.059 A 
ATOM     27  C   UNL d   1       4.599  -0.331  -0.554  0.00  0.00     0.036 A 
ATOM     28  C   UNL d   1       6.917  -0.993  -1.343  0.00  0.00     0.048 C 
ENDBRANCH   2  21
TORSDOF 8
