REMARK  3 active torsions:
REMARK  status: ('A' for Active; 'I' for Inactive)
REMARK       I    between atoms: C_5  and  N_1 
REMARK    1  A    between atoms: C_12  and  C_5 
REMARK    2  A    between atoms: C_10  and  N_7 
REMARK    3  A    between atoms: N_9  and  C_11 
ROOT
ATOM      1  N   UNL d   1       0.985   0.494   0.166  0.00  0.00    -0.280 N 
ATOM      2  C   UNL d   1       0.566  -0.846   0.297  0.00  0.00     0.155 C 
ATOM      3  S   UNL d   1      -1.182  -0.846   0.500  0.00  0.00    -0.057 SA
ATOM      4  C   UNL d   1       0.043   1.195  -0.773  0.00  0.00     0.068 C 
ATOM      5  C   UNL d   1       2.303   0.831   0.471  0.00  0.00     0.260 C 
ATOM      6  C   UNL d   1      -1.333   0.660  -0.348  0.00  0.00     0.005 C 
ATOM      7  N   UNL d   1       1.331  -1.877   0.164  0.00  0.00    -0.335 N 
ATOM      8  HN  UNL d   1       2.337  -1.726   0.092  1.00  0.00     0.168 HD
ATOM      9  O   UNL d   1       3.216   0.030   0.661  0.00  0.00    -0.267 OA
ATOM     10  C   UNL d   1      -2.543   1.222  -0.494  0.00  0.00     0.029 C 
ATOM     11  C   UNL d   1       0.023   2.729  -0.830  0.00  0.00     0.044 C 
ATOM     12  C   UNL d   1       0.363   0.722  -2.216  0.00  0.00     0.044 C 
ENDROOT
BRANCH   5  13
ATOM     13  C   UNL d   1       2.704   2.249   0.684  0.00  0.00     0.032 C 
ATOM     14  C   UNL d   1       1.918   3.150   1.413  0.00  0.00     0.019 C 
ATOM     15  C   UNL d   1       2.300   4.494   1.520  0.00  0.00     0.037 C 
ATOM     16  C   UNL d   1       3.529   4.908   0.988  0.00  0.00     0.102 C 
ATOM     17  C   UNL d   1       4.388   3.985   0.383  0.00  0.00     0.037 C 
ATOM     18  C   UNL d   1       3.969   2.659   0.230  0.00  0.00     0.019 C 
BRANCH  16  19
ATOM     19  N   UNL d   1       3.911   6.324   1.053  0.00  0.00    -0.116 N 
ATOM     20  O   UNL d   1       3.023   7.144   1.324  0.00  0.00    -0.532 OA
ATOM     21  O   UNL d   1       5.091   6.615   0.811  0.00  0.00    -0.532 OA
ENDBRANCH  16  19
ENDBRANCH   5  13
BRANCH   7  22
ATOM     22  C   UNL d   1       0.851  -3.200   0.113  0.00  0.00     0.056 A 
ATOM     23  C   UNL d   1       1.419  -4.220   0.898  0.00  0.00     0.060 A 
ATOM     24 CL   UNL d   1       2.727  -3.891   1.983  0.00  0.00    -0.082 Cl
ATOM     25  C   UNL d   1       0.965  -5.544   0.810  0.00  0.00     0.026 A 
ATOM     26  C   UNL d   1      -0.068  -5.877  -0.064  0.00  0.00     0.002 A 
ATOM     27  C   UNL d   1      -0.618  -4.899  -0.881  0.00  0.00     0.002 A 
ATOM     28  C   UNL d   1      -0.136  -3.586  -0.819  0.00  0.00     0.031 A 
ENDBRANCH   7  22
TORSDOF 3
