REMARK  2 active torsions:
REMARK  status: ('A' for Active; 'I' for Inactive)
REMARK    1  A    between atoms: C_5  and  N_1 
REMARK    2  A    between atoms: N_2  and  C_6 
ROOT
ATOM      1  N   UNL d   1       1.509   1.185  -0.190  0.00  0.00    -0.346 N 
ATOM      2  C   UNL d   1       0.203   0.674  -0.042  0.00  0.00     0.041 A 
ATOM      3  C   UNL d   1       2.410   0.044   0.066  0.00  0.00     0.134 C 
ATOM      4  C   UNL d   1       0.188  -0.722   0.021  0.00  0.00    -0.030 A 
ATOM      5  C   UNL d   1       1.580  -1.244  -0.096  0.00  0.00     0.061 C 
ATOM      6  C   UNL d   1      -0.994   1.374  -0.049  0.00  0.00     0.030 A 
ATOM      7  C   UNL d   1      -0.996  -1.440   0.084  0.00  0.00     0.009 A 
ATOM      8  C   UNL d   1      -2.197   0.668   0.036  0.00  0.00     0.002 A 
ATOM      9  C   UNL d   1      -2.197  -0.732   0.099  0.00  0.00     0.001 A 
ENDROOT
BRANCH   1  10
ATOM     10  C   UNL d   1       2.008   2.485  -0.133  0.00  0.00     0.035 A 
ATOM     11  C   UNL d   1       1.429   3.474   0.677  0.00  0.00     0.032 A 
ATOM     12  C   UNL d   1       1.884   4.797   0.652  0.00  0.00     0.038 A 
ATOM     13  C   UNL d   1       2.939   5.144  -0.195  0.00  0.00     0.103 A 
ATOM     14  C   UNL d   1       3.554   4.173  -0.992  0.00  0.00     0.038 A 
ATOM     15  C   UNL d   1       3.091   2.856  -0.948  0.00  0.00     0.032 A 
BRANCH  13  16
ATOM     16  N   UNL d   1       3.396   6.536  -0.263  0.00  0.00    -0.116 N 
ATOM     17  O   UNL d   1       4.326   6.801  -1.036  0.00  0.00    -0.532 OA
ATOM     18  O   UNL d   1       2.821   7.367   0.457  0.00  0.00    -0.532 OA
ENDBRANCH  13  16
ENDBRANCH   1  10
TORSDOF 2
