REMARK  5 active torsions:
REMARK  status: ('A' for Active; 'I' for Inactive)
REMARK    1  A    between atoms: C_8  and  S_1 
REMARK    2  A    between atoms: N_9  and  S_1 
REMARK    3  A    between atoms: C_2  and  C_10 
REMARK    4  A    between atoms: C_16  and  C_5 
REMARK    5  A    between atoms: C_10  and  N_9 
ROOT
ATOM      1  N   UNL d   1       0.300   1.496   0.022  0.00  0.00    -0.311 N 
ATOM      2  H   UNL d   1       0.675   1.413  -0.919  0.00  0.00     0.172 HD
ENDROOT
BRANCH   1   3
ATOM      3  S   UNL d   1      -1.322   1.108   0.137  0.00  0.00     0.259 S 
ATOM      4  O   UNL d   1      -2.051   2.202   0.729  0.00  0.00    -0.201 OA
ATOM      5  O   UNL d   1      -1.681   0.572  -1.161  0.00  0.00    -0.201 OA
BRANCH   3   6
ATOM      6  C   UNL d   1      -1.322  -0.237   1.291  0.00  0.00     0.080 A 
ATOM      7  C   UNL d   1      -1.294  -1.549   0.804  0.00  0.00     0.035 A 
ATOM      8  C   UNL d   1      -1.388  -2.573   1.726  0.00  0.00    -0.021 A 
ATOM      9  C   UNL d   1      -1.355  -4.035   1.510  0.00  0.00     0.068 C 
ATOM     10  C   UNL d   1      -1.492  -2.308   3.083  0.00  0.00     0.075 A 
ATOM     11  C   UNL d   1      -1.814  -4.492   2.896  0.00  0.00     0.180 C 
ATOM     12  O   UNL d   1      -1.566  -3.437   3.855  0.00  0.00    -0.350 OA
ATOM     13  C   UNL d   1      -1.516  -1.020   3.582  0.00  0.00     0.039 A 
ATOM     14  C   UNL d   1      -1.445   0.034   2.669  0.00  0.00     0.028 A 
ENDBRANCH   3   6
ENDBRANCH   1   3
BRANCH   1  15
ATOM     15  C   UNL d   1       0.901   2.460   0.934  0.00  0.00     0.176 C 
BRANCH  15  16
ATOM     16  C   UNL d   1       0.465   3.857   0.659  0.00  0.00     0.021 A 
ATOM     17  C   UNL d   1       0.339   4.933   1.604  0.00  0.00     0.075 A 
ATOM     18  N   UNL d   1      -0.149   6.028   1.000  0.00  0.00    -0.260 N 
ATOM     19  O   UNL d   1      -0.311   5.710  -0.323  0.00  0.00    -0.242 OA
ATOM     20  HN  UNL d   1      -0.360   6.924   1.441  1.00  0.00     0.195 HD
ATOM     21  C   UNL d   1       0.073   4.429  -0.538  0.00  0.00     0.083 A 
ATOM     22  C   UNL d   1      -0.032   3.965  -1.936  0.00  0.00     0.079 C 
BRANCH  17  23
ATOM     23  C   UNL d   1       0.675   4.981   3.031  0.00  0.00    -0.007 A 
ATOM     24  C   UNL d   1      -0.095   5.763   3.909  0.00  0.00     0.014 A 
ATOM     25  C   UNL d   1       0.251   5.876   5.258  0.00  0.00     0.001 A 
ATOM     26  C   UNL d   1       1.366   5.204   5.750  0.00  0.00     0.000 A 
ATOM     27  C   UNL d   1       2.137   4.421   4.894  0.00  0.00     0.001 A 
ATOM     28  C   UNL d   1       1.799   4.316   3.541  0.00  0.00     0.014 A 
ENDBRANCH  17  23
ENDBRANCH  15  16
ENDBRANCH   1  15
TORSDOF 5
