REMARK  5 active torsions:
REMARK  status: ('A' for Active; 'I' for Inactive)
REMARK    1  A    between atoms: C_5  and  C_1 
REMARK    2  A    between atoms: C_6  and  C_2 
REMARK       I    between atoms: N_7  and  C_5 
REMARK    3  A    between atoms: C_10  and  C_16 
REMARK    4  A    between atoms: O_22  and  C_10 
REMARK    5  A    between atoms: C_27  and  O_22 
ROOT
ATOM      1  C   UNL d   1       0.074  -1.739  -1.128  0.00  0.00     0.093 C 
ATOM      2  C   UNL d   1       1.139  -0.984  -1.757  0.00  0.00     0.088 C 
ATOM      3  N   UNL d   1       0.662  -0.342  -2.832  0.00  0.00    -0.259 N 
ATOM      4  HN  UNL d   1       1.208   0.174  -3.521  1.00  0.00     0.195 HD
ATOM      5  O   UNL d   1      -0.693  -0.508  -2.833  0.00  0.00    -0.241 OA
ATOM      6  C   UNL d   1      -1.061  -1.304  -1.802  0.00  0.00     0.090 C 
ATOM      7  C   UNL d   1      -2.524  -1.486  -1.683  0.00  0.00     0.080 C 
ENDROOT
BRANCH   1   8
ATOM      8  C   UNL d   1       0.151  -2.627   0.028  0.00  0.00     0.258 C 
ATOM      9  N   UNL d   1      -0.495  -3.887  -0.010  0.00  0.00    -0.348 N 
ATOM     10  C   UNL d   1      -0.575  -4.662   1.229  0.00  0.00     0.127 C 
ATOM     11  C   UNL d   1      -1.407  -4.299  -1.069  0.00  0.00     0.127 C 
ATOM     12  C   UNL d   1      -0.571  -6.171   0.969  0.00  0.00     0.034 C 
ATOM     13  C   UNL d   1      -1.657  -6.593  -0.030  0.00  0.00     0.088 C 
ATOM     14  C   UNL d   1      -1.465  -5.799  -1.319  0.00  0.00     0.034 C 
ATOM     15  O   UNL d   1       0.820  -2.292   1.008  0.00  0.00    -0.267 OA
BRANCH  13  16
ATOM     16  C   UNL d   1      -3.057  -6.412   0.549  0.00  0.00     0.263 C 
ATOM     17  O   UNL d   1      -3.943  -5.721   0.056  0.00  0.00    -0.265 OA
BRANCH  16  18
ATOM     18  O   UNL d   1      -3.166  -7.118   1.709  0.00  0.00    -0.322 OA
BRANCH  18  19
ATOM     19  C   UNL d   1      -4.293  -6.812   2.544  0.00  0.00     0.174 C 
ATOM     20  C   UNL d   1      -5.291  -7.952   2.539  0.00  0.00     0.034 C 
ENDBRANCH  18  19
ENDBRANCH  16  18
ENDBRANCH  13  16
ENDBRANCH   1   8
BRANCH   2  21
ATOM     21  C   UNL d   1       2.567  -0.865  -1.418  0.00  0.00     0.054 A 
ATOM     22  C   UNL d   1       3.289  -1.977  -0.990  0.00  0.00     0.130 A 
ATOM     23  F   UNL d   1       2.715  -3.196  -0.964  0.00  0.00    -0.205 F 
ATOM     24  C   UNL d   1       4.630  -1.902  -0.609  0.00  0.00     0.043 A 
ATOM     25  C   UNL d   1       5.307  -0.689  -0.689  0.00  0.00     0.005 A 
ATOM     26  C   UNL d   1       4.636   0.429  -1.161  0.00  0.00     0.025 A 
ATOM     27  C   UNL d   1       3.277   0.357  -1.517  0.00  0.00     0.049 A 
ATOM     28 CL   UNL d   1       2.573   1.852  -2.041  0.00  0.00    -0.083 Cl
ENDBRANCH   2  21
TORSDOF 5
