REMARK  5 active torsions:
REMARK  status: ('A' for Active; 'I' for Inactive)
REMARK    1  A    between atoms: C_7  and  C_1 
REMARK       I    between atoms: C_2  and  N_4 
REMARK    2  A    between atoms: C_5  and  C_2 
REMARK    3  A    between atoms: N_4  and  C_3 
REMARK    4  A    between atoms: C_6  and  C_8 
REMARK    5  A    between atoms: C_13  and  C_7 
ROOT
ATOM      1  C   UNL d   1       1.774   1.330  -0.223  0.00  0.00     0.043 A 
ATOM      2  C   UNL d   1       2.511   0.125  -0.205  0.00  0.00     0.051 A 
ATOM      3  C   UNL d   1       1.805  -1.100  -0.189  0.00  0.00     0.032 A 
ATOM      4  C   UNL d   1       0.367   1.267  -0.110  0.00  0.00     0.041 A 
ATOM      5  C   UNL d   1      -0.300   0.045  -0.073  0.00  0.00     0.035 A 
ATOM      6  C   UNL d   1       0.409  -1.141  -0.132  0.00  0.00     0.026 A 
ATOM      7 CL   UNL d   1      -2.015   0.011   0.046  0.00  0.00    -0.084 Cl
ENDROOT
BRANCH   2   8
ATOM      8  N   UNL d   1       3.932   0.015  -0.133  0.00  0.00    -0.317 N 
ATOM      9  C   UNL d   1       4.722   0.363   0.984  0.00  0.00     0.258 C 
ATOM     10  O   UNL d   1       5.891  -0.007   1.117  0.00  0.00    -0.267 OA
ATOM     11  C   UNL d   1       4.586  -0.692  -1.232  0.00  0.00     0.159 C 
BRANCH   9  12
ATOM     12  C   UNL d   1       4.180   1.173   2.105  0.00  0.00     0.047 A 
ATOM     13  C   UNL d   1       4.871   2.315   2.555  0.00  0.00     0.063 A 
ATOM     14  C   UNL d   1       4.317   3.058   3.620  0.00  0.00     0.017 A 
ATOM     15  C   UNL d   1       3.110   2.688   4.210  0.00  0.00     0.001 A 
ATOM     16  C   UNL d   1       2.456   1.539   3.783  0.00  0.00     0.001 A 
ATOM     17  C   UNL d   1       3.004   0.768   2.757  0.00  0.00     0.018 A 
BRANCH  13  18
ATOM     18  C   UNL d   1       6.200   2.774   1.996  0.00  0.00     0.418 C 
ATOM     19  F   UNL d   1       6.491   2.424   0.717  0.00  0.00    -0.166 F 
ATOM     20  F   UNL d   1       6.302   4.141   2.011  0.00  0.00    -0.166 F 
ATOM     21  F   UNL d   1       7.244   2.347   2.765  0.00  0.00    -0.166 F 
ENDBRANCH  13  18
ENDBRANCH   9  12
ENDBRANCH   2   8
BRANCH   1  22
ATOM     22  C   UNL d   1       2.409   2.680  -0.397  0.00  0.00     0.194 C 
ATOM     23  O   UNL d   1       3.608   2.879  -0.229  0.00  0.00    -0.287 OA
BRANCH  22  24
ATOM     24  C   UNL d   1       1.582   3.847  -0.782  0.00  0.00     0.015 A 
ATOM     25  C   UNL d   1       0.844   3.834  -1.973  0.00  0.00     0.015 A 
ATOM     26  C   UNL d   1       0.011   4.910  -2.280  0.00  0.00     0.001 A 
ATOM     27  C   UNL d   1      -0.070   6.000  -1.411  0.00  0.00     0.000 A 
ATOM     28  C   UNL d   1       0.690   6.024  -0.240  0.00  0.00     0.001 A 
ATOM     29  C   UNL d   1       1.524   4.949   0.076  0.00  0.00     0.015 A 
ENDBRANCH  22  24
ENDBRANCH   1  22
TORSDOF 5
