REMARK  7 active torsions:
REMARK  status: ('A' for Active; 'I' for Inactive)
REMARK    1  A    between atoms: C_2  and  C_1 
REMARK       I    between atoms: N_4  and  C_1 
REMARK    2  A    between atoms: C_3  and  N_8 
REMARK    3  A    between atoms: N_5  and  C_3 
REMARK    4  A    between atoms: C_14  and  N_4 
REMARK    5  A    between atoms: C_10  and  N_5 
REMARK    6  A    between atoms: N_8  and  C_16 
REMARK    7  A    between atoms: O_20  and  C_11 
ROOT
ATOM      1  C   UNL d   1      -1.146   0.406   1.174  0.00  0.00     0.035 A 
ATOM      2  C   UNL d   1      -3.930   0.000   1.442  0.00  0.00     0.034 A 
ATOM      3  C   UNL d   1      -1.933   0.096   0.065  0.00  0.00     0.032 A 
ATOM      4  C   UNL d   1      -1.777   0.564   2.414  0.00  0.00     0.032 A 
ATOM      5  C   UNL d   1      -3.308  -0.114   0.199  0.00  0.00     0.032 A 
ATOM      6  C   UNL d   1      -3.160   0.357   2.549  0.00  0.00     0.032 A 
ENDROOT
BRANCH   2   7
ATOM      7  N   UNL d   1      -5.281  -0.389   1.519  0.00  0.00    -0.333 N 
ATOM      8  H   UNL d   1      -5.651  -0.857   0.699  0.00  0.00     0.168 HD
BRANCH   7   9
ATOM      9  C   UNL d   1      -6.212  -0.168   2.492  0.00  0.00     0.176 C 
ATOM     10  S   UNL d   1      -6.400   1.244   3.373  0.00  0.00    -0.041 SA
BRANCH   9  11
ATOM     11  N   UNL d   1      -7.161  -1.145   2.662  0.00  0.00    -0.333 N 
ATOM     12  H   UNL d   1      -7.965  -0.818   3.191  0.00  0.00     0.168 HD
BRANCH  11  13
ATOM     13  C   UNL d   1      -7.131  -2.528   2.374  0.00  0.00     0.035 A 
ATOM     14  C   UNL d   1      -5.983  -3.231   1.997  0.00  0.00     0.055 A 
ATOM     15  C   UNL d   1      -6.036  -4.611   1.753  0.00  0.00     0.058 A 
ATOM     16 CL   UNL d   1      -4.569  -5.396   1.281  0.00  0.00    -0.082 Cl
ATOM     17  C   UNL d   1      -7.239  -5.304   1.903  0.00  0.00     0.055 A 
ATOM     18  C   UNL d   1      -8.382  -4.615   2.310  0.00  0.00     0.028 A 
ATOM     19 CL   UNL d   1      -7.377  -7.001   1.615  0.00  0.00    -0.083 Cl
ATOM     20  C   UNL d   1      -8.326  -3.238   2.548  0.00  0.00     0.031 A 
ENDBRANCH  11  13
ENDBRANCH   9  11
ENDBRANCH   7   9
ENDBRANCH   2   7
BRANCH   1  21
ATOM     21  N   UNL d   1       0.260   0.559   1.119  0.00  0.00    -0.323 N 
ATOM     22  C   UNL d   1       1.066   0.332   0.017  0.00  0.00     0.259 C 
ATOM     23  O   UNL d   1       0.693  -0.047  -1.092  0.00  0.00    -0.267 OA
ATOM     24  H   UNL d   1       0.697   0.878   1.973  0.00  0.00     0.169 HD
BRANCH  22  25
ATOM     25  C   UNL d   1       2.522   0.620   0.165  0.00  0.00     0.065 A 
ATOM     26  C   UNL d   1       3.256   0.988  -0.976  0.00  0.00     0.081 A 
ATOM     27  C   UNL d   1       4.606   1.315  -0.882  0.00  0.00     0.037 A 
ATOM     28  C   UNL d   1       5.251   1.249   0.350  0.00  0.00     0.003 A 
ATOM     29  C   UNL d   1       4.547   0.841   1.484  0.00  0.00     0.001 A 
ATOM     30  C   UNL d   1       3.187   0.521   1.395  0.00  0.00     0.020 A 
BRANCH  26  31
ATOM     31  O   UNL d   1       2.711   1.048  -2.233  0.00  0.00    -0.360 OA
ATOM     32  H   UNL d   1       1.829   0.613  -2.194  0.00  0.00     0.217 HD
ENDBRANCH  26  31
ENDBRANCH  22  25
ENDBRANCH   1  21
TORSDOF 7
