REMARK  3 active torsions:
REMARK  status: ('A' for Active; 'I' for Inactive)
REMARK    1  A    between atoms: S_6  and  C_1 
REMARK    2  A    between atoms: C_3  and  S_6 
REMARK    3  A    between atoms: C_14  and  C_5 
ROOT
ATOM      1  C   UNL d   1       2.442  -0.511  -0.154  0.00  0.00     0.099 A 
ATOM      2  C   UNL d   1       2.408   0.883  -0.202  0.00  0.00     0.085 A 
ATOM      3  N   UNL d   1       1.323  -1.274  -0.068  0.00  0.00    -0.349 N 
ATOM      4  HN  UNL d   1       1.390  -2.291  -0.020  1.00  0.00     0.166 HD
ATOM      5  C   UNL d   1       1.158   1.531  -0.113  0.00  0.00    -0.026 A 
ATOM      6  C   UNL d   1      -0.021   0.740  -0.062  0.00  0.00    -0.002 A 
ATOM      7  C   UNL d   1       3.624   1.634  -0.337  0.00  0.00     0.103 C 
ATOM      8  C   UNL d   1       0.126  -0.665  -0.047  0.00  0.00     0.043 A 
ATOM      9  N   UNL d   1       4.587   2.270  -0.451  0.00  0.00    -0.191 NA
ATOM     10  C   UNL d   1       1.058   3.040  -0.061  0.00  0.00     0.050 C 
ATOM     11  C   UNL d   1      -1.329   1.284  -0.026  0.00  0.00     0.014 A 
ATOM     12  C   UNL d   1      -1.014  -1.461   0.001  0.00  0.00     0.030 A 
ATOM     13  C   UNL d   1      -2.455   0.464   0.016  0.00  0.00     0.001 A 
ATOM     14  C   UNL d   1      -2.297  -0.912   0.030  0.00  0.00     0.002 A 
ENDROOT
BRANCH   1  15
ATOM     15  S   UNL d   1       3.981  -1.415  -0.016  0.00  0.00    -0.033 SA
BRANCH  15  16
ATOM     16  C   UNL d   1       3.813  -2.471  -1.358  0.00  0.00     0.167 A 
ATOM     17  N   UNL d   1       3.373  -3.748  -1.199  0.00  0.00    -0.320 N 
ATOM     18  C   UNL d   1       3.627  -4.392  -2.385  0.00  0.00     0.132 A 
ATOM     19  H   UNL d   1       3.041  -4.152  -0.338  0.00  0.00     0.169 HD
ATOM     20  N   UNL d   1       4.114  -3.503  -3.235  0.00  0.00    -0.283 N 
ATOM     21  N   UNL d   1       4.233  -2.292  -2.585  0.00  0.00    -0.278 N 
ATOM     22  HN  UNL d   1       4.360  -3.683  -4.208  1.00  0.00     0.188 HD
ATOM     23  HN  UNL d   1       4.582  -1.421  -2.985  1.00  0.00     0.189 HD
BRANCH  18  24
ATOM     24  C   UNL d   1       3.469  -5.826  -2.615  0.00  0.00     0.013 A 
ATOM     25  C   UNL d   1       2.506  -6.585  -1.937  0.00  0.00     0.039 A 
ATOM     26  C   UNL d   1       2.404  -7.960  -2.171  0.00  0.00     0.036 A 
ATOM     27 CL   UNL d   1       1.212  -8.875  -1.331  0.00  0.00    -0.084 Cl
ATOM     28  C   UNL d   1       3.252  -8.597  -3.071  0.00  0.00     0.047 A 
ATOM     29  C   UNL d   1       4.207  -7.846  -3.748  0.00  0.00     0.036 A 
ATOM     30  C   UNL d   1       4.314  -6.471  -3.531  0.00  0.00     0.039 A 
ATOM     31 CL   UNL d   1       5.272  -8.622  -4.854  0.00  0.00    -0.084 Cl
ENDBRANCH  18  24
ENDBRANCH  15  16
ENDBRANCH   1  15
TORSDOF 3
