REMARK  3 active torsions:
REMARK  status: ('A' for Active; 'I' for Inactive)
REMARK    1  A    between atoms: C_3  and  C_4 
REMARK    2  A    between atoms: C_13  and  C_5 
REMARK    3  A    between atoms: C_7  and  C_12 
ROOT
ATOM      1  N   UNL d   1       0.995  -0.091  -1.037  0.00  0.00    -0.352 N 
ATOM      2  HN  UNL d   1       1.596  -0.203  -1.854  1.00  0.00     0.166 HD
ATOM      3  C   UNL d   1       1.237   0.801   0.000  0.00  0.00     0.025 A 
ATOM      4  C   UNL d   1      -0.115  -0.774  -0.828  0.00  0.00     0.084 A 
ATOM      5  S   UNL d   1      -0.964  -0.326   0.604  0.00  0.00    -0.081 SA
ATOM      6  C   UNL d   1       0.263   0.797   0.983  0.00  0.00     0.077 A 
ENDROOT
BRANCH   3   7
ATOM      7  C   UNL d   1       2.480   1.671  -0.030  0.00  0.00     0.004 C 
ATOM      8  C   UNL d   1       3.350   1.396  -1.289  0.00  0.00     0.020 C 
ATOM      9  C   UNL d   1       4.598   2.294  -1.306  0.00  0.00    -0.013 C 
ATOM     10  C   UNL d   1       4.160   3.766  -1.311  0.00  0.00     0.009 C 
ATOM     11  C   UNL d   1       5.439   2.015  -0.051  0.00  0.00     0.009 C 
ATOM     12  C   UNL d   1       3.330   4.072  -0.055  0.00  0.00    -0.013 C 
ATOM     13  C   UNL d   1       2.083   3.174  -0.043  0.00  0.00     0.020 C 
ATOM     14  C   UNL d   1       4.173   3.782   1.198  0.00  0.00     0.009 C 
ATOM     15  C   UNL d   1       4.612   2.309   1.210  0.00  0.00    -0.013 C 
ATOM     16  C   UNL d   1       3.365   1.409   1.221  0.00  0.00     0.020 C 
ENDBRANCH   3   7
BRANCH   4  17
ATOM     17  C   UNL d   1      -0.637  -1.811  -1.734  0.00  0.00    -0.002 A 
ATOM     18  C   UNL d   1      -1.458  -2.858  -1.285  0.00  0.00     0.015 A 
ATOM     19  C   UNL d   1      -1.940  -3.828  -2.170  0.00  0.00     0.017 A 
ATOM     20  C   UNL d   1      -1.614  -3.778  -3.530  0.00  0.00     0.048 A 
ATOM     21  C   UNL d   1      -0.780  -2.747  -3.985  0.00  0.00     0.017 A 
ATOM     22  C   UNL d   1      -0.295  -1.780  -3.095  0.00  0.00     0.015 A 
BRANCH  20  23
ATOM     23  C   UNL d   1      -2.149  -4.810  -4.494  0.00  0.00     0.417 C 
ATOM     24  F   UNL d   1      -2.959  -5.735  -3.905  0.00  0.00    -0.166 F 
ATOM     25  F   UNL d   1      -2.887  -4.254  -5.494  0.00  0.00    -0.166 F 
ATOM     26  F   UNL d   1      -1.160  -5.517  -5.106  0.00  0.00    -0.166 F 
ENDBRANCH  20  23
ENDBRANCH   4  17
TORSDOF 3
