REMARK  6 active torsions:
REMARK  status: ('A' for Active; 'I' for Inactive)
REMARK    1  A    between atoms: O_18  and  C_5 
REMARK    2  A    between atoms: O_17  and  C_6 
REMARK    3  A    between atoms: O_15  and  C_7 
REMARK    4  A    between atoms: O_16  and  C_8 
REMARK    5  A    between atoms: O_19  and  C_11 
REMARK    6  A    between atoms: O_20  and  C_12 
ROOT
ATOM      1  C   UNL d   1       1.202   0.746   0.067  0.00  0.00    -0.011 A 
ATOM      2  C   UNL d   1      -1.263  -0.839   0.147  0.00  0.00    -0.011 A 
ATOM      3  C   UNL d   1      -1.334   0.560   0.112  0.00  0.00    -0.042 A 
ATOM      4  C   UNL d   1       1.282  -0.649   0.149  0.00  0.00    -0.042 A 
ATOM      5  C   UNL d   1       2.370   1.480  -0.233  0.00  0.00     0.111 A 
ATOM      6  C   UNL d   1      -2.438  -1.600  -0.078  0.00  0.00     0.111 A 
ATOM      7  C   UNL d   1       3.599   0.823  -0.495  0.00  0.00     0.135 A 
ATOM      8  C   UNL d   1      -3.675  -0.970  -0.367  0.00  0.00     0.135 A 
ATOM      9  C   UNL d   1       0.067  -1.491   0.450  0.00  0.00     0.081 C 
ATOM     10  C   UNL d   1      -0.118   1.425   0.335  0.00  0.00     0.081 C 
ATOM     11  C   UNL d   1      -3.723   0.441  -0.375  0.00  0.00     0.104 A 
ATOM     12  C   UNL d   1       3.672  -0.571  -0.363  0.00  0.00     0.104 A 
ATOM     13  C   UNL d   1      -2.563   1.180  -0.121  0.00  0.00     0.047 A 
ATOM     14  C   UNL d   1       2.517  -1.286  -0.034  0.00  0.00     0.047 A 
ENDROOT
BRANCH   5  15
ATOM     15  O   UNL d   1       2.303   2.846  -0.377  0.00  0.00    -0.352 OA
ATOM     16  C   UNL d   1       2.124   3.540   0.856  0.00  0.00     0.210 C 
ENDBRANCH   5  15
BRANCH   7  17
ATOM     17  O   UNL d   1       4.750   1.515  -0.781  0.00  0.00    -0.351 OA
ATOM     18  C   UNL d   1       4.622   2.496  -1.809  0.00  0.00     0.210 C 
ENDBRANCH   7  17
BRANCH  12  19
ATOM     19  O   UNL d   1       4.752  -1.403  -0.515  0.00  0.00    -0.353 OA
ATOM     20  C   UNL d   1       5.924  -0.898  -1.128  0.00  0.00     0.210 C 
ENDBRANCH  12  19
BRANCH   6  21
ATOM     21  O   UNL d   1      -2.334  -2.971  -0.147  0.00  0.00    -0.352 OA
ATOM     22  C   UNL d   1      -2.087  -3.594   1.113  0.00  0.00     0.210 C 
ENDBRANCH   6  21
BRANCH  11  23
ATOM     23  O   UNL d   1      -4.793   1.272  -0.597  0.00  0.00    -0.353 OA
ATOM     24  C   UNL d   1      -6.014   0.733  -1.074  0.00  0.00     0.210 C 
ENDBRANCH  11  23
BRANCH   8  25
ATOM     25  O   UNL d   1      -4.861  -1.599  -0.634  0.00  0.00    -0.351 OA
ATOM     26  C   UNL d   1      -4.952  -3.011  -0.666  0.00  0.00     0.210 C 
ENDBRANCH   8  25
TORSDOF 6
