REMARK  3 active torsions:
REMARK  status: ('A' for Active; 'I' for Inactive)
REMARK    1  A    between atoms: C_7  and  N_1 
REMARK    2  A    between atoms: C_9  and  N_3 
REMARK    3  A    between atoms: C_11  and  C_9 
ROOT
ATOM      1  N   UNL d   1       0.078   0.970   0.147  0.00  0.00    -0.234 N 
ATOM      2  C   UNL d   1      -1.182   0.345   0.079  0.00  0.00     0.332 C 
ATOM      3  N   UNL d   1      -1.161  -1.035  -0.080  0.00  0.00    -0.329 N 
ATOM      4  C   UNL d   1       1.292   0.331  -0.123  0.00  0.00     0.234 C 
ATOM      5  C   UNL d   1       1.207  -1.106  -0.548  0.00  0.00     0.123 C 
ATOM      6  C   UNL d   1       0.055  -1.777   0.144  0.00  0.00     0.137 C 
ATOM      7  O   UNL d   1      -2.252   0.956   0.110  0.00  0.00    -0.246 OA
ATOM      8  O   UNL d   1       2.409   0.861  -0.054  0.00  0.00    -0.272 OA
ENDROOT
BRANCH   3   9
ATOM      9  C   UNL d   1      -2.421  -1.765  -0.197  0.00  0.00     0.166 C 
BRANCH   9  10
ATOM     10  C   UNL d   1      -2.864  -1.911  -1.635  0.00  0.00    -0.040 A 
ATOM     11  C   UNL d   1      -2.507  -3.036  -2.390  0.00  0.00     0.009 A 
ATOM     12  C   UNL d   1      -2.927  -3.162  -3.719  0.00  0.00     0.001 A 
ATOM     13  C   UNL d   1      -3.699  -2.164  -4.307  0.00  0.00     0.000 A 
ATOM     14  C   UNL d   1      -4.053  -1.036  -3.570  0.00  0.00     0.001 A 
ATOM     15  C   UNL d   1      -3.636  -0.910  -2.244  0.00  0.00     0.009 A 
ENDBRANCH   9  10
ENDBRANCH   3   9
BRANCH   1  16
ATOM     16  C   UNL d   1       0.101   2.379   0.418  0.00  0.00     0.047 A 
ATOM     17  C   UNL d   1      -0.603   2.901   1.513  0.00  0.00     0.030 A 
ATOM     18  C   UNL d   1      -0.574   4.271   1.787  0.00  0.00     0.002 A 
ATOM     19  C   UNL d   1       0.130   5.135   0.951  0.00  0.00     0.000 A 
ATOM     20  C   UNL d   1       0.815   4.630  -0.152  0.00  0.00     0.002 A 
ATOM     21  C   UNL d   1       0.815   3.257  -0.408  0.00  0.00     0.030 A 
ENDBRANCH   1  16
TORSDOF 3
