REMARK  2 active torsions:
REMARK  status: ('A' for Active; 'I' for Inactive)
REMARK    1  A    between atoms: C_3  and  C_1 
REMARK    2  A    between atoms: C_2  and  C_3 
ROOT
ATOM      1  C   UNL d   1       1.278  -1.180   2.193  0.00  0.00    -0.030 A 
ATOM      2  C   UNL d   1       1.372  -2.564   2.405  0.00  0.00     0.040 A 
ATOM      3 CL   UNL d   1       0.446  -3.697   1.484  0.00  0.00    -0.084 Cl
ATOM      4  C   UNL d   1       2.082  -0.330   2.975  0.00  0.00     0.009 A 
ATOM      5  C   UNL d   1       2.232  -3.078   3.383  0.00  0.00     0.024 A 
ATOM      6  C   UNL d   1       2.943  -0.846   3.946  0.00  0.00     0.001 A 
ATOM      7  C   UNL d   1       3.015  -2.219   4.153  0.00  0.00     0.002 A 
ENDROOT
BRANCH   1   8
ATOM      8  C   UNL d   1       0.372  -0.558   1.149  0.00  0.00     0.109 C 
BRANCH   8   9
ATOM      9  C   UNL d   1       1.052  -0.391  -0.196  0.00  0.00     0.075 C 
ATOM     10  S   UNL d   1       1.879   0.989  -0.639  0.00  0.00    -0.066 SA
ATOM     11  N   UNL d   1       0.947  -1.428  -1.077  0.00  0.00    -0.393 N 
ATOM     12  H   UNL d   1       0.540  -2.321  -0.816  0.00  0.00     0.156 HD
ATOM     13  H   UNL d   1       1.414  -1.367  -1.974  0.00  0.00     0.156 HD
ENDBRANCH   8   9
ENDBRANCH   1   8
TORSDOF 2
