REMARK  5 active torsions:
REMARK  status: ('A' for Active; 'I' for Inactive)
REMARK    1  A    between atoms: N_2  and  C_1 
REMARK       I    between atoms: C_3  and  N_5 
REMARK    2  A    between atoms: C_7  and  C_3 
REMARK    3  A    between atoms: S_6  and  C_4 
REMARK    4  A    between atoms: N_5  and  C_9 
REMARK    5  A    between atoms: C_10  and  S_6 
ROOT
ATOM      1  C   UNL d   1       4.170   2.248   0.748  0.00  0.00     0.052 A 
ATOM      2  C   UNL d   1       4.333   1.710  -0.548  0.00  0.00     0.032 A 
ATOM      3  C   UNL d   1       4.964   3.332   1.148  0.00  0.00     0.031 A 
ATOM      4  C   UNL d   1       5.300   2.264  -1.401  0.00  0.00     0.021 A 
ATOM      5  C   UNL d   1       6.101   3.328  -0.978  0.00  0.00     0.002 A 
ATOM      6  C   UNL d   1       5.924   3.868   0.290  0.00  0.00     0.002 A 
ENDROOT
BRANCH   2   7
ATOM      7  S   UNL d   1       3.162   0.544  -1.253  0.00  0.00    -0.086 SA
BRANCH   7   8
ATOM      8  C   UNL d   1       3.841  -1.060  -0.878  0.00  0.00     0.038 A 
ATOM      9  C   UNL d   1       4.821  -1.728  -1.626  0.00  0.00     0.121 A 
ATOM     10  C   UNL d   1       5.237  -3.034  -1.328  0.00  0.00     0.061 A 
ATOM     11  C   UNL d   1       4.641  -3.700  -0.263  0.00  0.00     0.036 A 
ATOM     12  C   UNL d   1       3.650  -3.075   0.490  0.00  0.00     0.025 A 
ATOM     13 CL   UNL d   1       5.100  -5.314   0.105  0.00  0.00    -0.084 Cl
ATOM     14  C   UNL d   1       3.249  -1.770   0.179  0.00  0.00     0.023 A 
BRANCH   9  15
ATOM     15  N   UNL d   1       5.415  -1.112  -2.791  0.00  0.00    -0.114 N 
ATOM     16  O   UNL d   1       4.697  -0.976  -3.791  0.00  0.00    -0.532 OA
ATOM     17  O   UNL d   1       6.614  -0.816  -2.715  0.00  0.00    -0.532 OA
ENDBRANCH   9  15
ENDBRANCH   7   8
ENDBRANCH   2   7
BRANCH   1  18
ATOM     18  N   UNL d   1       3.269   1.644   1.649  0.00  0.00    -0.320 N 
ATOM     19  C   UNL d   1       2.740   2.197   2.799  0.00  0.00     0.280 C 
ATOM     20  O   UNL d   1       2.708   3.402   3.039  0.00  0.00    -0.265 OA
ATOM     21  H   UNL d   1       2.963   0.708   1.426  0.00  0.00     0.169 HD
BRANCH  19  22
ATOM     22  C   UNL d   1       2.188   1.213   3.707  0.00  0.00     0.142 A 
ATOM     23  O   UNL d   1       2.611  -0.090   3.628  0.00  0.00    -0.317 OA
ATOM     24  C   UNL d   1       2.058  -0.753   4.677  0.00  0.00     0.143 A 
ATOM     25  C   UNL d   1       1.232   0.080   5.394  0.00  0.00     0.027 A 
ATOM     26  C   UNL d   1       1.312   1.347   4.768  0.00  0.00     0.045 A 
ENDBRANCH  19  22
ENDBRANCH   1  18
TORSDOF 5
