REMARK  5 active torsions:
REMARK  status: ('A' for Active; 'I' for Inactive)
REMARK    1  A    between atoms: C_10  and  C_1 
REMARK    2  A    between atoms: N_15  and  C_2 
REMARK    3  A    between atoms: C_3  and  C_13 
REMARK    4  A    between atoms: C_20  and  C_8 
REMARK       I    between atoms: C_13  and  N_17 
REMARK       I    between atoms: C_16  and  N_15 
REMARK       I    between atoms: N_18  and  C_16 
REMARK    5  A    between atoms: N_17  and  N_18 
ROOT
ATOM      1  N   UNL d   1       1.713  -3.768   1.267  0.00  0.00    -0.303 N 
ATOM      2  C   UNL d   1       1.572  -2.667   0.435  0.00  0.00     0.339 C 
ATOM      3  N   UNL d   1       2.781  -2.050   0.169  0.00  0.00    -0.248 N 
ATOM      4  O   UNL d   1       0.524  -2.282  -0.079  0.00  0.00    -0.245 OA
ATOM      5  H   UNL d   1       2.651  -4.143   1.316  0.00  0.00     0.171 HD
ATOM      6  H   UNL d   1       3.680  -2.347   0.540  0.00  0.00     0.192 HD
ENDROOT
BRANCH   3   7
ATOM      7  N   UNL d   1       2.802  -0.977  -0.741  0.00  0.00    -0.262 N 
ATOM      8  C   UNL d   1       3.959  -0.231  -0.910  0.00  0.00     0.275 C 
ATOM      9  O   UNL d   1       5.025  -0.588  -0.410  0.00  0.00    -0.266 OA
ATOM     10  H   UNL d   1       1.921  -0.775  -1.208  0.00  0.00     0.190 HD
BRANCH   8  11
ATOM     11  C   UNL d   1       3.811   0.975  -1.707  0.00  0.00     0.094 A 
ATOM     12  C   UNL d   1       4.760   1.686  -2.526  0.00  0.00     0.083 A 
ATOM     13  N   UNL d   1       4.177   2.779  -3.054  0.00  0.00    -0.259 N 
ATOM     14  O   UNL d   1       2.900   2.831  -2.567  0.00  0.00    -0.241 OA
ATOM     15  HN  UNL d   1       4.607   3.443  -3.697  1.00  0.00     0.195 HD
ATOM     16  C   UNL d   1       2.683   1.778  -1.747  0.00  0.00     0.090 A 
ATOM     17  C   UNL d   1       1.365   1.771  -1.076  0.00  0.00     0.080 C 
BRANCH  12  18
ATOM     18  C   UNL d   1       6.168   1.417  -2.860  0.00  0.00    -0.006 A 
ATOM     19  C   UNL d   1       7.032   2.491  -3.142  0.00  0.00     0.014 A 
ATOM     20  C   UNL d   1       8.370   2.274  -3.488  0.00  0.00     0.001 A 
ATOM     21  C   UNL d   1       8.865   0.977  -3.557  0.00  0.00     0.000 A 
ATOM     22  C   UNL d   1       8.020  -0.099  -3.291  0.00  0.00     0.001 A 
ATOM     23  C   UNL d   1       6.678   0.117  -2.951  0.00  0.00     0.014 A 
ENDBRANCH  12  18
ENDBRANCH   8  11
ENDBRANCH   3   7
BRANCH   1  24
ATOM     24  C   UNL d   1       0.688  -4.702   1.428  0.00  0.00     0.097 C 
ATOM     25  C   UNL d   1       0.787  -6.135   1.373  0.00  0.00     0.096 C 
ATOM     26  N   UNL d   1      -0.437  -6.678   1.479  0.00  0.00    -0.258 N 
ATOM     27  O   UNL d   1      -1.304  -5.650   1.745  0.00  0.00    -0.240 OA
ATOM     28  HN  UNL d   1      -0.676  -7.664   1.379  1.00  0.00     0.195 HD
ATOM     29  C   UNL d   1      -0.632  -4.469   1.753  0.00  0.00     0.101 C 
ATOM     30  C   UNL d   1      -1.438  -3.314   2.193  0.00  0.00     0.081 C 
BRANCH  25  31
ATOM     31  C   UNL d   1       1.966  -6.985   1.153  0.00  0.00     0.017 A 
ATOM     32  C   UNL d   1       2.145  -8.227   1.797  0.00  0.00     0.046 A 
ATOM     33 CL   UNL d   1       1.048  -8.870   2.975  0.00  0.00    -0.083 Cl
ATOM     34  C   UNL d   1       3.280  -9.007   1.536  0.00  0.00     0.025 A 
ATOM     35  C   UNL d   1       4.265  -8.555   0.661  0.00  0.00     0.002 A 
ATOM     36  C   UNL d   1       4.112  -7.328   0.027  0.00  0.00     0.001 A 
ATOM     37  C   UNL d   1       2.965  -6.561   0.253  0.00  0.00     0.015 A 
ENDBRANCH  25  31
ENDBRANCH   1  24
TORSDOF 5
