REMARK  4 active torsions:
REMARK  status: ('A' for Active; 'I' for Inactive)
REMARK    1  A    between atoms: C_4  and  C_1 
REMARK    2  A    between atoms: C_10  and  CA_2 
REMARK    3  A    between atoms: C_3  and  N_5 
REMARK       I    between atoms: N_5  and  C_4 
REMARK    4  A    between atoms: OXT_18  and  C_10 
ROOT
ATOM      1  C   UNL d   1      -0.672  -1.167  -0.187  0.00  0.00     0.134 A 
ATOM      2  CA  UNL d   1       0.518  -0.793   0.425  0.00  0.00     0.139 A 
ATOM      3  N   UNL d   1      -1.309  -0.281  -1.022  0.00  0.00    -0.358 N 
ATOM      4  HN  UNL d   1      -2.171  -0.538  -1.503  1.00  0.00     0.165 HD
ATOM      5  N   UNL d   1       1.079   0.463   0.265  0.00  0.00    -0.357 N 
ATOM      6  HN  UNL d   1       1.947   0.731   0.729  1.00  0.00     0.165 HD
ATOM      7  C   UNL d   1       0.408   1.312  -0.544  0.00  0.00     0.105 A 
ATOM      8  C   UNL d   1      -0.756   0.942  -1.184  0.00  0.00     0.105 A 
ENDROOT
BRANCH   1   9
ATOM      9  C   UNL d   1      -1.462  -2.431   0.018  0.00  0.00     0.276 C 
ATOM     10  N   UNL d   1      -0.792  -3.638   0.109  0.00  0.00    -0.306 N 
ATOM     11  H   UNL d   1       0.172  -3.627   0.448  0.00  0.00     0.170 HD
ATOM     12  O   UNL d   1      -2.688  -2.317   0.084  0.00  0.00    -0.266 OA
BRANCH  10  13
ATOM     13  C   UNL d   1      -1.427  -4.868   0.238  0.00  0.00     0.125 A 
ATOM     14  N   UNL d   1      -2.657  -5.276  -0.240  0.00  0.00    -0.281 N 
ATOM     15  N   UNL d   1      -2.965  -6.548   0.122  0.00  0.00    -0.308 N 
ATOM     16  C   UNL d   1      -3.550  -4.636  -1.176  0.00  0.00     0.179 C 
ATOM     17  C   UNL d   1      -1.894  -6.961   0.797  0.00  0.00     0.111 A 
ATOM     18  HN  UNL d   1      -3.820  -7.067  -0.077  1.00  0.00     0.186 HD
ATOM     19  C   UNL d   1      -0.898  -5.977   0.867  0.00  0.00     0.068 A 
ENDBRANCH  10  13
ENDBRANCH   1   9
BRANCH   2  20
ATOM     20  C   UNL d   1       1.338  -1.655   1.315  0.00  0.00     0.196 C 
ATOM     21  O   UNL d   1       1.169  -2.844   1.510  0.00  0.00    -0.645 OA
BRANCH  20  22
ATOM     22  OXT UNL d   1       2.368  -0.955   1.849  0.00  0.00    -0.772 OA
ATOM     23  HXT UNL d   1       2.352  -0.027   1.508  0.00  0.00     0.167 HD
ENDBRANCH  20  22
ENDBRANCH   2  20
TORSDOF 4
