REMARK  9 active torsions:
REMARK  status: ('A' for Active; 'I' for Inactive)
REMARK    1  A    between atoms: N_2  and  S_1 
REMARK    2  A    between atoms: C_3  and  S_1 
REMARK    3  A    between atoms: C_4  and  N_2 
REMARK    4  A    between atoms: C_10  and  N_2 
REMARK    5  A    between atoms: C_5  and  C_4 
REMARK    6  A    between atoms: C_8  and  C_9 
REMARK    7  A    between atoms: O_13  and  C_8 
REMARK    8  A    between atoms: C_9  and  C_10 
REMARK    9  A    between atoms: C_19  and  O_13 
ROOT
ATOM      1  N   UNL d   1       0.158  -0.223   1.567  0.00  0.00    -0.200 NA
ENDROOT
BRANCH   1   2
ATOM      2  S   UNL d   1       0.877   0.121   0.037  0.00  0.00     0.244 S 
ATOM      3  O   UNL d   1       0.649  -1.014  -0.828  0.00  0.00    -0.206 OA
ATOM      4  O   UNL d   1       2.224   0.585   0.299  0.00  0.00    -0.206 OA
BRANCH   2   5
ATOM      5  C   UNL d   1      -0.011   1.501  -0.657  0.00  0.00     0.074 A 
ATOM      6  C   UNL d   1       0.140   2.776  -0.110  0.00  0.00     0.026 A 
ATOM      7  C   UNL d   1      -0.461   3.870  -0.744  0.00  0.00     0.025 A 
ATOM      8  C   UNL d   1      -1.192   3.682  -1.920  0.00  0.00     0.034 A 
ATOM      9  C   UNL d   1      -1.337   2.408  -2.467  0.00  0.00     0.025 A 
ATOM     10 CL   UNL d   1      -1.899   5.034  -2.716  0.00  0.00    -0.084 Cl
ATOM     11  C   UNL d   1      -0.743   1.313  -1.837  0.00  0.00     0.026 A 
ENDBRANCH   2   5
ENDBRANCH   1   2
BRANCH   1  12
ATOM     12  C   UNL d   1      -1.328  -0.225   1.625  0.00  0.00     0.172 C 
BRANCH  12  13
ATOM     13  C   UNL d   1      -1.989  -1.292   0.835  0.00  0.00     0.066 A 
ATOM     14  O   UNL d   1      -1.756  -2.582   1.213  0.00  0.00    -0.326 OA
ATOM     15  C   UNL d   1      -2.439  -3.379   0.354  0.00  0.00     0.142 A 
ATOM     16  C   UNL d   1      -3.151  -2.620  -0.543  0.00  0.00     0.027 A 
ATOM     17  C   UNL d   1      -2.873  -1.269  -0.226  0.00  0.00     0.036 A 
ENDBRANCH  12  13
ENDBRANCH   1  12
BRANCH   1  18
ATOM     18  C   UNL d   1       0.838  -1.439   2.170  0.00  0.00     0.118 C 
BRANCH  18  19
ATOM     19  C   UNL d   1       0.375  -1.838   3.568  0.00  0.00     0.127 C 
BRANCH  19  20
ATOM     20  C   UNL d   1       1.098  -3.100   3.998  0.00  0.00     0.265 C 
ATOM     21  O   UNL d   1       1.949  -3.686   3.345  0.00  0.00    -0.265 OA
BRANCH  20  22
ATOM     22  O   UNL d   1       0.632  -3.479   5.262  0.00  0.00    -0.279 OA
BRANCH  22  23
ATOM     23  C   UNL d   1       1.017  -4.684   5.899  0.00  0.00     0.079 A 
ATOM     24  C   UNL d   1       0.967  -4.675   7.295  0.00  0.00     0.039 A 
ATOM     25  C   UNL d   1       1.232  -5.846   8.009  0.00  0.00     0.026 A 
ATOM     26  C   UNL d   1       1.540  -7.021   7.322  0.00  0.00     0.034 A 
ATOM     27  C   UNL d   1       1.593  -7.029   5.928  0.00  0.00     0.026 A 
ATOM     28 CL   UNL d   1       1.832  -8.472   8.199  0.00  0.00    -0.084 Cl
ATOM     29  C   UNL d   1       1.325  -5.858   5.210  0.00  0.00     0.039 A 
ENDBRANCH  22  23
ENDBRANCH  20  22
ENDBRANCH  19  20
ENDBRANCH  18  19
ENDBRANCH   1  18
TORSDOF 9
