REMARK  3 active torsions:
REMARK  status: ('A' for Active; 'I' for Inactive)
REMARK    1  A    between atoms: C_2  and  S_1 
REMARK    2  A    between atoms: N_3  and  S_1 
REMARK    3  A    between atoms: C_4  and  N_3 
ROOT
ATOM      1  S   UNL d   1       1.115  -1.395  -0.936  0.00  0.00     0.261 S 
ATOM      2  O   UNL d   1       2.492  -1.321  -1.372  0.00  0.00    -0.200 OA
ATOM      3  O   UNL d   1       0.788  -1.507   0.467  0.00  0.00    -0.200 OA
ENDROOT
BRANCH   1   4
ATOM      4  C   UNL d   1       0.325  -2.755  -1.756  0.00  0.00     0.102 A 
ATOM      5  C   UNL d   1       1.115  -3.616  -2.535  0.00  0.00     0.052 A 
ATOM      6  C   UNL d   1       0.528  -4.657  -3.258  0.00  0.00     0.057 A 
ATOM      7 CL   UNL d   1       1.551  -5.613  -4.267  0.00  0.00    -0.083 Cl
ATOM      8  C   UNL d   1      -0.849  -4.874  -3.166  0.00  0.00     0.057 A 
ATOM      9  C   UNL d   1      -1.631  -4.044  -2.353  0.00  0.00     0.051 A 
ATOM     10 CL   UNL d   1      -1.648  -6.142  -4.023  0.00  0.00    -0.082 Cl
ATOM     11  C   UNL d   1      -1.050  -2.983  -1.649  0.00  0.00     0.059 A 
ATOM     12 CL   UNL d   1      -2.122  -2.010  -0.707  0.00  0.00    -0.083 Cl
ENDBRANCH   1   4
BRANCH   1  13
ATOM     13  N   UNL d   1       0.303  -0.038  -1.515  0.00  0.00    -0.309 N 
ATOM     14  H   UNL d   1      -0.103   0.435  -0.705  0.00  0.00     0.172 HD
BRANCH  13  15
ATOM     15  C   UNL d   1       0.875   0.855  -2.550  0.00  0.00     0.109 C 
ATOM     16  C   UNL d   1       0.872   0.267  -3.999  0.00  0.00    -0.022 C 
ATOM     17  C   UNL d   1       0.892   1.537  -4.868  0.00  0.00     0.016 C 
ATOM     18  C   UNL d   1      -0.521  -0.296  -4.354  0.00  0.00     0.011 C 
ATOM     19  C   UNL d   1       2.038  -0.629  -4.368  0.00  0.00     0.017 C 
ATOM     20  C   UNL d   1      -0.376   2.108  -4.243  0.00  0.00    -0.004 C 
ATOM     21  C   UNL d   1      -0.001   2.165  -2.728  0.00  0.00    -0.022 C 
ATOM     22  C   UNL d   1      -1.366   0.970  -4.553  0.00  0.00     0.006 C 
ATOM     23  C   UNL d   1      -1.248   2.291  -1.833  0.00  0.00     0.017 C 
ATOM     24  C   UNL d   1       0.859   3.423  -2.453  0.00  0.00     0.017 C 
ENDBRANCH  13  15
ENDBRANCH   1  13
TORSDOF 3
