REMARK  5 active torsions:
REMARK  status: ('A' for Active; 'I' for Inactive)
REMARK    1  A    between atoms: O_5  and  C_1 
REMARK    2  A    between atoms: N_11  and  C_2 
REMARK    3  A    between atoms: C_10  and  O_5 
REMARK    4  A    between atoms: C_16  and  N_11 
REMARK    5  A    between atoms: C_18  and  C_16 
ROOT
ATOM      1  C   UNL d   1      -0.790   1.083   0.047  0.00  0.00     0.142 A 
ATOM      2  C   UNL d   1      -1.439  -0.141  -0.121  0.00  0.00     0.139 A 
ATOM      3  N   UNL d   1      -0.744  -1.283  -0.278  0.00  0.00    -0.330 N 
ATOM      4  HN  UNL d   1      -1.220  -2.168  -0.449  1.00  0.00     0.168 HD
ATOM      5  N   UNL d   1       1.305  -0.090  -0.073  0.00  0.00    -0.347 N 
ATOM      6  HN  UNL d   1       2.325  -0.094  -0.064  1.00  0.00     0.167 HD
ATOM      7  C   UNL d   1       0.599   1.054   0.043  0.00  0.00     0.044 A 
ATOM      8  C   UNL d   1       0.597  -1.222  -0.201  0.00  0.00     0.079 A 
ATOM      9  C   UNL d   1       1.399   2.321   0.155  0.00  0.00     0.071 C 
ATOM     10  C   UNL d   1       1.344  -2.519  -0.177  0.00  0.00     0.089 C 
ENDROOT
BRANCH   2  11
ATOM     11  N   UNL d   1      -2.831  -0.204  -0.167  0.00  0.00    -0.370 N 
ATOM     12  H   UNL d   1      -3.271   0.169   0.663  0.00  0.00     0.161 HD
BRANCH  11  13
ATOM     13  C   UNL d   1      -3.459  -1.367  -0.768  0.00  0.00     0.160 C 
BRANCH  13  14
ATOM     14  C   UNL d   1      -3.764  -2.527   0.154  0.00  0.00    -0.041 A 
ATOM     15  C   UNL d   1      -4.019  -2.383   1.522  0.00  0.00     0.009 A 
ATOM     16  C   UNL d   1      -4.423  -3.481   2.292  0.00  0.00     0.007 A 
ATOM     17  C   UNL d   1      -4.581  -4.747   1.708  0.00  0.00    -0.062 A 
ATOM     18  C   UNL d   1      -4.327  -4.896   0.344  0.00  0.00     0.007 A 
ATOM     19  C   UNL d   1      -5.087  -5.899   2.522  0.00  0.00     0.048 C 
ATOM     20  C   UNL d   1      -3.921  -3.800  -0.421  0.00  0.00     0.009 A 
ENDBRANCH  13  14
ENDBRANCH  11  13
ENDBRANCH   2  11
BRANCH   1  21
ATOM     21  O   UNL d   1      -1.389   2.274   0.359  0.00  0.00    -0.303 OA
BRANCH  21  22
ATOM     22  C   UNL d   1      -2.371   2.847  -0.415  0.00  0.00     0.098 A 
ATOM     23  C   UNL d   1      -3.020   3.962   0.149  0.00  0.00     0.069 A 
ATOM     24  C   UNL d   1      -4.050   4.616  -0.528  0.00  0.00     0.050 A 
ATOM     25 CL   UNL d   1      -2.562   4.572   1.703  0.00  0.00    -0.081 Cl
ATOM     26  C   UNL d   1      -4.438   4.158  -1.782  0.00  0.00     0.035 A 
ATOM     27  C   UNL d   1      -3.785   3.077  -2.371  0.00  0.00     0.026 A 
ATOM     28 CL   UNL d   1      -5.730   4.934  -2.610  0.00  0.00    -0.084 Cl
ATOM     29  C   UNL d   1      -2.738   2.435  -1.699  0.00  0.00     0.041 A 
ENDBRANCH  21  22
ENDBRANCH   1  21
TORSDOF 5
