REMARK  5 active torsions:
REMARK  status: ('A' for Active; 'I' for Inactive)
REMARK    1  A    between atoms: C_12  and  C_2 
REMARK    2  A    between atoms: S_14  and  C_5 
REMARK    3  A    between atoms: C_8  and  C_9 
REMARK    4  A    between atoms: C_20  and  S_14 
REMARK    5  A    between atoms: C_22  and  C_20 
ROOT
ATOM      1  S   UNL d   1       1.159  -0.057   0.022  0.00  0.00    -0.043 SA
ATOM      2  C   UNL d   1      -0.058   1.168  -0.022  0.00  0.00     0.118 A 
ATOM      3  N   UNL d   1      -1.286   0.676  -0.036  0.00  0.00    -0.291 N 
ATOM      4  HN  UNL d   1      -2.127   1.254  -0.051  1.00  0.00     0.187 HD
ATOM      5  C   UNL d   1      -0.096  -1.219  -0.000  0.00  0.00     0.129 A 
ATOM      6  N   UNL d   1      -1.307  -0.708  -0.029  0.00  0.00    -0.287 N 
ATOM      7  HN  UNL d   1      -2.161  -1.265  -0.043  1.00  0.00     0.188 HD
ENDROOT
BRANCH   2   8
ATOM      8  C   UNL d   1       0.286   2.601  -0.047  0.00  0.00     0.067 A 
ATOM      9  N   UNL d   1       1.605   2.919  -0.110  0.00  0.00    -0.363 N 
ATOM     10  C   UNL d   1       1.941   4.231  -0.154  0.00  0.00     0.104 A 
ATOM     11  HN  UNL d   1       2.321   2.192  -0.123  1.00  0.00     0.165 HD
ATOM     12  C   UNL d   1       1.023   5.269  -0.140  0.00  0.00     0.063 A 
ATOM     13  C   UNL d   1      -0.331   4.926  -0.070  0.00  0.00     0.020 A 
ATOM     14  C   UNL d   1      -0.704   3.582  -0.024  0.00  0.00     0.033 A 
BRANCH  12  15
ATOM     15  C   UNL d   1       1.475   6.696  -0.203  0.00  0.00     0.418 C 
ATOM     16  F   UNL d   1       2.829   6.837  -0.265  0.00  0.00    -0.166 F 
ATOM     17  F   UNL d   1       0.983   7.349  -1.291  0.00  0.00    -0.166 F 
ATOM     18  F   UNL d   1       1.075   7.417   0.879  0.00  0.00    -0.166 F 
ENDBRANCH  12  15
ENDBRANCH   2   8
BRANCH   5  19
ATOM     19  S   UNL d   1       0.214  -2.940   0.036  0.00  0.00    -0.099 SA
BRANCH  19  20
ATOM     20  C   UNL d   1      -1.288  -3.574  -0.762  0.00  0.00     0.120 C 
BRANCH  20  21
ATOM     21  C   UNL d   1      -1.301  -5.086  -0.806  0.00  0.00    -0.048 A 
ATOM     22  C   UNL d   1      -1.890  -5.821   0.236  0.00  0.00     0.009 A 
ATOM     23  C   UNL d   1      -1.911  -7.217   0.198  0.00  0.00     0.024 A 
ATOM     24  C   UNL d   1      -1.339  -7.890  -0.879  0.00  0.00     0.034 A 
ATOM     25  C   UNL d   1      -0.739  -7.179  -1.916  0.00  0.00     0.024 A 
ATOM     26 CL   UNL d   1      -1.374  -9.610  -0.929  0.00  0.00    -0.084 Cl
ATOM     27  C   UNL d   1      -0.717  -5.780  -1.878  0.00  0.00     0.009 A 
ENDBRANCH  20  21
ENDBRANCH  19  20
ENDBRANCH   5  19
TORSDOF 5
