REMARK  2 active torsions:
REMARK  status: ('A' for Active; 'I' for Inactive)
REMARK    1  A    between atoms: C_12  and  N_1 
REMARK    2  A    between atoms: N_9  and  C_8 
ROOT
ATOM      1  N   UNL d   1       2.303  -0.047   0.140  0.00  0.00    -0.244 N 
ATOM      2  C   UNL d   1       1.657   1.191   0.039  0.00  0.00     0.266 A 
ATOM      3  C   UNL d   1       1.635  -1.277   0.120  0.00  0.00     0.266 A 
ATOM      4  C   UNL d   1       0.175   1.176   0.002  0.00  0.00     0.045 A 
ATOM      5  C   UNL d   1      -0.538  -0.026   0.003  0.00  0.00     0.008 A 
ATOM      6  C   UNL d   1       0.157  -1.244   0.051  0.00  0.00     0.045 A 
ATOM      7  C   UNL d   1      -1.965  -0.006  -0.054  0.00  0.00     0.003 A 
ATOM      8  C   UNL d   1      -2.671   1.250  -0.020  0.00  0.00     0.041 A 
ATOM      9  C   UNL d   1      -0.502   2.394  -0.021  0.00  0.00     0.020 A 
ATOM     10  C   UNL d   1      -1.891   2.423  -0.016  0.00  0.00     0.031 A 
ATOM     11  O   UNL d   1       2.184  -2.379   0.108  0.00  0.00    -0.267 OA
ATOM     12  O   UNL d   1       2.215   2.286   0.028  0.00  0.00    -0.267 OA
ATOM     13  C   UNL d   1      -0.527  -2.467   0.025  0.00  0.00     0.018 A 
ATOM     14  C   UNL d   1      -2.595  -1.272  -0.181  0.00  0.00     0.014 A 
ATOM     15  C   UNL d   1      -1.901  -2.479  -0.105  0.00  0.00     0.002 A 
ENDROOT
BRANCH   1  16
ATOM     16  C   UNL d   1       3.731  -0.062   0.261  0.00  0.00     0.045 A 
ATOM     17  C   UNL d   1       4.537   0.696  -0.599  0.00  0.00     0.030 A 
ATOM     18  C   UNL d   1       5.928   0.680  -0.466  0.00  0.00     0.002 A 
ATOM     19  C   UNL d   1       6.524  -0.069   0.547  0.00  0.00     0.000 A 
ATOM     20  C   UNL d   1       5.734  -0.820   1.413  0.00  0.00     0.002 A 
ATOM     21  C   UNL d   1       4.346  -0.830   1.261  0.00  0.00     0.030 A 
ENDBRANCH   1  16
BRANCH   8  22
ATOM     22  N   UNL d   1      -4.058   1.378   0.042  0.00  0.00    -0.379 N 
ATOM     23  C   UNL d   1      -4.757   2.462  -0.678  0.00  0.00     0.133 C 
ATOM     24  C   UNL d   1      -5.518   3.387   0.279  0.00  0.00     0.093 C 
ATOM     25  S   UNL d   1      -6.822   2.492   1.183  0.00  0.00    -0.166 SA
ATOM     26  C   UNL d   1      -5.761   1.187   1.875  0.00  0.00     0.093 C 
ATOM     27  C   UNL d   1      -4.916   0.467   0.820  0.00  0.00     0.133 C 
ENDBRANCH   8  22
TORSDOF 2
