REMARK  6 active torsions:
REMARK  status: ('A' for Active; 'I' for Inactive)
REMARK    1  A    between atoms: N_2  and  C_1 
REMARK    2  A    between atoms: N_5  and  C_1 
REMARK    3  A    between atoms: N_4  and  C_10 
REMARK    4  A    between atoms: C_14  and  N_5 
REMARK    5  A    between atoms: C_10  and  C_11 
REMARK    6  A    between atoms: C_11  and  C_14 
ROOT
ATOM      1  N   UNL d   1       2.383  -0.041  -0.354  0.00  0.00    -0.367 N 
ATOM      2  H   UNL d   1       2.448  -0.638   0.454  0.00  0.00     0.161 HD
ENDROOT
BRANCH   1   3
ATOM      3  C   UNL d   1       1.157  -0.072  -1.002  0.00  0.00     0.169 C 
ATOM      4  S   UNL d   1       0.571   1.239  -1.888  0.00  0.00    -0.041 SA
BRANCH   3   5
ATOM      5  N   UNL d   1       0.461  -1.278  -0.862  0.00  0.00    -0.354 N 
ATOM      6  C   UNL d   1       1.040  -2.553  -0.391  0.00  0.00     0.151 C 
ATOM      7  C   UNL d   1       0.069  -3.278   0.551  0.00  0.00     0.187 C 
ATOM      8  O   UNL d   1      -1.213  -3.477  -0.062  0.00  0.00    -0.388 OA
ATOM      9  C   UNL d   1      -1.789  -2.220  -0.446  0.00  0.00     0.187 C 
ATOM     10  C   UNL d   1      -0.886  -1.486  -1.440  0.00  0.00     0.151 C 
ENDBRANCH   3   5
ENDBRANCH   1   3
BRANCH   1  11
ATOM     11  C   UNL d   1       3.240   1.138  -0.268  0.00  0.00     0.123 C 
BRANCH  11  12
ATOM     12  C   UNL d   1       4.726   0.808  -0.129  0.00  0.00     0.050 C 
BRANCH  12  13
ATOM     13  C   UNL d   1       5.502   2.135  -0.161  0.00  0.00     0.274 C 
BRANCH  13  14
ATOM     14  N   UNL d   1       6.968   2.031  -0.101  0.00  0.00     0.092 N 
ATOM     15  C   UNL d   1       7.566   3.394  -0.066  0.00  0.00     0.298 C 
ATOM     16  C   UNL d   1       7.465   4.156  -1.403  0.00  0.00     0.198 C 
ATOM     17  O   UNL d   1       8.056   3.411  -2.474  0.00  0.00    -0.388 OA
ATOM     18  C   UNL d   1       7.462   2.111  -2.587  0.00  0.00     0.198 C 
ATOM     19  C   UNL d   1       7.562   1.331  -1.264  0.00  0.00     0.298 C 
ENDBRANCH  13  14
ENDBRANCH  12  13
ENDBRANCH  11  12
ENDBRANCH   1  11
TORSDOF 6
