REMARK  5 active torsions:
REMARK  status: ('A' for Active; 'I' for Inactive)
REMARK    1  A    between atoms: C_2  and  C_1 
REMARK       I    between atoms: N_9  and  C_1 
REMARK    2  A    between atoms: O_10  and  C_4 
REMARK    3  A    between atoms: O_11  and  C_5 
REMARK    4  A    between atoms: C_12  and  O_10 
REMARK    5  A    between atoms: C_14  and  C_12 
ROOT
ATOM      1  C   UNL d   1       0.173   1.155   0.513  0.00  0.00     0.034 A 
ATOM      2  C   UNL d   1       0.606   2.414   0.074  0.00  0.00     0.056 A 
ATOM      3  C   UNL d   1      -0.143   3.569   0.344  0.00  0.00     0.102 A 
ATOM      4  C   UNL d   1      -1.319   3.458   1.104  0.00  0.00     0.101 A 
ATOM      5  C   UNL d   1      -0.998   1.051   1.268  0.00  0.00     0.020 A 
ATOM      6  C   UNL d   1      -1.741   2.197   1.550  0.00  0.00     0.040 A 
ENDROOT
BRANCH   1   7
ATOM      7  C   UNL d   1       0.988  -0.034   0.162  0.00  0.00     0.249 C 
ATOM      8  O   UNL d   1       2.176   0.057  -0.113  0.00  0.00    -0.268 OA
ATOM      9  N   UNL d   1       0.342  -1.239   0.100  0.00  0.00    -0.366 N 
ATOM     10  H   UNL d   1      -0.667  -1.310   0.062  0.00  0.00     0.159 HD
ATOM     11  H   UNL d   1       0.880  -2.016  -0.260  0.00  0.00     0.159 HD
ENDBRANCH   1   7
BRANCH   3  12
ATOM     12  O   UNL d   1       0.253   4.808  -0.083  0.00  0.00    -0.348 OA
BRANCH  12  13
ATOM     13  C   UNL d   1       0.922   4.862  -1.345  0.00  0.00     0.175 C 
BRANCH  13  14
ATOM     14  C   UNL d   1       1.124   6.332  -1.701  0.00  0.00     0.022 C 
ATOM     15  C   UNL d   1       1.867   6.494  -3.015  0.00  0.00     0.007 C 
ENDBRANCH  13  14
ENDBRANCH  12  13
ENDBRANCH   3  12
BRANCH   4  16
ATOM     16  O   UNL d   1      -2.196   4.460   1.430  0.00  0.00    -0.353 OA
ATOM     17  C   UNL d   1      -1.645   5.751   1.652  0.00  0.00     0.210 C 
ENDBRANCH   4  16
TORSDOF 5
