REMARK  1 active torsions:
REMARK  status: ('A' for Active; 'I' for Inactive)
REMARK    1  A    between atoms: N_5  and  C_1 
ROOT
ATOM      1  C   UNL d   1       0.107   1.374  -0.055  0.00  0.00     0.104 A 
ATOM      2  C   UNL d   1       0.874   0.192   0.007  0.00  0.00     0.089 A 
ATOM      3  N   UNL d   1      -1.247   1.331  -0.046  0.00  0.00    -0.349 N 
ATOM      4  HN  UNL d   1      -1.794   2.192  -0.064  1.00  0.00     0.167 HD
ATOM      5  C   UNL d   1       0.229  -1.057   0.012  0.00  0.00    -0.036 A 
ATOM      6  C   UNL d   1       2.301   0.274   0.119  0.00  0.00     0.103 C 
ATOM      7  N   UNL d   1       3.462   0.313   0.185  0.00  0.00    -0.191 NA
ATOM      8  C   UNL d   1      -1.865   0.124  -0.014  0.00  0.00     0.007 A 
ATOM      9  C   UNL d   1      -1.167  -1.078   0.001  0.00  0.00     0.033 A 
ATOM     10  C   UNL d   1       0.965  -2.368   0.043  0.00  0.00     0.050 C 
ATOM     11  C   UNL d   1      -3.365   0.107   0.011  0.00  0.00     0.068 C 
ENDROOT
BRANCH   1  12
ATOM     12  N   UNL d   1       0.742   2.622  -0.076  0.00  0.00    -0.264 NA
ATOM     13  C   UNL d   1      -0.055   3.767   0.405  0.00  0.00     0.123 C 
ATOM     14  C   UNL d   1       0.903   4.962   0.587  0.00  0.00     0.182 C 
ATOM     15  O   UNL d   1       1.581   5.292  -0.642  0.00  0.00    -0.389 OA
ATOM     16  C   UNL d   1       2.319   4.158  -1.134  0.00  0.00     0.182 C 
ATOM     17  C   UNL d   1       1.392   2.953  -1.365  0.00  0.00     0.123 C 
ENDBRANCH   1  12
TORSDOF 1
