REMARK  2 active torsions:
REMARK  status: ('A' for Active; 'I' for Inactive)
REMARK       I    between atoms: N_2  and  C_1 
REMARK    1  A    between atoms: C_3  and  C_1 
REMARK    2  A    between atoms: C_7  and  N_2 
ROOT
ATOM      1  C   UNL d   1       1.014  -0.096   0.012  0.00  0.00     0.256 C 
ATOM      2  N   UNL d   1       0.407  -0.668  -1.091  0.00  0.00    -0.323 N 
ATOM      3  O   UNL d   1       2.207  -0.144   0.299  0.00  0.00    -0.267 OA
ATOM      4  H   UNL d   1      -0.539  -0.381  -1.301  0.00  0.00     0.169 HD
ENDROOT
BRANCH   1   5
ATOM      5  C   UNL d   1       0.122   0.712   0.889  0.00  0.00     0.032 A 
ATOM      6  C   UNL d   1      -1.225   0.382   1.086  0.00  0.00     0.018 A 
ATOM      7  C   UNL d   1      -2.019   1.167   1.928  0.00  0.00     0.020 A 
ATOM      8  C   UNL d   1      -1.466   2.271   2.576  0.00  0.00     0.011 A 
ATOM      9  C   UNL d   1      -0.123   2.598   2.398  0.00  0.00     0.020 A 
ATOM     10 BR   UNL d   1      -2.543   3.323   3.719  0.00  0.00    -0.051 Br
ATOM     11  C   UNL d   1       0.671   1.816   1.558  0.00  0.00     0.018 A 
ENDBRANCH   1   5
BRANCH   2  12
ATOM     12  C   UNL d   1       1.038  -1.462  -2.073  0.00  0.00     0.035 A 
ATOM     13  C   UNL d   1       2.312  -2.013  -1.916  0.00  0.00     0.029 A 
ATOM     14  C   UNL d   1       2.897  -2.752  -2.948  0.00  0.00     0.002 A 
ATOM     15  C   UNL d   1       2.213  -2.949  -4.144  0.00  0.00     0.000 A 
ATOM     16  C   UNL d   1       0.931  -2.427  -4.300  0.00  0.00     0.002 A 
ATOM     17  C   UNL d   1       0.341  -1.696  -3.265  0.00  0.00     0.029 A 
ENDBRANCH   2  12
TORSDOF 2
