REMARK  5 active torsions:
REMARK  status: ('A' for Active; 'I' for Inactive)
REMARK    1  A    between atoms: N_2  and  C_1 
REMARK    2  A    between atoms: O_13  and  C_3 
REMARK    3  A    between atoms: C_8  and  C_4 
REMARK    4  A    between atoms: O_15  and  C_5 
REMARK    5  A    between atoms: O_14  and  C_8 
ROOT
ATOM      1  C   UNL d   1      -0.720   1.238   0.001  0.00  0.00     0.187 A 
ATOM      2  C   UNL d   1      -1.451   0.032  -0.000  0.00  0.00     0.121 A 
ATOM      3  C   UNL d   1      -0.761  -1.188   0.002  0.00  0.00     0.088 A 
ATOM      4  C   UNL d   1       0.670   1.181   0.003  0.00  0.00     0.176 A 
ATOM      5  N   UNL d   1       1.343   0.015   0.004  0.00  0.00    -0.344 N 
ATOM      6  HN  UNL d   1       2.363  -0.002   0.005  1.00  0.00     0.167 HD
ATOM      7  C   UNL d   1       0.627  -1.136   0.003  0.00  0.00     0.111 A 
ENDROOT
BRANCH   3   8
ATOM      8  C   UNL d   1      -1.382  -2.537   0.002  0.00  0.00     0.180 C 
ATOM      9  O   UNL d   1      -0.712  -3.557   0.003  0.00  0.00    -0.646 OA
BRANCH   8  10
ATOM     10  O   UNL d   1      -2.729  -2.559   0.002  0.00  0.00    -0.773 OA
ATOM     11  H   UNL d   1      -3.138  -1.665   0.001  0.00  0.00     0.167 HD
ENDBRANCH   8  10
ENDBRANCH   3   8
BRANCH   2  12
ATOM     12  O   UNL d   1      -2.829  -0.024  -0.003  0.00  0.00    -0.357 OA
ATOM     13  H   UNL d   1      -3.214   0.884  -0.006  0.00  0.00     0.217 HD
ENDBRANCH   2  12
BRANCH   1  14
ATOM     14  N   UNL d   1      -1.395   2.524  -0.000  0.00  0.00    -0.108 N 
ATOM     15  O   UNL d   1      -2.636   2.517  -0.003  0.00  0.00    -0.532 OA
ATOM     16  O   UNL d   1      -0.700   3.549   0.001  0.00  0.00    -0.532 OA
ENDBRANCH   1  14
BRANCH   4  17
ATOM     17  O   UNL d   1       1.508   2.255   0.004  0.00  0.00    -0.344 OA
ATOM     18  H   UNL d   1       1.001   3.090   0.004  0.00  0.00     0.219 HD
ENDBRANCH   4  17
TORSDOF 5
