REMARK  10 active torsions:
REMARK  status: ('A' for Active; 'I' for Inactive)
REMARK    1  A    between atoms: N_3  and  C_1 
REMARK    2  A    between atoms: N_4  and  C_1 
REMARK       I    between atoms: C_2  and  N_6 
REMARK    3  A    between atoms: C_15  and  C_2 
REMARK    4  A    between atoms: N_6  and  N_3 
REMARK    5  A    between atoms: C_12  and  N_4 
REMARK    6  A    between atoms: C_5  and  C_20 
REMARK       I    between atoms: N_8  and  C_5 
REMARK    7  A    between atoms: C_13  and  N_8 
REMARK    8  A    between atoms: S_11  and  C_15 
REMARK    9  A    between atoms: C_20  and  S_11 
REMARK   10  A    between atoms: O_21  and  C_14 
ROOT
ATOM      1  C   UNL d   1       0.347  -1.838   3.190  0.00  0.00     0.245 C 
ATOM      2  N   UNL d   1       0.988  -1.701   1.967  0.00  0.00    -0.267 N 
ATOM      3  O   UNL d   1      -0.747  -1.317   3.405  0.00  0.00    -0.271 OA
ATOM      4  H   UNL d   1       1.977  -1.912   1.838  0.00  0.00     0.190 HD
ENDROOT
BRANCH   2   5
ATOM      5  N   UNL d   1       0.433  -0.765   1.084  0.00  0.00    -0.274 N 
ATOM      6  H   UNL d   1      -0.540  -0.517   1.259  0.00  0.00     0.189 HD
BRANCH   5   7
ATOM      7  C   UNL d   1       1.097  -0.262  -0.000  0.00  0.00     0.191 C 
ATOM      8  S   UNL d   1       2.480  -0.943  -0.653  0.00  0.00    -0.039 SA
BRANCH   7   9
ATOM      9  N   UNL d   1       0.566   0.851  -0.596  0.00  0.00    -0.332 N 
ATOM     10  H   UNL d   1       0.933   1.028  -1.526  0.00  0.00     0.168 HD
BRANCH   9  11
ATOM     11  C   UNL d   1      -0.266   1.863  -0.065  0.00  0.00     0.034 A 
ATOM     12  C   UNL d   1      -0.530   2.021   1.299  0.00  0.00     0.032 A 
ATOM     13  C   UNL d   1      -1.354   3.055   1.758  0.00  0.00     0.039 A 
ATOM     14  C   UNL d   1      -1.906   3.963   0.860  0.00  0.00     0.068 A 
ATOM     15  C   UNL d   1      -1.598   3.849  -0.496  0.00  0.00     0.039 A 
ATOM     16  C   UNL d   1      -0.788   2.805  -0.957  0.00  0.00     0.032 A 
BRANCH  14  17
ATOM     17  O   UNL d   1      -2.711   5.014   1.199  0.00  0.00    -0.356 OA
ATOM     18  C   UNL d   1      -3.458   4.850   2.401  0.00  0.00     0.210 C 
ENDBRANCH  14  17
ENDBRANCH   9  11
ENDBRANCH   7   9
ENDBRANCH   5   7
ENDBRANCH   2   5
BRANCH   1  19
ATOM     19  C   UNL d   1       1.128  -2.657   4.208  0.00  0.00     0.178 C 
BRANCH  19  20
ATOM     20  S   UNL d   1       0.091  -3.264   5.589  0.00  0.00    -0.150 SA
BRANCH  20  21
ATOM     21  C   UNL d   1      -1.010  -4.357   4.637  0.00  0.00     0.177 C 
BRANCH  21  22
ATOM     22  C   UNL d   1      -2.032  -5.137   5.456  0.00  0.00     0.231 C 
ATOM     23  N   UNL d   1      -2.269  -4.674   6.737  0.00  0.00    -0.327 N 
ATOM     24  H   UNL d   1      -1.702  -3.884   7.026  0.00  0.00     0.169 HD
ATOM     25  O   UNL d   1      -2.611  -6.080   4.917  0.00  0.00    -0.272 OA
BRANCH  23  26
ATOM     26  C   UNL d   1      -3.221  -5.159   7.662  0.00  0.00     0.034 A 
ATOM     27  C   UNL d   1      -4.058  -6.250   7.415  0.00  0.00     0.029 A 
ATOM     28  C   UNL d   1      -5.005  -6.658   8.364  0.00  0.00     0.002 A 
ATOM     29  C   UNL d   1      -5.122  -5.981   9.571  0.00  0.00     0.000 A 
ATOM     30  C   UNL d   1      -4.285  -4.901   9.838  0.00  0.00     0.002 A 
ATOM     31  C   UNL d   1      -3.336  -4.497   8.889  0.00  0.00     0.029 A 
ENDBRANCH  23  26
ENDBRANCH  21  22
ENDBRANCH  20  21
ENDBRANCH  19  20
ENDBRANCH   1  19
TORSDOF 10
