REMARK  9 active torsions:
REMARK  status: ('A' for Active; 'I' for Inactive)
REMARK    1  A    between atoms: O_7  and  C_2 
REMARK    2  A    between atoms: C_3  and  C_12 
REMARK    3  A    between atoms: C_4  and  C_13 
REMARK    4  A    between atoms: C_12  and  O_7 
REMARK    5  A    between atoms: O_11  and  C_8 
REMARK    6  A    between atoms: S_10  and  C_9 
REMARK    7  A    between atoms: C_22  and  S_10 
REMARK    8  A    between atoms: C_13  and  O_11 
REMARK    9  A    between atoms: C_23  and  C_22 
ROOT
ATOM      1  C   UNL d   1      -0.584  -0.052  -0.023  0.00  0.00     0.112 A 
ATOM      2  C   UNL d   1       0.042   1.225  -0.022  0.00  0.00     0.109 A 
ATOM      3  C   UNL d   1      -2.010  -0.194   0.066  0.00  0.00     0.105 C 
ATOM      4  N   UNL d   1      -3.171  -0.272   0.124  0.00  0.00    -0.191 NA
ATOM      5  C   UNL d   1       0.189  -1.231  -0.084  0.00  0.00     0.092 A 
ATOM      6  C   UNL d   1       1.458   1.290  -0.007  0.00  0.00     0.035 A 
ATOM      7  C   UNL d   1       1.580  -1.141  -0.000  0.00  0.00     0.040 A 
ATOM      8  C   UNL d   1       2.197   0.101   0.026  0.00  0.00     0.024 A 
ENDROOT
BRANCH   2   9
ATOM      9  O   UNL d   1      -0.605   2.432   0.031  0.00  0.00    -0.339 OA
BRANCH   9  10
ATOM     10  C   UNL d   1      -1.834   2.633  -0.685  0.00  0.00     0.293 C 
BRANCH  10  11
ATOM     11  C   UNL d   1      -1.984   4.068  -1.202  0.00  0.00     0.408 C 
ATOM     12  F   UNL d   1      -0.845   4.787  -1.113  0.00  0.00    -0.169 F 
ATOM     13  F   UNL d   1      -2.347   4.068  -2.507  0.00  0.00    -0.169 F 
ATOM     14  F   UNL d   1      -2.940   4.739  -0.518  0.00  0.00    -0.169 F 
ENDBRANCH  10  11
ENDBRANCH   9  10
ENDBRANCH   2   9
BRANCH   5  15
ATOM     15  O   UNL d   1      -0.475  -2.432  -0.219  0.00  0.00    -0.341 OA
BRANCH  15  16
ATOM     16  C   UNL d   1       0.308  -3.522  -0.742  0.00  0.00     0.293 C 
BRANCH  16  17
ATOM     17  C   UNL d   1      -0.538  -4.670  -1.293  0.00  0.00     0.408 C 
ATOM     18  F   UNL d   1      -1.858  -4.504  -1.093  0.00  0.00    -0.169 F 
ATOM     19  F   UNL d   1      -0.337  -4.805  -2.627  0.00  0.00    -0.169 F 
ATOM     20  F   UNL d   1      -0.176  -5.842  -0.719  0.00  0.00    -0.169 F 
ENDBRANCH  16  17
ENDBRANCH  15  16
ENDBRANCH   5  15
BRANCH   6  21
ATOM     21  S   UNL d   1       2.482   2.766  -0.180  0.00  0.00    -0.122 SA
BRANCH  21  22
ATOM     22  C   UNL d   1       1.650   4.015   0.843  0.00  0.00     0.118 C 
BRANCH  22  23
ATOM     23  C   UNL d   1       2.390   5.331   0.859  0.00  0.00    -0.049 A 
ATOM     24  C   UNL d   1       2.245   6.236  -0.207  0.00  0.00     0.008 A 
ATOM     25  C   UNL d   1       2.853   7.490  -0.162  0.00  0.00     0.001 A 
ATOM     26  C   UNL d   1       3.620   7.851   0.943  0.00  0.00     0.000 A 
ATOM     27  C   UNL d   1       3.795   6.950   1.994  0.00  0.00     0.001 A 
ATOM     28  C   UNL d   1       3.189   5.693   1.950  0.00  0.00     0.008 A 
ENDBRANCH  22  23
ENDBRANCH  21  22
ENDBRANCH   6  21
TORSDOF 9
