REMARK  3 active torsions:
REMARK  status: ('A' for Active; 'I' for Inactive)
REMARK    1  A    between atoms: C_2  and  C_1 
REMARK       I    between atoms: N_3  and  C_2 
REMARK    2  A    between atoms: C_5  and  N_3 
REMARK    3  A    between atoms: O_17  and  C_12 
ROOT
ATOM      1  C   UNL d   1       0.475  -2.532  -0.495  0.00  0.00     0.257 C 
ATOM      2  N   UNL d   1       0.868  -3.613   0.264  0.00  0.00    -0.321 N 
ATOM      3  O   UNL d   1      -0.387  -2.608  -1.373  0.00  0.00    -0.267 OA
ATOM      4  H   UNL d   1       1.351  -3.435   1.139  0.00  0.00     0.169 HD
ENDROOT
BRANCH   1   5
ATOM      5  C   UNL d   1       1.101  -1.188  -0.246  0.00  0.00     0.052 A 
ATOM      6  C   UNL d   1       2.135  -0.871   0.648  0.00  0.00     0.026 A 
ATOM      7  C   UNL d   1       2.656   0.433   0.682  0.00  0.00     0.023 A 
ATOM      8 BR   UNL d   1       2.950  -2.078   1.868  0.00  0.00    -0.050 Br
ATOM      9  C   UNL d   1       2.167   1.423  -0.171  0.00  0.00     0.038 A 
ATOM     10  C   UNL d   1       1.149   1.129  -1.069  0.00  0.00     0.069 A 
ATOM     11  C   UNL d   1       0.610  -0.156  -1.085  0.00  0.00     0.055 A 
BRANCH  10  12
ATOM     12  O   UNL d   1       0.761   2.163  -1.874  0.00  0.00    -0.356 OA
ATOM     13  C   UNL d   1       0.013   1.813  -3.035  0.00  0.00     0.210 C 
ENDBRANCH  10  12
ENDBRANCH   1   5
BRANCH   2  14
ATOM     14  C   UNL d   1       0.544  -4.973   0.005  0.00  0.00     0.058 A 
ATOM     15  C   UNL d   1       0.669  -5.928   1.034  0.00  0.00     0.082 A 
ATOM     16  C   UNL d   1       0.356  -7.274   0.782  0.00  0.00     0.058 A 
ATOM     17 CL   UNL d   1       1.175  -5.416   2.616  0.00  0.00    -0.080 Cl
ATOM     18 CL   UNL d   1       0.441  -8.494   2.005  0.00  0.00    -0.082 Cl
ATOM     19  C   UNL d   1      -0.049  -7.676  -0.493  0.00  0.00     0.026 A 
ATOM     20  C   UNL d   1      -0.145  -6.743  -1.519  0.00  0.00     0.004 A 
ATOM     21  C   UNL d   1       0.148  -5.401  -1.269  0.00  0.00     0.031 A 
ENDBRANCH   2  14
TORSDOF 3
