REMARK  2 active torsions:
REMARK  status: ('A' for Active; 'I' for Inactive)
REMARK       I    between atoms: N_2  and  C_1 
REMARK    1  A    between atoms: C_3  and  C_1 
REMARK    2  A    between atoms: C_6  and  N_2 
ROOT
ATOM      1  C   UNL d   1       1.020  -0.029  -0.139  0.00  0.00     0.256 C 
ATOM      2  N   UNL d   1       0.399   1.204  -0.030  0.00  0.00    -0.323 N 
ATOM      3  O   UNL d   1       2.212  -0.236  -0.335  0.00  0.00    -0.267 OA
ATOM      4  H   UNL d   1      -0.549   1.219   0.319  0.00  0.00     0.169 HD
ENDROOT
BRANCH   1   5
ATOM      5  C   UNL d   1       0.144  -1.213   0.055  0.00  0.00     0.034 A 
ATOM      6  C   UNL d   1       0.688  -2.335   0.696  0.00  0.00     0.041 A 
ATOM      7  C   UNL d   1      -0.080  -3.486   0.841  0.00  0.00     0.035 A 
ATOM      8 CL   UNL d   1       0.587  -4.864   1.625  0.00  0.00    -0.084 Cl
ATOM      9  C   UNL d   1      -1.382  -3.534   0.345  0.00  0.00     0.024 A 
ATOM     10  C   UNL d   1      -1.924  -2.419  -0.299  0.00  0.00     0.003 A 
ATOM     11  C   UNL d   1      -1.163  -1.257  -0.448  0.00  0.00     0.017 A 
ENDBRANCH   1   5
BRANCH   2  12
ATOM     12  C   UNL d   1       1.015   2.464  -0.207  0.00  0.00     0.035 A 
ATOM     13  C   UNL d   1       2.289   2.631  -0.756  0.00  0.00     0.029 A 
ATOM     14  C   UNL d   1       2.849   3.905  -0.885  0.00  0.00     0.002 A 
ATOM     15  C   UNL d   1       2.139   5.027  -0.469  0.00  0.00     0.000 A 
ATOM     16  C   UNL d   1       0.861   4.876   0.063  0.00  0.00     0.002 A 
ATOM     17  C   UNL d   1       0.297   3.602   0.185  0.00  0.00     0.029 A 
ENDBRANCH   2  12
TORSDOF 2
