REMARK  5 active torsions:
REMARK  status: ('A' for Active; 'I' for Inactive)
REMARK    1  A    between atoms: C_5  and  C_1 
REMARK    2  A    between atoms: C_9  and  C_4 
REMARK       I    between atoms: N_11  and  C_5 
REMARK    3  A    between atoms: C_7  and  C_13 
REMARK       I    between atoms: C_10  and  N_12 
REMARK    4  A    between atoms: C_14  and  C_10 
REMARK    5  A    between atoms: N_12  and  N_11 
ROOT
ATOM      1  C   UNL d   1       2.268   1.711   0.139  0.00  0.00     0.287 C 
ATOM      2  N   UNL d   1       2.283   3.088   0.198  0.00  0.00    -0.262 N 
ATOM      3  O   UNL d   1       1.262   1.079  -0.189  0.00  0.00    -0.264 OA
ATOM      4  H   UNL d   1       3.128   3.613   0.421  0.00  0.00     0.190 HD
ENDROOT
BRANCH   2   5
ATOM      5  N   UNL d   1       1.133   3.797  -0.185  0.00  0.00    -0.263 N 
ATOM      6  C   UNL d   1       1.151   5.175  -0.108  0.00  0.00     0.270 C 
ATOM      7  O   UNL d   1       2.139   5.810   0.249  0.00  0.00    -0.266 OA
ATOM      8  H   UNL d   1       0.283   3.249  -0.300  0.00  0.00     0.190 HD
BRANCH   6   9
ATOM      9  C   UNL d   1      -0.115   5.879  -0.459  0.00  0.00     0.033 A 
ATOM     10  C   UNL d   1      -0.371   7.117   0.146  0.00  0.00     0.018 A 
ATOM     11  C   UNL d   1      -1.523   7.840  -0.179  0.00  0.00     0.017 A 
ATOM     12  C   UNL d   1      -2.432   7.345  -1.125  0.00  0.00     0.048 A 
ATOM     13  C   UNL d   1      -2.168   6.104  -1.731  0.00  0.00     0.017 A 
ATOM     14  C   UNL d   1      -1.019   5.374  -1.401  0.00  0.00     0.018 A 
BRANCH  12  15
ATOM     15  C   UNL d   1      -3.663   8.133  -1.512  0.00  0.00     0.417 C 
ATOM     16  F   UNL d   1      -3.803   9.300  -0.823  0.00  0.00    -0.166 F 
ATOM     17  F   UNL d   1      -3.667   8.475  -2.830  0.00  0.00    -0.166 F 
ATOM     18  F   UNL d   1      -4.814   7.436  -1.304  0.00  0.00    -0.166 F 
ENDBRANCH  12  15
ENDBRANCH   6   9
ENDBRANCH   2   5
BRANCH   1  19
ATOM     19  C   UNL d   1       3.536   1.065   0.488  0.00  0.00     0.110 A 
ATOM     20  N   UNL d   1       4.667   1.773   0.915  0.00  0.00    -0.345 N 
ATOM     21  C   UNL d   1       5.670   0.943   1.154  0.00  0.00     0.086 A 
ATOM     22  HN  UNL d   1       4.712   2.786   1.027  1.00  0.00     0.167 HD
ATOM     23  S   UNL d   1       5.296  -0.725   0.901  0.00  0.00    -0.081 SA
ATOM     24  C   UNL d   1       3.712  -0.305   0.432  0.00  0.00     0.087 A 
BRANCH  21  25
ATOM     25  C   UNL d   1       6.993   1.333   1.663  0.00  0.00     0.013 A 
ATOM     26  C   UNL d   1       8.160   0.625   1.372  0.00  0.00     0.101 A 
ATOM     27  N   UNL d   1       9.393   0.929   1.854  0.00  0.00    -0.374 N 
ATOM     28  C   UNL d   1       9.477   2.002   2.667  0.00  0.00     0.087 A 
ATOM     29  HN  UNL d   1      10.214   0.374   1.614  1.00  0.00     0.164 HD
ATOM     30  C   UNL d   1       8.389   2.787   3.009  0.00  0.00     0.018 A 
ATOM     31  C   UNL d   1       7.136   2.450   2.493  0.00  0.00     0.017 A 
ENDBRANCH  21  25
ENDBRANCH   1  19
TORSDOF 5
