REMARK  5 active torsions:
REMARK  status: ('A' for Active; 'I' for Inactive)
REMARK    1  A    between atoms: C_2  and  C_1 
REMARK    2  A    between atoms: O_5  and  C_1 
REMARK    3  A    between atoms: C_3  and  C_10 
REMARK    4  A    between atoms: C_13  and  C_4 
REMARK    5  A    between atoms: C_12  and  O_5 
ROOT
ATOM      1  C   UNL d   1       0.247  -0.345   1.249  0.00  0.00     0.056 A 
ATOM      2  N   UNL d   1      -1.519  -1.606   2.325  0.00  0.00    -0.373 N 
ATOM      3  HN  UNL d   1      -2.290  -2.272   2.271  1.00  0.00     0.164 HD
ATOM      4  C   UNL d   1       0.588   0.235   2.479  0.00  0.00     0.041 A 
ATOM      5  C   UNL d   1      -0.120  -0.116   3.626  0.00  0.00     0.034 A 
ATOM      6  C   UNL d   1      -0.804  -1.254   1.228  0.00  0.00     0.105 A 
ATOM      7  C   UNL d   1      -1.159  -1.030   3.498  0.00  0.00     0.108 A 
ENDROOT
BRANCH   1   8
ATOM      8  C   UNL d   1       1.034   0.012   0.046  0.00  0.00     0.300 C 
ATOM      9  O   UNL d   1       1.921   0.850   0.077  0.00  0.00    -0.259 OA
BRANCH   8  10
ATOM     10  O   UNL d   1       0.642  -0.760  -1.038  0.00  0.00    -0.275 OA
BRANCH  10  11
ATOM     11  C   UNL d   1       1.297  -0.791  -2.295  0.00  0.00     0.079 A 
ATOM     12  C   UNL d   1       0.918  -1.845  -3.131  0.00  0.00     0.039 A 
ATOM     13  C   UNL d   1       1.528  -2.000  -4.379  0.00  0.00     0.026 A 
ATOM     14  C   UNL d   1       2.506  -1.094  -4.787  0.00  0.00     0.034 A 
ATOM     15  C   UNL d   1       2.872  -0.033  -3.960  0.00  0.00     0.026 A 
ATOM     16 CL   UNL d   1       3.263  -1.285  -6.319  0.00  0.00    -0.084 Cl
ATOM     17  C   UNL d   1       2.263   0.125  -2.711  0.00  0.00     0.039 A 
ENDBRANCH  10  11
ENDBRANCH   8  10
ENDBRANCH   1   8
BRANCH   5  18
ATOM     18  C   UNL d   1       0.220   0.418   4.906  0.00  0.00    -0.060 C 
ATOM     19  C   UNL d   1       0.476   0.814   6.013  0.00  0.00    -0.061 C 
BRANCH  19  20
ATOM     20  C   UNL d   1       0.740   1.229   7.356  0.00  0.00     0.018 A 
ATOM     21  C   UNL d   1       0.682   0.293   8.393  0.00  0.00     0.020 A 
ATOM     22  C   UNL d   1       0.906   0.692   9.712  0.00  0.00     0.001 A 
ATOM     23  C   UNL d   1       1.191   2.027   9.997  0.00  0.00     0.000 A 
ATOM     24  C   UNL d   1       1.258   2.962   8.964  0.00  0.00     0.001 A 
ATOM     25  C   UNL d   1       1.034   2.564   7.643  0.00  0.00     0.020 A 
ENDBRANCH  19  20
ENDBRANCH   5  18
TORSDOF 5
