REMARK  1 active torsions:
REMARK  status: ('A' for Active; 'I' for Inactive)
REMARK    1  A    between atoms: C_9  and  C_2 
ROOT
ATOM      1  C   UNL d   1       3.911  -0.439  -0.569  0.00  0.00     0.004 A 
ATOM      2  C   UNL d   1       2.712  -1.228  -0.559  0.00  0.00    -0.005 A 
ATOM      3  N   UNL d   1       2.670   1.475   0.208  0.00  0.00    -0.358 N 
ATOM      4  HN  UNL d   1       2.653   2.455   0.488  1.00  0.00     0.166 HD
ATOM      5  C   UNL d   1       3.818   0.901  -0.153  0.00  0.00     0.043 A 
ATOM      6  C   UNL d   1       1.488  -0.620  -0.154  0.00  0.00    -0.024 A 
ATOM      7  C   UNL d   1       1.528   0.750   0.200  0.00  0.00     0.017 A 
ATOM      8  C   UNL d   1       5.196  -0.907  -0.973  0.00  0.00     0.038 A 
ATOM      9  C   UNL d   1       4.958   1.698  -0.105  0.00  0.00     0.032 A 
ATOM     10  C   UNL d   1       6.326  -0.093  -0.906  0.00  0.00     0.035 A 
ATOM     11  C   UNL d   1       6.213   1.212  -0.465  0.00  0.00     0.026 A 
ATOM     12 CL   UNL d   1       7.863  -0.716  -1.362  0.00  0.00    -0.084 Cl
ATOM     13  C   UNL d   1       0.133  -1.300  -0.218  0.00  0.00     0.041 C 
ATOM     14  C   UNL d   1       0.314   1.545   0.658  0.00  0.00     0.057 C 
ATOM     15  C   UNL d   1      -0.197  -2.680   0.350  0.00  0.00     0.005 C 
ATOM     16  C   UNL d   1      -0.709   1.890  -0.441  0.00  0.00     0.006 C 
ATOM     17  C   UNL d   1      -1.705  -3.017   0.198  0.00  0.00     0.000 C 
ATOM     18  C   UNL d   1      -2.018   2.444   0.151  0.00  0.00     0.000 C 
ATOM     19  C   UNL d   1      -2.679  -1.982   0.793  0.00  0.00     0.000 C 
ATOM     20  C   UNL d   1      -3.309   1.700  -0.248  0.00  0.00     0.000 C 
ATOM     21  C   UNL d   1      -3.067  -0.859  -0.188  0.00  0.00     0.000 C 
ATOM     22  C   UNL d   1      -3.571   0.398   0.529  0.00  0.00     0.000 C 
ENDROOT
BRANCH   2  23
ATOM     23  C   UNL d   1       2.769  -2.655  -0.964  0.00  0.00    -0.024 A 
ATOM     24  C   UNL d   1       3.526  -3.580  -0.218  0.00  0.00     0.012 A 
ATOM     25  C   UNL d   1       3.598  -4.925  -0.588  0.00  0.00     0.001 A 
ATOM     26  C   UNL d   1       2.881  -5.382  -1.689  0.00  0.00     0.000 A 
ATOM     27  C   UNL d   1       2.120  -4.487  -2.440  0.00  0.00     0.001 A 
ATOM     28  C   UNL d   1       2.085  -3.132  -2.095  0.00  0.00     0.012 A 
ENDBRANCH   2  23
TORSDOF 1
