REMARK  7 active torsions:
REMARK  status: ('A' for Active; 'I' for Inactive)
REMARK    1  A    between atoms: C_7  and  C_4 
REMARK       I    between atoms: N_10  and  C_7 
REMARK    2  A    between atoms: N_8  and  C_11 
REMARK    3  A    between atoms: N_9  and  C_15 
REMARK    4  A    between atoms: C_21  and  N_10 
REMARK    5  A    between atoms: C_22  and  N_10 
REMARK    6  A    between atoms: C_26  and  C_21 
REMARK    7  A    between atoms: C_27  and  C_22 
ROOT
ATOM      1  C   UNL d   1      -1.575   0.903  -1.262  0.00  0.00     0.005 A 
ATOM      2  C   UNL d   1      -1.739  -0.494  -1.076  0.00  0.00     0.029 A 
ATOM      3  C   UNL d   1      -1.777  -0.057  -3.395  0.00  0.00     0.028 A 
ATOM      4  C   UNL d   1      -1.344   1.683  -0.127  0.00  0.00     0.046 A 
ATOM      5  C   UNL d   1      -1.679   1.168  -2.700  0.00  0.00    -0.010 A 
ATOM      6  C   UNL d   1      -1.829  -1.136  -2.393  0.00  0.00     0.194 A 
ATOM      7  C   UNL d   1      -1.676  -0.309   1.278  0.00  0.00     0.104 A 
ATOM      8  C   UNL d   1      -1.800  -1.124   0.155  0.00  0.00     0.052 A 
ATOM      9  C   UNL d   1      -1.435   1.075   1.145  0.00  0.00     0.054 A 
ATOM     10  C   UNL d   1      -1.849  -0.185  -4.772  0.00  0.00     0.052 A 
ATOM     11  C   UNL d   1      -1.873   1.003  -5.501  0.00  0.00     0.103 A 
ATOM     12  C   UNL d   1      -1.762   2.336  -3.440  0.00  0.00     0.016 A 
ATOM     13  O   UNL d   1      -1.930  -2.323  -2.613  0.00  0.00    -0.287 OA
ATOM     14  C   UNL d   1      -1.866   2.255  -4.845  0.00  0.00     0.037 A 
ENDROOT
BRANCH   4  15
ATOM     15  C   UNL d   1      -1.108   3.146  -0.160  0.00  0.00     0.255 C 
ATOM     16  N   UNL d   1       0.011   3.697   0.478  0.00  0.00    -0.340 N 
ATOM     17  O   UNL d   1      -1.974   3.822  -0.709  0.00  0.00    -0.267 OA
BRANCH  16  18
ATOM     18  C   UNL d   1       0.107   5.165   0.523  0.00  0.00     0.165 C 
BRANCH  18  19
ATOM     19  C   UNL d   1       1.155   5.749  -0.399  0.00  0.00    -0.040 A 
ATOM     20  C   UNL d   1       1.109   5.527  -1.783  0.00  0.00     0.009 A 
ATOM     21  C   UNL d   1       2.065   6.099  -2.625  0.00  0.00     0.001 A 
ATOM     22  C   UNL d   1       3.071   6.906  -2.095  0.00  0.00     0.000 A 
ATOM     23  C   UNL d   1       3.122   7.142  -0.724  0.00  0.00     0.001 A 
ATOM     24  C   UNL d   1       2.171   6.566   0.120  0.00  0.00     0.009 A 
ENDBRANCH  18  19
ENDBRANCH  16  18
BRANCH  16  25
ATOM     25  C   UNL d   1       1.192   2.939   0.926  0.00  0.00     0.165 C 
BRANCH  25  26
ATOM     26  C   UNL d   1       1.466   2.892   2.420  0.00  0.00    -0.040 A 
ATOM     27  C   UNL d   1       0.574   3.338   3.405  0.00  0.00     0.009 A 
ATOM     28  C   UNL d   1       0.893   3.234   4.764  0.00  0.00     0.001 A 
ATOM     29  C   UNL d   1       2.106   2.678   5.163  0.00  0.00     0.000 A 
ATOM     30  C   UNL d   1       3.004   2.225   4.202  0.00  0.00     0.001 A 
ATOM     31  C   UNL d   1       2.686   2.333   2.845  0.00  0.00     0.009 A 
ENDBRANCH  25  26
ENDBRANCH  16  25
ENDBRANCH   4  15
BRANCH   7  32
ATOM     32  N   UNL d   1      -1.816  -0.892   2.618  0.00  0.00    -0.116 N 
ATOM     33  O   UNL d   1      -2.111  -2.092   2.693  0.00  0.00    -0.532 OA
ATOM     34  O   UNL d   1      -1.643  -0.145   3.589  0.00  0.00    -0.532 OA
ENDBRANCH   7  32
BRANCH  11  35
ATOM     35  N   UNL d   1      -1.891   0.952  -6.970  0.00  0.00    -0.116 N 
ATOM     36  O   UNL d   1      -1.762  -0.157  -7.505  0.00  0.00    -0.532 OA
ATOM     37  O   UNL d   1      -2.021   2.021  -7.580  0.00  0.00    -0.532 OA
ENDBRANCH  11  35
TORSDOF 7
