REMARK  7 active torsions:
REMARK  status: ('A' for Active; 'I' for Inactive)
REMARK       I    between atoms: N_9  and  C_1 
REMARK    1  A    between atoms: C_17  and  C_1 
REMARK    2  A    between atoms: C_2  and  C_7 
REMARK    3  A    between atoms: N_3  and  N_9 
REMARK    4  A    between atoms: C_6  and  C_18 
REMARK       I    between atoms: N_8  and  C_6 
REMARK    5  A    between atoms: C_16  and  N_8 
REMARK    6  A    between atoms: S_15  and  C_17 
REMARK    7  A    between atoms: C_18  and  S_15 
ROOT
ATOM      1  C   UNL d   1       2.619  -0.074  -0.074  0.00  0.00     0.178 C 
ENDROOT
BRANCH   1   2
ATOM      2  S   UNL d   1       3.476  -1.186  -1.248  0.00  0.00    -0.150 SA
BRANCH   2   3
ATOM      3  C   UNL d   1       4.982  -0.193  -1.506  0.00  0.00     0.177 C 
BRANCH   3   4
ATOM      4  C   UNL d   1       5.929  -0.732  -2.573  0.00  0.00     0.231 C 
ATOM      5  N   UNL d   1       5.925  -2.099  -2.780  0.00  0.00    -0.327 N 
ATOM      6  H   UNL d   1       5.455  -2.667  -2.086  0.00  0.00     0.169 HD
ATOM      7  O   UNL d   1       6.709   0.051  -3.121  0.00  0.00    -0.272 OA
BRANCH   5   8
ATOM      8  C   UNL d   1       6.665  -2.763  -3.783  0.00  0.00     0.034 A 
ATOM      9  C   UNL d   1       7.003  -4.106  -3.590  0.00  0.00     0.029 A 
ATOM     10  C   UNL d   1       7.762  -4.788  -4.550  0.00  0.00     0.002 A 
ATOM     11  C   UNL d   1       8.146  -4.148  -5.727  0.00  0.00     0.000 A 
ATOM     12  C   UNL d   1       7.778  -2.824  -5.944  0.00  0.00     0.002 A 
ATOM     13  C   UNL d   1       7.050  -2.133  -4.971  0.00  0.00     0.029 A 
ENDBRANCH   5   8
ENDBRANCH   3   4
ENDBRANCH   2   3
ENDBRANCH   1   2
BRANCH   1  14
ATOM     14  C   UNL d   1       2.187   1.223  -0.747  0.00  0.00     0.245 C 
ATOM     15  N   UNL d   1       1.102   1.054  -1.594  0.00  0.00    -0.270 N 
ATOM     16  H   UNL d   1       0.757   0.118  -1.783  0.00  0.00     0.190 HD
ATOM     17  O   UNL d   1       2.775   2.280  -0.530  0.00  0.00    -0.271 OA
BRANCH  15  18
ATOM     18  N   UNL d   1       0.629   2.109  -2.338  0.00  0.00    -0.308 N 
ATOM     19  C   UNL d   1      -0.286   1.798  -3.202  0.00  0.00     0.126 C 
ATOM     20  HN  UNL d   1       0.973   3.062  -2.221  1.00  0.00     0.186 HD
BRANCH  19  21
ATOM     21  C   UNL d   1      -0.867   2.777  -4.089  0.00  0.00     0.021 A 
ATOM     22  S   UNL d   1      -1.983   2.239  -5.276  0.00  0.00    -0.101 SA
ATOM     23  C   UNL d   1      -2.178   3.816  -5.907  0.00  0.00     0.050 A 
ATOM     24  C   UNL d   1      -1.424   4.740  -5.218  0.00  0.00     0.008 A 
ATOM     25  C   UNL d   1      -0.667   4.140  -4.167  0.00  0.00     0.021 A 
ENDBRANCH  19  21
ENDBRANCH  15  18
ENDBRANCH   1  14
TORSDOF 7
