REMARK  8 active torsions:
REMARK  status: ('A' for Active; 'I' for Inactive)
REMARK    1  A    between atoms: S_17  and  C_2 
REMARK    2  A    between atoms: S_19  and  C_3 
REMARK    3  A    between atoms: C_9  and  C_20 
REMARK    4  A    between atoms: C_10  and  C_15 
REMARK    5  A    between atoms: C_20  and  S_17 
REMARK    6  A    between atoms: C_29  and  S_19 
REMARK    7  A    between atoms: O_30  and  C_26 
REMARK    8  A    between atoms: C_28  and  C_29 
ROOT
ATOM      1  S   UNL d   1       1.302  -0.138  -0.354  0.00  0.00    -0.038 SA
ATOM      2  C   UNL d   1       0.119   1.101  -0.486  0.00  0.00     0.129 A 
ATOM      3  C   UNL d   1       0.037  -1.199   0.117  0.00  0.00     0.129 A 
ATOM      4  N   UNL d   1      -1.090   0.728  -0.132  0.00  0.00    -0.287 N 
ATOM      5  HN  UNL d   1      -1.896   1.352  -0.111  1.00  0.00     0.188 HD
ATOM      6  N   UNL d   1      -1.139  -0.611   0.211  0.00  0.00    -0.287 N 
ATOM      7  HN  UNL d   1      -1.990  -1.090   0.504  1.00  0.00     0.188 HD
ENDROOT
BRANCH   2   8
ATOM      8  S   UNL d   1       0.484   2.707  -1.080  0.00  0.00    -0.099 SA
BRANCH   8   9
ATOM      9  C   UNL d   1      -1.167   3.476  -1.042  0.00  0.00     0.121 C 
BRANCH   9  10
ATOM     10  C   UNL d   1      -1.092   4.902  -1.538  0.00  0.00    -0.030 A 
ATOM     11  C   UNL d   1      -1.263   5.248  -2.963  0.00  0.00     0.005 A 
ATOM     12  C   UNL d   1      -1.179   6.595  -3.340  0.00  0.00     0.092 A 
ATOM     13  C   UNL d   1      -1.514   4.315  -3.979  0.00  0.00     0.017 A 
ATOM     14  C   UNL d   1      -1.318   7.016  -4.664  0.00  0.00     0.074 A 
ATOM     15  O   UNL d   1      -0.955   7.615  -2.396  0.00  0.00    -0.275 OA
ATOM     16  C   UNL d   1      -1.558   6.068  -5.646  0.00  0.00     0.068 A 
ATOM     17  C   UNL d   1      -1.664   4.721  -5.315  0.00  0.00     0.037 A 
ATOM     18  C   UNL d   1      -0.839   7.328  -1.052  0.00  0.00     0.288 A 
ATOM     19  C   UNL d   1      -0.915   5.909  -0.670  0.00  0.00     0.091 A 
ATOM     20  O   UNL d   1      -0.677   8.195  -0.201  0.00  0.00    -0.260 OA
BRANCH  16  21
ATOM     21  O   UNL d   1      -1.684   6.502  -6.931  0.00  0.00    -0.361 OA
ATOM     22  H   UNL d   1      -1.808   5.735  -7.515  0.00  0.00     0.217 HD
ENDBRANCH  16  21
ENDBRANCH   9  10
ENDBRANCH   8   9
ENDBRANCH   2   8
BRANCH   3  23
ATOM     23  S   UNL d   1       0.172  -2.934   0.334  0.00  0.00    -0.099 SA
BRANCH  23  24
ATOM     24  C   UNL d   1       1.792  -3.141   1.115  0.00  0.00     0.120 C 
BRANCH  24  25
ATOM     25  C   UNL d   1       2.124  -4.601   1.346  0.00  0.00    -0.048 A 
ATOM     26  C   UNL d   1       1.802  -5.231   2.560  0.00  0.00     0.024 A 
ATOM     27  C   UNL d   1       2.136  -6.579   2.790  0.00  0.00     0.048 A 
ATOM     28  C   UNL d   1       2.783  -7.301   1.775  0.00  0.00     0.016 A 
ATOM     29  C   UNL d   1       3.087  -6.692   0.559  0.00  0.00     0.001 A 
ATOM     30  C   UNL d   1       2.759  -5.352   0.345  0.00  0.00     0.008 A 
BRANCH  27  31
ATOM     31  C   UNL d   1       1.827  -7.252   4.105  0.00  0.00     0.417 C 
ATOM     32  F   UNL d   1       1.193  -6.441   4.998  0.00  0.00    -0.166 F 
ATOM     33  F   UNL d   1       1.028  -8.346   3.961  0.00  0.00    -0.166 F 
ATOM     34  F   UNL d   1       2.950  -7.692   4.738  0.00  0.00    -0.166 F 
ENDBRANCH  27  31
ENDBRANCH  24  25
ENDBRANCH  23  24
ENDBRANCH   3  23
TORSDOF 8
