REMARK  4 active torsions:
REMARK  status: ('A' for Active; 'I' for Inactive)
REMARK       I    between atoms: C_2  and  N_1 
REMARK    1  A    between atoms: C_11  and  C_2 
REMARK    2  A    between atoms: O_17  and  C_8 
REMARK    3  A    between atoms: O_18  and  C_10 
REMARK    4  A    between atoms: O_22  and  C_16 
ROOT
ATOM      1  N   UNL d   1      -2.459   0.688  -0.322  0.00  0.00    -0.339 N 
ATOM      2  C   UNL d   1      -3.389   1.110  -1.283  0.00  0.00     0.254 C 
ATOM      3  C   UNL d   1      -0.006   0.617   0.082  0.00  0.00    -0.026 A 
ATOM      4  C   UNL d   1      -1.280   1.436   0.136  0.00  0.00     0.117 C 
ATOM      5  C   UNL d   1      -0.024  -0.778  -0.026  0.00  0.00    -0.045 A 
ATOM      6  C   UNL d   1       1.223   1.295   0.149  0.00  0.00     0.049 A 
ATOM      7  C   UNL d   1      -2.553  -0.675   0.212  0.00  0.00     0.131 C 
ATOM      8  C   UNL d   1       2.433   0.605   0.122  0.00  0.00     0.102 A 
ATOM      9  C   UNL d   1       1.195  -1.476  -0.072  0.00  0.00     0.047 A 
ATOM     10  C   UNL d   1       2.422  -0.795   0.001  0.00  0.00     0.102 A 
ATOM     11  O   UNL d   1      -4.295   0.374  -1.685  0.00  0.00    -0.267 OA
ATOM     12  C   UNL d   1      -1.335  -1.516  -0.185  0.00  0.00     0.059 C 
ATOM     13  C   UNL d   1      -1.489   1.971   1.560  0.00  0.00     0.037 C 
ENDROOT
BRANCH   2  14
ATOM     14  C   UNL d   1      -3.285   2.459  -1.917  0.00  0.00     0.032 C 
ATOM     15  C   UNL d   1      -3.525   2.574  -3.290  0.00  0.00     0.020 C 
ATOM     16  C   UNL d   1      -3.331   3.799  -3.943  0.00  0.00     0.038 C 
ATOM     17  C   UNL d   1      -2.877   4.915  -3.237  0.00  0.00     0.068 C 
ATOM     18  C   UNL d   1      -2.718   4.824  -1.857  0.00  0.00     0.038 C 
ATOM     19  C   UNL d   1      -2.970   3.615  -1.199  0.00  0.00     0.020 C 
BRANCH  17  20
ATOM     20  O   UNL d   1      -2.636   6.031  -3.990  0.00  0.00    -0.356 OA
ATOM     21  C   UNL d   1      -1.982   7.111  -3.331  0.00  0.00     0.210 C 
ENDBRANCH  17  20
ENDBRANCH   2  14
BRANCH   8  22
ATOM     22  O   UNL d   1       3.656   1.230   0.160  0.00  0.00    -0.353 OA
ATOM     23  C   UNL d   1       3.684   2.535   0.730  0.00  0.00     0.210 C 
ENDBRANCH   8  22
BRANCH  10  24
ATOM     24  O   UNL d   1       3.652  -1.404  -0.037  0.00  0.00    -0.353 OA
ATOM     25  C   UNL d   1       3.679  -2.820  -0.140  0.00  0.00     0.210 C 
ENDBRANCH  10  24
TORSDOF 4
