REMARK  11 active torsions:
REMARK  status: ('A' for Active; 'I' for Inactive)
REMARK    1  A    between atoms: C_2  and  C_1 
REMARK    2  A    between atoms: C_18  and  C_5 
REMARK    3  A    between atoms: C_6  and  O_11 
REMARK    4  A    between atoms: C_14  and  C_6 
REMARK    5  A    between atoms: O_11  and  N_8 
REMARK    6  A    between atoms: C_12  and  C_27 
REMARK    7  A    between atoms: N_28  and  C_12 
REMARK    8  A    between atoms: C_15  and  C_16 
REMARK    9  A    between atoms: O_26  and  C_18 
REMARK   10  A    between atoms: C_30  and  O_26 
REMARK   11  A    between atoms: C_27  and  C_31 
ROOT
ATOM      1  C   UNL d   1      -2.536  15.466   3.183  0.00  0.00     0.069 A 
ATOM      2  C   UNL d   1      -2.649  14.033   0.737  0.00  0.00    -0.051 A 
ATOM      3  C   UNL d   1      -3.238  14.263   3.093  0.00  0.00     0.037 A 
ATOM      4  C   UNL d   1      -1.922  15.969   2.033  0.00  0.00     0.037 A 
ATOM      5  C   UNL d   1      -1.973  15.260   0.825  0.00  0.00     0.010 A 
ATOM      6  C   UNL d   1      -3.293  13.554   1.886  0.00  0.00     0.010 A 
ENDROOT
BRANCH   2   7
ATOM      7  C   UNL d   1      -2.787  13.297  -0.580  0.00  0.00     0.116 C 
BRANCH   7   8
ATOM      8  C   UNL d   1      -2.252  11.857  -0.577  0.00  0.00     0.100 C 
ATOM      9  N   UNL d   1      -3.080  10.907  -0.256  0.00  0.00    -0.245 N 
ATOM     10  HN  UNL d   1      -4.050  11.072   0.013  1.00  0.00     0.196 HD
BRANCH   9  11
ATOM     11  O   UNL d   1      -2.491   9.614  -0.319  0.00  0.00    -0.193 OA
BRANCH  11  12
ATOM     12  C   UNL d   1      -3.462   8.668  -0.082  0.00  0.00     0.315 C 
ATOM     13  O   UNL d   1      -4.646   8.874   0.137  0.00  0.00    -0.257 OA
BRANCH  12  14
ATOM     14  C   UNL d   1      -2.908   7.276  -0.089  0.00  0.00     0.041 A 
ATOM     15  C   UNL d   1      -3.776   6.221   0.228  0.00  0.00     0.018 A 
ATOM     16  C   UNL d   1      -3.320   4.895   0.279  0.00  0.00     0.009 A 
ATOM     17  C   UNL d   1      -1.976   4.570   0.017  0.00  0.00    -0.051 A 
ATOM     18  C   UNL d   1      -1.124   5.635  -0.327  0.00  0.00     0.009 A 
ATOM     19  C   UNL d   1      -1.578   6.968  -0.380  0.00  0.00     0.018 A 
BRANCH  17  20
ATOM     20  C   UNL d   1      -1.492   3.108   0.141  0.00  0.00    -0.024 C 
ATOM     21  C   UNL d   1       0.017   2.929  -0.147  0.00  0.00     0.019 C 
ATOM     22  C   UNL d   1      -1.738   2.592   1.578  0.00  0.00     0.019 C 
ATOM     23  C   UNL d   1      -2.249   2.192  -0.848  0.00  0.00     0.019 C 
ENDBRANCH  17  20
ENDBRANCH  12  14
ENDBRANCH  11  12
ENDBRANCH   9  11
BRANCH   8  24
ATOM     24  N   UNL d   1      -0.937  11.668  -0.927  0.00  0.00    -0.387 N 
ATOM     25  H   UNL d   1      -0.562  10.770  -0.647  0.00  0.00     0.157 HD
ATOM     26  H   UNL d   1      -0.309  12.447  -0.764  0.00  0.00     0.157 HD
ENDBRANCH   8  24
ENDBRANCH   7   8
ENDBRANCH   2   7
BRANCH   1  27
ATOM     27  O   UNL d   1      -2.425  16.233   4.318  0.00  0.00    -0.345 OA
BRANCH  27  28
ATOM     28  C   UNL d   1      -2.513  15.500   5.546  0.00  0.00     0.234 C 
BRANCH  28  29
ATOM     29  C   UNL d   1      -2.278  16.368   6.768  0.00  0.00     0.055 A 
ATOM     30  N   UNL d   1      -1.160  16.085   7.499  0.00  0.00    -0.365 N 
ATOM     31  C   UNL d   1      -0.963  16.761   8.655  0.00  0.00     0.104 A 
ATOM     32  HN  UNL d   1      -0.491  15.383   7.183  1.00  0.00     0.165 HD
ATOM     33  C   UNL d   1      -1.830  17.724   9.146  0.00  0.00     0.064 A 
ATOM     34  C   UNL d   1      -2.969  18.009   8.386  0.00  0.00     0.043 A 
ATOM     35  C   UNL d   1      -3.202  17.328   7.188  0.00  0.00     0.059 A 
ATOM     36 CL   UNL d   1      -4.652  17.673   6.324  0.00  0.00    -0.082 Cl
BRANCH  33  37
ATOM     37  C   UNL d   1      -1.525  18.402  10.445  0.00  0.00     0.418 C 
ATOM     38  F   UNL d   1      -2.452  19.334  10.801  0.00  0.00    -0.166 F 
ATOM     39  F   UNL d   1      -0.330  19.052  10.426  0.00  0.00    -0.166 F 
ATOM     40  F   UNL d   1      -1.458  17.527  11.486  0.00  0.00    -0.166 F 
ENDBRANCH  33  37
ENDBRANCH  28  29
ENDBRANCH  27  28
ENDBRANCH   1  27
TORSDOF 11
