REMARK  3 active torsions:
REMARK  status: ('A' for Active; 'I' for Inactive)
REMARK       I    between atoms: N_2  and  C_1 
REMARK    1  A    between atoms: C_7  and  C_1 
REMARK    2  A    between atoms: N_3  and  N_2 
REMARK    3  A    between atoms: C_4  and  N_3 
ROOT
ATOM      1  N   UNL d   1       0.783   1.920   1.594  0.00  0.00    -0.200 NA
ATOM      2  H   UNL d   1       1.759   2.019   1.286  0.00  0.00     0.153 HD
ENDROOT
BRANCH   1   3
ATOM      3  N   UNL d   1       0.153   0.891   0.874  0.00  0.00    -0.286 N 
ATOM      4  C   UNL d   1       0.968   0.010   0.181  0.00  0.00     0.236 C 
ATOM      5  O   UNL d   1       2.189   0.201   0.110  0.00  0.00    -0.272 OA
ATOM      6  H   UNL d   1      -0.831   0.724   1.070  0.00  0.00     0.184 HD
BRANCH   4   7
ATOM      7  C   UNL d   1       0.252  -1.191  -0.482  0.00  0.00     0.079 C 
ATOM      8  C   UNL d   1       0.450  -1.332  -2.017  0.00  0.00     0.014 C 
ATOM      9  C   UNL d   1      -0.978  -1.890  -2.099  0.00  0.00     0.002 C 
ATOM     10  C   UNL d   1      -1.273  -1.158  -0.777  0.00  0.00     0.014 C 
ENDBRANCH   4   7
ENDBRANCH   1   3
BRANCH   1  11
ATOM     11  C   UNL d   1       0.088   3.156   1.586  0.00  0.00     0.066 A 
ATOM     12  C   UNL d   1      -1.313   3.260   1.593  0.00  0.00     0.139 A 
ATOM     13  F   UNL d   1      -2.075   2.153   1.501  0.00  0.00    -0.204 F 
ATOM     14  C   UNL d   1      -1.962   4.489   1.698  0.00  0.00     0.044 A 
ATOM     15  C   UNL d   1      -1.214   5.656   1.828  0.00  0.00     0.003 A 
ATOM     16  C   UNL d   1       0.177   5.582   1.858  0.00  0.00     0.002 A 
ATOM     17  C   UNL d   1       0.820   4.342   1.753  0.00  0.00     0.028 A 
ENDBRANCH   1  11
TORSDOF 3
