REMARK  1 active torsions:
REMARK  status: ('A' for Active; 'I' for Inactive)
REMARK    1  A    between atoms: O_26  and  C_24 
ROOT
ATOM      1  C   UNL d   1       2.723  -0.748  -0.005  0.00  0.00     0.134 A 
ATOM      2  C   UNL d   1       1.776   0.244  -0.005  0.00  0.00     0.104 A 
ATOM      3  N   UNL d   1       4.086  -0.345  -0.008  0.00  0.00    -0.288 N 
ATOM      4  N   UNL d   1       3.526   1.962  -0.011  0.00  0.00    -0.270 N 
ATOM      5  N   UNL d   1       2.250  -2.101  -0.003  0.00  0.00    -0.303 N 
ATOM      6  C   UNL d   1       4.495   1.004  -0.010  0.00  0.00     0.332 A 
ATOM      7  C   UNL d   1       2.185   1.688  -0.004  0.00  0.00     0.267 A 
ATOM      8  C   UNL d   1      -0.107  -1.366  -0.002  0.00  0.00     0.061 A 
ATOM      9  C   UNL d   1       0.322  -0.067  -0.004  0.00  0.00     0.068 A 
ATOM     10  C   UNL d   1       0.872  -2.431  -0.002  0.00  0.00     0.261 A 
ATOM     11  N   UNL d   1      -0.586   0.942  -0.005  0.00  0.00    -0.354 N 
ATOM     12  HN  UNL d   1      -0.264   1.910  -0.006  1.00  0.00     0.166 HD
ATOM     13  C   UNL d   1      -1.474  -1.665  -0.002  0.00  0.00     0.033 A 
ATOM     14  C   UNL d   1      -2.404  -0.632  -0.003  0.00  0.00    -0.006 A 
ATOM     15  C   UNL d   1      -1.910   0.680  -0.004  0.00  0.00     0.043 A 
ATOM     16  O   UNL d   1       5.690   1.322  -0.010  0.00  0.00    -0.246 OA
ATOM     17  O   UNL d   1       1.375   2.615   0.001  0.00  0.00    -0.267 OA
ATOM     18  O   UNL d   1       0.440  -3.585   0.000  0.00  0.00    -0.267 OA
ATOM     19  C   UNL d   1      -3.786  -0.885  -0.003  0.00  0.00     0.050 A 
ATOM     20  C   UNL d   1       5.282  -1.162  -0.005  0.00  0.00     0.163 C 
ATOM     21  C   UNL d   1       3.921   3.364  -0.010  0.00  0.00     0.164 C 
ATOM     22  C   UNL d   1       2.979  -3.353  -0.002  0.00  0.00     0.161 C 
ATOM     23  C   UNL d   1      -2.838   1.714  -0.003  0.00  0.00     0.033 A 
ATOM     24  C   UNL d   1      -4.700   0.166  -0.003  0.00  0.00     0.069 A 
ATOM     25  C   UNL d   1      -4.221   1.472  -0.002  0.00  0.00     0.039 A 
ENDROOT
BRANCH  24  26
ATOM     26  O   UNL d   1      -6.011  -0.220  -0.002  0.00  0.00    -0.356 OA
ATOM     27  C   UNL d   1      -6.985   0.816  -0.002  0.00  0.00     0.210 C 
ENDBRANCH  24  26
TORSDOF 1
