REMARK  19 active torsions:
REMARK  status: ('A' for Active; 'I' for Inactive)
REMARK    1  A    between atoms: C_2  and  C_1 
REMARK    2  A    between atoms: C_3  and  C_1 
REMARK    3  A    between atoms: C_1  and  O_4 
REMARK    4  A    between atoms: C_2  and  O_5 
REMARK    5  A    between atoms: C_8  and  C_2 
REMARK    6  A    between atoms: O_9  and  C_3 
REMARK    7  A    between atoms: C_6  and  O_4 
REMARK    8  A    between atoms: C_7  and  O_5 
REMARK    9  A    between atoms: C_14  and  C_6 
REMARK   10  A    between atoms: C_13  and  C_7 
REMARK   11  A    between atoms: O_19  and  C_8 
REMARK   12  A    between atoms: C_18  and  O_9 
REMARK   13  A    between atoms: N_16  and  C_20 
REMARK   14  A    between atoms: C_17  and  N_16 
REMARK   15  A    between atoms: C_23  and  C_18 
REMARK   16  A    between atoms: C_18  and  C_20 
REMARK   17  A    between atoms: O_21  and  C_23 
REMARK   18  A    between atoms: C_24  and  O_21 
REMARK   19  A    between atoms: C_22  and  C_24 
ROOT
ATOM      1  C   UNL d   1       2.868   1.366   2.486  0.00  0.00     0.271 C 
ENDROOT
BRANCH   1   2
ATOM      2  C   UNL d   1       3.409   2.387   1.438  0.00  0.00     0.268 C 
BRANCH   2   3
ATOM      3  O   UNL d   1       3.606   1.729   0.143  0.00  0.00    -0.298 OA
BRANCH   3   4
ATOM      4  C   UNL d   1       4.809   1.176  -0.105  0.00  0.00     0.294 C 
ATOM      5  O   UNL d   1       5.742   1.135   0.674  0.00  0.00    -0.259 OA
BRANCH   4   6
ATOM      6  C   UNL d   1       4.835   0.629  -1.491  0.00  0.00     0.039 A 
ATOM      7  C   UNL d   1       3.663   0.280  -2.174  0.00  0.00     0.017 A 
ATOM      8  C   UNL d   1       3.734  -0.235  -3.473  0.00  0.00     0.001 A 
ATOM      9  C   UNL d   1       4.973  -0.398  -4.092  0.00  0.00     0.000 A 
ATOM     10  C   UNL d   1       6.142  -0.055  -3.415  0.00  0.00     0.001 A 
ATOM     11  C   UNL d   1       6.078   0.455  -2.113  0.00  0.00     0.017 A 
ENDBRANCH   4   6
ENDBRANCH   3   4
ENDBRANCH   2   3
BRANCH   2  12
ATOM     12  C   UNL d   1       2.486   3.539   1.024  0.00  0.00     0.173 C 
ATOM     13  O   UNL d   1       2.729   4.715   1.276  0.00  0.00    -0.648 OA
BRANCH  12  14
ATOM     14  O   UNL d   1       1.434   3.205   0.242  0.00  0.00    -0.774 OA
ATOM     15  H   UNL d   1       1.387   2.239   0.043  0.00  0.00     0.167 HD
ENDBRANCH  12  14
ENDBRANCH   2  12
ENDBRANCH   1   2
BRANCH   1  16
ATOM     16  C   UNL d   1       1.475   0.871   2.045  0.00  0.00     0.292 C 
ATOM     17  O   UNL d   1       1.192   0.806   0.842  0.00  0.00    -0.262 OA
BRANCH  16  18
ATOM     18  O   UNL d   1       0.649   0.399   3.022  0.00  0.00    -0.310 OA
BRANCH  18  19
ATOM     19  C   UNL d   1      -0.517  -0.311   2.488  0.00  0.00     0.183 C 
BRANCH  19  20
ATOM     20  C   UNL d   1      -0.770  -1.622   3.258  0.00  0.00     0.202 C 
BRANCH  20  21
ATOM     21  O   UNL d   1      -1.616  -2.568   2.572  0.00  0.00    -0.384 OA
BRANCH  21  22
ATOM     22  C   UNL d   1      -0.984  -3.276   1.489  0.00  0.00     0.206 C 
BRANCH  22  23
ATOM     23  C   UNL d   1      -1.825  -4.423   0.946  0.00  0.00    -0.035 A 
ATOM     24  C   UNL d   1      -2.822  -5.046   1.707  0.00  0.00     0.009 A 
ATOM     25  C   UNL d   1      -3.581  -6.097   1.177  0.00  0.00     0.001 A 
ATOM     26  C   UNL d   1      -3.347  -6.554  -0.119  0.00  0.00     0.000 A 
ATOM     27  C   UNL d   1      -2.334  -5.971  -0.877  0.00  0.00     0.001 A 
ATOM     28  C   UNL d   1      -1.575  -4.922  -0.347  0.00  0.00     0.009 A 
ENDBRANCH  22  23
ENDBRANCH  21  22
ENDBRANCH  20  21
ENDBRANCH  19  20
BRANCH  19  29
ATOM     29  C   UNL d   1      -1.719   0.641   2.163  0.00  0.00     0.305 C 
BRANCH  29  30
ATOM     30  N   UNL d   1      -2.485   1.407   3.177  0.00  0.00     0.094 N 
ATOM     31  H   UNL d   1      -1.841   1.895   3.802  0.00  0.00     0.317 HD
BRANCH  30  32
ATOM     32  C   UNL d   1      -3.412   2.430   2.567  0.00  0.00     0.147 C 
ATOM     33  C   UNL d   1      -4.427   1.800   1.588  0.00  0.00     0.048 C 
ATOM     34  C   UNL d   1      -4.249   3.128   3.667  0.00  0.00     0.048 C 
ATOM     35  C   UNL d   1      -2.630   3.549   1.843  0.00  0.00     0.048 C 
ENDBRANCH  30  32
ENDBRANCH  29  30
ENDBRANCH  19  29
ENDBRANCH  18  19
ENDBRANCH  16  18
ENDBRANCH   1  16
BRANCH   1  36
ATOM     36  O   UNL d   1       3.157   1.640   3.867  0.00  0.00    -0.299 OA
BRANCH  36  37
ATOM     37  C   UNL d   1       2.662   2.764   4.420  0.00  0.00     0.294 C 
ATOM     38  O   UNL d   1       2.003   3.588   3.798  0.00  0.00    -0.259 OA
BRANCH  37  39
ATOM     39  C   UNL d   1       2.908   2.864   5.889  0.00  0.00     0.039 A 
ATOM     40  C   UNL d   1       2.476   4.022   6.550  0.00  0.00     0.017 A 
ATOM     41  C   UNL d   1       2.482   4.092   7.947  0.00  0.00     0.001 A 
ATOM     42  C   UNL d   1       2.940   3.008   8.694  0.00  0.00     0.000 A 
ATOM     43  C   UNL d   1       3.445   1.882   8.044  0.00  0.00     0.001 A 
ATOM     44  C   UNL d   1       3.442   1.810   6.645  0.00  0.00     0.017 A 
ENDBRANCH  37  39
ENDBRANCH  36  37
ENDBRANCH   1  36
TORSDOF 19
