REMARK  3 active torsions:
REMARK  status: ('A' for Active; 'I' for Inactive)
REMARK    1  A    between atoms: C_5  and  C_1 
REMARK    2  A    between atoms: C_6  and  C_2 
REMARK       I    between atoms: N_9  and  C_5 
REMARK    3  A    between atoms: C_10  and  N_9 
ROOT
ATOM      1  C   UNL d   1      -0.047  -1.639  -0.514  0.00  0.00     0.092 A 
ATOM      2  C   UNL d   1       0.038  -0.707  -1.604  0.00  0.00     0.085 A 
ATOM      3  N   UNL d   1      -0.994   0.155  -1.560  0.00  0.00    -0.259 N 
ATOM      4  HN  UNL d   1      -1.180   0.913  -2.217  1.00  0.00     0.195 HD
ATOM      5  O   UNL d   1      -1.744  -0.178  -0.466  0.00  0.00    -0.241 OA
ATOM      6  C   UNL d   1      -1.182  -1.233   0.170  0.00  0.00     0.090 A 
ATOM      7  C   UNL d   1      -1.874  -1.649   1.407  0.00  0.00     0.080 C 
ENDROOT
BRANCH   1   8
ATOM      8  C   UNL d   1       0.852  -2.723  -0.146  0.00  0.00     0.256 C 
ATOM      9  N   UNL d   1       0.242  -3.770   0.521  0.00  0.00    -0.352 N 
ATOM     10  H   UNL d   1      -0.764  -3.818   0.450  0.00  0.00     0.163 HD
ATOM     11  O   UNL d   1       2.045  -2.715  -0.422  0.00  0.00    -0.267 OA
BRANCH   9  12
ATOM     12  C   UNL d   1       0.924  -5.022   0.831  0.00  0.00     0.093 C 
ATOM     13  C   UNL d   1      -0.044  -6.048   1.471  0.00  0.00     0.064 C 
ATOM     14  C   UNL d   1       0.885  -6.893   2.282  0.00  0.00    -0.050 A 
ATOM     15  C   UNL d   1       0.635  -8.137   2.841  0.00  0.00     0.007 A 
ATOM     16  C   UNL d   1       2.103  -6.239   2.484  0.00  0.00    -0.050 A 
ATOM     17  C   UNL d   1       1.641  -8.735   3.601  0.00  0.00     0.001 A 
ATOM     18  C   UNL d   1       2.867  -8.083   3.803  0.00  0.00     0.001 A 
ATOM     19  C   UNL d   1       3.102  -6.821   3.247  0.00  0.00     0.007 A 
ATOM     20  C   UNL d   1       2.106  -4.889   1.823  0.00  0.00     0.064 C 
ENDBRANCH   9  12
ENDBRANCH   1   8
BRANCH   2  21
ATOM     21  C   UNL d   1       1.010  -0.556  -2.687  0.00  0.00     0.015 A 
ATOM     22  C   UNL d   1       1.343  -1.577  -3.589  0.00  0.00     0.046 A 
ATOM     23 CL   UNL d   1       0.663  -3.166  -3.502  0.00  0.00    -0.083 Cl
ATOM     24  C   UNL d   1       2.200  -1.313  -4.669  0.00  0.00     0.025 A 
ATOM     25  C   UNL d   1       2.714  -0.031  -4.874  0.00  0.00     0.002 A 
ATOM     26  C   UNL d   1       2.386   0.993  -3.993  0.00  0.00     0.001 A 
ATOM     27  C   UNL d   1       1.547   0.731  -2.908  0.00  0.00     0.015 A 
ENDBRANCH   2  21
TORSDOF 3
