REMARK  2 active torsions:
REMARK  status: ('A' for Active; 'I' for Inactive)
REMARK    1  A    between atoms: C_9  and  N_3 
REMARK    2  A    between atoms: C_11  and  C_9 
ROOT
ATOM      1  C   UNL d   1      -0.690   1.236   0.049  0.00  0.00     0.118 A 
ATOM      2  C   UNL d   1      -1.460  -0.048   0.108  0.00  0.00     0.269 A 
ATOM      3  N   UNL d   1      -0.725  -1.239   0.015  0.00  0.00    -0.313 N 
ATOM      4  C   UNL d   1       0.657   1.199  -0.016  0.00  0.00    -0.034 A 
ATOM      5  C   UNL d   1       0.673  -1.244  -0.030  0.00  0.00     0.012 A 
ATOM      6  C   UNL d   1       1.341  -0.078  -0.035  0.00  0.00     0.033 A 
ATOM      7  C   UNL d   1      -1.430   2.450   0.058  0.00  0.00     0.105 C 
ATOM      8  N   UNL d   1      -1.979   3.475   0.052  0.00  0.00    -0.191 NA
ATOM      9  O   UNL d   1      -2.684  -0.018   0.233  0.00  0.00    -0.266 OA
ATOM     10  C   UNL d   1       1.559   2.403  -0.082  0.00  0.00     0.050 C 
ATOM     11  C   UNL d   1       1.434  -2.544  -0.060  0.00  0.00     0.068 C 
ENDROOT
BRANCH   3  12
ATOM     12  C   UNL d   1      -1.499  -2.492   0.001  0.00  0.00     0.170 C 
BRANCH  12  13
ATOM     13  C   UNL d   1      -1.484  -3.249   1.312  0.00  0.00    -0.040 A 
ATOM     14  C   UNL d   1      -1.565  -2.586   2.544  0.00  0.00     0.009 A 
ATOM     15  C   UNL d   1      -1.486  -3.298   3.742  0.00  0.00     0.007 A 
ATOM     16  C   UNL d   1      -1.352  -4.690   3.733  0.00  0.00    -0.062 A 
ATOM     17  C   UNL d   1      -1.337  -5.363   2.508  0.00  0.00     0.007 A 
ATOM     18  C   UNL d   1      -1.193  -5.430   5.027  0.00  0.00     0.048 C 
ATOM     19  C   UNL d   1      -1.410  -4.650   1.309  0.00  0.00     0.009 A 
ENDBRANCH  12  13
ENDBRANCH   3  12
TORSDOF 2
