REMARK  4 active torsions:
REMARK  status: ('A' for Active; 'I' for Inactive)
REMARK    1  A    between atoms: C_5  and  C_1 
REMARK    2  A    between atoms: C_8  and  C_4 
REMARK    3  A    between atoms: S_9  and  C_5 
REMARK    4  A    between atoms: C_13  and  S_9 
ROOT
ATOM      1  C   UNL d   1       1.371   0.742   0.151  0.00  0.00     0.097 A 
ATOM      2  N   UNL d   1       1.490  -0.629  -0.122  0.00  0.00    -0.346 N 
ATOM      3  HN  UNL d   1       2.341  -1.073  -0.468  1.00  0.00     0.167 HD
ATOM      4  C   UNL d   1       0.367  -1.272   0.124  0.00  0.00     0.086 A 
ATOM      5  S   UNL d   1      -0.907  -0.281   0.718  0.00  0.00    -0.081 SA
ATOM      6  C   UNL d   1       0.123   1.083   0.649  0.00  0.00     0.086 A 
ENDROOT
BRANCH   1   7
ATOM      7  C   UNL d   1       2.517   1.645  -0.072  0.00  0.00     0.240 C 
ATOM      8  O   UNL d   1       3.651   1.242  -0.311  0.00  0.00    -0.278 OA
BRANCH   7   9
ATOM      9  S   UNL d   1       2.148   3.366   0.041  0.00  0.00    -0.046 SA
BRANCH   9  10
ATOM     10  C   UNL d   1       3.261   4.184  -1.086  0.00  0.00     0.008 A 
ATOM     11  C   UNL d   1       3.828   3.588  -2.218  0.00  0.00     0.021 A 
ATOM     12  C   UNL d   1       4.634   4.334  -3.090  0.00  0.00     0.025 A 
ATOM     13  C   UNL d   1       4.864   5.683  -2.843  0.00  0.00     0.034 A 
ATOM     14  C   UNL d   1       4.307   6.294  -1.725  0.00  0.00     0.025 A 
ATOM     15 CL   UNL d   1       5.825   6.605  -3.933  0.00  0.00    -0.084 Cl
ATOM     16  C   UNL d   1       3.510   5.547  -0.853  0.00  0.00     0.021 A 
ENDBRANCH   9  10
ENDBRANCH   7   9
ENDBRANCH   1   7
BRANCH   4  17
ATOM     17  C   UNL d   1       0.196  -2.723   0.024  0.00  0.00     0.013 A 
ATOM     18  C   UNL d   1      -0.981  -3.325  -0.415  0.00  0.00     0.101 A 
ATOM     19  N   UNL d   1      -1.189  -4.665  -0.461  0.00  0.00    -0.374 N 
ATOM     20  C   UNL d   1      -0.169  -5.451  -0.056  0.00  0.00     0.087 A 
ATOM     21  HN  UNL d   1      -2.073  -5.059  -0.784  1.00  0.00     0.164 HD
ATOM     22  C   UNL d   1       1.053  -4.960   0.371  0.00  0.00     0.018 A 
ATOM     23  C   UNL d   1       1.237  -3.579   0.400  0.00  0.00     0.017 A 
ENDBRANCH   4  17
TORSDOF 4
