REMARK  3 active torsions:
REMARK  status: ('A' for Active; 'I' for Inactive)
REMARK    1  A    between atoms: C_4  and  N_1 
REMARK    2  A    between atoms: C_11  and  N_3 
REMARK    3  A    between atoms: C_17  and  C_11 
ROOT
ATOM      1  N   UNL d   1       0.071   0.977   0.166  0.00  0.00    -0.234 N 
ATOM      2  C   UNL d   1      -1.178   0.352   0.024  0.00  0.00     0.332 C 
ATOM      3  N   UNL d   1      -1.144  -1.034  -0.136  0.00  0.00    -0.329 N 
ATOM      4  C   UNL d   1       1.298   0.359  -0.067  0.00  0.00     0.234 C 
ATOM      5  C   UNL d   1       1.251  -1.080  -0.485  0.00  0.00     0.123 C 
ATOM      6  C   UNL d   1       0.077  -1.760   0.166  0.00  0.00     0.137 C 
ATOM      7  O   UNL d   1      -2.237   0.969   0.012  0.00  0.00    -0.246 OA
ATOM      8  O   UNL d   1       2.407   0.922   0.015  0.00  0.00    -0.272 OA
ENDROOT
BRANCH   1   9
ATOM      9  C   UNL d   1       0.070   2.384   0.425  0.00  0.00     0.047 A 
ATOM     10  C   UNL d   1       0.689   3.264  -0.476  0.00  0.00     0.040 A 
ATOM     11  C   UNL d   1       0.664   4.619  -0.197  0.00  0.00    -0.021 A 
ATOM     12  C   UNL d   1       1.148   5.759  -1.004  0.00  0.00     0.068 C 
ATOM     13  C   UNL d   1       0.055   5.099   0.952  0.00  0.00     0.075 A 
ATOM     14  C   UNL d   1       1.071   6.854   0.061  0.00  0.00     0.180 C 
ATOM     15  O   UNL d   1       0.116   6.462   1.076  0.00  0.00    -0.350 OA
ATOM     16  C   UNL d   1      -0.565   4.261   1.854  0.00  0.00     0.039 A 
ATOM     17  C   UNL d   1      -0.568   2.890   1.579  0.00  0.00     0.033 A 
ENDBRANCH   1   9
BRANCH   3  18
ATOM     18  C   UNL d   1      -2.423  -1.746  -0.227  0.00  0.00     0.166 C 
BRANCH  18  19
ATOM     19  C   UNL d   1      -2.929  -1.895  -1.646  0.00  0.00    -0.040 A 
ATOM     20  C   UNL d   1      -2.590  -3.028  -2.400  0.00  0.00     0.009 A 
ATOM     21  C   UNL d   1      -2.984  -3.142  -3.736  0.00  0.00     0.001 A 
ATOM     22  C   UNL d   1      -3.752  -2.140  -4.326  0.00  0.00     0.000 A 
ATOM     23  C   UNL d   1      -4.138  -1.030  -3.578  0.00  0.00     0.001 A 
ATOM     24  C   UNL d   1      -3.724  -0.905  -2.247  0.00  0.00     0.009 A 
ENDBRANCH  18  19
ENDBRANCH   3  18
TORSDOF 3
