REMARK  4 active torsions:
REMARK  status: ('A' for Active; 'I' for Inactive)
REMARK    1  A    between atoms: N_4  and  C_1 
REMARK    2  A    between atoms: N_2  and  N_4 
REMARK    3  A    between atoms: C_5  and  N_2 
REMARK    4  A    between atoms: C_8  and  C_5 
ROOT
ATOM      1  N   UNL d   1       1.014  -2.553   0.401  0.00  0.00    -0.302 N 
ATOM      2  HN  UNL d   1       0.470  -1.712   0.206  1.00  0.00     0.186 HD
ENDROOT
BRANCH   1   3
ATOM      3  N   UNL d   1       2.376  -2.492   0.449  0.00  0.00    -0.276 N 
ATOM      4  H   UNL d   1       2.939  -3.295   0.690  0.00  0.00     0.189 HD
BRANCH   3   5
ATOM      5  C   UNL d   1       3.066  -1.327   0.193  0.00  0.00     0.186 C 
ATOM      6  S   UNL d   1       4.731  -1.341   0.270  0.00  0.00    -0.040 SA
ATOM      7  N   UNL d   1       2.263  -0.264  -0.107  0.00  0.00    -0.370 N 
ATOM      8  C   UNL d   1       2.641   1.099  -0.405  0.00  0.00     0.148 C 
ATOM      9  H   UNL d   1       1.277  -0.511  -0.072  0.00  0.00     0.161 HD
ENDBRANCH   3   5
ENDBRANCH   1   3
BRANCH   1  10
ATOM     10  C   UNL d   1       0.409  -3.691   0.608  0.00  0.00     0.032 C 
ATOM     11  C   UNL d   1       1.104  -5.012   0.892  0.00  0.00     0.070 C 
BRANCH  10  12
ATOM     12  C   UNL d   1      -1.100  -3.713   0.571  0.00  0.00    -0.013 A 
ATOM     13  C   UNL d   1      -1.800  -2.539   0.259  0.00  0.00     0.013 A 
ATOM     14  C   UNL d   1      -3.198  -2.534   0.214  0.00  0.00     0.001 A 
ATOM     15  C   UNL d   1      -3.910  -3.702   0.479  0.00  0.00     0.000 A 
ATOM     16  C   UNL d   1      -3.228  -4.873   0.795  0.00  0.00     0.001 A 
ATOM     17  C   UNL d   1      -1.830  -4.880   0.844  0.00  0.00     0.013 A 
ENDBRANCH  10  12
ENDBRANCH   1  10
TORSDOF 4
