REMARK  7 active torsions:
REMARK  status: ('A' for Active; 'I' for Inactive)
REMARK    1  A    between atoms: N_2  and  C_1 
REMARK    2  A    between atoms: N_3  and  C_1 
REMARK    3  A    between atoms: C_5  and  N_2 
REMARK    4  A    between atoms: C_8  and  N_3 
REMARK    5  A    between atoms: C_7  and  C_5 
REMARK    6  A    between atoms: O_6  and  C_10 
REMARK    7  A    between atoms: C_9  and  O_6 
ROOT
ATOM      1  C   UNL d   1      -1.257   0.837   0.957  0.00  0.00     0.034 A 
ATOM      2  C   UNL d   1      -4.039   0.778   1.217  0.00  0.00     0.076 A 
ATOM      3  C   UNL d   1      -1.946  -0.371   0.842  0.00  0.00     0.032 A 
ATOM      4  C   UNL d   1      -1.954   1.996   1.310  0.00  0.00     0.032 A 
ATOM      5  C   UNL d   1      -3.347   1.970   1.422  0.00  0.00     0.039 A 
ATOM      6  C   UNL d   1      -3.333  -0.406   0.996  0.00  0.00     0.039 A 
ENDROOT
BRANCH   1   7
ATOM      7  N   UNL d   1       0.138   0.922   0.784  0.00  0.00    -0.333 N 
ATOM      8  H   UNL d   1       0.563   1.780   1.115  0.00  0.00     0.168 HD
BRANCH   7   9
ATOM      9  C   UNL d   1       0.921   0.286  -0.178  0.00  0.00     0.172 C 
ATOM     10  S   UNL d   1       0.382  -0.432  -1.589  0.00  0.00    -0.041 SA
BRANCH   9  11
ATOM     11  N   UNL d   1       2.252   0.439   0.162  0.00  0.00    -0.359 N 
ATOM     12  H   UNL d   1       2.427   0.618   1.141  0.00  0.00     0.162 HD
BRANCH  11  13
ATOM     13  C   UNL d   1       3.435   0.167  -0.658  0.00  0.00     0.113 C 
ATOM     14  C   UNL d   1       3.947  -1.261  -0.472  0.00  0.00     0.037 C 
BRANCH  13  15
ATOM     15  C   UNL d   1       4.494   1.203  -0.329  0.00  0.00    -0.036 A 
ATOM     16  C   UNL d   1       5.071   1.288   0.952  0.00  0.00     0.009 A 
ATOM     17  C   UNL d   1       6.006   2.280   1.248  0.00  0.00     0.001 A 
ATOM     18  C   UNL d   1       6.386   3.195   0.268  0.00  0.00     0.000 A 
ATOM     19  C   UNL d   1       5.826   3.121  -1.005  0.00  0.00     0.001 A 
ATOM     20  C   UNL d   1       4.884   2.135  -1.301  0.00  0.00     0.009 A 
ENDBRANCH  13  15
ENDBRANCH  11  13
ENDBRANCH   9  11
ENDBRANCH   7   9
ENDBRANCH   1   7
BRANCH   2  21
ATOM     21  O   UNL d   1      -5.412   0.839   1.292  0.00  0.00    -0.311 OA
BRANCH  21  22
ATOM     22  C   UNL d   1      -6.157   0.073   0.421  0.00  0.00     0.076 A 
ATOM     23  C   UNL d   1      -7.381  -0.392   0.906  0.00  0.00     0.039 A 
ATOM     24  C   UNL d   1      -8.193  -1.196   0.103  0.00  0.00     0.026 A 
ATOM     25  C   UNL d   1      -7.780  -1.528  -1.186  0.00  0.00     0.034 A 
ATOM     26  C   UNL d   1      -6.579  -1.035  -1.692  0.00  0.00     0.026 A 
ATOM     27 CL   UNL d   1      -8.761  -2.551  -2.162  0.00  0.00    -0.084 Cl
ATOM     28  C   UNL d   1      -5.777  -0.214  -0.896  0.00  0.00     0.039 A 
ENDBRANCH  21  22
ENDBRANCH   2  21
TORSDOF 7
