REMARK  7 active torsions:
REMARK  status: ('A' for Active; 'I' for Inactive)
REMARK    1  A    between atoms: C_6  and  C_1 
REMARK    2  A    between atoms: C_3  and  C_2 
REMARK       I    between atoms: N_8  and  C_3 
REMARK    3  A    between atoms: C_7  and  N_8 
REMARK    4  A    between atoms: N_12  and  C_11 
REMARK    5  A    between atoms: C_13  and  C_14 
REMARK    6  A    between atoms: O_24  and  C_13 
REMARK    7  A    between atoms: C_31  and  O_24 
ROOT
ATOM      1  C   UNL d   1       0.654  -4.015  -0.221  0.00  0.00     0.261 C 
ATOM      2  N   UNL d   1      -0.531  -3.473   0.253  0.00  0.00    -0.321 N 
ATOM      3  O   UNL d   1       0.815  -4.370  -1.379  0.00  0.00    -0.267 OA
ATOM      4  H   UNL d   1      -0.572  -3.153   1.205  0.00  0.00     0.169 HD
ENDROOT
BRANCH   2   5
ATOM      5  C   UNL d   1      -1.795  -3.603  -0.359  0.00  0.00     0.062 A 
ATOM      6  C   UNL d   1      -2.229  -2.831  -1.465  0.00  0.00     0.057 A 
ATOM      7  C   UNL d   1      -3.599  -2.978  -1.802  0.00  0.00     0.033 A 
ATOM      8  C   UNL d   1      -4.485  -3.823  -1.124  0.00  0.00     0.020 A 
ATOM      9  C   UNL d   1      -4.041  -4.561  -0.034  0.00  0.00     0.041 A 
ATOM     10  C   UNL d   1      -2.699  -4.441   0.345  0.00  0.00     0.049 A 
BRANCH   6  11
ATOM     11  N   UNL d   1      -1.490  -1.865  -2.142  0.00  0.00    -0.379 N 
ATOM     12  C   UNL d   1      -1.703  -1.677  -3.588  0.00  0.00     0.123 C 
ATOM     13  C   UNL d   1      -1.782  -0.175  -3.862  0.00  0.00     0.020 C 
ATOM     14  C   UNL d   1      -0.490   0.510  -3.428  0.00  0.00     0.003 C 
ATOM     15  C   UNL d   1      -0.152   0.179  -1.977  0.00  0.00     0.020 C 
ATOM     16  C   UNL d   1      -0.211  -1.320  -1.682  0.00  0.00     0.123 C 
ENDBRANCH   6  11
BRANCH   9  17
ATOM     17  C   UNL d   1      -4.946  -5.416   0.773  0.00  0.00     0.293 C 
ATOM     18  O   UNL d   1      -4.580  -6.095   1.723  0.00  0.00    -0.259 OA
BRANCH  17  19
ATOM     19  O   UNL d   1      -6.230  -5.292   0.333  0.00  0.00    -0.318 OA
BRANCH  19  20
ATOM     20  C   UNL d   1      -7.239  -6.005   1.062  0.00  0.00     0.174 C 
ATOM     21  C   UNL d   1      -7.707  -5.183   2.250  0.00  0.00     0.034 C 
ENDBRANCH  19  20
ENDBRANCH  17  19
ENDBRANCH   9  17
ENDBRANCH   2   5
BRANCH   1  22
ATOM     22  C   UNL d   1       1.725  -4.118   0.790  0.00  0.00     0.093 A 
ATOM     23  C   UNL d   1       3.155  -4.301   0.609  0.00  0.00     0.086 A 
ATOM     24  N   UNL d   1       3.760  -4.383   1.805  0.00  0.00    -0.259 N 
ATOM     25  O   UNL d   1       2.802  -4.223   2.753  0.00  0.00    -0.241 OA
ATOM     26  HN  UNL d   1       4.755  -4.538   1.971  1.00  0.00     0.195 HD
ATOM     27  C   UNL d   1       1.586  -4.101   2.175  0.00  0.00     0.090 A 
ATOM     28  C   UNL d   1       0.496  -4.012   3.172  0.00  0.00     0.080 C 
BRANCH  23  29
ATOM     29  C   UNL d   1       4.015  -4.395  -0.582  0.00  0.00     0.037 A 
ATOM     30  C   UNL d   1       5.146  -3.555  -0.725  0.00  0.00     0.048 A 
ATOM     31 CL   UNL d   1       5.559  -2.303   0.409  0.00  0.00    -0.083 Cl
ATOM     32  C   UNL d   1       6.030  -3.690  -1.808  0.00  0.00     0.025 A 
ATOM     33  C   UNL d   1       5.780  -4.628  -2.801  0.00  0.00     0.003 A 
ATOM     34  C   UNL d   1       4.684  -5.474  -2.676  0.00  0.00     0.025 A 
ATOM     35  C   UNL d   1       3.841  -5.397  -1.553  0.00  0.00     0.048 A 
ATOM     36 CL   UNL d   1       2.709  -6.699  -1.373  0.00  0.00    -0.083 Cl
ENDBRANCH  23  29
ENDBRANCH   1  22
TORSDOF 7
