REMARK  4 active torsions:
REMARK  status: ('A' for Active; 'I' for Inactive)
REMARK    1  A    between atoms: C_2  and  S_1 
REMARK    2  A    between atoms: N_3  and  S_1 
REMARK    3  A    between atoms: O_20  and  C_16 
REMARK    4  A    between atoms: O_21  and  C_18 
ROOT
ATOM      1  N   UNL d   1       0.302  -0.775  -1.270  0.00  0.00    -0.296 N 
ATOM      2  C   UNL d   1      -0.025  -2.994  -2.368  0.00  0.00    -0.026 A 
ATOM      3  C   UNL d   1       0.451  -2.245  -1.128  0.00  0.00     0.125 C 
ATOM      4  C   UNL d   1      -0.843  -2.389  -3.332  0.00  0.00    -0.045 A 
ATOM      5  C   UNL d   1       0.331  -4.342  -2.525  0.00  0.00     0.049 A 
ATOM      6  C   UNL d   1      -0.999  -0.356  -1.839  0.00  0.00     0.141 C 
ATOM      7  C   UNL d   1      -0.161  -5.106  -3.586  0.00  0.00     0.102 A 
ATOM      8  C   UNL d   1      -1.304  -3.143  -4.423  0.00  0.00     0.047 A 
ATOM      9  C   UNL d   1      -0.981  -4.500  -4.553  0.00  0.00     0.102 A 
ATOM     10  C   UNL d   1      -1.164  -0.917  -3.249  0.00  0.00     0.060 C 
ATOM     11  C   UNL d   1      -0.275  -2.808   0.099  0.00  0.00     0.038 C 
ENDROOT
BRANCH   1  12
ATOM     12  S   UNL d   1       0.938   0.205  -0.040  0.00  0.00     0.278 S 
ATOM     13  O   UNL d   1       2.059  -0.471   0.575  0.00  0.00    -0.199 OA
ATOM     14  O   UNL d   1       1.050   1.553  -0.555  0.00  0.00    -0.199 OA
BRANCH  12  15
ATOM     15  C   UNL d   1      -0.236   0.376   1.246  0.00  0.00     0.166 A 
ATOM     16  N   UNL d   1      -1.536  -0.094   1.152  0.00  0.00    -0.334 N 
ATOM     17  C   UNL d   1      -2.116   0.220   2.292  0.00  0.00     0.079 A 
ATOM     18  HN  UNL d   1      -1.957  -0.582   0.362  1.00  0.00     0.168 HD
ATOM     19  C   UNL d   1      -3.521  -0.094   2.656  0.00  0.00     0.089 C 
ATOM     20  N   UNL d   1      -1.238   0.886   3.113  0.00  0.00    -0.348 N 
ATOM     21  C   UNL d   1      -0.041   0.997   2.461  0.00  0.00     0.135 A 
ATOM     22  C   UNL d   1      -1.524   1.379   4.438  0.00  0.00     0.156 C 
ENDBRANCH  12  15
ENDBRANCH   1  12
BRANCH   7  23
ATOM     23  O   UNL d   1       0.148  -6.436  -3.750  0.00  0.00    -0.353 OA
ATOM     24  C   UNL d   1       0.455  -7.152  -2.557  0.00  0.00     0.210 C 
ENDBRANCH   7  23
BRANCH   9  25
ATOM     25  O   UNL d   1      -1.421  -5.304  -5.575  0.00  0.00    -0.353 OA
ATOM     26  C   UNL d   1      -2.277  -4.715  -6.545  0.00  0.00     0.210 C 
ENDBRANCH   9  25
TORSDOF 4
