REMARK  5 active torsions:
REMARK  status: ('A' for Active; 'I' for Inactive)
REMARK    1  A    between atoms: C_11  and  C_1 
REMARK    2  A    between atoms: C_7  and  C_2 
REMARK    3  A    between atoms: C_13  and  N_3 
REMARK    4  A    between atoms: O_18  and  C_11 
REMARK    5  A    between atoms: C_23  and  O_18 
ROOT
ATOM      1  C   UNL d   1      -0.156  -1.181   0.108  0.00  0.00     0.074 A 
ATOM      2  C   UNL d   1       1.153  -0.641   0.002  0.00  0.00     0.006 A 
ATOM      3  N   UNL d   1      -0.270   1.099   0.034  0.00  0.00    -0.318 N 
ATOM      4  C   UNL d   1      -1.025  -0.083   0.102  0.00  0.00     0.030 A 
ATOM      5  C   UNL d   1       1.083   0.737   0.039  0.00  0.00     0.024 A 
ATOM      6  C   UNL d   1      -2.519  -0.171   0.007  0.00  0.00     0.070 C 
ATOM      7  C   UNL d   1       2.232   1.694   0.098  0.00  0.00     0.069 C 
ENDROOT
BRANCH   2   8
ATOM      8  C   UNL d   1       2.373  -1.365  -0.149  0.00  0.00     0.032 C 
ATOM      9  C   UNL d   1       2.900  -1.720  -1.331  0.00  0.00     0.045 A 
ATOM     10  C   UNL d   1       2.327  -1.395  -2.693  0.00  0.00     0.257 A 
ATOM     11  C   UNL d   1       4.109  -2.517  -1.549  0.00  0.00     0.006 A 
ATOM     12  N   UNL d   1       3.197  -1.996  -3.590  0.00  0.00    -0.322 N 
ATOM     13  O   UNL d   1       1.338  -0.758  -2.978  0.00  0.00    -0.267 OA
ATOM     14  C   UNL d   1       4.233  -2.653  -2.936  0.00  0.00     0.046 A 
ATOM     15  H   UNL d   1       3.058  -1.946  -4.586  0.00  0.00     0.169 HD
ATOM     16  C   UNL d   1       5.260  -3.360  -3.525  0.00  0.00     0.030 A 
ATOM     17  C   UNL d   1       6.196  -3.953  -2.677  0.00  0.00     0.002 A 
ATOM     18  C   UNL d   1       6.083  -3.826  -1.279  0.00  0.00     0.001 A 
ATOM     19  C   UNL d   1       5.032  -3.103  -0.703  0.00  0.00     0.015 A 
ENDBRANCH   2   8
BRANCH   1  20
ATOM     20  C   UNL d   1      -0.561  -2.595   0.141  0.00  0.00     0.296 C 
ATOM     21  O   UNL d   1      -1.720  -2.975   0.275  0.00  0.00    -0.259 OA
BRANCH  20  22
ATOM     22  O   UNL d   1       0.500  -3.449   0.028  0.00  0.00    -0.318 OA
BRANCH  22  23
ATOM     23  C   UNL d   1       0.215  -4.853   0.030  0.00  0.00     0.174 C 
ATOM     24  C   UNL d   1      -0.174  -5.317  -1.360  0.00  0.00     0.034 C 
ENDBRANCH  22  23
ENDBRANCH  20  22
ENDBRANCH   1  20
BRANCH   3  25
ATOM     25  C   UNL d   1      -0.776   2.441  -0.068  0.00  0.00     0.039 A 
ATOM     26  C   UNL d   1      -1.927   2.837   0.625  0.00  0.00     0.030 A 
ATOM     27  C   UNL d   1      -2.452   4.124   0.455  0.00  0.00     0.002 A 
ATOM     28  C   UNL d   1      -1.806   5.045  -0.367  0.00  0.00     0.000 A 
ATOM     29  C   UNL d   1      -0.640   4.676  -1.029  0.00  0.00     0.002 A 
ATOM     30  C   UNL d   1      -0.140   3.377  -0.896  0.00  0.00     0.030 A 
ENDBRANCH   3  25
TORSDOF 5
