REMARK  0 active torsions:
REMARK  status: ('A' for Active; 'I' for Inactive)
ROOT
ATOM      1  S   UNL d   1       1.389   0.203   0.002  0.00  0.00     0.197 S 
ATOM      2  C   UNL d   1       1.355  -1.537  -0.015  0.00  0.00     0.115 A 
ATOM      3  C   UNL d   1      -0.354   0.317   0.012  0.00  0.00     0.073 A 
ATOM      4  C   UNL d   1       0.101  -2.019  -0.009  0.00  0.00     0.025 A 
ATOM      5  O   UNL d   1       1.880   0.681   1.277  0.00  0.00    -0.218 OA
ATOM      6  O   UNL d   1       1.867   0.707  -1.267  0.00  0.00    -0.218 OA
ATOM      7  C   UNL d   1      -0.906  -0.963   0.003  0.00  0.00    -0.014 A 
ATOM      8  C   UNL d   1      -1.104   1.478   0.014  0.00  0.00     0.025 A 
ATOM      9  C   UNL d   1      -2.284  -1.102  -0.002  0.00  0.00     0.013 A 
ATOM     10  C   UNL d   1      -2.490   1.334   0.006  0.00  0.00     0.002 A 
ATOM     11  C   UNL d   1      -3.076   0.055  -0.002  0.00  0.00     0.001 A 
ENDROOT
TORSDOF 0
