REMARK  0 active torsions:
REMARK  status: ('A' for Active; 'I' for Inactive)
ROOT
ATOM      1  C   UNL d   1       0.005  -0.696   0.029  0.00  0.00    -0.025 A 
ATOM      2  C   UNL d   1       1.242  -1.362   0.006  0.00  0.00     0.019 A 
ATOM      3  C   UNL d   1      -0.017   0.712   0.009  0.00  0.00    -0.025 A 
ATOM      4  C   UNL d   1       2.455  -0.655  -0.048  0.00  0.00    -0.055 A 
ATOM      5  C   UNL d   1       2.433   0.751  -0.048  0.00  0.00    -0.055 A 
ATOM      6  C   UNL d   1       1.196   1.418  -0.016  0.00  0.00     0.019 A 
ATOM      7  C   UNL d   1      -1.210  -1.406   0.055  0.00  0.00     0.019 A 
ATOM      8  C   UNL d   1      -1.254   1.378   0.001  0.00  0.00     0.013 A 
ATOM      9  C   UNL d   1      -2.441  -0.736   0.044  0.00  0.00    -0.061 A 
ATOM     10  C   UNL d   1      -2.452   0.660   0.008  0.00  0.00     0.007 A 
ATOM     11  C   UNL d   1       3.748  -1.419  -0.128  0.00  0.00     0.049 C 
ATOM     12  C   UNL d   1       3.702   1.557  -0.101  0.00  0.00     0.049 C 
ATOM     13  C   UNL d   1      -3.732  -1.498   0.030  0.00  0.00     0.048 C 
ENDROOT
TORSDOF 0
