REMARK  6 active torsions:
REMARK  status: ('A' for Active; 'I' for Inactive)
REMARK    1  A    between atoms: N_2  and  C_1 
REMARK    2  A    between atoms: N_4  and  C_1 
REMARK       I    between atoms: C_3  and  N_2 
REMARK    3  A    between atoms: O_15  and  C_3 
REMARK    4  A    between atoms: C_5  and  N_4 
REMARK    5  A    between atoms: C_10  and  C_6 
REMARK    6  A    between atoms: C_19  and  O_15 
ROOT
ATOM      1  C   UNL d   1      -1.097  -0.599   1.006  0.00  0.00     0.056 A 
ATOM      2  C   UNL d   1      -3.936  -0.744   1.148  0.00  0.00    -0.049 A 
ATOM      3  C   UNL d   1      -1.837  -1.118  -0.063  0.00  0.00     0.061 A 
ATOM      4  C   UNL d   1      -3.238  -1.165  -0.002  0.00  0.00     0.034 A 
ATOM      5  C   UNL d   1      -1.775  -0.236   2.167  0.00  0.00     0.032 A 
ATOM      6  C   UNL d   1      -3.168  -0.311   2.239  0.00  0.00     0.010 A 
ATOM      7 CL   UNL d   1      -1.060  -1.648  -1.515  0.00  0.00    -0.082 Cl
ENDROOT
BRANCH   1   8
ATOM      8  N   UNL d   1       0.313  -0.526   0.942  0.00  0.00    -0.332 N 
ATOM      9  H   UNL d   1       0.752  -1.163   0.276  0.00  0.00     0.168 HD
BRANCH   8  10
ATOM     10  C   UNL d   1       1.147   0.406   1.510  0.00  0.00     0.180 C 
ATOM     11  S   UNL d   1       0.756   1.964   1.991  0.00  0.00    -0.040 SA
BRANCH  10  12
ATOM     12  N   UNL d   1       2.452   0.013   1.690  0.00  0.00    -0.279 N 
ATOM     13  C   UNL d   1       2.959  -1.253   1.605  0.00  0.00     0.366 C 
ATOM     14  O   UNL d   1       2.441  -2.195   1.019  0.00  0.00    -0.238 OA
ATOM     15  H   UNL d   1       3.029   0.664   2.203  0.00  0.00     0.173 HD
BRANCH  13  16
ATOM     16  O   UNL d   1       4.132  -1.302   2.283  0.00  0.00    -0.304 OA
BRANCH  16  17
ATOM     17  C   UNL d   1       4.633  -2.619   2.555  0.00  0.00     0.176 C 
ATOM     18  C   UNL d   1       4.103  -3.057   3.908  0.00  0.00     0.034 C 
ENDBRANCH  16  17
ENDBRANCH  13  16
ENDBRANCH  10  12
ENDBRANCH   8  10
ENDBRANCH   1   8
BRANCH   2  19
ATOM     19  C   UNL d   1      -5.474  -0.737   1.183  0.00  0.00    -0.024 C 
ATOM     20  C   UNL d   1      -6.053  -0.301   2.549  0.00  0.00     0.019 C 
ATOM     21  C   UNL d   1      -5.999   0.256   0.123  0.00  0.00     0.019 C 
ATOM     22  C   UNL d   1      -6.031  -2.143   0.880  0.00  0.00     0.019 C 
ENDBRANCH   2  19
TORSDOF 6
