REMARK  4 active torsions:
REMARK  status: ('A' for Active; 'I' for Inactive)
REMARK    1  A    between atoms: C_5  and  C_1 
REMARK    2  A    between atoms: C_7  and  C_2 
REMARK       I    between atoms: N_9  and  C_7 
REMARK    3  A    between atoms: N_13  and  N_9 
REMARK    4  A    between atoms: C_17  and  N_13 
ROOT
ATOM      1  C   UNL d   1       0.359  -0.237  -0.460  0.00  0.00     0.088 A 
ATOM      2  C   UNL d   1      -0.254  -1.401   0.139  0.00  0.00     0.094 A 
ATOM      3  N   UNL d   1      -0.510   0.786  -0.457  0.00  0.00    -0.259 N 
ATOM      4  HN  UNL d   1      -0.367   1.704  -0.879  1.00  0.00     0.195 HD
ATOM      5  O   UNL d   1      -1.621   0.367   0.216  0.00  0.00    -0.241 OA
ATOM      6  C   UNL d   1      -1.478  -0.928   0.588  0.00  0.00     0.090 A 
ATOM      7  C   UNL d   1      -2.624  -1.438   1.369  0.00  0.00     0.080 C 
ENDROOT
BRANCH   2   8
ATOM      8  C   UNL d   1       0.294  -2.745   0.281  0.00  0.00     0.271 C 
ATOM      9  N   UNL d   1      -0.637  -3.772   0.283  0.00  0.00    -0.282 N 
ATOM     10  H   UNL d   1      -1.631  -3.610   0.318  0.00  0.00     0.184 HD
ATOM     11  O   UNL d   1       1.504  -2.958   0.363  0.00  0.00    -0.266 OA
BRANCH   9  12
ATOM     12  N   UNL d   1      -0.198  -5.101   0.443  0.00  0.00    -0.203 NA
ATOM     13  H   UNL d   1       0.807  -5.173   0.220  0.00  0.00     0.153 HD
BRANCH  12  14
ATOM     14  C   UNL d   1      -0.957  -6.090  -0.235  0.00  0.00     0.028 A 
ATOM     15  C   UNL d   1      -2.350  -6.018  -0.391  0.00  0.00     0.032 A 
ATOM     16  C   UNL d   1      -3.095  -7.068  -0.965  0.00  0.00    -0.054 A 
ATOM     17  C   UNL d   1      -4.591  -6.930  -1.084  0.00  0.00     0.049 C 
ATOM     18  C   UNL d   1      -2.439  -8.243  -1.373  0.00  0.00    -0.056 A 
ATOM     19  C   UNL d   1      -1.054  -8.338  -1.183  0.00  0.00     0.009 A 
ATOM     20  C   UNL d   1      -3.191  -9.407  -1.957  0.00  0.00     0.049 C 
ATOM     21  C   UNL d   1      -0.332  -7.285  -0.612  0.00  0.00     0.026 A 
ENDBRANCH  12  14
ENDBRANCH   9  12
ENDBRANCH   2   8
BRANCH   1  22
ATOM     22  C   UNL d   1       1.678  -0.046  -1.082  0.00  0.00     0.054 A 
ATOM     23  C   UNL d   1       2.197  -1.021  -1.942  0.00  0.00     0.130 A 
ATOM     24  F   UNL d   1       1.477  -2.111  -2.249  0.00  0.00    -0.205 F 
ATOM     25  C   UNL d   1       3.445  -0.887  -2.552  0.00  0.00     0.043 A 
ATOM     26  C   UNL d   1       4.197   0.267  -2.352  0.00  0.00     0.005 A 
ATOM     27  C   UNL d   1       3.694   1.270  -1.530  0.00  0.00     0.025 A 
ATOM     28  C   UNL d   1       2.456   1.115  -0.886  0.00  0.00     0.049 A 
ATOM     29 CL   UNL d   1       1.990   2.423   0.153  0.00  0.00    -0.083 Cl
ENDBRANCH   1  22
TORSDOF 4
