REMARK  5 active torsions:
REMARK  status: ('A' for Active; 'I' for Inactive)
REMARK    1  A    between atoms: S_2  and  C_1 
REMARK    2  A    between atoms: C_12  and  S_2 
REMARK    3  A    between atoms: N_5  and  C_3 
REMARK    4  A    between atoms: S_14  and  C_4 
REMARK       I    between atoms: C_8  and  N_5 
REMARK    5  A    between atoms: C_11  and  C_8 
ROOT
ATOM      1  C   UNL d   1       1.474   0.946  -0.502  0.00  0.00     0.110 A 
ATOM      2  C   UNL d   1       1.569  -0.461  -0.151  0.00  0.00     0.065 A 
ATOM      3  C   UNL d   1       0.145   1.338  -0.678  0.00  0.00     0.064 A 
ATOM      4  S   UNL d   1      -0.943   0.039  -0.390  0.00  0.00    -0.091 SA
ATOM      5  C   UNL d   1       0.322  -1.052  -0.117  0.00  0.00     0.082 A 
ENDROOT
BRANCH   2   6
ATOM      6  N   UNL d   1       2.705  -1.216   0.148  0.00  0.00    -0.321 N 
ATOM      7  C   UNL d   1       2.903  -2.491  -0.371  0.00  0.00     0.256 C 
ATOM      8  O   UNL d   1       2.140  -3.104  -1.112  0.00  0.00    -0.267 OA
ATOM      9  H   UNL d   1       3.499  -0.763   0.566  0.00  0.00     0.169 HD
BRANCH   7  10
ATOM     10  C   UNL d   1       4.241  -3.061  -0.090  0.00  0.00     0.032 A 
ATOM     11  C   UNL d   1       4.744  -3.086   1.213  0.00  0.00     0.017 A 
ATOM     12  C   UNL d   1       6.024  -3.588   1.446  0.00  0.00     0.007 A 
ATOM     13  C   UNL d   1       6.809  -4.064   0.385  0.00  0.00    -0.062 A 
ATOM     14  C   UNL d   1       6.292  -4.041  -0.916  0.00  0.00     0.007 A 
ATOM     15  C   UNL d   1       8.194  -4.577   0.655  0.00  0.00     0.048 C 
ATOM     16  C   UNL d   1       5.006  -3.551  -1.153  0.00  0.00     0.017 A 
ENDBRANCH   7  10
ENDBRANCH   2   6
BRANCH   1  17
ATOM     17  S   UNL d   1       2.799   2.050  -0.747  0.00  0.00     0.183 S 
ATOM     18  O   UNL d   1       2.506   2.731  -1.992  0.00  0.00    -0.222 OA
ATOM     19  O   UNL d   1       2.849   2.754   0.520  0.00  0.00    -0.222 OA
BRANCH  17  20
ATOM     20  C   UNL d   1       4.354   1.210  -0.954  0.00  0.00     0.105 C 
ATOM     21  C   UNL d   1       4.387   0.305  -2.179  0.00  0.00     0.026 C 
ATOM     22  C   UNL d   1       5.492   2.233  -1.039  0.00  0.00     0.026 C 
ENDBRANCH  17  20
ENDBRANCH   1  17
BRANCH   3  23
ATOM     23  S   UNL d   1      -0.596   2.847  -1.231  0.00  0.00    -0.126 SA
ATOM     24  C   UNL d   1       0.072   4.113  -0.141  0.00  0.00     0.096 C 
ENDBRANCH   3  23
TORSDOF 5
