REMARK  1 active torsions:
REMARK  status: ('A' for Active; 'I' for Inactive)
REMARK    1  A    between atoms: C_2  and  C_1 
REMARK       I    between atoms: N_5  and  C_2 
ROOT
ATOM      1  C   UNL d   1       0.004   1.294   0.536  0.00  0.00     0.041 C 
ATOM      2  C   UNL d   1       0.020   0.058   1.440  0.00  0.00     0.023 C 
ATOM      3  C   UNL d   1       1.276   1.315  -0.337  0.00  0.00     0.019 C 
ATOM      4  C   UNL d   1      -1.290   1.318  -0.302  0.00  0.00     0.019 C 
ATOM      5  C   UNL d   1      -0.004  -1.201   0.590  0.00  0.00    -0.013 C 
ATOM      6  C   UNL d   1      -1.881  -0.011  -0.764  0.00  0.00     0.002 C 
ATOM      7  C   UNL d   1       1.823  -0.017  -0.846  0.00  0.00     0.002 C 
ATOM      8  C   UNL d   1      -1.300  -1.306  -0.214  0.00  0.00     0.005 C 
ATOM      9  C   UNL d   1       1.237  -1.311  -0.298  0.00  0.00     0.005 C 
ENDROOT
BRANCH   1  10
ATOM     10  C   UNL d   1       0.017   2.573   1.393  0.00  0.00     0.224 C 
ATOM     11  O   UNL d   1       0.038   2.583   2.626  0.00  0.00    -0.273 OA
ATOM     12  N   UNL d   1       0.002   3.753   0.709  0.00  0.00    -0.369 N 
ATOM     13  H   UNL d   1      -0.050   3.808  -0.300  0.00  0.00     0.159 HD
ATOM     14  H   UNL d   1      -0.009   4.612   1.241  0.00  0.00     0.159 HD
ENDBRANCH   1  10
TORSDOF 1
