REMARK  2 active torsions:
REMARK  status: ('A' for Active; 'I' for Inactive)
REMARK    1  A    between atoms: N_7  and  C_2 
REMARK    2  A    between atoms: C_12  and  C_3 
ROOT
ATOM      1  C   UNL d   1       0.108   1.125  -0.051  0.00  0.00     0.053 A 
ATOM      2  C   UNL d   1       1.449   1.601  -0.180  0.00  0.00     0.118 A 
ATOM      3  C   UNL d   1      -1.213   1.743   0.093  0.00  0.00    -0.003 A 
ATOM      4  C   UNL d   1      -0.035  -0.258  -0.021  0.00  0.00     0.089 A 
ATOM      5  C   UNL d   1      -2.225   0.800   0.122  0.00  0.00     0.065 A 
ATOM      6  S   UNL d   1      -1.647  -0.794   0.042  0.00  0.00    -0.082 SA
ATOM      7  N   UNL d   1       2.443   0.665  -0.139  0.00  0.00    -0.338 N 
ATOM      8  HN  UNL d   1       3.419   0.962  -0.161  1.00  0.00     0.168 HD
ATOM      9  N   UNL d   1       0.943  -1.182  -0.040  0.00  0.00    -0.346 N 
ATOM     10  HN  UNL d   1       0.774  -2.187  -0.031  1.00  0.00     0.167 HD
ATOM     11  C   UNL d   1       2.148  -0.638  -0.070  0.00  0.00     0.182 A 
ENDROOT
BRANCH   3  12
ATOM     12  C   UNL d   1      -1.575   3.152   0.238  0.00  0.00    -0.024 A 
ATOM     13  C   UNL d   1      -2.560   3.720  -0.584  0.00  0.00     0.013 A 
ATOM     14  C   UNL d   1      -2.858   5.082  -0.496  0.00  0.00     0.007 A 
ATOM     15  C   UNL d   1      -2.164   5.903   0.399  0.00  0.00    -0.062 A 
ATOM     16  C   UNL d   1      -1.213   5.330   1.251  0.00  0.00     0.007 A 
ATOM     17  C   UNL d   1      -2.457   7.374   0.446  0.00  0.00     0.048 C 
ATOM     18  C   UNL d   1      -0.935   3.959   1.186  0.00  0.00     0.013 A 
ENDBRANCH   3  12
BRANCH   2  19
ATOM     19  N   UNL d   1       1.848   2.931  -0.296  0.00  0.00    -0.366 N 
ATOM     20  C   UNL d   1       1.192   3.798  -1.281  0.00  0.00     0.124 C 
ATOM     21  C   UNL d   1       2.302   4.683  -1.849  0.00  0.00     0.021 C 
ATOM     22  C   UNL d   1       3.376   4.636  -0.777  0.00  0.00     0.021 C 
ATOM     23  C   UNL d   1       3.294   3.187  -0.316  0.00  0.00     0.124 C 
ENDBRANCH   2  19
TORSDOF 2
