REMARK  4 active torsions:
REMARK  status: ('A' for Active; 'I' for Inactive)
REMARK    1  A    between atoms: C_7  and  C_1 
REMARK    2  A    between atoms: C_8  and  C_2 
REMARK    3  A    between atoms: O_12  and  C_7 
REMARK    4  A    between atoms: O_11  and  C_8 
ROOT
ATOM      1  C   UNL d   1       0.506  -1.396  -0.080  0.00  0.00     0.048 C 
ATOM      2  C   UNL d   1       0.957   1.124  -0.071  0.00  0.00     0.048 C 
ATOM      3  C   UNL d   1      -0.815  -1.109  -0.142  0.00  0.00     0.018 C 
ATOM      4  C   UNL d   1      -0.381   1.313  -0.136  0.00  0.00     0.018 C 
ATOM      5  C   UNL d   1       1.531  -0.280   0.128  0.00  0.00     0.064 C 
ATOM      6  N   UNL d   1      -1.227   0.215  -0.071  0.00  0.00    -0.362 N 
ATOM      7  C   UNL d   1      -1.933  -2.105  -0.322  0.00  0.00     0.069 C 
ATOM      8  C   UNL d   1      -1.081   2.636  -0.314  0.00  0.00     0.069 C 
ATOM      9  C   UNL d   1       2.117  -0.391   1.544  0.00  0.00     0.020 C 
ATOM     10  H   UNL d   1      -2.224   0.393  -0.174  0.00  0.00     0.165 HD
ENDROOT
BRANCH   1  11
ATOM     11  C   UNL d   1       1.034  -2.784  -0.185  0.00  0.00     0.291 C 
ATOM     12  O   UNL d   1       0.476  -3.785   0.235  0.00  0.00    -0.260 OA
BRANCH  11  13
ATOM     13  O   UNL d   1       2.241  -2.764  -0.808  0.00  0.00    -0.323 OA
ATOM     14  C   UNL d   1       2.859  -4.041  -0.958  0.00  0.00     0.213 C 
ENDBRANCH  11  13
ENDBRANCH   1  11
BRANCH   2  15
ATOM     15  C   UNL d   1       1.933   2.244  -0.161  0.00  0.00     0.291 C 
ATOM     16  O   UNL d   1       1.752   3.373   0.267  0.00  0.00    -0.260 OA
BRANCH  15  17
ATOM     17  O   UNL d   1       3.065   1.811  -0.774  0.00  0.00    -0.323 OA
ATOM     18  C   UNL d   1       4.091   2.795  -0.903  0.00  0.00     0.213 C 
ENDBRANCH  15  17
ENDBRANCH   2  15
TORSDOF 4
