REMARK  3 active torsions:
REMARK  status: ('A' for Active; 'I' for Inactive)
REMARK    1  A    between atoms: C_9  and  N_1 
REMARK    2  A    between atoms: N_7  and  C_2 
REMARK       I    between atoms: C_8  and  N_7 
REMARK    3  A    between atoms: O_11  and  C_8 
ROOT
ATOM      1  N   UNL d   1       0.835  -0.707   0.053  0.00  0.00    -0.259 N 
ATOM      2  C   UNL d   1      -0.409   1.034   0.125  0.00  0.00     0.126 C 
ATOM      3  N   UNL d   1       0.840   0.623   0.293  0.00  0.00    -0.278 N 
ATOM      4  HN  UNL d   1       1.644   1.195   0.551  1.00  0.00     0.189 HD
ATOM      5  C   UNL d   1      -1.273  -0.062  -0.068  0.00  0.00     0.076 C 
ATOM      6  C   UNL d   1      -0.465  -1.184  -0.049  0.00  0.00     0.034 C 
ATOM      7  C   UNL d   1      -0.856  -2.615  -0.023  0.00  0.00     0.070 C 
ENDROOT
BRANCH   1   8
ATOM      8  C   UNL d   1       2.076  -1.393  -0.060  0.00  0.00     0.056 A 
ATOM      9  C   UNL d   1       3.204  -0.871   0.592  0.00  0.00     0.031 A 
ATOM     10  C   UNL d   1       4.436  -1.520   0.495  0.00  0.00     0.002 A 
ATOM     11  C   UNL d   1       4.558  -2.671  -0.280  0.00  0.00     0.000 A 
ATOM     12  C   UNL d   1       3.451  -3.172  -0.963  0.00  0.00     0.002 A 
ATOM     13  C   UNL d   1       2.210  -2.539  -0.851  0.00  0.00     0.031 A 
ENDBRANCH   1   8
BRANCH   2  14
ATOM     14  N   UNL d   1      -0.810   2.348   0.164  0.00  0.00    -0.287 N 
ATOM     15  C   UNL d   1       0.022   3.419   0.310  0.00  0.00     0.365 C 
ATOM     16  O   UNL d   1       1.234   3.432   0.456  0.00  0.00    -0.238 OA
ATOM     17  H   UNL d   1      -1.789   2.557   0.037  0.00  0.00     0.172 HD
BRANCH  15  18
ATOM     18  O   UNL d   1      -0.731   4.556   0.257  0.00  0.00    -0.309 OA
ATOM     19  C   UNL d   1       0.045   5.750   0.376  0.00  0.00     0.215 C 
ENDBRANCH  15  18
ENDBRANCH   2  14
TORSDOF 3
