REMARK  2 active torsions:
REMARK  status: ('A' for Active; 'I' for Inactive)
REMARK    1  A    between atoms: C_6  and  C_9 
REMARK    2  A    between atoms: C_16  and  C_8 
ROOT
ATOM      1  C   UNL d   1      -2.469   0.441  -0.439  0.00  0.00     0.007 C 
ATOM      2  C   UNL d   1      -1.267   1.323  -0.272  0.00  0.00     0.191 C 
ATOM      3  C   UNL d   1       0.072   0.670  -0.160  0.00  0.00     0.033 A 
ATOM      4  S   UNL d   1      -1.107  -1.876  -0.362  0.00  0.00    -0.120 SA
ATOM      5  C   UNL d   1       0.245  -0.723  -0.226  0.00  0.00     0.015 A 
ATOM      6  C   UNL d   1      -2.401  -0.826   0.377  0.00  0.00     0.085 C 
ATOM      7  C   UNL d   1      -3.401   0.915  -1.290  0.00  0.00     0.023 C 
ATOM      8  C   UNL d   1       1.195   1.501  -0.016  0.00  0.00     0.040 A 
ATOM      9  O   UNL d   1      -1.371   2.545  -0.238  0.00  0.00    -0.287 OA
ATOM     10  C   UNL d   1       1.536  -1.264  -0.166  0.00  0.00     0.021 A 
ATOM     11  C   UNL d   1       2.470   0.945   0.055  0.00  0.00     0.035 A 
ATOM     12  C   UNL d   1       2.646  -0.433  -0.024  0.00  0.00     0.025 A 
ATOM     13 CL   UNL d   1       3.841   1.966   0.236  0.00  0.00    -0.084 Cl
ATOM     14  C   UNL d   1      -3.645  -1.684   0.592  0.00  0.00     0.027 C 
ENDROOT
BRANCH   7  15
ATOM     15  C   UNL d   1      -4.574   0.159  -1.719  0.00  0.00    -0.035 A 
ATOM     16  C   UNL d   1      -5.784   0.257  -1.026  0.00  0.00     0.012 A 
ATOM     17  C   UNL d   1      -6.811  -0.653  -1.291  0.00  0.00     0.017 A 
ATOM     18  C   UNL d   1      -6.643  -1.653  -2.263  0.00  0.00     0.048 A 
ATOM     19  C   UNL d   1      -5.464  -1.672  -3.025  0.00  0.00     0.017 A 
ATOM     20  C   UNL d   1      -4.437  -0.770  -2.755  0.00  0.00     0.012 A 
BRANCH  18  21
ATOM     21  C   UNL d   1      -7.673  -2.739  -2.456  0.00  0.00     0.417 C 
ATOM     22  F   UNL d   1      -8.723  -2.656  -1.591  0.00  0.00    -0.166 F 
ATOM     23  F   UNL d   1      -8.212  -2.740  -3.705  0.00  0.00    -0.166 F 
ATOM     24  F   UNL d   1      -7.145  -3.983  -2.275  0.00  0.00    -0.166 F 
ENDBRANCH  18  21
ENDBRANCH   7  15
TORSDOF 2
