REMARK  4 active torsions:
REMARK  status: ('A' for Active; 'I' for Inactive)
REMARK    1  A    between atoms: C_2  and  C_1 
REMARK       I    between atoms: N_3  and  C_2 
REMARK    2  A    between atoms: C_11  and  N_3 
REMARK    3  A    between atoms: C_4  and  C_11 
REMARK    4  A    between atoms: N_12  and  C_6 
ROOT
ATOM      1  C   UNL d   1       2.833  -0.216   0.607  0.00  0.00     0.254 C 
ATOM      2  N   UNL d   1       3.713   0.693   0.040  0.00  0.00    -0.351 N 
ATOM      3  O   UNL d   1       3.189  -0.991   1.493  0.00  0.00    -0.268 OA
ATOM      4  H   UNL d   1       3.466   1.206  -0.797  0.00  0.00     0.163 HD
ENDROOT
BRANCH   1   5
ATOM      5  C   UNL d   1       1.410  -0.184   0.171  0.00  0.00     0.058 A 
ATOM      6  C   UNL d   1       0.620  -1.347   0.007  0.00  0.00     0.043 A 
ATOM      7  C   UNL d   1      -0.777  -1.159  -0.109  0.00  0.00     0.030 A 
ATOM      8  C   UNL d   1      -1.371   0.105  -0.088  0.00  0.00     0.002 A 
ATOM      9  C   UNL d   1      -0.574   1.234   0.024  0.00  0.00     0.001 A 
ATOM     10  C   UNL d   1       0.806   1.092   0.164  0.00  0.00     0.019 A 
BRANCH   6  11
ATOM     11  N   UNL d   1       1.038  -2.658  -0.218  0.00  0.00    -0.393 N 
ATOM     12  C   UNL d   1       2.409  -3.107  -0.300  0.00  0.00     0.146 C 
ATOM     13  H   UNL d   1       0.412  -3.351   0.184  0.00  0.00     0.159 HD
ENDBRANCH   6  11
ENDBRANCH   1   5
BRANCH   2  14
ATOM     14  C   UNL d   1       5.103   0.620   0.427  0.00  0.00     0.187 C 
BRANCH  14  15
ATOM     15  C   UNL d   1       5.917   1.762  -0.064  0.00  0.00     0.070 A 
ATOM     16  O   UNL d   1       5.608   2.315  -1.273  0.00  0.00    -0.325 OA
ATOM     17  C   UNL d   1       6.550   3.267  -1.522  0.00  0.00     0.142 A 
ATOM     18  C   UNL d   1       7.458   3.331  -0.492  0.00  0.00     0.027 A 
ATOM     19  C   UNL d   1       7.046   2.367   0.454  0.00  0.00     0.036 A 
ENDBRANCH  14  15
ENDBRANCH   2  14
TORSDOF 4
