REMARK  6 active torsions:
REMARK  status: ('A' for Active; 'I' for Inactive)
REMARK    1  A    between atoms: C_17  and  C_1 
REMARK    2  A    between atoms: C_6  and  C_23 
REMARK       I    between atoms: N_7  and  C_6 
REMARK    3  A    between atoms: C_15  and  N_7 
REMARK    4  A    between atoms: C_18  and  C_9 
REMARK    5  A    between atoms: S_14  and  C_17 
REMARK    6  A    between atoms: C_23  and  S_14 
ROOT
ATOM      1  C   UNL d   1       5.863  -4.138  -0.286  0.00  0.00     0.231 C 
ATOM      2  N   UNL d   1       6.538  -2.958  -0.022  0.00  0.00    -0.327 N 
ATOM      3  O   UNL d   1       6.393  -5.232  -0.485  0.00  0.00    -0.272 OA
ATOM      4  H   UNL d   1       5.966  -2.153   0.200  0.00  0.00     0.169 HD
ENDROOT
BRANCH   1   5
ATOM      5  C   UNL d   1       4.348  -4.090  -0.153  0.00  0.00     0.177 C 
BRANCH   5   6
ATOM      6  S   UNL d   1       3.549  -2.568  -0.737  0.00  0.00    -0.155 SA
BRANCH   6   7
ATOM      7  C   UNL d   1       1.828  -3.172  -0.647  0.00  0.00     0.114 C 
BRANCH   7   8
ATOM      8  C   UNL d   1       0.821  -2.120  -1.016  0.00  0.00    -0.031 A 
ATOM      9  C   UNL d   1       0.230  -1.942  -2.334  0.00  0.00    -0.010 A 
ATOM     10  C   UNL d   1      -0.742  -0.934  -2.331  0.00  0.00     0.015 A 
ATOM     11  C   UNL d   1       0.469  -2.614  -3.561  0.00  0.00     0.037 A 
ATOM     12  C   UNL d   1      -1.470  -0.593  -3.490  0.00  0.00     0.021 A 
ATOM     13  S   UNL d   1      -0.903  -0.215  -0.778  0.00  0.00    -0.101 SA
ATOM     14  C   UNL d   1      -1.204  -1.268  -4.682  0.00  0.00     0.025 A 
ATOM     15  C   UNL d   1      -0.241  -2.265  -4.714  0.00  0.00     0.035 A 
ATOM     16 CL   UNL d   1       0.085  -3.083  -6.194  0.00  0.00    -0.084 Cl
ATOM     17  C   UNL d   1       0.289  -1.226  -0.108  0.00  0.00     0.059 A 
ENDBRANCH   7   8
ENDBRANCH   6   7
ENDBRANCH   5   6
ENDBRANCH   1   5
BRANCH   2  18
ATOM     18  C   UNL d   1       7.942  -2.815   0.113  0.00  0.00     0.034 A 
ATOM     19  C   UNL d   1       8.861  -3.795  -0.265  0.00  0.00     0.030 A 
ATOM     20  C   UNL d   1      10.227  -3.663   0.024  0.00  0.00     0.010 A 
ATOM     21  C   UNL d   1      10.713  -2.540   0.699  0.00  0.00    -0.055 A 
ATOM     22  C   UNL d   1       9.801  -1.515   0.996  0.00  0.00     0.010 A 
ATOM     23  C   UNL d   1       8.433  -1.645   0.701  0.00  0.00     0.030 A 
BRANCH  21  24
ATOM     24  C   UNL d   1      12.151  -2.429   1.194  0.00  0.00     0.010 C 
ATOM     25  C   UNL d   1      12.191  -2.683   2.707  0.00  0.00     0.015 C 
ATOM     26  C   UNL d   1      13.167  -3.352   0.507  0.00  0.00     0.015 C 
ENDBRANCH  21  24
ENDBRANCH   2  18
TORSDOF 6
