REMARK  8 active torsions:
REMARK  status: ('A' for Active; 'I' for Inactive)
REMARK    1  A    between atoms: C_9  and  C_1 
REMARK    2  A    between atoms: C_10  and  C_2 
REMARK    3  A    between atoms: C_8  and  C_3 
REMARK    4  A    between atoms: N_7  and  C_11 
REMARK    5  A    between atoms: O_18  and  C_9 
REMARK    6  A    between atoms: O_17  and  C_10 
REMARK    7  A    between atoms: C_25  and  O_17 
REMARK    8  A    between atoms: C_24  and  O_18 
ROOT
ATOM      1  C   UNL d   1      -1.298  -1.008   0.153  0.00  0.00     0.052 C 
ATOM      2  C   UNL d   1       1.266  -1.020   0.151  0.00  0.00     0.052 C 
ATOM      3  C   UNL d   1      -0.013  -1.837  -0.051  0.00  0.00     0.101 C 
ATOM      4  C   UNL d   1      -1.243   0.344   0.052  0.00  0.00     0.018 C 
ATOM      5  C   UNL d   1       1.213   0.334   0.070  0.00  0.00     0.018 C 
ATOM      6  N   UNL d   1      -0.007   0.960  -0.111  0.00  0.00    -0.362 N 
ATOM      7  C   UNL d   1      -2.392   1.321   0.075  0.00  0.00     0.069 C 
ATOM      8  C   UNL d   1       2.409   1.250   0.143  0.00  0.00     0.069 C 
ATOM      9  H   UNL d   1      -0.004   1.978  -0.115  0.00  0.00     0.165 HD
ENDROOT
BRANCH   3  10
ATOM     10  C   UNL d   1      -0.025  -2.489  -1.452  0.00  0.00    -0.042 A 
ATOM     11  C   UNL d   1      -0.090  -3.887  -1.591  0.00  0.00     0.044 A 
ATOM     12  C   UNL d   1      -0.131  -4.463  -2.870  0.00  0.00     0.103 A 
ATOM     13  C   UNL d   1      -0.106  -3.663  -4.019  0.00  0.00     0.036 A 
ATOM     14  C   UNL d   1      -0.036  -2.279  -3.886  0.00  0.00     0.003 A 
ATOM     15  C   UNL d   1       0.006  -1.701  -2.617  0.00  0.00     0.008 A 
BRANCH  12  16
ATOM     16  N   UNL d   1      -0.190  -5.923  -3.013  0.00  0.00    -0.116 N 
ATOM     17  O   UNL d   1      -0.157  -6.608  -1.981  0.00  0.00    -0.532 OA
ATOM     18  O   UNL d   1      -0.255  -6.388  -4.161  0.00  0.00    -0.532 OA
ENDBRANCH  12  16
ENDBRANCH   3  10
BRANCH   2  19
ATOM     19  C   UNL d   1       2.562  -1.714   0.378  0.00  0.00     0.292 C 
ATOM     20  O   UNL d   1       3.640  -1.154   0.513  0.00  0.00    -0.259 OA
BRANCH  19  21
ATOM     21  O   UNL d   1       2.403  -3.061   0.341  0.00  0.00    -0.318 OA
BRANCH  21  22
ATOM     22  C   UNL d   1       3.614  -3.796   0.096  0.00  0.00     0.174 C 
ATOM     23  C   UNL d   1       3.784  -3.918  -1.408  0.00  0.00     0.034 C 
ENDBRANCH  21  22
ENDBRANCH  19  21
ENDBRANCH   2  19
BRANCH   1  24
ATOM     24  C   UNL d   1      -2.509  -1.835   0.438  0.00  0.00     0.292 C 
ATOM     25  O   UNL d   1      -2.568  -3.036   0.211  0.00  0.00    -0.259 OA
BRANCH  24  26
ATOM     26  O   UNL d   1      -3.483  -1.118   1.044  0.00  0.00    -0.318 OA
BRANCH  26  27
ATOM     27  C   UNL d   1      -4.707  -1.812   1.330  0.00  0.00     0.174 C 
ATOM     28  C   UNL d   1      -5.579  -1.893   0.089  0.00  0.00     0.034 C 
ENDBRANCH  26  27
ENDBRANCH  24  26
ENDBRANCH   1  24
TORSDOF 8
