REMARK  3 active torsions:
REMARK  status: ('A' for Active; 'I' for Inactive)
REMARK    1  A    between atoms: C_6  and  N_1 
REMARK    2  A    between atoms: C_4  and  C_3 
REMARK    3  A    between atoms: O_9  and  C_5 
ROOT
ATOM      1  N   UNL d   1       1.050  -0.175  -0.225  0.00  0.00    -0.365 N 
ATOM      2  HN  UNL d   1       0.595   0.673  -0.563  1.00  0.00     0.165 HD
ATOM      3  C   UNL d   1       0.343  -1.204   0.129  0.00  0.00     0.102 C 
ENDROOT
BRANCH   1   4
ATOM      4  C   UNL d   1       2.454  -0.243  -0.136  0.00  0.00     0.032 A 
ATOM      5  C   UNL d   1       3.202   0.448  -1.099  0.00  0.00     0.032 A 
ATOM      6  C   UNL d   1       4.600   0.443  -1.062  0.00  0.00     0.044 A 
ATOM      7  C   UNL d   1       5.253  -0.253  -0.055  0.00  0.00     0.116 A 
ATOM      8  C   UNL d   1       4.537  -0.930   0.922  0.00  0.00     0.044 A 
ATOM      9  F   UNL d   1       6.592  -0.267  -0.020  0.00  0.00    -0.206 F 
ATOM     10  C   UNL d   1       3.139  -0.912   0.889  0.00  0.00     0.032 A 
ENDBRANCH   1   4
BRANCH   3  11
ATOM     11  C   UNL d   1      -1.131  -1.197   0.048  0.00  0.00     0.012 A 
ATOM     12  C   UNL d   1      -1.844  -0.123  -0.499  0.00  0.00     0.077 A 
ATOM     13  C   UNL d   1      -3.233  -0.168  -0.572  0.00  0.00     0.037 A 
ATOM     14  C   UNL d   1      -3.920  -1.284  -0.087  0.00  0.00     0.003 A 
ATOM     15  C   UNL d   1      -3.215  -2.354   0.464  0.00  0.00     0.001 A 
ATOM     16  C   UNL d   1      -1.821  -2.315   0.529  0.00  0.00     0.015 A 
BRANCH  12  17
ATOM     17  O   UNL d   1      -1.236   1.002  -0.985  0.00  0.00    -0.360 OA
ATOM     18  H   UNL d   1      -0.271   0.897  -0.828  0.00  0.00     0.217 HD
ENDBRANCH  12  17
ENDBRANCH   3  11
TORSDOF 3
