REMARK  5 active torsions:
REMARK  status: ('A' for Active; 'I' for Inactive)
REMARK    1  A    between atoms: S_6  and  C_1 
REMARK    2  A    between atoms: C_15  and  S_6 
REMARK       I    between atoms: C_7  and  N_10 
REMARK       I    between atoms: N_9  and  C_7 
REMARK    3  A    between atoms: C_8  and  C_15 
REMARK       I    between atoms: N_11  and  C_8 
REMARK    4  A    between atoms: C_13  and  N_9 
REMARK    5  A    between atoms: N_10  and  N_11 
ROOT
ATOM      1  C   UNL d   1      -3.884  -4.351   0.326  0.00  0.00     0.245 C 
ATOM      2  N   UNL d   1      -3.137  -5.110   1.199  0.00  0.00    -0.265 N 
ATOM      3  O   UNL d   1      -4.940  -4.776  -0.154  0.00  0.00    -0.271 OA
ATOM      4  H   UNL d   1      -2.197  -4.853   1.506  0.00  0.00     0.190 HD
ENDROOT
BRANCH   1   5
ATOM      5  C   UNL d   1      -3.406  -2.926   0.076  0.00  0.00     0.184 C 
BRANCH   5   6
ATOM      6  S   UNL d   1      -1.640  -2.848  -0.286  0.00  0.00    -0.118 SA
BRANCH   6   7
ATOM      7  C   UNL d   1      -1.295  -1.138  -0.530  0.00  0.00     0.035 A 
ATOM      8  C   UNL d   1      -2.058  -0.153  -1.137  0.00  0.00     0.023 A 
ATOM      9  N   UNL d   1      -1.282   0.984  -1.182  0.00  0.00    -0.358 N 
ATOM     10  C   UNL d   1      -3.420  -0.129  -1.727  0.00  0.00     0.069 C 
ATOM     11  C   UNL d   1      -0.043   0.762  -0.632  0.00  0.00     0.044 A 
ATOM     12  H   UNL d   1      -1.565   1.863  -1.595  0.00  0.00     0.166 HD
ATOM     13  C   UNL d   1      -0.028  -0.558  -0.188  0.00  0.00     0.009 A 
ATOM     14  C   UNL d   1       1.055   1.625  -0.514  0.00  0.00     0.030 A 
ATOM     15  C   UNL d   1       1.149  -1.030   0.436  0.00  0.00     0.015 A 
ATOM     16  C   UNL d   1       2.253  -0.180   0.577  0.00  0.00     0.001 A 
ATOM     17  C   UNL d   1       2.207   1.125   0.100  0.00  0.00     0.002 A 
ENDBRANCH   6   7
ENDBRANCH   5   6
ENDBRANCH   1   5
BRANCH   2  18
ATOM     18  N   UNL d   1      -3.571  -6.417   1.509  0.00  0.00    -0.249 N 
ATOM     19  C   UNL d   1      -2.700  -7.230   2.213  0.00  0.00     0.339 C 
ATOM     20  N   UNL d   1      -3.198  -8.504   2.401  0.00  0.00    -0.308 N 
ATOM     21  O   UNL d   1      -1.623  -6.794   2.617  0.00  0.00    -0.245 OA
ATOM     22  H   UNL d   1      -4.064  -8.720   1.932  0.00  0.00     0.170 HD
ATOM     23  H   UNL d   1      -4.261  -6.803   0.869  0.00  0.00     0.192 HD
BRANCH  20  24
ATOM     24  C   UNL d   1      -2.556  -9.570   3.075  0.00  0.00     0.038 A 
ATOM     25  C   UNL d   1      -1.413  -9.410   3.862  0.00  0.00     0.053 A 
ATOM     26  C   UNL d   1      -0.790 -10.521   4.435  0.00  0.00     0.036 A 
ATOM     27 CL   UNL d   1       0.629 -10.309   5.386  0.00  0.00    -0.084 Cl
ATOM     28  C   UNL d   1      -1.300 -11.801   4.239  0.00  0.00     0.024 A 
ATOM     29  C   UNL d   1      -2.464 -11.968   3.491  0.00  0.00     0.004 A 
ATOM     30  C   UNL d   1      -3.096 -10.856   2.923  0.00  0.00     0.029 A 
ENDBRANCH  20  24
ENDBRANCH   2  18
TORSDOF 5
