REMARK  1 active torsions:
REMARK  status: ('A' for Active; 'I' for Inactive)
REMARK    1  A    between atoms: C_14  and  C_4 
ROOT
ATOM      1  C   UNL d   1      -0.022   0.704   0.070  0.00  0.00     0.024 C 
ATOM      2  C   UNL d   1      -0.057  -0.643   0.082  0.00  0.00     0.021 C 
ATOM      3  C   UNL d   1      -2.568   0.697   0.075  0.00  0.00     0.057 C 
ATOM      4  C   UNL d   1      -1.291   1.534  -0.058  0.00  0.00     0.103 C 
ATOM      5  N   UNL d   1      -1.275  -1.299   0.049  0.00  0.00    -0.362 N 
ATOM      6  C   UNL d   1      -2.506  -0.657   0.090  0.00  0.00     0.023 C 
ATOM      7  C   UNL d   1       1.278   1.423   0.189  0.00  0.00     0.159 C 
ATOM      8  C   UNL d   1      -3.808   1.402   0.151  0.00  0.00     0.098 C 
ATOM      9  N   UNL d   1      -4.817   1.964   0.222  0.00  0.00    -0.192 NA
ATOM     10  C   UNL d   1       1.195  -1.496   0.090  0.00  0.00     0.067 C 
ATOM     11  C   UNL d   1       2.454  -0.737  -0.388  0.00  0.00    -0.036 C 
ATOM     12  C   UNL d   1       2.533   0.599   0.364  0.00  0.00     0.092 C 
ATOM     13  O   UNL d   1       1.322   2.651   0.230  0.00  0.00    -0.293 OA
ATOM     14  C   UNL d   1      -3.717  -1.559   0.119  0.00  0.00     0.069 C 
ATOM     15  C   UNL d   1       2.408  -0.501  -1.914  0.00  0.00     0.015 C 
ATOM     16  C   UNL d   1       3.715  -1.560  -0.076  0.00  0.00     0.015 C 
ATOM     17  H   UNL d   1      -1.272  -2.315   0.103  0.00  0.00     0.165 HD
ENDROOT
BRANCH   4  18
ATOM     18  C   UNL d   1      -1.301   2.290  -1.389  0.00  0.00    -0.044 A 
ATOM     19  C   UNL d   1      -1.258   3.692  -1.407  0.00  0.00     0.008 A 
ATOM     20  C   UNL d   1      -1.235   4.380  -2.619  0.00  0.00     0.001 A 
ATOM     21  C   UNL d   1      -1.256   3.680  -3.824  0.00  0.00     0.000 A 
ATOM     22  C   UNL d   1      -1.309   2.288  -3.821  0.00  0.00     0.001 A 
ATOM     23  C   UNL d   1      -1.333   1.596  -2.612  0.00  0.00     0.008 A 
ENDBRANCH   4  18
TORSDOF 1
