REMARK  4 active torsions:
REMARK  status: ('A' for Active; 'I' for Inactive)
REMARK    1  A    between atoms: C_9  and  C_6 
REMARK    2  A    between atoms: N_7  and  C_8 
REMARK    3  A    between atoms: C_12  and  N_7 
REMARK    4  A    between atoms: C_10  and  C_11 
ROOT
ATOM      1  C   UNL d   1       0.003   1.660   0.457  0.00  0.00    -0.014 A 
ATOM      2  C   UNL d   1       1.126   0.870   1.055  0.00  0.00    -0.014 A 
ATOM      3  C   UNL d   1      -1.200   0.779   0.408  0.00  0.00    -0.014 A 
ATOM      4  C   UNL d   1      -0.796  -0.477   0.916  0.00  0.00    -0.014 A 
ATOM      5  C   UNL d   1       0.609  -0.426   1.295  0.00  0.00    -0.014 A 
ATOM      6  C   UNL d   1      -0.017   2.935   0.023  0.00  0.00     0.013 C 
ATOM      7  C   UNL d   1       2.427   1.176   1.432  0.00  0.00     0.013 A 
ATOM      8  C   UNL d   1      -2.504   0.988  -0.014  0.00  0.00     0.013 A 
ATOM      9  C   UNL d   1      -1.700  -1.524   1.022  0.00  0.00     0.013 A 
ATOM     10  C   UNL d   1       1.402  -1.422   1.852  0.00  0.00     0.013 A 
ATOM     11  C   UNL d   1       3.226   0.172   1.991  0.00  0.00     0.001 A 
ATOM     12  C   UNL d   1       2.721  -1.118   2.191  0.00  0.00     0.001 A 
ATOM     13  C   UNL d   1      -3.017  -1.312   0.608  0.00  0.00     0.001 A 
ATOM     14  C   UNL d   1      -3.414  -0.069   0.092  0.00  0.00     0.001 A 
ENDROOT
BRANCH   6  15
ATOM     15  C   UNL d   1       1.122   3.820  -0.062  0.00  0.00     0.001 C 
ATOM     16  C   UNL d   1       1.095   5.161  -0.013  0.00  0.00     0.001 C 
BRANCH  16  17
ATOM     17  C   UNL d   1       2.341   5.901  -0.016  0.00  0.00     0.017 C 
ATOM     18  C   UNL d   1       2.479   7.229   0.072  0.00  0.00     0.090 C 
BRANCH  18  19
ATOM     19  N   UNL d   1       3.666   7.968   0.132  0.00  0.00    -0.361 N 
ATOM     20  C   UNL d   1       4.991   7.342   0.259  0.00  0.00     0.155 C 
BRANCH  19  21
ATOM     21  C   UNL d   1       3.703   9.392   0.188  0.00  0.00     0.033 A 
ATOM     22  C   UNL d   1       2.700  10.134   0.834  0.00  0.00     0.029 A 
ATOM     23  C   UNL d   1       2.739  11.534   0.879  0.00  0.00     0.002 A 
ATOM     24  C   UNL d   1       3.783  12.227   0.278  0.00  0.00     0.000 A 
ATOM     25  C   UNL d   1       4.791  11.520  -0.367  0.00  0.00     0.002 A 
ATOM     26  C   UNL d   1       4.748  10.122  -0.411  0.00  0.00     0.029 A 
ENDBRANCH  19  21
ENDBRANCH  18  19
ENDBRANCH  16  17
ENDBRANCH   6  15
TORSDOF 4
