REMARK  4 active torsions:
REMARK  status: ('A' for Active; 'I' for Inactive)
REMARK    1  A    between atoms: C_9  and  C_2 
REMARK       I    between atoms: C_13  and  N_3 
REMARK    2  A    between atoms: C_6  and  S_18 
REMARK    3  A    between atoms: C_19  and  C_13 
REMARK    4  A    between atoms: S_18  and  C_19 
ROOT
ATOM      1  C   UNL d   1       1.015  -0.787   0.088  0.00  0.00     0.049 A 
ATOM      2  C   UNL d   1       2.424  -1.339   0.131  0.00  0.00     0.245 C 
ATOM      3  N   UNL d   1       3.361  -0.232  -0.249  0.00  0.00    -0.333 N 
ATOM      4  C   UNL d   1       0.625   0.529  -0.037  0.00  0.00    -0.019 A 
ATOM      5  N   UNL d   1      -0.120  -1.557   0.147  0.00  0.00    -0.356 N 
ATOM      6  C   UNL d   1      -0.801   0.570  -0.011  0.00  0.00    -0.001 A 
ATOM      7  C   UNL d   1      -1.238  -0.753   0.092  0.00  0.00     0.043 A 
ATOM      8  C   UNL d   1       4.639  -0.421  -0.780  0.00  0.00     0.230 C 
ATOM      9  C   UNL d   1       3.017   1.125   0.247  0.00  0.00     0.131 C 
ATOM     10  C   UNL d   1       1.625   1.617  -0.198  0.00  0.00     0.061 C 
ATOM     11  O   UNL d   1       5.350   0.548  -1.073  0.00  0.00    -0.273 OA
ATOM     12  C   UNL d   1      -1.768   1.593  -0.077  0.00  0.00     0.014 A 
ATOM     13  C   UNL d   1      -2.594  -1.104   0.122  0.00  0.00     0.030 A 
ATOM     14  C   UNL d   1      -3.129   1.257  -0.036  0.00  0.00     0.001 A 
ATOM     15  C   UNL d   1      -3.532  -0.071   0.056  0.00  0.00     0.002 A 
ATOM     16  H   UNL d   1      -0.159  -2.563   0.232  0.00  0.00     0.166 HD
ENDROOT
BRANCH   2  17
ATOM     17  C   UNL d   1       2.774  -2.061   1.465  0.00  0.00     0.413 C 
ATOM     18  F   UNL d   1       1.738  -2.119   2.332  0.00  0.00    -0.168 F 
ATOM     19  F   UNL d   1       3.137  -3.345   1.208  0.00  0.00    -0.168 F 
ATOM     20  F   UNL d   1       3.810  -1.479   2.110  0.00  0.00    -0.168 F 
ENDBRANCH   2  17
BRANCH   8  21
ATOM     21  C   UNL d   1       5.228  -1.824  -0.927  0.00  0.00     0.184 C 
BRANCH  21  22
ATOM     22  S   UNL d   1       4.533  -2.746  -2.319  0.00  0.00    -0.096 SA
BRANCH  22  23
ATOM     23  C   UNL d   1       5.170  -4.351  -1.988  0.00  0.00     0.113 A 
ATOM     24  N   UNL d   1       6.249  -4.542  -1.264  0.00  0.00    -0.344 N 
ATOM     25  C   UNL d   1       6.472  -5.905  -1.107  0.00  0.00     0.050 A 
ATOM     26  HN  UNL d   1       6.834  -3.802  -0.875  1.00  0.00     0.167 HD
ATOM     27  C   UNL d   1       7.521  -6.501  -0.373  0.00  0.00     0.031 A 
ATOM     28  C   UNL d   1       5.538  -6.739  -1.728  0.00  0.00     0.034 A 
ATOM     29  C   UNL d   1       7.580  -7.894  -0.241  0.00  0.00     0.002 A 
ATOM     30  C   UNL d   1       6.622  -8.702  -0.848  0.00  0.00     0.002 A 
ATOM     31  C   UNL d   1       5.597  -8.140  -1.614  0.00  0.00     0.021 A 
ATOM     32  S   UNL d   1       4.398  -5.763  -2.573  0.00  0.00    -0.063 SA
ENDBRANCH  22  23
ENDBRANCH  21  22
ENDBRANCH   8  21
TORSDOF 4
