REMARK  5 active torsions:
REMARK  status: ('A' for Active; 'I' for Inactive)
REMARK    1  A    between atoms: N_2  and  C_10 
REMARK    2  A    between atoms: N_3  and  C_9 
REMARK    3  A    between atoms: C_15  and  C_4 
REMARK    4  A    between atoms: C_18  and  C_7 
REMARK    5  A    between atoms: O_27  and  N_13 
ROOT
ATOM      1  N   UNL d   1       0.610   1.170  -0.083  0.00  0.00     0.102 N 
ATOM      2  C   UNL d   1       1.282  -0.033   0.450  0.00  0.00     0.263 C 
ATOM      3  C   UNL d   1      -0.811  -1.335   0.039  0.00  0.00     0.018 C 
ATOM      4  C   UNL d   1       0.704  -1.326  -0.184  0.00  0.00     0.067 C 
ATOM      5  C   UNL d   1      -0.851   1.155   0.098  0.00  0.00     0.259 C 
ATOM      6  C   UNL d   1      -1.526  -0.100  -0.477  0.00  0.00     0.095 C 
ATOM      7  N   UNL d   1      -1.554  -2.226   0.628  0.00  0.00    -0.277 N 
ATOM      8  HN  UNL d   1      -2.570  -2.154   0.689  1.00  0.00     0.193 HD
ATOM      9  C   UNL d   1       1.537  -2.555   0.162  0.00  0.00     0.018 C 
ATOM     10  H   UNL d   1       0.821   1.248  -1.077  0.00  0.00     0.317 HD
ENDROOT
BRANCH   2  11
ATOM     11  C   UNL d   1       1.391   0.016   1.977  0.00  0.00    -0.025 A 
ATOM     12  C   UNL d   1       0.410  -0.516   2.829  0.00  0.00     0.012 A 
ATOM     13  C   UNL d   1       0.529  -0.467   4.217  0.00  0.00     0.037 A 
ATOM     14  C   UNL d   1       1.645   0.142   4.784  0.00  0.00     0.102 A 
ATOM     15  C   UNL d   1       2.636   0.701   3.969  0.00  0.00     0.037 A 
ATOM     16  C   UNL d   1       2.502   0.641   2.575  0.00  0.00     0.012 A 
BRANCH  14  17
ATOM     17  N   UNL d   1       1.763   0.194   6.243  0.00  0.00    -0.116 N 
ATOM     18  O   UNL d   1       0.849  -0.297   6.920  0.00  0.00    -0.532 OA
ATOM     19  O   UNL d   1       2.778   0.728   6.717  0.00  0.00    -0.532 OA
ENDBRANCH  14  17
ENDBRANCH   2  11
BRANCH   5  20
ATOM     20  C   UNL d   1      -1.454   2.428  -0.489  0.00  0.00    -0.025 A 
ATOM     21  C   UNL d   1      -1.409   2.694  -1.870  0.00  0.00     0.012 A 
ATOM     22  C   UNL d   1      -1.920   3.887  -2.387  0.00  0.00     0.037 A 
ATOM     23  C   UNL d   1      -2.485   4.830  -1.521  0.00  0.00     0.102 A 
ATOM     24  C   UNL d   1      -2.559   4.577  -0.147  0.00  0.00     0.037 A 
ATOM     25  C   UNL d   1      -2.041   3.381   0.362  0.00  0.00     0.012 A 
BRANCH  23  26
ATOM     26  N   UNL d   1      -2.985   6.102  -2.058  0.00  0.00    -0.116 N 
ATOM     27  O   UNL d   1      -3.460   6.920  -1.257  0.00  0.00    -0.532 OA
ATOM     28  O   UNL d   1      -2.898   6.285  -3.281  0.00  0.00    -0.532 OA
ENDBRANCH  23  26
ENDBRANCH   5  20
BRANCH   7  29
ATOM     29  O   UNL d   1      -0.833  -3.285   1.168  0.00  0.00    -0.290 OA
ATOM     30  H   UNL d   1      -1.509  -3.775   1.674  0.00  0.00     0.244 HD
ENDBRANCH   7  29
TORSDOF 5
