REMARK  1 active torsions:
REMARK  status: ('A' for Active; 'I' for Inactive)
REMARK    1  A    between atoms: C_7  and  C_3 
ROOT
ATOM      1  C   UNL d   1       1.278   0.327   0.005  0.00  0.00     0.060 C 
ATOM      2  C   UNL d   1      -1.278   0.339  -0.029  0.00  0.00     0.060 C 
ATOM      3  C   UNL d   1       0.006   1.154  -0.216  0.00  0.00     0.134 C 
ATOM      4  N   UNL d   1      -0.009  -1.665  -0.066  0.00  0.00    -0.361 N 
ATOM      5  C   UNL d   1      -1.229  -1.014  -0.007  0.00  0.00     0.023 C 
ATOM      6  C   UNL d   1       1.216  -1.024   0.025  0.00  0.00     0.023 C 
ATOM      7  C   UNL d   1      -2.512   1.048   0.072  0.00  0.00     0.098 C 
ATOM      8  C   UNL d   1       2.515   1.024   0.135  0.00  0.00     0.098 C 
ATOM      9  N   UNL d   1       3.531   1.575   0.254  0.00  0.00    -0.192 NA
ATOM     10  N   UNL d   1      -3.524   1.609   0.169  0.00  0.00    -0.192 NA
ATOM     11  C   UNL d   1      -2.466  -1.875   0.059  0.00  0.00     0.069 C 
ATOM     12  C   UNL d   1       2.443  -1.898   0.123  0.00  0.00     0.069 C 
ATOM     13  H   UNL d   1      -0.014  -2.681   0.005  0.00  0.00     0.165 HD
ENDROOT
BRANCH   3  14
ATOM     14  C   UNL d   1       0.031   1.791  -1.581  0.00  0.00     0.067 A 
ATOM     15  O   UNL d   1       0.074   3.151  -1.639  0.00  0.00    -0.326 OA
ATOM     16  C   UNL d   1       0.100   3.485  -2.955  0.00  0.00     0.142 A 
ATOM     17  C   UNL d   1       0.073   2.357  -3.743  0.00  0.00     0.027 A 
ATOM     18  C   UNL d   1       0.027   1.260  -2.856  0.00  0.00     0.036 A 
ENDBRANCH   3  14
TORSDOF 1
