REMARK  6 active torsions:
REMARK  status: ('A' for Active; 'I' for Inactive)
REMARK    1  A    between atoms: C_12  and  C_2 
REMARK    2  A    between atoms: S_4  and  N_14 
REMARK    3  A    between atoms: C_17  and  S_4 
REMARK    4  A    between atoms: C_15  and  C_6 
REMARK       I    between atoms: N_16  and  C_12 
REMARK    5  A    between atoms: N_14  and  N_16 
REMARK    6  A    between atoms: O_30  and  C_20 
ROOT
ATOM      1  C   UNL d   1      -0.359   0.404   0.026  0.00  0.00     0.089 A 
ATOM      2  C   UNL d   1      -2.513  -0.800   0.086  0.00  0.00     0.083 A 
ATOM      3  C   UNL d   1      -0.143  -0.970   0.080  0.00  0.00     0.027 A 
ATOM      4  C   UNL d   1      -1.423  -1.678   0.099  0.00  0.00    -0.024 A 
ATOM      5  C   UNL d   1       1.819   0.937   0.017  0.00  0.00     0.119 A 
ATOM      6  S   UNL d   1      -2.006   0.828   0.033  0.00  0.00    -0.065 SA
ATOM      7  N   UNL d   1       0.566   1.381  -0.030  0.00  0.00    -0.335 N 
ATOM      8  HN  UNL d   1       0.328   2.370  -0.101  1.00  0.00     0.168 HD
ATOM      9  N   UNL d   1       2.159  -0.362   0.090  0.00  0.00    -0.345 N 
ATOM     10  HN  UNL d   1       3.145  -0.616   0.147  1.00  0.00     0.167 HD
ATOM     11  C   UNL d   1       1.220  -1.345   0.091  0.00  0.00     0.020 A 
ATOM     12  C   UNL d   1      -1.621  -3.165   0.130  0.00  0.00     0.050 C 
ATOM     13  C   UNL d   1       1.832  -2.712   0.103  0.00  0.00     0.069 C 
ENDROOT
BRANCH   2  14
ATOM     14  C   UNL d   1      -3.938  -1.159   0.107  0.00  0.00     0.278 C 
ATOM     15  N   UNL d   1      -4.864  -0.129   0.193  0.00  0.00    -0.256 N 
ATOM     16  H   UNL d   1      -4.600   0.853   0.229  0.00  0.00     0.191 HD
ATOM     17  O   UNL d   1      -4.342  -2.325   0.062  0.00  0.00    -0.265 OA
BRANCH  15  18
ATOM     18  N   UNL d   1      -6.277  -0.480   0.252  0.00  0.00    -0.220 N 
ATOM     19  H   UNL d   1      -6.537  -1.473   0.220  0.00  0.00     0.200 HD
BRANCH  18  20
ATOM     20  S   UNL d   1      -7.457   0.712   0.324  0.00  0.00     0.276 S 
ATOM     21  O   UNL d   1      -7.269   1.437   1.562  0.00  0.00    -0.199 OA
ATOM     22  O   UNL d   1      -7.458   1.401  -0.945  0.00  0.00    -0.199 OA
BRANCH  20  23
ATOM     23  C   UNL d   1      -8.957  -0.231   0.445  0.00  0.00     0.081 A 
ATOM     24  C   UNL d   1      -9.508  -0.501   1.700  0.00  0.00     0.026 A 
ATOM     25  C   UNL d   1     -10.719  -1.193   1.790  0.00  0.00     0.008 A 
ATOM     26  C   UNL d   1     -11.388  -1.611   0.630  0.00  0.00    -0.062 A 
ATOM     27  C   UNL d   1     -10.827  -1.329  -0.624  0.00  0.00     0.008 A 
ATOM     28  C   UNL d   1     -12.692  -2.350   0.744  0.00  0.00     0.048 C 
ATOM     29  C   UNL d   1      -9.618  -0.637  -0.720  0.00  0.00     0.026 A 
ENDBRANCH  20  23
ENDBRANCH  18  20
ENDBRANCH  15  18
ENDBRANCH   2  14
BRANCH   5  30
ATOM     30  C   UNL d   1       2.957   1.877  -0.102  0.00  0.00     0.041 A 
ATOM     31  C   UNL d   1       2.970   3.225   0.304  0.00  0.00     0.082 A 
ATOM     32  C   UNL d   1       4.104   4.031   0.074  0.00  0.00     0.038 A 
ATOM     33  C   UNL d   1       5.252   3.516  -0.531  0.00  0.00     0.003 A 
ATOM     34  C   UNL d   1       5.274   2.188  -0.921  0.00  0.00     0.001 A 
ATOM     35  C   UNL d   1       4.149   1.391  -0.707  0.00  0.00     0.018 A 
BRANCH  31  36
ATOM     36  O   UNL d   1       1.914   3.910   0.849  0.00  0.00    -0.355 OA
ATOM     37  C   UNL d   1       1.447   3.394   2.093  0.00  0.00     0.210 C 
ENDBRANCH  31  36
ENDBRANCH   5  30
TORSDOF 6
