REMARK  9 active torsions:
REMARK  status: ('A' for Active; 'I' for Inactive)
REMARK    1  A    between atoms: C_4  and  C_1 
REMARK    2  A    between atoms: C_5  and  C_1 
REMARK    3  A    between atoms: C_2  and  C_6 
REMARK    4  A    between atoms: N_7  and  C_3 
REMARK    5  A    between atoms: O_19  and  C_4 
REMARK    6  A    between atoms: O_18  and  C_5 
REMARK    7  A    between atoms: C_8  and  N_7 
REMARK    8  A    between atoms: C_22  and  O_18 
REMARK    9  A    between atoms: C_21  and  O_19 
ROOT
ATOM      1  N   UNL d   1       0.904  -1.823   1.651  0.00  0.00    -0.362 N 
ATOM      2  H   UNL d   1       1.908  -1.715   1.826  0.00  0.00     0.165 HD
ENDROOT
BRANCH   1   3
ATOM      3  C   UNL d   1       0.379  -0.967   0.705  0.00  0.00     0.112 C 
ATOM      4  C   UNL d   1       1.038  -0.116  -0.108  0.00  0.00     0.129 C 
BRANCH   4   5
ATOM      5  C   UNL d   1       0.292   0.861  -0.951  0.00  0.00     0.300 C 
ATOM      6  O   UNL d   1       0.772   1.917  -1.334  0.00  0.00    -0.259 OA
BRANCH   5   7
ATOM      7  O   UNL d   1      -1.007   0.502  -1.102  0.00  0.00    -0.318 OA
BRANCH   7   8
ATOM      8  C   UNL d   1      -1.906   1.585  -1.373  0.00  0.00     0.174 C 
ATOM      9  C   UNL d   1      -2.336   2.175  -0.041  0.00  0.00     0.034 C 
ENDBRANCH   7   8
ENDBRANCH   5   7
ENDBRANCH   4   5
BRANCH   4  10
ATOM     10  C   UNL d   1       2.512  -0.067   0.021  0.00  0.00     0.300 C 
ATOM     11  O   UNL d   1       3.126  -0.506   0.989  0.00  0.00    -0.259 OA
BRANCH  10  12
ATOM     12  O   UNL d   1       3.082   0.552  -1.039  0.00  0.00    -0.318 OA
BRANCH  12  13
ATOM     13  C   UNL d   1       4.367   1.124  -0.767  0.00  0.00     0.174 C 
ATOM     14  C   UNL d   1       4.143   2.497  -0.159  0.00  0.00     0.034 C 
ENDBRANCH  12  13
ENDBRANCH  10  12
ENDBRANCH   4  10
ENDBRANCH   1   3
BRANCH   1  15
ATOM     15  C   UNL d   1       0.227  -2.748   2.461  0.00  0.00     0.071 A 
ATOM     16  C   UNL d   1       0.784  -3.072   3.710  0.00  0.00     0.048 A 
ATOM     17  C   UNL d   1       0.114  -3.907   4.624  0.00  0.00     0.050 A 
ATOM     18  C   UNL d   1      -1.127  -4.451   4.261  0.00  0.00     0.019 A 
ATOM     19  C   UNL d   1      -1.688  -4.152   3.021  0.00  0.00     0.045 A 
ATOM     20  C   UNL d   1      -1.022  -3.300   2.144  0.00  0.00     0.143 A 
ATOM     21  F   UNL d   1      -1.603  -3.045   0.962  0.00  0.00    -0.204 F 
BRANCH  17  22
ATOM     22  C   UNL d   1       0.696  -4.189   5.989  0.00  0.00     0.417 C 
ATOM     23  F   UNL d   1       1.890  -3.574   6.210  0.00  0.00    -0.166 F 
ATOM     24  F   UNL d   1      -0.126  -3.776   6.994  0.00  0.00    -0.166 F 
ATOM     25  F   UNL d   1       0.912  -5.515   6.203  0.00  0.00    -0.166 F 
ENDBRANCH  17  22
ENDBRANCH   1  15
TORSDOF 9
