REMARK  5 active torsions:
REMARK  status: ('A' for Active; 'I' for Inactive)
REMARK    1  A    between atoms: C_7  and  C_1 
REMARK    2  A    between atoms: C_2  and  S_3 
REMARK    3  A    between atoms: S_3  and  C_5 
REMARK    4  A    between atoms: C_8  and  C_6 
REMARK       I    between atoms: N_11  and  C_7 
REMARK    5  A    between atoms: O_13  and  C_8 
ROOT
ATOM      1  C   UNL d   1       3.224  -2.901   1.936  0.00  0.00     0.017 C 
ATOM      2  C   UNL d   1       4.317  -2.123   2.437  0.00  0.00     0.008 C 
ATOM      3  C   UNL d   1       4.323  -1.277   3.586  0.00  0.00     0.050 C 
ATOM      4  C   UNL d   1       5.535  -2.192   1.716  0.00  0.00    -0.024 C 
ATOM      5  C   UNL d   1       3.446  -3.894   0.968  0.00  0.00     0.020 C 
ATOM      6  C   UNL d   1       5.354  -0.356   3.825  0.00  0.00     0.019 C 
ATOM      7  C   UNL d   1       4.700  -4.056   0.397  0.00  0.00     0.002 C 
ATOM      8  C   UNL d   1       6.459  -0.328   2.989  0.00  0.00     0.002 C 
ATOM      9  C   UNL d   1       6.571  -1.278   1.979  0.00  0.00     0.012 C 
ATOM     10  C   UNL d   1       5.720  -3.173   0.732  0.00  0.00     0.012 C 
ENDROOT
BRANCH   1  11
ATOM     11  S   UNL d   1       1.490  -2.651   2.340  0.00  0.00    -0.089 SA
BRANCH  11  12
ATOM     12  C   UNL d   1       1.210  -0.887   2.161  0.00  0.00     0.021 A 
ATOM     13  C   UNL d   1       1.704  -0.040   1.155  0.00  0.00     0.049 A 
ATOM     14  C   UNL d   1       1.436   1.341   1.178  0.00  0.00     0.018 A 
ATOM     15  C   UNL d   1       0.621   1.886   2.164  0.00  0.00     0.001 A 
ATOM     16  C   UNL d   1       0.077   1.055   3.135  0.00  0.00     0.001 A 
ATOM     17  C   UNL d   1       0.376  -0.312   3.138  0.00  0.00     0.020 A 
BRANCH  13  18
ATOM     18  C   UNL d   1       2.420  -0.496  -0.054  0.00  0.00     0.252 C 
ATOM     19  O   UNL d   1       3.526  -0.048  -0.324  0.00  0.00    -0.268 OA
ATOM     20  N   UNL d   1       1.677  -1.307  -0.881  0.00  0.00    -0.361 N 
ATOM     21  C   UNL d   1       2.105  -1.601  -2.224  0.00  0.00     0.149 C 
ATOM     22  H   UNL d   1       0.761  -1.613  -0.580  0.00  0.00     0.162 HD
ENDBRANCH  13  18
ENDBRANCH  11  12
ENDBRANCH   1  11
BRANCH   3  23
ATOM     23  C   UNL d   1       3.374  -1.454   4.712  0.00  0.00     0.177 C 
ATOM     24  O   UNL d   1       2.859  -0.524   5.313  0.00  0.00    -0.646 OA
BRANCH  23  25
ATOM     25  O   UNL d   1       3.279  -2.743   5.111  0.00  0.00    -0.773 OA
ATOM     26  H   UNL d   1       3.803  -3.376   4.578  0.00  0.00     0.167 HD
ENDBRANCH  23  25
ENDBRANCH   3  23
TORSDOF 5
