REMARK  9 active torsions:
REMARK  status: ('A' for Active; 'I' for Inactive)
REMARK    1  A    between atoms: N_3  and  C_1 
REMARK    2  A    between atoms: N_4  and  C_1 
REMARK       I    between atoms: C_2  and  N_6 
REMARK    3  A    between atoms: C_14  and  C_2 
REMARK    4  A    between atoms: N_6  and  N_3 
REMARK    5  A    between atoms: C_12  and  N_4 
REMARK    6  A    between atoms: C_5  and  C_15 
REMARK       I    between atoms: N_8  and  C_5 
REMARK    7  A    between atoms: C_13  and  N_8 
REMARK    8  A    between atoms: S_11  and  C_14 
REMARK    9  A    between atoms: C_15  and  S_11 
ROOT
ATOM      1  C   UNL d   1       0.458   3.573   1.366  0.00  0.00     0.245 C 
ATOM      2  N   UNL d   1       1.258   2.804   0.544  0.00  0.00    -0.267 N 
ATOM      3  O   UNL d   1      -0.727   3.297   1.556  0.00  0.00    -0.271 OA
ATOM      4  H   UNL d   1       2.200   3.076   0.278  0.00  0.00     0.190 HD
ENDROOT
BRANCH   1   5
ATOM      5  C   UNL d   1       1.157   4.771   1.989  0.00  0.00     0.178 C 
BRANCH   5   6
ATOM      6  S   UNL d   1       0.274   6.334   1.622  0.00  0.00    -0.150 SA
BRANCH   6   7
ATOM      7  C   UNL d   1      -1.185   6.080   2.686  0.00  0.00     0.177 C 
BRANCH   7   8
ATOM      8  C   UNL d   1      -2.094   7.291   2.848  0.00  0.00     0.231 C 
ATOM      9  N   UNL d   1      -1.914   8.312   1.938  0.00  0.00    -0.327 N 
ATOM     10  H   UNL d   1      -1.133   8.191   1.298  0.00  0.00     0.169 HD
ATOM     11  O   UNL d   1      -2.955   7.264   3.731  0.00  0.00    -0.272 OA
BRANCH   9  12
ATOM     12  C   UNL d   1      -2.689   9.480   1.793  0.00  0.00     0.034 A 
ATOM     13  C   UNL d   1      -3.791   9.789   2.596  0.00  0.00     0.029 A 
ATOM     14  C   UNL d   1      -4.541  10.947   2.371  0.00  0.00     0.002 A 
ATOM     15  C   UNL d   1      -4.194  11.813   1.339  0.00  0.00     0.000 A 
ATOM     16  C   UNL d   1      -3.092  11.527   0.539  0.00  0.00     0.002 A 
ATOM     17  C   UNL d   1      -2.342  10.369   0.766  0.00  0.00     0.029 A 
ENDBRANCH   9  12
ENDBRANCH   7   8
ENDBRANCH   6   7
ENDBRANCH   5   6
ENDBRANCH   1   5
BRANCH   2  18
ATOM     18  N   UNL d   1       0.614   1.894  -0.308  0.00  0.00    -0.274 N 
ATOM     19  H   UNL d   1      -0.405   1.883  -0.226  0.00  0.00     0.189 HD
BRANCH  18  20
ATOM     20  C   UNL d   1       1.207   0.728  -0.707  0.00  0.00     0.191 C 
ATOM     21  S   UNL d   1       2.666   0.147  -0.120  0.00  0.00    -0.039 SA
BRANCH  20  22
ATOM     22  N   UNL d   1       0.558  -0.008  -1.661  0.00  0.00    -0.332 N 
ATOM     23  H   UNL d   1       0.943  -0.941  -1.768  0.00  0.00     0.168 HD
BRANCH  22  24
ATOM     24  C   UNL d   1      -0.383   0.374  -2.645  0.00  0.00     0.034 A 
ATOM     25  C   UNL d   1      -0.777   1.691  -2.900  0.00  0.00     0.029 A 
ATOM     26  C   UNL d   1      -1.667   1.983  -3.939  0.00  0.00     0.002 A 
ATOM     27  C   UNL d   1      -2.159   0.964  -4.748  0.00  0.00     0.000 A 
ATOM     28  C   UNL d   1      -1.764  -0.350  -4.516  0.00  0.00     0.002 A 
ATOM     29  C   UNL d   1      -0.882  -0.642  -3.471  0.00  0.00     0.029 A 
ENDBRANCH  22  24
ENDBRANCH  20  22
ENDBRANCH  18  20
ENDBRANCH   2  18
TORSDOF 9
