REMARK  3 active torsions:
REMARK  status: ('A' for Active; 'I' for Inactive)
REMARK    1  A    between atoms: C_8  and  N_1 
REMARK    2  A    between atoms: C_6  and  C_2 
REMARK    3  A    between atoms: O_18  and  C_10 
ROOT
ATOM      1  N   UNL d   1       2.228  -0.159   0.277  0.00  0.00    -0.292 N 
ATOM      2  C   UNL d   1       1.881  -1.517  -0.134  0.00  0.00     0.207 C 
ATOM      3  C   UNL d   1       1.293   0.876   0.151  0.00  0.00     0.261 C 
ATOM      4  N   UNL d   1       0.525  -1.832   0.324  0.00  0.00    -0.266 NA
ATOM      5  C   UNL d   1      -0.123   0.486   0.001  0.00  0.00     0.053 A 
ATOM      6  C   UNL d   1      -0.452  -0.867   0.077  0.00  0.00     0.026 A 
ATOM      7  O   UNL d   1       1.567   2.073   0.171  0.00  0.00    -0.267 OA
ATOM      8  C   UNL d   1      -1.114   1.466  -0.139  0.00  0.00     0.019 A 
ATOM      9  C   UNL d   1      -1.806  -1.222   0.087  0.00  0.00     0.024 A 
ATOM     10  C   UNL d   1      -2.456   1.095  -0.168  0.00  0.00     0.001 A 
ATOM     11  C   UNL d   1      -2.801  -0.249  -0.047  0.00  0.00     0.002 A 
ATOM     12  H   UNL d   1       0.238  -2.765   0.038  0.00  0.00     0.130 HD
ENDROOT
BRANCH   2  13
ATOM     13  C   UNL d   1       2.767  -2.594   0.486  0.00  0.00     0.013 A 
ATOM     14  C   UNL d   1       2.866  -2.762   1.879  0.00  0.00     0.075 A 
ATOM     15  C   UNL d   1       3.716  -3.712   2.437  0.00  0.00     0.037 A 
ATOM     16  C   UNL d   1       4.469  -4.538   1.608  0.00  0.00     0.003 A 
ATOM     17  C   UNL d   1       4.365  -4.415   0.223  0.00  0.00     0.001 A 
ATOM     18  C   UNL d   1       3.519  -3.451  -0.336  0.00  0.00     0.013 A 
BRANCH  14  19
ATOM     19  O   UNL d   1       2.127  -2.021   2.761  0.00  0.00    -0.360 OA
ATOM     20  H   UNL d   1       1.432  -1.557   2.254  0.00  0.00     0.217 HD
ENDBRANCH  14  19
ENDBRANCH   2  13
BRANCH   1  21
ATOM     21  C   UNL d   1       3.597   0.221   0.407  0.00  0.00     0.039 A 
ATOM     22  C   UNL d   1       3.982   0.946   1.546  0.00  0.00     0.033 A 
ATOM     23  C   UNL d   1       5.312   1.318   1.730  0.00  0.00     0.044 A 
ATOM     24  C   UNL d   1       6.250   0.991   0.761  0.00  0.00     0.116 A 
ATOM     25  C   UNL d   1       5.885   0.286  -0.382  0.00  0.00     0.044 A 
ATOM     26  F   UNL d   1       7.526   1.365   0.925  0.00  0.00    -0.206 F 
ATOM     27  C   UNL d   1       4.557  -0.111  -0.556  0.00  0.00     0.033 A 
ENDBRANCH   1  21
TORSDOF 3
