REMARK  6 active torsions:
REMARK  status: ('A' for Active; 'I' for Inactive)
REMARK    1  A    between atoms: C_5  and  S_1 
REMARK    2  A    between atoms: N_7  and  S_1 
REMARK    3  A    between atoms: N_3  and  C_2 
REMARK    4  A    between atoms: S_9  and  C_6 
REMARK    5  A    between atoms: C_10  and  N_7 
REMARK    6  A    between atoms: C_15  and  S_9 
ROOT
ATOM      1  C   UNL d   1      -1.961  -1.597  -0.878  0.00  0.00    -0.085 C 
ATOM      2  C   UNL d   1      -1.041  -2.014   0.196  0.00  0.00     0.103 C 
ATOM      3  C   UNL d   1      -2.743  -1.278  -1.734  0.00  0.00     0.015 C 
ATOM      4  C   UNL d   1      -1.590  -1.536   1.554  0.00  0.00     0.045 C 
ATOM      5  C   UNL d   1      -0.998  -3.569   0.178  0.00  0.00     0.045 C 
ATOM      6  C   UNL d   1      -0.852  -2.137   2.747  0.00  0.00     0.004 C 
ATOM      7  C   UNL d   1      -0.311  -4.186   1.397  0.00  0.00     0.004 C 
ATOM      8  C   UNL d   1      -0.898  -3.659   2.701  0.00  0.00     0.000 C 
ENDROOT
BRANCH   2   9
ATOM      9  N   UNL d   1       0.326  -1.533  -0.060  0.00  0.00    -0.294 N 
ATOM     10  H   UNL d   1       1.067  -2.214  -0.209  0.00  0.00     0.174 HD
BRANCH   9  11
ATOM     11  S   UNL d   1       0.828   0.050  -0.194  0.00  0.00     0.260 S 
ATOM     12  O   UNL d   1       0.273   0.830   0.887  0.00  0.00    -0.200 OA
ATOM     13  O   UNL d   1       2.258  -0.010  -0.411  0.00  0.00    -0.200 OA
BRANCH  11  14
ATOM     14  C   UNL d   1       0.115   0.610  -1.719  0.00  0.00     0.082 A 
ATOM     15  C   UNL d   1       0.582   0.078  -2.921  0.00  0.00     0.062 A 
ATOM     16  C   UNL d   1      -0.057   0.442  -4.116  0.00  0.00     0.121 A 
ATOM     17  C   UNL d   1      -1.169   1.301  -4.128  0.00  0.00     0.040 A 
ATOM     18  C   UNL d   1      -1.554   1.892  -2.912  0.00  0.00     0.023 A 
ATOM     19  C   UNL d   1      -0.910   1.561  -1.713  0.00  0.00     0.027 A 
BRANCH  16  20
ATOM     20  N   UNL d   1       0.496  -0.091  -5.351  0.00  0.00    -0.114 N 
ATOM     21  O   UNL d   1       0.730  -1.307  -5.390  0.00  0.00    -0.532 OA
ATOM     22  O   UNL d   1       0.786   0.721  -6.241  0.00  0.00    -0.532 OA
ENDBRANCH  16  20
BRANCH  17  23
ATOM     23  S   UNL d   1      -2.200   1.638  -5.555  0.00  0.00    -0.070 SA
BRANCH  23  24
ATOM     24  C   UNL d   1      -3.040   0.073  -5.796  0.00  0.00     0.074 A 
ATOM     25  N   UNL d   1      -2.596  -1.009  -5.115  0.00  0.00    -0.360 N 
ATOM     26  C   UNL d   1      -3.234  -2.183  -5.322  0.00  0.00     0.089 A 
ATOM     27  HN  UNL d   1      -1.808  -0.942  -4.471  1.00  0.00     0.166 HD
ATOM     28  C   UNL d   1      -4.320  -2.332  -6.164  0.00  0.00     0.017 A 
ATOM     29  C   UNL d   1      -4.769  -1.212  -6.851  0.00  0.00     0.004 A 
ATOM     30  C   UNL d   1      -4.118   0.009  -6.671  0.00  0.00     0.037 A 
ENDBRANCH  23  24
ENDBRANCH  17  23
ENDBRANCH  11  14
ENDBRANCH   9  11
ENDBRANCH   2   9
TORSDOF 6
