REMARK  9 active torsions:
REMARK  status: ('A' for Active; 'I' for Inactive)
REMARK    1  A    between atoms: C_2  and  C_1 
REMARK    2  A    between atoms: C_10  and  C_1 
REMARK    3  A    between atoms: C_12  and  C_1 
REMARK    4  A    between atoms: O_13  and  C_1 
REMARK    5  A    between atoms: C_3  and  N_6 
REMARK    6  A    between atoms: N_7  and  C_3 
REMARK    7  A    between atoms: N_6  and  C_4 
REMARK    8  A    between atoms: C_5  and  N_7 
REMARK    9  A    between atoms: C_17  and  C_10 
ROOT
ATOM      1  C   UNL d   1      -0.382  -1.302  -0.545  0.00  0.00     0.008 A 
ATOM      2  C   UNL d   1      -1.649  -0.882  -1.033  0.00  0.00     0.043 A 
ATOM      3  C   UNL d   1       0.219  -2.400  -1.218  0.00  0.00     0.013 A 
ATOM      4  C   UNL d   1      -2.251  -1.545  -2.120  0.00  0.00     0.030 A 
ATOM      5  C   UNL d   1      -0.392  -3.055  -2.293  0.00  0.00     0.001 A 
ATOM      6  C   UNL d   1      -1.626  -2.623  -2.743  0.00  0.00     0.002 A 
ENDROOT
BRANCH   1   7
ATOM      7  C   UNL d   1       0.420  -0.678   0.642  0.00  0.00     0.118 C 
BRANCH   7   8
ATOM      8  C   UNL d   1       0.358  -1.576   1.933  0.00  0.00     0.086 C 
BRANCH   8   9
ATOM      9  C   UNL d   1       0.789  -3.029   1.870  0.00  0.00    -0.055 A 
ATOM     10  C   UNL d   1       2.116  -3.392   1.605  0.00  0.00     0.007 A 
ATOM     11  C   UNL d   1       2.485  -4.738   1.548  0.00  0.00     0.001 A 
ATOM     12  C   UNL d   1       1.540  -5.734   1.790  0.00  0.00     0.000 A 
ATOM     13  C   UNL d   1       0.226  -5.385   2.091  0.00  0.00     0.001 A 
ATOM     14  C   UNL d   1      -0.148  -4.042   2.129  0.00  0.00     0.007 A 
ENDBRANCH   8   9
ENDBRANCH   7   8
BRANCH   7  15
ATOM     15  C   UNL d   1       0.061   0.792   0.998  0.00  0.00    -0.019 A 
ATOM     16  C   UNL d   1      -0.718   1.141   2.125  0.00  0.00     0.010 A 
ATOM     17  C   UNL d   1      -1.118   2.460   2.361  0.00  0.00     0.001 A 
ATOM     18  C   UNL d   1      -0.717   3.474   1.501  0.00  0.00     0.000 A 
ATOM     19  C   UNL d   1       0.085   3.170   0.406  0.00  0.00     0.001 A 
ATOM     20  C   UNL d   1       0.464   1.847   0.153  0.00  0.00     0.010 A 
ENDBRANCH   7  15
BRANCH   7  21
ATOM     21  O   UNL d   1       1.820  -0.589   0.278  0.00  0.00    -0.380 OA
ATOM     22  H   UNL d   1       1.867  -0.598  -0.692  0.00  0.00     0.211 HD
ENDBRANCH   7  21
ENDBRANCH   1   7
BRANCH   2  23
ATOM     23  N   UNL d   1      -2.348   0.165  -0.401  0.00  0.00    -0.333 N 
ATOM     24  H   UNL d   1      -2.243   0.132   0.605  0.00  0.00     0.168 HD
BRANCH  23  25
ATOM     25  C   UNL d   1      -3.496   0.781  -0.713  0.00  0.00     0.176 C 
ATOM     26  S   UNL d   1      -4.670   0.861   0.487  0.00  0.00    -0.041 SA
BRANCH  25  27
ATOM     27  N   UNL d   1      -3.742   1.477  -1.837  0.00  0.00    -0.332 N 
ATOM     28  H   UNL d   1      -4.661   1.914  -1.769  0.00  0.00     0.168 HD
BRANCH  27  29
ATOM     29  C   UNL d   1      -3.027   1.928  -2.971  0.00  0.00     0.057 A 
ATOM     30  C   UNL d   1      -1.753   1.511  -3.347  0.00  0.00     0.055 A 
ATOM     31  C   UNL d   1      -1.188   1.953  -4.552  0.00  0.00     0.036 A 
ATOM     32 CL   UNL d   1       0.342   1.335  -5.048  0.00  0.00    -0.084 Cl
ATOM     33  C   UNL d   1      -1.850   2.868  -5.367  0.00  0.00     0.026 A 
ATOM     34  C   UNL d   1      -3.091   3.355  -4.973  0.00  0.00     0.028 A 
ATOM     35  C   UNL d   1      -3.674   2.882  -3.794  0.00  0.00     0.060 A 
ATOM     36 CL   UNL d   1      -5.218   3.538  -3.353  0.00  0.00    -0.082 Cl
ENDBRANCH  27  29
ENDBRANCH  25  27
ENDBRANCH  23  25
ENDBRANCH   2  23
TORSDOF 9
