REMARK  7 active torsions:
REMARK  status: ('A' for Active; 'I' for Inactive)
REMARK    1  A    between atoms: N_2  and  C_1 
REMARK    2  A    between atoms: C_3  and  C_6 
REMARK       I    between atoms: N_4  and  C_3 
REMARK    3  A    between atoms: C_10  and  N_4 
REMARK    4  A    between atoms: C_12  and  N_4 
REMARK    5  A    between atoms: S_8  and  C_7 
REMARK    6  A    between atoms: C_26  and  S_8 
REMARK    7  A    between atoms: C_20  and  C_12 
ROOT
ATOM      1  C   UNL d   1      -1.794  -2.345  -0.066  0.00  0.00     0.258 C 
ATOM      2  N   UNL d   1      -3.184  -2.307   0.142  0.00  0.00    -0.310 N 
ATOM      3  O   UNL d   1      -1.133  -1.319  -0.251  0.00  0.00    -0.267 OA
ENDROOT
BRANCH   1   4
ATOM      4  C   UNL d   1      -1.006  -3.621   0.040  0.00  0.00     0.035 A 
ATOM      5  C   UNL d   1       0.244  -3.667  -0.587  0.00  0.00     0.054 A 
ATOM      6  C   UNL d   1       1.059  -4.806  -0.449  0.00  0.00     0.120 A 
ATOM      7  C   UNL d   1       0.669  -5.916   0.307  0.00  0.00     0.038 A 
ATOM      8  C   UNL d   1      -0.583  -5.855   0.934  0.00  0.00     0.022 A 
ATOM      9  C   UNL d   1      -1.396  -4.714   0.824  0.00  0.00     0.018 A 
BRANCH   6  10
ATOM     10  N   UNL d   1       2.347  -4.781  -1.112  0.00  0.00    -0.114 N 
ATOM     11  O   UNL d   1       3.180  -3.974  -0.678  0.00  0.00    -0.532 OA
ATOM     12  O   UNL d   1       2.506  -5.541  -2.074  0.00  0.00    -0.532 OA
ENDBRANCH   6  10
BRANCH   7  13
ATOM     13  S   UNL d   1       1.642  -7.400   0.523  0.00  0.00    -0.088 SA
BRANCH  13  14
ATOM     14  C   UNL d   1       2.477  -7.047   2.060  0.00  0.00     0.005 A 
ATOM     15  C   UNL d   1       1.875  -7.375   3.281  0.00  0.00     0.020 A 
ATOM     16  C   UNL d   1       2.540  -7.125   4.485  0.00  0.00     0.025 A 
ATOM     17  C   UNL d   1       3.812  -6.556   4.469  0.00  0.00     0.034 A 
ATOM     18  C   UNL d   1       4.425  -6.238   3.259  0.00  0.00     0.025 A 
ATOM     19 CL   UNL d   1       4.630  -6.252   5.951  0.00  0.00    -0.084 Cl
ATOM     20  C   UNL d   1       3.759  -6.488   2.054  0.00  0.00     0.020 A 
ENDBRANCH  13  14
ENDBRANCH   7  13
ENDBRANCH   1   4
BRANCH   2  21
ATOM     21  C   UNL d   1      -4.070  -3.405  -0.032  0.00  0.00     0.038 A 
ATOM     22  C   UNL d   1      -5.108  -3.613   0.889  0.00  0.00     0.033 A 
ATOM     23  C   UNL d   1      -6.013  -4.662   0.714  0.00  0.00     0.044 A 
ATOM     24  C   UNL d   1      -5.893  -5.486  -0.398  0.00  0.00     0.116 A 
ATOM     25  C   UNL d   1      -4.878  -5.290  -1.330  0.00  0.00     0.044 A 
ATOM     26  F   UNL d   1      -6.772  -6.481  -0.576  0.00  0.00    -0.206 F 
ATOM     27  C   UNL d   1      -3.959  -4.255  -1.143  0.00  0.00     0.033 A 
ENDBRANCH   2  21
BRANCH   2  28
ATOM     28  C   UNL d   1      -3.801  -0.969   0.283  0.00  0.00     0.171 C 
BRANCH  28  29
ATOM     29  C   UNL d   1      -4.100  -0.278  -1.037  0.00  0.00    -0.037 A 
ATOM     30  C   UNL d   1      -4.917  -0.877  -2.011  0.00  0.00     0.048 A 
ATOM     31  C   UNL d   1      -5.072  -0.236  -3.222  0.00  0.00     0.105 A 
ATOM     32  O   UNL d   1      -5.737  -0.729  -4.303  0.00  0.00    -0.323 OA
ATOM     33  C   UNL d   1      -4.515   0.995  -3.470  0.00  0.00     0.105 A 
ATOM     34  C   UNL d   1      -5.348   0.236  -5.303  0.00  0.00     0.352 C 
ATOM     35  O   UNL d   1      -4.760   1.426  -4.737  0.00  0.00    -0.323 OA
ATOM     36  C   UNL d   1      -3.779   1.659  -2.516  0.00  0.00     0.040 A 
ATOM     37  C   UNL d   1      -3.559   1.006  -1.296  0.00  0.00     0.012 A 
ENDBRANCH  28  29
ENDBRANCH   2  28
TORSDOF 7
