REMARK  6 active torsions:
REMARK  status: ('A' for Active; 'I' for Inactive)
REMARK    1  A    between atoms: C_2  and  S_1 
REMARK    2  A    between atoms: C_5  and  S_1 
REMARK       I    between atoms: C_4  and  N_3 
REMARK    3  A    between atoms: O_20  and  C_4 
REMARK    4  A    between atoms: N_11  and  C_6 
REMARK    5  A    between atoms: C_19  and  N_11 
REMARK    6  A    between atoms: C_24  and  O_20 
ROOT
ATOM      1  C   UNL d   1       1.179  -0.188  -2.095  0.00  0.00     0.159 C 
ATOM      2  C   UNL d   1       0.269  -1.069  -2.554  0.00  0.00     0.118 C 
ATOM      3  C   UNL d   1       1.486  -0.040  -0.727  0.00  0.00     0.113 C 
ATOM      4  N   UNL d   1       1.742   0.056   0.402  0.00  0.00    -0.191 NA
ENDROOT
BRANCH   1   5
ATOM      5  S   UNL d   1       2.034   0.830  -3.207  0.00  0.00     0.219 S 
ATOM      6  O   UNL d   1       1.904   2.214  -2.791  0.00  0.00    -0.216 OA
ATOM      7  O   UNL d   1       1.718   0.466  -4.579  0.00  0.00    -0.216 OA
BRANCH   5   8
ATOM      8  C   UNL d   1       3.726   0.382  -2.951  0.00  0.00     0.080 A 
ATOM      9  C   UNL d   1       4.318  -0.552  -3.782  0.00  0.00     0.111 A 
ATOM     10  N   UNL d   1       5.607  -0.945  -3.649  0.00  0.00    -0.374 N 
ATOM     11  C   UNL d   1       6.331  -0.358  -2.668  0.00  0.00     0.087 A 
ATOM     12  HN  UNL d   1       6.015  -1.652  -4.261  1.00  0.00     0.164 HD
ATOM     13  C   UNL d   1       5.824   0.607  -1.811  0.00  0.00     0.018 A 
ATOM     14  C   UNL d   1       4.495   0.992  -1.960  0.00  0.00     0.026 A 
ENDBRANCH   5   8
ENDBRANCH   1   5
BRANCH   2  15
ATOM     15  N   UNL d   1      -0.485  -1.978  -1.827  0.00  0.00    -0.392 N 
ATOM     16  H   UNL d   1      -0.547  -1.782  -0.824  0.00  0.00     0.159 HD
BRANCH  15  17
ATOM     17  C   UNL d   1      -1.573  -2.814  -2.353  0.00  0.00     0.084 C 
ATOM     18  C   UNL d   1      -2.230  -3.595  -1.201  0.00  0.00     0.045 C 
ATOM     19  C   UNL d   1      -1.357  -4.745  -0.712  0.00  0.00     0.130 C 
ATOM     20  N   UNL d   1      -0.977  -5.590  -1.830  0.00  0.00    -0.328 N 
ATOM     21  C   UNL d   1      -0.247  -4.918  -2.898  0.00  0.00     0.130 C 
ATOM     22  C   UNL d   1      -1.186  -6.953  -1.768  0.00  0.00     0.362 C 
ATOM     23  C   UNL d   1      -1.076  -3.767  -3.453  0.00  0.00     0.045 C 
ATOM     24  O   UNL d   1      -1.727  -7.519  -0.826  0.00  0.00    -0.238 OA
BRANCH  22  25
ATOM     25  O   UNL d   1      -0.686  -7.601  -2.854  0.00  0.00    -0.304 OA
BRANCH  25  26
ATOM     26  C   UNL d   1      -0.519  -9.016  -2.705  0.00  0.00     0.176 C 
ATOM     27  C   UNL d   1       0.853  -9.261  -2.104  0.00  0.00     0.034 C 
ENDBRANCH  25  26
ENDBRANCH  22  25
ENDBRANCH  15  17
ENDBRANCH   2  15
TORSDOF 6
