REMARK  6 active torsions:
REMARK  status: ('A' for Active; 'I' for Inactive)
REMARK    1  A    between atoms: C_8  and  N_1 
REMARK    2  A    between atoms: S_16  and  C_2 
REMARK    3  A    between atoms: C_13  and  C_3 
REMARK       I    between atoms: C_9  and  N_12 
REMARK    4  A    between atoms: O_14  and  C_9 
REMARK    5  A    between atoms: N_12  and  C_13 
REMARK    6  A    between atoms: C_17  and  O_14 
ROOT
ATOM      1  N   UNL d   1      -1.443  -0.492   2.252  0.00  0.00    -0.309 N 
ATOM      2  C   UNL d   1      -0.118  -0.432   2.655  0.00  0.00     0.160 A 
ATOM      3  C   UNL d   1      -1.422  -0.192   0.899  0.00  0.00     0.118 A 
ATOM      4  N   UNL d   1       0.637  -0.142   1.620  0.00  0.00    -0.278 N 
ATOM      5  HN  UNL d   1       1.651  -0.036   1.631  1.00  0.00     0.189 HD
ATOM      6  N   UNL d   1      -0.175  -0.007   0.520  0.00  0.00    -0.285 N 
ATOM      7  HN  UNL d   1       0.136   0.202  -0.428  1.00  0.00     0.188 HD
ENDROOT
BRANCH   3   8
ATOM      8  C   UNL d   1      -2.613  -0.141   0.007  0.00  0.00     0.203 C 
BRANCH   8   9
ATOM      9  N   UNL d   1      -3.172  -1.465  -0.135  0.00  0.00    -0.330 N 
ATOM     10  C   UNL d   1      -4.486  -1.824  -0.142  0.00  0.00     0.361 C 
ATOM     11  O   UNL d   1      -4.803  -2.994  -0.288  0.00  0.00    -0.238 OA
ATOM     12  H   UNL d   1      -2.546  -2.228  -0.366  0.00  0.00     0.165 HD
BRANCH  10  13
ATOM     13  O   UNL d   1      -5.348  -0.796   0.066  0.00  0.00    -0.294 OA
BRANCH  13  14
ATOM     14  C   UNL d   1      -6.773  -1.072   0.223  0.00  0.00     0.061 C 
ATOM     15  C   UNL d   1      -7.018  -2.019   1.409  0.00  0.00     0.046 C 
ATOM     16  C   UNL d   1      -7.430   0.287   0.525  0.00  0.00     0.046 C 
ATOM     17  C   UNL d   1      -7.388  -1.624  -1.071  0.00  0.00     0.046 C 
ENDBRANCH  13  14
ENDBRANCH  10  13
ENDBRANCH   8   9
ENDBRANCH   3   8
BRANCH   1  18
ATOM     18  C   UNL d   1      -2.647  -0.866   2.955  0.00  0.00     0.093 A 
ATOM     19  C   UNL d   1      -2.898  -1.067   4.430  0.00  0.00     0.028 A 
ATOM     20  C   UNL d   1      -2.763  -2.263   3.546  0.00  0.00     0.028 A 
ENDBRANCH   1  18
BRANCH   2  21
ATOM     21  S   UNL d   1       0.504  -0.565   4.257  0.00  0.00    -0.105 SA
ATOM     22  H   UNL d   1      -0.260  -1.554   4.722  0.00  0.00     0.110 HD
ENDBRANCH   2  21
TORSDOF 6
