REMARK  5 active torsions:
REMARK  status: ('A' for Active; 'I' for Inactive)
REMARK    1  A    between atoms: C_2  and  C_1 
REMARK    2  A    between atoms: C_11  and  C_5 
REMARK    3  A    between atoms: O_15  and  C_11 
REMARK    4  A    between atoms: C_17  and  O_15 
REMARK    5  A    between atoms: C_23  and  C_18 
ROOT
ATOM      1  N   UNL d   1       0.424  12.248  -5.206  0.00  0.00    -0.197 NA
ATOM      2  C   UNL d   1       0.112  12.003  -4.116  0.00  0.00     0.063 C 
ATOM      3  C   UNL d   1      -0.292  11.718  -2.726  0.00  0.00     0.162 C 
ENDROOT
BRANCH   3   4
ATOM      4  C   UNL d   1      -0.166  10.251  -2.384  0.00  0.00    -0.045 A 
ATOM      5  C   UNL d   1       1.041   9.743  -1.888  0.00  0.00     0.011 A 
ATOM      6  C   UNL d   1       1.198   8.371  -1.684  0.00  0.00     0.037 A 
ATOM      7  C   UNL d   1       0.161   7.479  -1.969  0.00  0.00     0.069 A 
ATOM      8  C   UNL d   1      -1.058   7.980  -2.421  0.00  0.00     0.037 A 
ATOM      9  C   UNL d   1      -1.221   9.358  -2.628  0.00  0.00     0.011 A 
BRANCH   7  10
ATOM     10  O   UNL d   1       0.484   6.167  -1.780  0.00  0.00    -0.345 OA
BRANCH  10  11
ATOM     11  C   UNL d   1      -0.497   5.179  -2.100  0.00  0.00     0.234 C 
BRANCH  11  12
ATOM     12  C   UNL d   1       0.098   3.799  -1.897  0.00  0.00     0.055 A 
ATOM     13  N   UNL d   1       0.151   2.996  -3.000  0.00  0.00    -0.365 N 
ATOM     14  C   UNL d   1       0.703   1.766  -2.869  0.00  0.00     0.104 A 
ATOM     15  HN  UNL d   1      -0.215   3.313  -3.898  1.00  0.00     0.165 HD
ATOM     16  C   UNL d   1       1.215   1.271  -1.680  0.00  0.00     0.064 A 
ATOM     17  C   UNL d   1       1.135   2.095  -0.554  0.00  0.00     0.043 A 
ATOM     18  C   UNL d   1       0.567   3.367  -0.654  0.00  0.00     0.059 A 
ATOM     19 CL   UNL d   1       0.463   4.322   0.777  0.00  0.00    -0.082 Cl
BRANCH  16  20
ATOM     20  C   UNL d   1       1.819  -0.098  -1.642  0.00  0.00     0.418 C 
ATOM     21  F   UNL d   1       2.293  -0.447  -0.414  0.00  0.00    -0.166 F 
ATOM     22  F   UNL d   1       2.868  -0.230  -2.498  0.00  0.00    -0.166 F 
ATOM     23  F   UNL d   1       0.930  -1.069  -1.987  0.00  0.00    -0.166 F 
ENDBRANCH  16  20
ENDBRANCH  11  12
ENDBRANCH  10  11
ENDBRANCH   7  10
ENDBRANCH   3   4
TORSDOF 5
