REMARK  3 active torsions:
REMARK  status: ('A' for Active; 'I' for Inactive)
REMARK    1  A    between atoms: C_4  and  C_1 
REMARK    2  A    between atoms: C_8  and  C_3 
REMARK       I    between atoms: N_7  and  C_4 
REMARK    3  A    between atoms: C_10  and  N_7 
ROOT
ATOM      1  C   UNL d   1      -2.741  -1.308  -0.020  0.00  0.00     0.258 C 
ATOM      2  N   UNL d   1      -3.912  -0.573   0.036  0.00  0.00    -0.323 N 
ATOM      3  O   UNL d   1      -2.699  -2.530  -0.136  0.00  0.00    -0.267 OA
ATOM      4  H   UNL d   1      -3.838   0.420  -0.113  0.00  0.00     0.169 HD
ENDROOT
BRANCH   1   5
ATOM      5  C   UNL d   1      -1.482  -0.566   0.039  0.00  0.00     0.064 A 
ATOM      6  C   UNL d   1      -0.207  -1.165  -0.229  0.00  0.00     0.053 A 
ATOM      7  C   UNL d   1       0.762  -0.215  -0.005  0.00  0.00     0.062 A 
ATOM      8  O   UNL d   1       0.159   0.951   0.358  0.00  0.00    -0.318 OA
ATOM      9  C   UNL d   1      -1.190   0.740   0.411  0.00  0.00     0.065 A 
ATOM     10  C   UNL d   1      -1.950   1.920   0.877  0.00  0.00     0.077 C 
BRANCH   7  11
ATOM     11  C   UNL d   1       2.266  -0.214  -0.065  0.00  0.00    -0.002 C 
ATOM     12  C   UNL d   1       2.811  -1.624  -0.364  0.00  0.00     0.021 C 
ATOM     13  C   UNL d   1       2.734   0.740  -1.177  0.00  0.00     0.021 C 
ATOM     14  C   UNL d   1       2.842   0.248   1.286  0.00  0.00     0.021 C 
ENDBRANCH   7  11
ENDBRANCH   1   5
BRANCH   2  15
ATOM     15  C   UNL d   1      -5.215  -1.095   0.225  0.00  0.00     0.035 A 
ATOM     16  C   UNL d   1      -5.472  -2.436   0.544  0.00  0.00     0.032 A 
ATOM     17  C   UNL d   1      -6.776  -2.883   0.778  0.00  0.00     0.044 A 
ATOM     18  C   UNL d   1      -7.831  -1.986   0.694  0.00  0.00     0.116 A 
ATOM     19  C   UNL d   1      -7.604  -0.655   0.372  0.00  0.00     0.044 A 
ATOM     20  F   UNL d   1      -9.078  -2.409   0.936  0.00  0.00    -0.206 F 
ATOM     21  C   UNL d   1      -6.296  -0.208   0.139  0.00  0.00     0.032 A 
ENDBRANCH   2  15
TORSDOF 3
