REMARK  6 active torsions:
REMARK  status: ('A' for Active; 'I' for Inactive)
REMARK       I    between atoms: N_2  and  C_1 
REMARK    1  A    between atoms: C_3  and  C_1 
REMARK    2  A    between atoms: C_8  and  N_2 
REMARK    3  A    between atoms: O_13  and  C_4 
REMARK    4  A    between atoms: N_5  and  C_9 
REMARK    5  A    between atoms: O_14  and  C_6 
REMARK    6  A    between atoms: O_15  and  C_7 
ROOT
ATOM      1  C   UNL d   1       0.892   0.101  -0.682  0.00  0.00     0.256 C 
ATOM      2  N   UNL d   1       0.425  -1.193  -0.501  0.00  0.00    -0.321 N 
ATOM      3  O   UNL d   1       2.025   0.386  -1.063  0.00  0.00    -0.267 OA
ATOM      4  H   UNL d   1      -0.444  -1.377  -0.025  0.00  0.00     0.169 HD
ENDROOT
BRANCH   1   5
ATOM      5  C   UNL d   1      -0.028   1.234  -0.341  0.00  0.00     0.037 A 
ATOM      6  C   UNL d   1      -1.251   1.095   0.314  0.00  0.00     0.057 A 
ATOM      7  C   UNL d   1      -2.054   2.217   0.591  0.00  0.00     0.105 A 
ATOM      8  C   UNL d   1      -1.649   3.506   0.175  0.00  0.00     0.135 A 
ATOM      9  C   UNL d   1      -0.392   3.647  -0.445  0.00  0.00     0.105 A 
ATOM     10  C   UNL d   1       0.394   2.518  -0.704  0.00  0.00     0.057 A 
BRANCH   7  11
ATOM     11  O   UNL d   1      -3.272   2.076   1.210  0.00  0.00    -0.353 OA
ATOM     12  C   UNL d   1      -3.394   1.037   2.173  0.00  0.00     0.210 C 
ENDBRANCH   7  11
BRANCH   8  13
ATOM     13  O   UNL d   1      -2.364   4.667   0.314  0.00  0.00    -0.351 OA
ATOM     14  C   UNL d   1      -3.720   4.631   0.723  0.00  0.00     0.210 C 
ENDBRANCH   8  13
BRANCH   9  15
ATOM     15  O   UNL d   1       0.180   4.802  -0.919  0.00  0.00    -0.353 OA
ATOM     16  C   UNL d   1      -0.101   6.007  -0.220  0.00  0.00     0.210 C 
ENDBRANCH   9  15
ENDBRANCH   1   5
BRANCH   2  17
ATOM     17  C   UNL d   1       1.189  -2.365  -0.732  0.00  0.00     0.061 A 
ATOM     18  C   UNL d   1       0.887  -3.550  -0.001  0.00  0.00     0.057 A 
ATOM     19  C   UNL d   1       1.651  -4.694  -0.312  0.00  0.00     0.031 A 
ATOM     20  C   UNL d   1       2.624  -4.694  -1.320  0.00  0.00     0.002 A 
ATOM     21  C   UNL d   1       2.874  -3.539  -2.041  0.00  0.00     0.002 A 
ATOM     22  C   UNL d   1       2.170  -2.378  -1.738  0.00  0.00     0.032 A 
BRANCH  18  23
ATOM     23  N   UNL d   1      -0.157  -3.600   0.945  0.00  0.00    -0.379 N 
ATOM     24  C   UNL d   1      -0.687  -4.923   1.329  0.00  0.00     0.123 C 
ATOM     25  C   UNL d   1      -2.131  -4.763   1.806  0.00  0.00     0.020 C 
ATOM     26  C   UNL d   1      -2.267  -3.701   2.896  0.00  0.00     0.003 C 
ATOM     27  C   UNL d   1      -1.546  -2.407   2.516  0.00  0.00     0.020 C 
ATOM     28  C   UNL d   1      -0.098  -2.685   2.099  0.00  0.00     0.123 C 
ENDBRANCH  18  23
ENDBRANCH   2  17
TORSDOF 6
