REMARK  5 active torsions:
REMARK  status: ('A' for Active; 'I' for Inactive)
REMARK    1  A    between atoms: C_8  and  C_1 
REMARK    2  A    between atoms: S_11  and  C_5 
REMARK    3  A    between atoms: O_15  and  C_6 
REMARK    4  A    between atoms: O_16  and  C_8 
REMARK    5  A    between atoms: C_20  and  O_16 
ROOT
ATOM      1  C   UNL d   1       2.447  -0.705   0.121  0.00  0.00     0.106 A 
ATOM      2  C   UNL d   1      -0.017  -0.816  -0.067  0.00  0.00     0.047 A 
ATOM      3  N   UNL d   1       1.150   1.293  -0.060  0.00  0.00    -0.349 N 
ATOM      4  HN  UNL d   1       1.119   2.310  -0.129  1.00  0.00     0.166 HD
ATOM      5  C   UNL d   1       2.348   0.673   0.056  0.00  0.00     0.089 A 
ATOM      6  C   UNL d   1       1.261  -1.447   0.016  0.00  0.00     0.099 A 
ATOM      7  C   UNL d   1       0.003   0.597  -0.086  0.00  0.00     0.053 A 
ATOM      8  C   UNL d   1      -1.296  -1.453  -0.110  0.00  0.00     0.049 A 
ATOM      9  C   UNL d   1      -1.197   1.318  -0.118  0.00  0.00    -0.034 A 
ATOM     10  C   UNL d   1      -2.483  -0.721  -0.143  0.00  0.00     0.025 A 
ATOM     11  C   UNL d   1      -2.434   0.661  -0.141  0.00  0.00     0.011 A 
ATOM     12 CL   UNL d   1      -1.485  -3.177  -0.097  0.00  0.00    -0.083 Cl
ATOM     13  C   UNL d   1      -1.216   2.828  -0.098  0.00  0.00     0.050 C 
ENDROOT
BRANCH   1  14
ATOM     14  C   UNL d   1       3.710  -1.391   0.441  0.00  0.00     0.298 C 
ATOM     15  O   UNL d   1       3.825  -2.172   1.375  0.00  0.00    -0.259 OA
BRANCH  14  16
ATOM     16  O   UNL d   1       4.696  -1.014  -0.410  0.00  0.00    -0.318 OA
BRANCH  16  17
ATOM     17  C   UNL d   1       6.003  -1.509  -0.079  0.00  0.00     0.174 C 
ATOM     18  C   UNL d   1       6.589  -0.778   1.121  0.00  0.00     0.034 C 
ENDBRANCH  16  17
ENDBRANCH  14  16
ENDBRANCH   1  14
BRANCH   5  19
ATOM     19  S   UNL d   1       3.715   1.811   0.209  0.00  0.00    -0.116 SA
ATOM     20  C   UNL d   1       3.364   2.865  -1.223  0.00  0.00     0.097 C 
ENDBRANCH   5  19
BRANCH   6  21
ATOM     21  O   UNL d   1       1.395  -2.815  -0.016  0.00  0.00    -0.359 OA
ATOM     22  H   UNL d   1       0.523  -3.244   0.031  0.00  0.00     0.217 HD
ENDBRANCH   6  21
TORSDOF 5
