REMARK  7 active torsions:
REMARK  status: ('A' for Active; 'I' for Inactive)
REMARK    1  A    between atoms: C_2  and  C_1 
REMARK    2  A    between atoms: S_9  and  C_3 
REMARK    3  A    between atoms: C_13  and  C_6 
REMARK    4  A    between atoms: C_7  and  N_15 
REMARK    5  A    between atoms: C_19  and  S_9 
REMARK    6  A    between atoms: N_10  and  C_13 
REMARK    7  A    between atoms: N_15  and  N_10 
ROOT
ATOM      1  C   UNL d   1       0.504   0.309  -1.438  0.00  0.00     0.064 A 
ATOM      2  C   UNL d   1      -0.397  -0.517  -3.553  0.00  0.00     0.034 A 
ATOM      3  N   UNL d   1      -0.012   1.855  -3.201  0.00  0.00    -0.363 N 
ATOM      4  HN  UNL d   1      -0.035   2.812  -3.554  1.00  0.00     0.165 HD
ATOM      5  C   UNL d   1      -0.432   0.814  -3.974  0.00  0.00     0.066 A 
ATOM      6  C   UNL d   1       0.084  -0.752  -2.254  0.00  0.00     0.038 A 
ATOM      7  C   UNL d   1       0.435   1.587  -1.961  0.00  0.00     0.104 A 
ENDROOT
BRANCH   5   8
ATOM      8  C   UNL d   1      -0.914   1.225  -5.321  0.00  0.00     0.138 C 
BRANCH   8   9
ATOM      9  N   UNL d   1      -0.889   2.475  -5.662  0.00  0.00    -0.307 N 
ATOM     10  HN  UNL d   1      -0.549   3.192  -5.021  1.00  0.00     0.186 HD
BRANCH   9  11
ATOM     11  N   UNL d   1      -1.335   2.793  -6.908  0.00  0.00    -0.277 N 
ATOM     12  H   UNL d   1      -1.668   2.082  -7.550  0.00  0.00     0.189 HD
BRANCH  11  13
ATOM     13  C   UNL d   1      -1.343   4.108  -7.301  0.00  0.00     0.184 C 
ATOM     14  S   UNL d   1      -1.867   4.599  -8.794  0.00  0.00    -0.040 SA
ATOM     15  N   UNL d   1      -0.884   4.981  -6.367  0.00  0.00    -0.375 N 
ATOM     16  H   UNL d   1      -0.616   4.579  -5.476  0.00  0.00     0.158 HD
ATOM     17  H   UNL d   1      -0.862   5.977  -6.519  0.00  0.00     0.158 HD
ENDBRANCH  11  13
ENDBRANCH   9  11
ENDBRANCH   8   9
ENDBRANCH   5   8
BRANCH   2  18
ATOM     18  S   UNL d   1      -0.998  -1.899  -4.498  0.00  0.00    -0.088 SA
BRANCH  18  19
ATOM     19  C   UNL d   1       0.443  -2.537  -5.339  0.00  0.00     0.005 A 
ATOM     20  C   UNL d   1       0.446  -3.898  -5.677  0.00  0.00     0.020 A 
ATOM     21  C   UNL d   1       1.510  -4.458  -6.393  0.00  0.00     0.025 A 
ATOM     22  C   UNL d   1       2.580  -3.656  -6.777  0.00  0.00     0.034 A 
ATOM     23  C   UNL d   1       2.594  -2.303  -6.449  0.00  0.00     0.025 A 
ATOM     24 CL   UNL d   1       3.883  -4.335  -7.671  0.00  0.00    -0.084 Cl
ATOM     25  C   UNL d   1       1.527  -1.745  -5.734  0.00  0.00     0.020 A 
ENDBRANCH  18  19
ENDBRANCH   2  18
BRANCH   1  26
ATOM     26  C   UNL d   1       0.999   0.127  -0.036  0.00  0.00     0.418 C 
ATOM     27  F   UNL d   1       1.042  -1.174   0.358  0.00  0.00    -0.166 F 
ATOM     28  F   UNL d   1       0.220   0.770   0.875  0.00  0.00    -0.166 F 
ATOM     29  F   UNL d   1       2.258   0.614   0.136  0.00  0.00    -0.166 F 
ENDBRANCH   1  26
TORSDOF 7
