REMARK  7 active torsions:
REMARK  status: ('A' for Active; 'I' for Inactive)
REMARK    1  A    between atoms: N_3  and  C_1 
REMARK    2  A    between atoms: C_2  and  S_6 
REMARK    3  A    between atoms: S_6  and  C_5 
REMARK    4  A    between atoms: S_19  and  C_7 
REMARK    5  A    between atoms: C_12  and  C_16 
REMARK    6  A    between atoms: C_27  and  S_19 
REMARK    7  A    between atoms: C_26  and  C_27 
ROOT
ATOM      1  C   UNL d   1       5.964   1.610   0.176  0.00  0.00     0.135 A 
ATOM      2  S   UNL d   1       7.249   2.748   0.197  0.00  0.00    -0.037 SA
ATOM      3  C   UNL d   1       6.099   3.921   0.701  0.00  0.00     0.129 A 
ATOM      4  N   UNL d   1       4.788   2.118   0.479  0.00  0.00    -0.286 N 
ATOM      5  HN  UNL d   1       3.920   1.582   0.487  1.00  0.00     0.188 HD
ATOM      6  N   UNL d   1       4.869   3.466   0.785  0.00  0.00    -0.287 N 
ATOM      7  HN  UNL d   1       4.067   4.040   1.046  1.00  0.00     0.188 HD
ENDROOT
BRANCH   1   8
ATOM      8  S   UNL d   1       6.208  -0.105  -0.040  0.00  0.00    -0.043 SA
BRANCH   8   9
ATOM      9  C   UNL d   1       5.186  -0.377  -1.474  0.00  0.00     0.110 A 
ATOM     10  C   UNL d   1       4.117  -1.267  -1.535  0.00  0.00     0.138 A 
ATOM     11  C   UNL d   1       3.466  -1.531  -2.749  0.00  0.00     0.059 A 
ATOM     12  C   UNL d   1       3.899  -0.865  -3.884  0.00  0.00     0.028 A 
ATOM     13  C   UNL d   1       4.950   0.029  -3.762  0.00  0.00     0.108 A 
ATOM     14 BR   UNL d   1       3.078  -1.176  -5.551  0.00  0.00    -0.050 Br
ATOM     15  N   UNL d   1       5.603   0.274  -2.595  0.00  0.00    -0.357 N 
ATOM     16  HN  UNL d   1       6.385   0.929  -2.560  1.00  0.00     0.166 HD
BRANCH  10  17
ATOM     17  N   UNL d   1       3.630  -1.943  -0.360  0.00  0.00    -0.113 N 
ATOM     18  O   UNL d   1       4.407  -2.708   0.223  0.00  0.00    -0.532 OA
ATOM     19  O   UNL d   1       2.442  -1.762  -0.069  0.00  0.00    -0.532 OA
ENDBRANCH  10  17
ENDBRANCH   8   9
ENDBRANCH   1   8
BRANCH   3  20
ATOM     20  S   UNL d   1       6.527   5.578   1.078  0.00  0.00    -0.099 SA
BRANCH  20  21
ATOM     21  C   UNL d   1       5.304   5.946   2.372  0.00  0.00     0.120 C 
BRANCH  21  22
ATOM     22  C   UNL d   1       5.391   7.378   2.859  0.00  0.00    -0.048 A 
ATOM     23  C   UNL d   1       4.613   8.385   2.261  0.00  0.00     0.024 A 
ATOM     24  C   UNL d   1       4.676   9.716   2.710  0.00  0.00     0.048 A 
ATOM     25  C   UNL d   1       5.530  10.034   3.776  0.00  0.00     0.016 A 
ATOM     26  C   UNL d   1       6.312   9.046   4.373  0.00  0.00     0.001 A 
ATOM     27  C   UNL d   1       6.247   7.727   3.915  0.00  0.00     0.008 A 
BRANCH  24  28
ATOM     28  C   UNL d   1       3.850  10.803   2.065  0.00  0.00     0.417 C 
ATOM     29  F   UNL d   1       3.070  10.362   1.039  0.00  0.00    -0.166 F 
ATOM     30  F   UNL d   1       3.002  11.407   2.943  0.00  0.00    -0.166 F 
ATOM     31  F   UNL d   1       4.618  11.801   1.545  0.00  0.00    -0.166 F 
ENDBRANCH  24  28
ENDBRANCH  21  22
ENDBRANCH  20  21
ENDBRANCH   3  20
TORSDOF 7
