REMARK  5 active torsions:
REMARK  status: ('A' for Active; 'I' for Inactive)
REMARK    1  A    between atoms: C_10  and  N_1 
REMARK    2  A    between atoms: S_8  and  C_2 
REMARK    3  A    between atoms: C_7  and  C_9 
REMARK    4  A    between atoms: C_9  and  S_8 
REMARK    5  A    between atoms: O_20  and  C_17 
ROOT
ATOM      1  N   UNL d   1      -0.173  -1.371  -0.096  0.00  0.00    -0.219 N 
ATOM      2  C   UNL d   1       1.026  -0.684   0.037  0.00  0.00     0.177 C 
ATOM      3  N   UNL d   1       0.793   0.607  -0.062  0.00  0.00    -0.264 N 
ATOM      4  HN  UNL d   1       1.471   1.361   0.043  1.00  0.00     0.186 HD
ATOM      5  N   UNL d   1      -0.539   0.735  -0.333  0.00  0.00    -0.006 NA
ATOM      6  N   UNL d   1      -1.122  -0.450  -0.419  0.00  0.00     0.001 NA
ENDROOT
BRANCH   2   7
ATOM      7  S   UNL d   1       2.613  -1.385   0.093  0.00  0.00    -0.086 SA
BRANCH   7   8
ATOM      8  C   UNL d   1       3.621   0.121   0.269  0.00  0.00     0.126 C 
BRANCH   8   9
ATOM      9  C   UNL d   1       5.097  -0.176   0.309  0.00  0.00     0.012 A 
ATOM     10  C   UNL d   1       5.676  -0.563   1.526  0.00  0.00     0.125 A 
ATOM     11  F   UNL d   1       4.907  -0.682   2.618  0.00  0.00    -0.205 F 
ATOM     12  C   UNL d   1       7.039  -0.823   1.646  0.00  0.00     0.043 A 
ATOM     13  C   UNL d   1       7.864  -0.699   0.532  0.00  0.00     0.005 A 
ATOM     14  C   UNL d   1       7.313  -0.330  -0.694  0.00  0.00     0.024 A 
ATOM     15  C   UNL d   1       5.938  -0.078  -0.808  0.00  0.00     0.044 A 
ATOM     16 CL   UNL d   1       5.343   0.358  -2.370  0.00  0.00    -0.084 Cl
ENDBRANCH   8   9
ENDBRANCH   7   8
ENDBRANCH   2   7
BRANCH   1  17
ATOM     17  C   UNL d   1      -0.541  -2.730   0.090  0.00  0.00     0.057 A 
ATOM     18  C   UNL d   1       0.210  -3.598   0.891  0.00  0.00     0.034 A 
ATOM     19  C   UNL d   1      -0.229  -4.909   1.101  0.00  0.00     0.039 A 
ATOM     20  C   UNL d   1      -1.405  -5.355   0.508  0.00  0.00     0.065 A 
ATOM     21  C   UNL d   1      -2.159  -4.510  -0.296  0.00  0.00     0.039 A 
ATOM     22  C   UNL d   1      -1.735  -3.194  -0.495  0.00  0.00     0.034 A 
BRANCH  20  23
ATOM     23  O   UNL d   1      -1.795  -6.637   0.756  0.00  0.00    -0.361 OA
ATOM     24  H   UNL d   1      -2.653  -6.790   0.328  0.00  0.00     0.217 HD
ENDBRANCH  20  23
ENDBRANCH   1  17
TORSDOF 5
