REMARK  6 active torsions:
REMARK  status: ('A' for Active; 'I' for Inactive)
REMARK    1  A    between atoms: C_2  and  S_1 
REMARK    2  A    between atoms: C_3  and  S_1 
REMARK    3  A    between atoms: N_12  and  C_4 
REMARK    4  A    between atoms: C_13  and  N_7 
REMARK    5  A    between atoms: C_18  and  N_12 
REMARK    6  A    between atoms: C_19  and  C_13 
ROOT
ATOM      1  C   UNL d   1       0.047   1.350  -0.156  0.00  0.00     0.160 C 
ATOM      2  C   UNL d   1      -0.697   1.380  -1.279  0.00  0.00     0.118 C 
ATOM      3  C   UNL d   1       0.921   0.276   0.130  0.00  0.00     0.113 C 
ATOM      4  N   UNL d   1       1.609  -0.647   0.290  0.00  0.00    -0.191 NA
ENDROOT
BRANCH   1   5
ATOM      5  S   UNL d   1      -0.214   2.580   1.037  0.00  0.00     0.233 S 
ATOM      6  O   UNL d   1      -1.071   2.032   2.078  0.00  0.00    -0.215 OA
ATOM      7  O   UNL d   1      -0.605   3.820   0.379  0.00  0.00    -0.215 OA
BRANCH   5   8
ATOM      8  C   UNL d   1       1.346   2.951   1.833  0.00  0.00     0.134 A 
ATOM      9  N   UNL d   1       2.434   2.293   1.362  0.00  0.00    -0.356 N 
ATOM     10  C   UNL d   1       3.596   2.536   2.009  0.00  0.00     0.089 A 
ATOM     11  HN  UNL d   1       2.379   1.655   0.569  1.00  0.00     0.166 HD
ATOM     12  C   UNL d   1       3.721   3.425   3.068  0.00  0.00     0.017 A 
ATOM     13  C   UNL d   1       2.586   4.104   3.503  0.00  0.00     0.004 A 
ATOM     14  C   UNL d   1       1.367   3.859   2.880  0.00  0.00     0.042 A 
ENDBRANCH   5   8
ENDBRANCH   1   5
BRANCH   2  15
ATOM     15  N   UNL d   1      -0.694   0.482  -2.331  0.00  0.00    -0.392 N 
ATOM     16  H   UNL d   1      -0.141  -0.364  -2.195  0.00  0.00     0.159 HD
BRANCH  15  17
ATOM     17  C   UNL d   1      -1.570   0.476  -3.509  0.00  0.00     0.084 C 
ATOM     18  C   UNL d   1      -1.199  -0.695  -4.425  0.00  0.00     0.055 C 
ATOM     19  C   UNL d   1       0.167  -0.485  -5.084  0.00  0.00     0.275 C 
ATOM     20  N   UNL d   1       0.260   0.790  -5.814  0.00  0.00     0.092 N 
ATOM     21  C   UNL d   1      -0.086   1.929  -4.943  0.00  0.00     0.275 C 
ATOM     22  C   UNL d   1      -1.467   1.770  -4.312  0.00  0.00     0.055 C 
BRANCH  20  23
ATOM     23  C   UNL d   1       1.635   0.931  -6.348  0.00  0.00     0.311 C 
BRANCH  23  24
ATOM     24  C   UNL d   1       1.864   2.190  -7.157  0.00  0.00    -0.030 A 
ATOM     25  C   UNL d   1       2.786   3.155  -6.723  0.00  0.00     0.009 A 
ATOM     26  C   UNL d   1       2.978   4.330  -7.449  0.00  0.00     0.001 A 
ATOM     27  C   UNL d   1       2.253   4.551  -8.619  0.00  0.00     0.000 A 
ATOM     28  C   UNL d   1       1.342   3.596  -9.066  0.00  0.00     0.001 A 
ATOM     29  C   UNL d   1       1.148   2.420  -8.341  0.00  0.00     0.009 A 
ENDBRANCH  23  24
ENDBRANCH  20  23
ENDBRANCH  15  17
ENDBRANCH   2  15
TORSDOF 6
