REMARK  6 active torsions:
REMARK  status: ('A' for Active; 'I' for Inactive)
REMARK    1  A    between atoms: S_13  and  C_4 
REMARK    2  A    between atoms: C_11  and  C_5 
REMARK    3  A    between atoms: S_12  and  C_6 
REMARK    4  A    between atoms: C_16  and  S_12 
REMARK    5  A    between atoms: C_20  and  C_16 
REMARK    6  A    between atoms: O_21  and  C_17 
ROOT
ATOM      1  N   UNL d   1       1.542   1.205   0.077  0.00  0.00    -0.330 N 
ATOM      2  HN  UNL d   1       2.071   2.077   0.076  1.00  0.00     0.168 HD
ATOM      3  C   UNL d   1      -0.578   0.030   0.136  0.00  0.00     0.105 A 
ATOM      4  C   UNL d   1       0.186   1.194   0.120  0.00  0.00     0.094 A 
ATOM      5  C   UNL d   1       0.136  -1.157   0.049  0.00  0.00     0.068 A 
ATOM      6  C   UNL d   1       2.148   0.017   0.036  0.00  0.00     0.145 A 
ATOM      7  N   UNL d   1       1.495  -1.152   0.014  0.00  0.00    -0.335 N 
ATOM      8  HN  UNL d   1       2.012  -2.030  -0.029  1.00  0.00     0.168 HD
ATOM      9  C   UNL d   1      -2.005   0.067   0.267  0.00  0.00     0.104 C 
ATOM     10  N   UNL d   1      -3.159   0.079   0.359  0.00  0.00    -0.191 NA
ENDROOT
BRANCH   4  11
ATOM     11  S   UNL d   1      -0.619   2.808   0.121  0.00  0.00    -0.115 SA
ATOM     12  C   UNL d   1       0.799   3.927   0.008  0.00  0.00     0.097 C 
ENDBRANCH   4  11
BRANCH   5  13
ATOM     13  C   UNL d   1      -0.438  -2.530  -0.048  0.00  0.00    -0.008 A 
ATOM     14  C   UNL d   1       0.266  -3.632   0.481  0.00  0.00     0.016 A 
ATOM     15  C   UNL d   1      -0.202  -4.950   0.356  0.00  0.00     0.037 A 
ATOM     16  C   UNL d   1      -1.403  -5.205  -0.295  0.00  0.00     0.068 A 
ATOM     17  C   UNL d   1      -2.124  -4.135  -0.816  0.00  0.00     0.037 A 
ATOM     18  C   UNL d   1      -1.641  -2.823  -0.714  0.00  0.00     0.016 A 
BRANCH  16  19
ATOM     19  O   UNL d   1      -1.967  -6.432  -0.504  0.00  0.00    -0.356 OA
ATOM     20  C   UNL d   1      -1.229  -7.561  -0.056  0.00  0.00     0.210 C 
ENDBRANCH  16  19
ENDBRANCH   5  13
BRANCH   6  21
ATOM     21  S   UNL d   1       3.913  -0.094  -0.128  0.00  0.00    -0.089 SA
BRANCH  21  22
ATOM     22  C   UNL d   1       4.465   1.412   0.729  0.00  0.00     0.121 C 
BRANCH  22  23
ATOM     23  C   UNL d   1       5.978   1.520   0.737  0.00  0.00    -0.049 A 
ATOM     24  C   UNL d   1       6.652   2.129  -0.335  0.00  0.00     0.008 A 
ATOM     25  C   UNL d   1       8.046   2.241  -0.333  0.00  0.00     0.001 A 
ATOM     26  C   UNL d   1       8.787   1.741   0.735  0.00  0.00     0.000 A 
ATOM     27  C   UNL d   1       8.134   1.118   1.797  0.00  0.00     0.001 A 
ATOM     28  C   UNL d   1       6.740   1.004   1.797  0.00  0.00     0.008 A 
ENDBRANCH  22  23
ENDBRANCH  21  22
ENDBRANCH   6  21
TORSDOF 6
