REMARK  2 active torsions:
REMARK  status: ('A' for Active; 'I' for Inactive)
REMARK    1  A    between atoms: C_3  and  C_1 
REMARK    2  A    between atoms: C_7  and  C_2 
REMARK       I    between atoms: N_4  and  C_3 
ROOT
ATOM      1  C   UNL d   1      -0.218  -1.265  -0.230  0.00  0.00     0.092 C 
ATOM      2  C   UNL d   1       0.406  -0.049   0.231  0.00  0.00     0.085 C 
ATOM      3  N   UNL d   1      -0.441   0.980   0.035  0.00  0.00    -0.259 N 
ATOM      4  HN  UNL d   1      -0.352   1.922   0.417  1.00  0.00     0.195 HD
ATOM      5  O   UNL d   1      -1.439   0.523  -0.773  0.00  0.00    -0.241 OA
ATOM      6  C   UNL d   1      -1.280  -0.801  -0.989  0.00  0.00     0.090 C 
ATOM      7  C   UNL d   1      -2.226  -1.388  -1.958  0.00  0.00     0.080 C 
ENDROOT
BRANCH   1   8
ATOM      8  C   UNL d   1       0.209  -2.651  -0.115  0.00  0.00     0.258 C 
ATOM      9  N   UNL d   1      -0.743  -3.610   0.248  0.00  0.00    -0.343 N 
ATOM     10  C   UNL d   1      -0.384  -5.036   0.306  0.00  0.00     0.157 C 
ATOM     11  C   UNL d   1      -2.088  -3.350   0.780  0.00  0.00     0.157 C 
ATOM     12  C   UNL d   1      -1.494  -5.918  -0.322  0.00  0.00     0.136 C 
ATOM     13  C   UNL d   1      -1.268  -7.397  -0.047  0.00  0.00     0.041 C 
ATOM     14  O   UNL d   1      -2.801  -5.589   0.197  0.00  0.00    -0.378 OA
ATOM     15  C   UNL d   1      -3.095  -4.198  -0.012  0.00  0.00     0.136 C 
ATOM     16  C   UNL d   1      -4.529  -3.915   0.403  0.00  0.00     0.041 C 
ATOM     17  O   UNL d   1       1.378  -2.962  -0.327  0.00  0.00    -0.267 OA
ENDBRANCH   1   8
BRANCH   2  18
ATOM     18  C   UNL d   1       1.716   0.203   0.855  0.00  0.00     0.015 A 
ATOM     19  C   UNL d   1       2.470   1.369   0.595  0.00  0.00     0.046 A 
ATOM     20 CL   UNL d   1       1.988   2.616  -0.516  0.00  0.00    -0.083 Cl
ATOM     21  C   UNL d   1       3.718   1.575   1.201  0.00  0.00     0.025 A 
ATOM     22  C   UNL d   1       4.249   0.618   2.060  0.00  0.00     0.002 A 
ATOM     23  C   UNL d   1       3.527  -0.539   2.323  0.00  0.00     0.001 A 
ATOM     24  C   UNL d   1       2.270  -0.743   1.739  0.00  0.00     0.015 A 
ENDBRANCH   2  18
TORSDOF 2
