REMARK  5 active torsions:
REMARK  status: ('A' for Active; 'I' for Inactive)
REMARK    1  A    between atoms: C_2  and  S_1 
REMARK    2  A    between atoms: N_8  and  S_1 
REMARK    3  A    between atoms: C_6  and  C_3 
REMARK    4  A    between atoms: C_10  and  N_8 
REMARK    5  A    between atoms: N_11  and  C_12 
ROOT
ATOM      1  S   UNL d   1      -0.462  -0.449  -0.079  0.00  0.00     0.249 S 
ATOM      2  O   UNL d   1      -0.314   0.988  -0.127  0.00  0.00    -0.205 OA
ATOM      3  O   UNL d   1       0.095  -1.315  -1.097  0.00  0.00    -0.205 OA
ENDROOT
BRANCH   1   4
ATOM      4  C   UNL d   1      -2.162  -0.649  -0.253  0.00  0.00     0.124 A 
ATOM      5  C   UNL d   1      -3.175  -0.227   0.646  0.00  0.00     0.156 A 
ATOM      6  N   UNL d   1      -4.398  -0.521   0.140  0.00  0.00    -0.294 N 
ATOM      7  N   UNL d   1      -4.147  -1.047  -1.071  0.00  0.00    -0.306 N 
ATOM      8  HN  UNL d   1      -5.306  -0.374   0.580  1.00  0.00     0.187 HD
ATOM      9  C   UNL d   1      -2.824  -1.179  -1.341  0.00  0.00     0.136 A 
ATOM     10  C   UNL d   1      -5.250  -1.362  -1.950  0.00  0.00     0.177 C 
BRANCH   5  11
ATOM     11  C   UNL d   1      -3.037   0.461   1.978  0.00  0.00     0.435 C 
ATOM     12  F   UNL d   1      -1.764   0.811   2.294  0.00  0.00    -0.165 F 
ATOM     13  F   UNL d   1      -3.764   1.610   2.038  0.00  0.00    -0.165 F 
ATOM     14  F   UNL d   1      -3.476  -0.328   2.998  0.00  0.00    -0.165 F 
ENDBRANCH   5  11
ENDBRANCH   1   4
BRANCH   1  15
ATOM     15  N   UNL d   1      -0.031  -0.929   1.468  0.00  0.00    -0.179 NA
ATOM     16  H   UNL d   1       0.470  -0.165   1.911  0.00  0.00     0.146 HD
BRANCH  15  17
ATOM     17  C   UNL d   1       0.584  -2.205   1.653  0.00  0.00     0.049 A 
ATOM     18  C   UNL d   1       1.949  -2.455   1.356  0.00  0.00     0.052 A 
ATOM     19  C   UNL d   1       2.417  -3.753   1.641  0.00  0.00     0.031 A 
ATOM     20  C   UNL d   1       1.582  -4.754   2.152  0.00  0.00     0.002 A 
ATOM     21  C   UNL d   1       0.240  -4.486   2.393  0.00  0.00     0.002 A 
ATOM     22  C   UNL d   1      -0.257  -3.211   2.148  0.00  0.00     0.027 A 
BRANCH  18  23
ATOM     23  N   UNL d   1       2.769  -1.506   0.729  0.00  0.00    -0.375 N 
ATOM     24  C   UNL d   1       3.899  -2.015  -0.088  0.00  0.00     0.149 C 
ATOM     25  C   UNL d   1       4.380  -0.911  -1.041  0.00  0.00     0.187 C 
ATOM     26  O   UNL d   1       4.773   0.266  -0.314  0.00  0.00    -0.388 OA
ATOM     27  C   UNL d   1       3.667   0.760   0.464  0.00  0.00     0.187 C 
ATOM     28  C   UNL d   1       3.172  -0.296   1.475  0.00  0.00     0.149 C 
ENDBRANCH  18  23
ENDBRANCH  15  17
ENDBRANCH   1  15
TORSDOF 5
