REMARK  4 active torsions:
REMARK  status: ('A' for Active; 'I' for Inactive)
REMARK    1  A    between atoms: C_7  and  C_1 
REMARK       I    between atoms: C_6  and  N_11 
REMARK    2  A    between atoms: O_15  and  C_6 
REMARK    3  A    between atoms: N_11  and  N_8 
REMARK    4  A    between atoms: C_19  and  O_15 
ROOT
ATOM      1  C   UNL d   1       2.553   0.014  -0.050  0.00  0.00     0.029 A 
ATOM      2  S   UNL d   1       1.731   1.510  -0.026  0.00  0.00    -0.088 SA
ATOM      3  C   UNL d   1       1.678  -1.064  -0.021  0.00  0.00    -0.032 A 
ATOM      4  C   UNL d   1       0.294  -0.624  -0.008  0.00  0.00    -0.010 A 
ATOM      5  C   UNL d   1       0.186   0.766  -0.009  0.00  0.00     0.016 A 
ATOM      6  C   UNL d   1      -0.906  -1.383   0.004  0.00  0.00     0.037 A 
ATOM      7  C   UNL d   1      -1.067   1.413   0.004  0.00  0.00     0.021 A 
ATOM      8  C   UNL d   1      -2.147  -0.744   0.011  0.00  0.00     0.035 A 
ATOM      9  C   UNL d   1      -2.229   0.640   0.011  0.00  0.00     0.025 A 
ATOM     10  C   UNL d   1       2.036  -2.523  -0.006  0.00  0.00     0.050 C 
ATOM     11 CL   UNL d   1      -3.586  -1.688   0.016  0.00  0.00    -0.084 Cl
ENDROOT
BRANCH   1  12
ATOM     12  C   UNL d   1       3.999   0.056  -0.089  0.00  0.00     0.126 C 
ATOM     13  N   UNL d   1       4.684  -1.039  -0.134  0.00  0.00    -0.306 N 
ATOM     14  HN  UNL d   1       4.220  -1.947  -0.165  1.00  0.00     0.186 HD
BRANCH  13  15
ATOM     15  N   UNL d   1       6.036  -0.947  -0.140  0.00  0.00    -0.246 N 
ATOM     16  C   UNL d   1       6.785  -2.083   0.058  0.00  0.00     0.379 C 
ATOM     17  O   UNL d   1       6.354  -3.225   0.154  0.00  0.00    -0.237 OA
ATOM     18  H   UNL d   1       6.510  -0.053  -0.100  0.00  0.00     0.192 HD
BRANCH  16  19
ATOM     19  O   UNL d   1       8.092  -1.735   0.206  0.00  0.00    -0.303 OA
BRANCH  19  20
ATOM     20  C   UNL d   1       8.943  -2.785   0.690  0.00  0.00     0.176 C 
ATOM     21  C   UNL d   1       8.947  -2.745   2.208  0.00  0.00     0.034 C 
ENDBRANCH  19  20
ENDBRANCH  16  19
ENDBRANCH  13  15
ENDBRANCH   1  12
TORSDOF 4
