REMARK  4 active torsions:
REMARK  status: ('A' for Active; 'I' for Inactive)
REMARK    1  A    between atoms: N_2  and  C_1 
REMARK    2  A    between atoms: N_6  and  C_1 
REMARK    3  A    between atoms: C_3  and  N_2 
REMARK    4  A    between atoms: C_12  and  N_6 
ROOT
ATOM      1  N   UNL d   1       0.356  -0.645  -0.366  0.00  0.00    -0.363 N 
ATOM      2  H   UNL d   1       0.964  -1.438  -0.272  0.00  0.00     0.162 HD
ENDROOT
BRANCH   1   3
ATOM      3  C   UNL d   1       1.030   0.457  -0.790  0.00  0.00     0.168 C 
ATOM      4  S   UNL d   1       2.677   0.321  -1.036  0.00  0.00    -0.041 SA
BRANCH   3   5
ATOM      5  N   UNL d   1       0.290   1.580  -0.983  0.00  0.00    -0.362 N 
ATOM      6  H   UNL d   1      -0.505   1.668  -0.364  0.00  0.00     0.162 HD
BRANCH   5   7
ATOM      7  C   UNL d   1       0.795   2.839  -1.526  0.00  0.00     0.092 C 
ATOM      8  C   UNL d   1      -0.328   3.772  -2.055  0.00  0.00     0.031 C 
ATOM      9  C   UNL d   1      -1.307   4.061  -0.936  0.00  0.00    -0.024 C 
ATOM     10  C   UNL d   1       0.412   5.113  -2.069  0.00  0.00     0.019 C 
ATOM     11  C   UNL d   1      -0.665   4.821  -0.040  0.00  0.00    -0.026 C 
ATOM     12  C   UNL d   1       0.732   5.062  -0.571  0.00  0.00     0.010 C 
ATOM     13  C   UNL d   1       1.521   3.739  -0.477  0.00  0.00     0.034 C 
ENDBRANCH   5   7
ENDBRANCH   3   5
ENDBRANCH   1   3
BRANCH   1  14
ATOM     14  C   UNL d   1      -1.060  -0.968  -0.305  0.00  0.00     0.083 C 
ATOM     15  C   UNL d   1      -1.455  -1.661   1.023  0.00  0.00     0.025 C 
ATOM     16  C   UNL d   1      -0.674  -1.278   2.293  0.00  0.00     0.002 C 
ATOM     17  C   UNL d   1       0.788  -1.758   2.403  0.00  0.00     0.000 C 
ATOM     18  C   UNL d   1       1.001  -3.270   2.232  0.00  0.00     0.000 C 
ATOM     19  C   UNL d   1       2.400  -3.648   1.710  0.00  0.00     0.000 C 
ATOM     20  C   UNL d   1       2.567  -3.621   0.178  0.00  0.00     0.000 C 
ATOM     21  C   UNL d   1       1.748  -4.681  -0.568  0.00  0.00     0.000 C 
ATOM     22  C   UNL d   1       1.476  -4.374  -2.052  0.00  0.00     0.000 C 
ATOM     23  C   UNL d   1       0.564  -3.175  -2.369  0.00  0.00     0.000 C 
ATOM     24  C   UNL d   1      -0.815  -3.200  -1.694  0.00  0.00     0.002 C 
ATOM     25  C   UNL d   1      -1.486  -1.815  -1.540  0.00  0.00     0.025 C 
ENDBRANCH   1  14
TORSDOF 4
