REMARK  4 active torsions:
REMARK  status: ('A' for Active; 'I' for Inactive)
REMARK       I    between atoms: N_2  and  C_1 
REMARK    1  A    between atoms: C_8  and  C_1 
REMARK    2  A    between atoms: C_9  and  N_2 
REMARK    3  A    between atoms: C_3  and  S_6 
REMARK    4  A    between atoms: S_6  and  C_8 
ROOT
ATOM      1  C   UNL d   1       1.120   0.082  -0.044  0.00  0.00     0.231 C 
ATOM      2  N   UNL d   1       0.474  -0.402   1.083  0.00  0.00    -0.327 N 
ATOM      3  O   UNL d   1       0.565   0.458  -1.079  0.00  0.00    -0.272 OA
ATOM      4  H   UNL d   1       1.033  -0.468   1.929  0.00  0.00     0.169 HD
ENDROOT
BRANCH   1   5
ATOM      5  C   UNL d   1       2.638   0.096   0.059  0.00  0.00     0.184 C 
BRANCH   5   6
ATOM      6  S   UNL d   1       3.269   1.797  -0.069  0.00  0.00    -0.103 SA
BRANCH   6   7
ATOM      7  C   UNL d   1       2.650   2.442   1.465  0.00  0.00     0.069 A 
ATOM      8  N   UNL d   1       2.545   1.576   2.503  0.00  0.00    -0.361 N 
ATOM      9  C   UNL d   1       2.116   2.080   3.680  0.00  0.00     0.089 A 
ATOM     10  HN  UNL d   1       2.779   0.589   2.399  1.00  0.00     0.165 HD
ATOM     11  C   UNL d   1       1.768   3.405   3.871  0.00  0.00     0.017 A 
ATOM     12  C   UNL d   1       1.874   4.274   2.792  0.00  0.00     0.004 A 
ATOM     13  C   UNL d   1       2.330   3.790   1.569  0.00  0.00     0.037 A 
ENDBRANCH   6   7
ENDBRANCH   5   6
ENDBRANCH   1   5
BRANCH   2  14
ATOM     14  C   UNL d   1      -0.902  -0.713   1.197  0.00  0.00     0.034 A 
ATOM     15  C   UNL d   1      -1.786  -0.687   0.114  0.00  0.00     0.031 A 
ATOM     16  C   UNL d   1      -3.126  -1.058   0.266  0.00  0.00     0.020 A 
ATOM     17  C   UNL d   1      -3.595  -1.463   1.510  0.00  0.00     0.006 A 
ATOM     18  C   UNL d   1      -2.734  -1.484   2.607  0.00  0.00     0.020 A 
ATOM     19  I   UNL d   1      -5.572  -2.065   1.717  0.00  0.00    -0.045 I 
ATOM     20  C   UNL d   1      -1.391  -1.109   2.448  0.00  0.00     0.031 A 
ENDBRANCH   2  14
TORSDOF 4
