REMARK  6 active torsions:
REMARK  status: ('A' for Active; 'I' for Inactive)
REMARK    1  A    between atoms: C_4  and  C_1 
REMARK    2  A    between atoms: C_17  and  N_2 
REMARK    3  A    between atoms: C_8  and  C_3 
REMARK    4  A    between atoms: S_16  and  C_8 
REMARK    5  A    between atoms: C_14  and  C_18 
REMARK    6  A    between atoms: C_25  and  S_16 
ROOT
ATOM      1  C   UNL d   1      -0.126  -1.271   0.030  0.00  0.00     0.094 C 
ATOM      2  N   UNL d   1       1.170  -0.775   0.236  0.00  0.00    -0.254 N 
ATOM      3  C   UNL d   1      -0.959  -0.132   0.059  0.00  0.00     0.075 C 
ATOM      4  N   UNL d   1       1.143   0.453   0.789  0.00  0.00    -0.297 N 
ATOM      5  HN  UNL d   1       1.909   0.943   1.251  1.00  0.00     0.187 HD
ATOM      6  C   UNL d   1      -0.098   0.887   0.603  0.00  0.00     0.039 C 
ATOM      7  C   UNL d   1      -0.396   2.298   0.985  0.00  0.00     0.071 C 
ENDROOT
BRANCH   3   8
ATOM      8  C   UNL d   1      -2.371   0.123  -0.217  0.00  0.00     0.228 C 
ATOM      9  O   UNL d   1      -2.949   1.131   0.186  0.00  0.00    -0.279 OA
BRANCH   8  10
ATOM     10  S   UNL d   1      -3.268  -1.016  -1.180  0.00  0.00    -0.047 SA
BRANCH  10  11
ATOM     11  C   UNL d   1      -3.566  -0.199  -2.737  0.00  0.00     0.008 A 
ATOM     12  C   UNL d   1      -3.570  -1.003  -3.887  0.00  0.00     0.020 A 
ATOM     13  C   UNL d   1      -4.030  -0.508  -5.111  0.00  0.00     0.017 A 
ATOM     14  C   UNL d   1      -4.500   0.807  -5.212  0.00  0.00     0.048 A 
ATOM     15  C   UNL d   1      -4.408   1.639  -4.086  0.00  0.00     0.017 A 
ATOM     16  C   UNL d   1      -3.951   1.139  -2.858  0.00  0.00     0.020 A 
BRANCH  14  17
ATOM     17  C   UNL d   1      -5.167   1.300  -6.476  0.00  0.00     0.417 C 
ATOM     18  F   UNL d   1      -5.268   0.346  -7.444  0.00  0.00    -0.166 F 
ATOM     19  F   UNL d   1      -6.440   1.729  -6.249  0.00  0.00    -0.166 F 
ATOM     20  F   UNL d   1      -4.514   2.348  -7.047  0.00  0.00    -0.166 F 
ENDBRANCH  14  17
ENDBRANCH  10  11
ENDBRANCH   8  10
ENDBRANCH   3   8
BRANCH   1  21
ATOM     21  C   UNL d   1      -0.376  -2.701  -0.024  0.00  0.00     0.076 C 
ATOM     22  C   UNL d   1       0.089  -3.718   0.824  0.00  0.00     0.043 C 
ATOM     23  N   UNL d   1      -0.324  -5.005   0.486  0.00  0.00    -0.298 N 
ATOM     24  C   UNL d   1       1.010  -3.630   1.992  0.00  0.00     0.071 C 
ATOM     25  N   UNL d   1      -1.034  -5.021  -0.623  0.00  0.00    -0.269 N 
ATOM     26  HN  UNL d   1      -0.103  -5.837   1.033  1.00  0.00     0.187 HD
ATOM     27  S   UNL d   1      -1.169  -3.519  -1.316  0.00  0.00     0.006 SA
ATOM     28  HN  UNL d   1      -1.455  -5.864  -1.013  1.00  0.00     0.195 HD
ENDBRANCH   1  21
BRANCH   2  29
ATOM     29  C   UNL d   1       2.438  -1.381   0.001  0.00  0.00     0.057 A 
ATOM     30  C   UNL d   1       2.611  -2.380  -0.964  0.00  0.00     0.031 A 
ATOM     31  C   UNL d   1       3.865  -2.969  -1.141  0.00  0.00     0.002 A 
ATOM     32  C   UNL d   1       4.949  -2.560  -0.365  0.00  0.00     0.000 A 
ATOM     33  C   UNL d   1       4.790  -1.549   0.579  0.00  0.00     0.002 A 
ATOM     34  C   UNL d   1       3.543  -0.951   0.754  0.00  0.00     0.031 A 
ENDBRANCH   2  29
TORSDOF 6
