REMARK  3 active torsions:
REMARK  status: ('A' for Active; 'I' for Inactive)
REMARK    1  A    between atoms: N_2  and  S_1 
REMARK    2  A    between atoms: C_3  and  S_1 
REMARK    3  A    between atoms: C_4  and  N_5 
ROOT
ATOM      1  N   UNL d   1       0.411  -0.541   1.543  0.00  0.00    -0.205 NA
ATOM      2  N   UNL d   1      -1.730  -1.177   3.654  0.00  0.00    -0.377 N 
ATOM      3  C   UNL d   1      -0.681   0.387   1.992  0.00  0.00     0.127 C 
ATOM      4  C   UNL d   1      -1.157   0.166   3.434  0.00  0.00     0.138 C 
ATOM      5  C   UNL d   1       0.095  -2.685   2.840  0.00  0.00     0.035 C 
ATOM      6  C   UNL d   1      -0.088  -1.966   1.509  0.00  0.00     0.109 C 
ATOM      7  C   UNL d   1      -0.745  -2.201   4.025  0.00  0.00     0.124 C 
ENDROOT
BRANCH   1   8
ATOM      8  S   UNL d   1       1.023  -0.112  -0.030  0.00  0.00     0.243 S 
ATOM      9  O   UNL d   1      -0.102  -0.169  -0.939  0.00  0.00    -0.206 OA
ATOM     10  O   UNL d   1       2.216  -0.890  -0.268  0.00  0.00    -0.206 OA
BRANCH   8  11
ATOM     11  C   UNL d   1       1.526   1.592   0.101  0.00  0.00     0.075 A 
ATOM     12  C   UNL d   1       0.927   2.545  -0.740  0.00  0.00     0.034 A 
ATOM     13  C   UNL d   1       1.387   3.850  -0.661  0.00  0.00    -0.021 A 
ATOM     14  C   UNL d   1       0.937   5.055  -1.393  0.00  0.00     0.068 C 
ATOM     15  C   UNL d   1       2.384   4.200   0.231  0.00  0.00     0.075 A 
ATOM     16  C   UNL d   1       2.087   5.996  -1.031  0.00  0.00     0.180 C 
ATOM     17  O   UNL d   1       2.717   5.531   0.185  0.00  0.00    -0.350 OA
ATOM     18  C   UNL d   1       2.970   3.277   1.082  0.00  0.00     0.039 A 
ATOM     19  C   UNL d   1       2.539   1.950   1.003  0.00  0.00     0.027 A 
ENDBRANCH   8  11
ENDBRANCH   1   8
BRANCH   2  20
ATOM     20  C   UNL d   1      -3.080  -1.371   4.000  0.00  0.00     0.077 A 
ATOM     21  C   UNL d   1      -3.806  -2.498   3.524  0.00  0.00     0.077 A 
ATOM     22 CL   UNL d   1      -3.124  -3.749   2.538  0.00  0.00    -0.080 Cl
ATOM     23  C   UNL d   1      -5.171  -2.632   3.796  0.00  0.00     0.113 A 
ATOM     24  N   UNL d   1      -5.901  -1.737   4.487  0.00  0.00    -0.372 N 
ATOM     25  C   UNL d   1      -5.214  -0.685   4.973  0.00  0.00     0.113 A 
ATOM     26  HN  UNL d   1      -6.905  -1.848   4.633  1.00  0.00     0.164 HD
ATOM     27  C   UNL d   1      -3.841  -0.478   4.797  0.00  0.00     0.077 A 
ATOM     28 CL   UNL d   1      -3.176   0.827   5.728  0.00  0.00    -0.080 Cl
ENDBRANCH   2  20
TORSDOF 3
