REMARK  5 active torsions:
REMARK  status: ('A' for Active; 'I' for Inactive)
REMARK       I    between atoms: N_2  and  C_1 
REMARK       I    between atoms: N_3  and  C_1 
REMARK    1  A    between atoms: C_8  and  N_2 
REMARK    2  A    between atoms: C_5  and  N_3 
REMARK    3  A    between atoms: C_6  and  C_5 
REMARK    4  A    between atoms: C_7  and  C_6 
REMARK    5  A    between atoms: O_15  and  C_6 
ROOT
ATOM      1  C   UNL d   1       0.970   0.004  -0.075  0.00  0.00     0.320 C 
ATOM      2  N   UNL d   1       2.330   0.136  -0.249  0.00  0.00    -0.309 N 
ATOM      3  N   UNL d   1       0.309  -0.063  -1.278  0.00  0.00    -0.340 N 
ATOM      4  O   UNL d   1       0.376  -0.055   0.991  0.00  0.00    -0.247 OA
ATOM      5  H   UNL d   1       2.642   0.323  -1.190  0.00  0.00     0.170 HD
ATOM      6  H   UNL d   1       0.762   0.324  -2.093  0.00  0.00     0.164 HD
ENDROOT
BRANCH   3   7
ATOM      7  C   UNL d   1      -1.150  -0.013  -1.301  0.00  0.00     0.161 C 
BRANCH   7   8
ATOM      8  C   UNL d   1      -1.678  -0.044  -2.745  0.00  0.00     0.169 C 
BRANCH   8   9
ATOM      9  C   UNL d   1      -3.188   0.029  -2.847  0.00  0.00    -0.028 A 
ATOM     10  C   UNL d   1      -3.924   1.087  -2.291  0.00  0.00     0.010 A 
ATOM     11  C   UNL d   1      -5.315   1.136  -2.425  0.00  0.00     0.001 A 
ATOM     12  C   UNL d   1      -5.987   0.128  -3.109  0.00  0.00     0.000 A 
ATOM     13  C   UNL d   1      -5.274  -0.932  -3.662  0.00  0.00     0.001 A 
ATOM     14  C   UNL d   1      -3.883  -0.979  -3.535  0.00  0.00     0.010 A 
ENDBRANCH   8   9
BRANCH   8  15
ATOM     15  O   UNL d   1      -1.073   1.042  -3.466  0.00  0.00    -0.389 OA
ATOM     16  H   UNL d   1      -1.649   1.818  -3.361  0.00  0.00     0.210 HD
ENDBRANCH   8  15
ENDBRANCH   7   8
ENDBRANCH   3   7
BRANCH   2  17
ATOM     17  C   UNL d   1       3.317   0.168   0.759  0.00  0.00     0.036 A 
ATOM     18  C   UNL d   1       3.065  -0.190   2.090  0.00  0.00     0.032 A 
ATOM     19  C   UNL d   1       4.084  -0.129   3.045  0.00  0.00     0.044 A 
ATOM     20  C   UNL d   1       5.350   0.291   2.671  0.00  0.00     0.116 A 
ATOM     21  C   UNL d   1       5.625   0.640   1.356  0.00  0.00     0.044 A 
ATOM     22  F   UNL d   1       6.323   0.361   3.588  0.00  0.00    -0.206 F 
ATOM     23  C   UNL d   1       4.608   0.570   0.397  0.00  0.00     0.032 A 
ENDBRANCH   2  17
TORSDOF 5
