REMARK  7 active torsions:
REMARK  status: ('A' for Active; 'I' for Inactive)
REMARK    1  A    between atoms: C_9  and  S_1 
REMARK    2  A    between atoms: N_13  and  S_1 
REMARK    3  A    between atoms: C_2  and  C_7 
REMARK    4  A    between atoms: C_16  and  N_3 
REMARK    5  A    between atoms: C_21  and  C_4 
REMARK       I    between atoms: C_7  and  N_10 
REMARK    6  A    between atoms: N_10  and  C_11 
REMARK    7  A    between atoms: C_27  and  C_21 
ROOT
ATOM      1  C   UNL d   1      -0.521   3.397   5.468  0.00  0.00     0.259 C 
ATOM      2  N   UNL d   1      -0.111   2.743   4.309  0.00  0.00    -0.322 N 
ATOM      3  O   UNL d   1      -0.590   4.619   5.572  0.00  0.00    -0.267 OA
ATOM      4  H   UNL d   1      -0.159   1.738   4.309  0.00  0.00     0.169 HD
ENDROOT
BRANCH   1   5
ATOM      5  C   UNL d   1      -0.959   2.542   6.583  0.00  0.00     0.073 C 
ATOM      6  C   UNL d   1      -1.333   2.981   7.862  0.00  0.00     0.051 C 
ATOM      7  N   UNL d   1      -1.982   1.895   8.453  0.00  0.00    -0.260 N 
ATOM      8  N   UNL d   1      -1.582   0.740   7.852  0.00  0.00    -0.304 N 
ATOM      9  C   UNL d   1      -1.085   1.143   6.684  0.00  0.00     0.126 C 
ATOM     10  HN  UNL d   1      -1.648  -0.212   8.212  1.00  0.00     0.186 HD
BRANCH   6  11
ATOM     11  C   UNL d   1      -1.095   4.309   8.528  0.00  0.00     0.060 C 
BRANCH  11  12
ATOM     12  C   UNL d   1      -0.353   4.223   9.868  0.00  0.00     0.002 C 
ATOM     13  C   UNL d   1       1.052   3.645   9.750  0.00  0.00     0.005 C 
ENDBRANCH  11  12
ENDBRANCH   6  11
BRANCH   7  14
ATOM     14  C   UNL d   1      -3.044   1.848   9.411  0.00  0.00     0.056 A 
ATOM     15  C   UNL d   1      -3.890   2.946   9.615  0.00  0.00     0.031 A 
ATOM     16  C   UNL d   1      -5.032   2.820  10.415  0.00  0.00     0.002 A 
ATOM     17  C   UNL d   1      -5.335   1.606  11.025  0.00  0.00     0.000 A 
ATOM     18  C   UNL d   1      -4.486   0.516  10.853  0.00  0.00     0.002 A 
ATOM     19  C   UNL d   1      -3.348   0.633  10.047  0.00  0.00     0.031 A 
ENDBRANCH   7  14
ENDBRANCH   1   5
BRANCH   2  20
ATOM     20  C   UNL d   1       0.355   3.348   3.099  0.00  0.00     0.042 A 
ATOM     21  C   UNL d   1       0.553   4.731   2.968  0.00  0.00     0.055 A 
ATOM     22  C   UNL d   1       0.998   5.285   1.759  0.00  0.00     0.081 A 
ATOM     23  C   UNL d   1       1.358   4.470   0.694  0.00  0.00     0.026 A 
ATOM     24  C   UNL d   1       1.180   3.097   0.808  0.00  0.00     0.010 A 
ATOM     25  C   UNL d   1       0.636   2.528   1.979  0.00  0.00    -0.035 A 
ATOM     26  C   UNL d   1       0.373   1.046   1.956  0.00  0.00     0.050 C 
BRANCH  22  27
ATOM     27  S   UNL d   1       1.112   7.057   1.563  0.00  0.00     0.260 S 
ATOM     28  O   UNL d   1       1.609   7.310   0.229  0.00  0.00    -0.200 OA
ATOM     29  O   UNL d   1       1.799   7.572   2.730  0.00  0.00    -0.200 OA
BRANCH  27  30
ATOM     30  N   UNL d   1      -0.512   7.572   1.603  0.00  0.00    -0.315 N 
ATOM     31  C   UNL d   1      -1.384   7.111   0.508  0.00  0.00     0.162 C 
ATOM     32  C   UNL d   1      -1.189   7.621   2.909  0.00  0.00     0.162 C 
ENDBRANCH  27  30
ENDBRANCH  22  27
ENDBRANCH   2  20
TORSDOF 7
