REMARK  2 active torsions:
REMARK  status: ('A' for Active; 'I' for Inactive)
REMARK    1  A    between atoms: C_7  and  N_1 
REMARK    2  A    between atoms: C_11  and  C_5 
ROOT
ATOM      1  N   UNL d   1      -0.779  -2.018  -3.653  0.00  0.00    -0.197 NA
ATOM      2  C   UNL d   1      -0.162  -1.193  -3.121  0.00  0.00     0.066 C 
ATOM      3  C   UNL d   1       0.667  -0.190  -2.440  0.00  0.00     0.202 C 
ENDROOT
BRANCH   3   4
ATOM      4  C   UNL d   1       0.264  -0.096  -0.994  0.00  0.00     0.118 A 
ATOM      5  N   UNL d   1      -0.693   0.734  -0.673  0.00  0.00    -0.285 N 
ATOM      6  N   UNL d   1      -0.812   0.617   0.668  0.00  0.00    -0.274 N 
ATOM      7  HN  UNL d   1      -1.232   1.336  -1.296  1.00  0.00     0.188 HD
ATOM      8  C   UNL d   1       0.061  -0.347   1.153  0.00  0.00     0.199 A 
ATOM      9  H   UNL d   1      -1.549   1.077   1.191  0.00  0.00     0.189 HD
ATOM     10  N   UNL d   1       0.813  -0.769   0.058  0.00  0.00    -0.274 N 
ATOM     11  S   UNL d   1      -0.026  -0.835   2.740  0.00  0.00    -0.039 SA
BRANCH  10  12
ATOM     12  C   UNL d   1       1.912  -1.681   0.072  0.00  0.00     0.043 A 
ATOM     13  C   UNL d   1       2.206  -2.518  -1.014  0.00  0.00     0.037 A 
ATOM     14  C   UNL d   1       3.325  -3.369  -1.026  0.00  0.00    -0.060 A 
ATOM     15  C   UNL d   1       3.640  -4.207  -2.231  0.00  0.00     0.048 C 
ATOM     16  C   UNL d   1       4.156  -3.421   0.092  0.00  0.00     0.007 A 
ATOM     17  C   UNL d   1       3.872  -2.629   1.198  0.00  0.00     0.003 A 
ATOM     18  C   UNL d   1       2.775  -1.761   1.178  0.00  0.00     0.030 A 
ENDBRANCH  10  12
ENDBRANCH   3   4
TORSDOF 2
