REMARK  4 active torsions:
REMARK  status: ('A' for Active; 'I' for Inactive)
REMARK    1  A    between atoms: C_2  and  S_1 
REMARK    2  A    between atoms: N_5  and  S_1 
REMARK    3  A    between atoms: C_13  and  N_5 
REMARK    4  A    between atoms: C_8  and  C_13 
ROOT
ATOM      1  S   UNL d   1       0.993  -0.015   0.155  0.00  0.00     0.241 S 
ATOM      2  O   UNL d   1       0.427   0.844  -0.861  0.00  0.00    -0.206 OA
ATOM      3  O   UNL d   1       2.419  -0.110   0.367  0.00  0.00    -0.206 OA
ENDROOT
BRANCH   1   4
ATOM      4  C   UNL d   1       0.369  -1.657  -0.143  0.00  0.00     0.074 A 
ATOM      5  C   UNL d   1      -0.751  -1.825  -0.964  0.00  0.00     0.025 A 
ATOM      6  C   UNL d   1      -1.195  -3.111  -1.272  0.00  0.00     0.008 A 
ATOM      7  C   UNL d   1      -0.522  -4.234  -0.772  0.00  0.00    -0.062 A 
ATOM      8  C   UNL d   1       0.596  -4.052   0.054  0.00  0.00     0.008 A 
ATOM      9  C   UNL d   1      -1.000  -5.611  -1.135  0.00  0.00     0.048 C 
ATOM     10  C   UNL d   1       1.050  -2.767   0.361  0.00  0.00     0.025 A 
ENDBRANCH   1   4
BRANCH   1  11
ATOM     11  N   UNL d   1       0.245   0.395   1.617  0.00  0.00    -0.212 NA
ATOM     12  H   UNL d   1      -0.724   0.079   1.633  0.00  0.00     0.140 HD
BRANCH  11  13
ATOM     13  C   UNL d   1       0.982   0.036   2.830  0.00  0.00     0.131 C 
BRANCH  13  14
ATOM     14  C   UNL d   1       0.155   0.502   3.988  0.00  0.00    -0.022 C 
ATOM     15  C   UNL d   1      -0.328  -0.297   4.949  0.00  0.00     0.008 C 
ENDBRANCH  13  14
ENDBRANCH  11  13
ENDBRANCH   1  11
TORSDOF 4
