REMARK  6 active torsions:
REMARK  status: ('A' for Active; 'I' for Inactive)
REMARK    1  A    between atoms: C_7  and  C_1 
REMARK    2  A    between atoms: N_13  and  C_3 
REMARK    3  A    between atoms: C_11  and  C_4 
REMARK    4  A    between atoms: O_20  and  C_7 
REMARK    5  A    between atoms: N_9  and  C_12 
REMARK    6  A    between atoms: C_26  and  O_20 
ROOT
ATOM      1  C   UNL d   1      -1.448  -1.490  -0.106  0.00  0.00     0.060 C 
ATOM      2  C   UNL d   1       0.815  -0.350   0.185  0.00  0.00     0.086 C 
ATOM      3  C   UNL d   1       0.162   0.832   0.166  0.00  0.00     0.159 C 
ATOM      4  C   UNL d   1       0.037  -1.667   0.216  0.00  0.00     0.108 C 
ATOM      5  C   UNL d   1      -1.992  -0.250  -0.092  0.00  0.00     0.065 C 
ATOM      6  O   UNL d   1      -1.218   0.884   0.124  0.00  0.00    -0.297 OA
ATOM      7  C   UNL d   1       2.237  -0.369   0.218  0.00  0.00     0.100 C 
ATOM      8  N   UNL d   1       3.407  -0.340   0.212  0.00  0.00    -0.191 NA
ATOM      9  C   UNL d   1      -3.436   0.149  -0.233  0.00  0.00     0.077 C 
ENDROOT
BRANCH   4  10
ATOM     10  C   UNL d   1       0.744  -2.750  -0.600  0.00  0.00    -0.044 A 
ATOM     11  C   UNL d   1       1.191  -3.914   0.040  0.00  0.00     0.010 A 
ATOM     12  C   UNL d   1       1.877  -4.902  -0.672  0.00  0.00     0.030 A 
ATOM     13  C   UNL d   1       2.157  -4.765  -2.035  0.00  0.00     0.030 A 
ATOM     14  C   UNL d   1       1.686  -3.604  -2.664  0.00  0.00     0.030 A 
ATOM     15  C   UNL d   1       0.987  -2.610  -1.968  0.00  0.00     0.010 A 
BRANCH  13  16
ATOM     16  N   UNL d   1       2.880  -5.710  -2.729  0.00  0.00    -0.377 N 
ATOM     17  C   UNL d   1       3.901  -6.550  -2.089  0.00  0.00     0.149 C 
ATOM     18  C   UNL d   1       3.524  -8.028  -2.243  0.00  0.00     0.187 C 
ATOM     19  O   UNL d   1       3.332  -8.376  -3.626  0.00  0.00    -0.388 OA
ATOM     20  C   UNL d   1       2.269  -7.590  -4.192  0.00  0.00     0.187 C 
ATOM     21  C   UNL d   1       2.560  -6.080  -4.113  0.00  0.00     0.149 C 
ENDBRANCH  13  16
ENDBRANCH   4  10
BRANCH   3  22
ATOM     22  N   UNL d   1       0.738   2.077   0.215  0.00  0.00    -0.379 N 
ATOM     23  H   UNL d   1       0.119   2.827  -0.081  0.00  0.00     0.158 HD
ATOM     24  H   UNL d   1       1.699   2.163  -0.106  0.00  0.00     0.158 HD
ENDBRANCH   3  22
BRANCH   1  25
ATOM     25  C   UNL d   1      -2.225  -2.747  -0.363  0.00  0.00     0.292 C 
ATOM     26  O   UNL d   1      -1.886  -3.851   0.033  0.00  0.00    -0.259 OA
BRANCH  25  27
ATOM     27  O   UNL d   1      -3.268  -2.506  -1.193  0.00  0.00    -0.318 OA
BRANCH  27  28
ATOM     28  C   UNL d   1      -3.799  -3.613  -1.935  0.00  0.00     0.174 C 
ATOM     29  C   UNL d   1      -5.147  -4.080  -1.417  0.00  0.00     0.034 C 
ENDBRANCH  27  28
ENDBRANCH  25  27
ENDBRANCH   1  25
TORSDOF 6
