REMARK  2 active torsions:
REMARK  status: ('A' for Active; 'I' for Inactive)
REMARK    1  A    between atoms: N_3  and  C_1 
REMARK    2  A    between atoms: N_13  and  C_5 
ROOT
ATOM      1  C   UNL d   1      -1.164  -1.114  -0.030  0.00  0.00     0.132 A 
ATOM      2  C   UNL d   1       0.795   0.280   0.020  0.00  0.00     0.091 A 
ATOM      3  C   UNL d   1       0.241  -1.019  -0.019  0.00  0.00    -0.003 A 
ATOM      4  C   UNL d   1      -0.050   1.407   0.040  0.00  0.00     0.101 A 
ATOM      5  N   UNL d   1      -1.396   1.269   0.017  0.00  0.00    -0.347 N 
ATOM      6  HN  UNL d   1      -1.992   2.096   0.025  1.00  0.00     0.167 HD
ATOM      7  C   UNL d   1      -1.954   0.032  -0.018  0.00  0.00     0.040 A 
ATOM      8  C   UNL d   1       2.215   0.477   0.046  0.00  0.00     0.103 C 
ATOM      9  N   UNL d   1       3.368   0.628   0.033  0.00  0.00    -0.191 NA
ATOM     10  C   UNL d   1       1.106  -2.255  -0.029  0.00  0.00     0.052 C 
ATOM     11  C   UNL d   1      -3.456   0.007   0.000  0.00  0.00     0.071 C 
ENDROOT
BRANCH   4  12
ATOM     12  N   UNL d   1       0.486   2.688   0.204  0.00  0.00    -0.282 NA
ATOM     13  C   UNL d   1      -0.428   3.817   0.268  0.00  0.00     0.114 C 
ATOM     14  H   UNL d   1       1.264   2.867  -0.428  0.00  0.00     0.128 HD
ENDBRANCH   4  12
BRANCH   1  15
ATOM     15  N   UNL d   1      -1.813  -2.409  -0.025  0.00  0.00    -0.113 N 
ATOM     16  O   UNL d   1      -1.648  -3.118   0.975  0.00  0.00    -0.532 OA
ATOM     17  O   UNL d   1      -2.479  -2.710  -1.023  0.00  0.00    -0.532 OA
ENDBRANCH   1  15
TORSDOF 2
