REMARK  5 active torsions:
REMARK  status: ('A' for Active; 'I' for Inactive)
REMARK    1  A    between atoms: C_5  and  C_2 
REMARK    2  A    between atoms: C_8  and  C_3 
REMARK    3  A    between atoms: O_15  and  C_5 
REMARK    4  A    between atoms: O_16  and  C_8 
REMARK    5  A    between atoms: C_14  and  C_9 
ROOT
ATOM      1  C   UNL d   1       0.559  -0.066   0.063  0.00  0.00     0.018 C 
ATOM      2  C   UNL d   1       2.608   0.442  -0.465  0.00  0.00     0.099 C 
ATOM      3  C   UNL d   1       1.357  -0.038  -1.278  0.00  0.00     0.110 C 
ATOM      4  C   UNL d   1       1.937  -0.211   0.773  0.00  0.00     0.031 C 
ATOM      5  O   UNL d   1      -1.599  -1.122  -0.269  0.00  0.00    -0.356 OA
ATOM      6  O   UNL d   1      -1.503   1.181  -0.135  0.00  0.00    -0.356 OA
ATOM      7  C   UNL d   1      -2.267   0.033   0.249  0.00  0.00     0.294 C 
ATOM      8  C   UNL d   1      -0.199   1.201   0.447  0.00  0.00     0.183 C 
ATOM      9  C   UNL d   1      -0.303  -1.302   0.299  0.00  0.00     0.183 C 
ENDROOT
BRANCH   3  10
ATOM     10  C   UNL d   1       0.959   0.813  -2.480  0.00  0.00     0.145 C 
ATOM     11  O   UNL d   1       1.801   1.346  -3.206  0.00  0.00    -0.650 OA
BRANCH  10  12
ATOM     12  O   UNL d   1      -0.364   0.940  -2.724  0.00  0.00    -0.776 OA
ATOM     13  H   UNL d   1      -0.949   0.565  -2.030  0.00  0.00     0.167 HD
ENDBRANCH  10  12
ENDBRANCH   3  10
BRANCH   2  14
ATOM     14  C   UNL d   1       2.942   1.957  -0.334  0.00  0.00     0.144 C 
ATOM     15  O   UNL d   1       2.909   2.593   0.717  0.00  0.00    -0.650 OA
BRANCH  14  16
ATOM     16  O   UNL d   1       3.309   2.573  -1.487  0.00  0.00    -0.776 OA
ATOM     17  H   UNL d   1       3.127   2.062  -2.313  0.00  0.00     0.167 HD
ENDBRANCH  14  16
ENDBRANCH   2  14
BRANCH   7  18
ATOM     18  C   UNL d   1      -2.661  -0.038   1.721  0.00  0.00    -0.004 A 
ATOM     19  C   UNL d   1      -2.743   1.124   2.508  0.00  0.00     0.012 A 
ATOM     20  C   UNL d   1      -3.064   1.051   3.865  0.00  0.00     0.001 A 
ATOM     21  C   UNL d   1      -3.349  -0.180   4.448  0.00  0.00     0.000 A 
ATOM     22  C   UNL d   1      -3.329  -1.336   3.672  0.00  0.00     0.001 A 
ATOM     23  C   UNL d   1      -2.998  -1.265   2.316  0.00  0.00     0.012 A 
ENDBRANCH   7  18
TORSDOF 5
