REMARK  7 active torsions:
REMARK  status: ('A' for Active; 'I' for Inactive)
REMARK    1  A    between atoms: C_2  and  N_1 
REMARK    2  A    between atoms: N_11  and  C_3 
REMARK    3  A    between atoms: C_4  and  O_17 
REMARK    4  A    between atoms: N_19  and  C_5 
REMARK       I    between atoms: C_6  and  N_12 
REMARK       I    between atoms: N_15  and  C_6 
REMARK    5  A    between atoms: N_12  and  N_11 
REMARK    6  A    between atoms: C_23  and  N_15 
REMARK    7  A    between atoms: O_17  and  C_24 
ROOT
ATOM      1  C   UNL d   1       3.569   0.528  -2.893  0.00  0.00     0.335 C 
ATOM      2  N   UNL d   1       2.611   0.848  -1.960  0.00  0.00    -0.267 N 
ATOM      3  N   UNL d   1       4.597  -0.256  -2.431  0.00  0.00    -0.308 N 
ATOM      4  O   UNL d   1       3.513   0.860  -4.075  0.00  0.00    -0.246 OA
ATOM      5  H   UNL d   1       2.458   0.183  -1.202  0.00  0.00     0.186 HD
ATOM      6  H   UNL d   1       5.093  -0.734  -3.173  0.00  0.00     0.170 HD
ENDROOT
BRANCH   2   7
ATOM      7  N   UNL d   1       1.428   1.490  -2.385  0.00  0.00    -0.184 NA
ATOM      8  H   UNL d   1       1.660   2.348  -2.896  0.00  0.00     0.154 HD
BRANCH   7   9
ATOM      9  C   UNL d   1       0.564   1.716  -1.279  0.00  0.00     0.136 A 
ATOM     10  C   UNL d   1      -0.515   2.575  -1.351  0.00  0.00     0.180 A 
ATOM     11  C   UNL d   1      -1.340   2.735  -0.248  0.00  0.00     0.117 A 
ATOM     12  N   UNL d   1      -1.107   2.025   0.872  0.00  0.00    -0.341 N 
ATOM     13  C   UNL d   1      -0.074   1.168   0.858  0.00  0.00     0.183 A 
ATOM     14  HN  UNL d   1      -1.693   2.133   1.700  1.00  0.00     0.167 HD
ATOM     15  N   UNL d   1       0.770   0.977  -0.161  0.00  0.00    -0.340 N 
ATOM     16  HN  UNL d   1       1.535   0.305  -0.100  1.00  0.00     0.167 HD
BRANCH  10  17
ATOM     17  N   UNL d   1      -0.747   3.329  -2.537  0.00  0.00    -0.109 N 
ATOM     18  O   UNL d   1      -1.792   3.093  -3.164  0.00  0.00    -0.532 OA
ATOM     19  O   UNL d   1       0.125   4.145  -2.869  0.00  0.00    -0.532 OA
ENDBRANCH  10  17
BRANCH  11  20
ATOM     20  N   UNL d   1      -2.369   3.692  -0.232  0.00  0.00    -0.281 NA
ATOM     21  C   UNL d   1      -3.107   3.811   1.016  0.00  0.00     0.114 C 
ATOM     22  H   UNL d   1      -2.994   3.584  -1.032  0.00  0.00     0.128 HD
ENDBRANCH  11  20
ENDBRANCH   7   9
ENDBRANCH   2   7
BRANCH   3  23
ATOM     23  C   UNL d   1       5.002  -0.488  -1.104  0.00  0.00     0.036 A 
ATOM     24  C   UNL d   1       5.650  -1.688  -0.811  0.00  0.00     0.032 A 
ATOM     25  C   UNL d   1       6.039  -1.984   0.503  0.00  0.00     0.039 A 
ATOM     26  C   UNL d   1       5.831  -1.058   1.526  0.00  0.00     0.078 A 
ATOM     27  C   UNL d   1       5.226   0.163   1.220  0.00  0.00     0.039 A 
ATOM     28  C   UNL d   1       4.813   0.447  -0.083  0.00  0.00     0.032 A 
BRANCH  26  29
ATOM     29  O   UNL d   1       6.175  -1.197   2.838  0.00  0.00    -0.255 OA
BRANCH  29  30
ATOM     30  C   UNL d   1       6.724  -2.436   3.252  0.00  0.00     0.530 C 
ATOM     31  F   UNL d   1       7.858  -2.722   2.579  0.00  0.00    -0.144 F 
ATOM     32  F   UNL d   1       7.026  -2.356   4.567  0.00  0.00    -0.144 F 
ATOM     33  F   UNL d   1       5.834  -3.437   3.085  0.00  0.00    -0.144 F 
ENDBRANCH  29  30
ENDBRANCH  26  29
ENDBRANCH   3  23
TORSDOF 7
