REMARK  7 active torsions:
REMARK  status: ('A' for Active; 'I' for Inactive)
REMARK    1  A    between atoms: C_4  and  C_1 
REMARK    2  A    between atoms: C_2  and  C_10 
REMARK    3  A    between atoms: C_9  and  C_3 
REMARK    4  A    between atoms: O_18  and  C_4 
REMARK    5  A    between atoms: N_5  and  C_11 
REMARK    6  A    between atoms: O_19  and  C_8 
REMARK    7  A    between atoms: O_20  and  C_9 
ROOT
ATOM      1  C   UNL d   1       1.489  -0.257   0.241  0.00  0.00     0.082 A 
ATOM      2  C   UNL d   1       0.631  -1.370   0.158  0.00  0.00     0.058 A 
ATOM      3  C   UNL d   1       0.960   1.047   0.094  0.00  0.00     0.049 A 
ATOM      4  C   UNL d   1      -0.750  -1.186  -0.027  0.00  0.00     0.019 A 
ATOM      5  C   UNL d   1      -1.284   0.091  -0.114  0.00  0.00     0.003 A 
ATOM      6  C   UNL d   1      -0.436   1.191  -0.047  0.00  0.00     0.030 A 
ENDROOT
BRANCH   3   7
ATOM      7  N   UNL d   1       1.768   2.209   0.157  0.00  0.00    -0.364 N 
ATOM      8  C   UNL d   1       1.568   3.128  -0.739  0.00  0.00     0.102 C 
ATOM      9  HN  UNL d   1       2.480   2.320   0.880  1.00  0.00     0.165 HD
BRANCH   8  10
ATOM     10  C   UNL d   1       2.353   4.376  -0.791  0.00  0.00     0.016 A 
ATOM     11  C   UNL d   1       1.903   5.453  -1.562  0.00  0.00     0.099 A 
ATOM     12  C   UNL d   1       2.670   6.621  -1.637  0.00  0.00     0.069 A 
ATOM     13 CL   UNL d   1       2.128   7.959  -2.583  0.00  0.00    -0.081 Cl
ATOM     14  C   UNL d   1       3.880   6.717  -0.954  0.00  0.00     0.050 A 
ATOM     15  C   UNL d   1       4.317   5.640  -0.183  0.00  0.00     0.036 A 
ATOM     16  C   UNL d   1       3.560   4.472  -0.091  0.00  0.00     0.039 A 
ATOM     17 CL   UNL d   1       5.817   5.750   0.653  0.00  0.00    -0.084 Cl
BRANCH  11  18
ATOM     18  O   UNL d   1       0.708   5.362  -2.229  0.00  0.00    -0.358 OA
ATOM     19  H   UNL d   1       0.553   6.214  -2.682  0.00  0.00     0.217 HD
ENDBRANCH  11  18
ENDBRANCH   8  10
ENDBRANCH   3   7
BRANCH   1  20
ATOM     20  C   UNL d   1       2.887  -0.458   0.689  0.00  0.00     0.296 C 
ATOM     21  O   UNL d   1       3.175  -1.217   1.601  0.00  0.00    -0.259 OA
BRANCH  20  22
ATOM     22  O   UNL d   1       3.760   0.300  -0.019  0.00  0.00    -0.322 OA
ATOM     23  C   UNL d   1       5.074   0.317   0.542  0.00  0.00     0.213 C 
ENDBRANCH  20  22
ENDBRANCH   1  20
BRANCH   2  24
ATOM     24  C   UNL d   1       1.062  -2.782   0.272  0.00  0.00     0.294 C 
ATOM     25  O   UNL d   1       0.384  -3.623   0.844  0.00  0.00    -0.259 OA
BRANCH  24  26
ATOM     26  O   UNL d   1       2.156  -3.008  -0.491  0.00  0.00    -0.322 OA
ATOM     27  C   UNL d   1       2.579  -4.376  -0.566  0.00  0.00     0.213 C 
ENDBRANCH  24  26
ENDBRANCH   2  24
TORSDOF 7
