REMARK  8 active torsions:
REMARK  status: ('A' for Active; 'I' for Inactive)
REMARK    1  A    between atoms: N_5  and  C_1 
REMARK    2  A    between atoms: N_6  and  C_1 
REMARK       I    between atoms: C_2  and  N_4 
REMARK    3  A    between atoms: C_3  and  C_2 
REMARK    4  A    between atoms: N_4  and  N_5 
REMARK    5  A    between atoms: C_17  and  N_6 
REMARK    6  A    between atoms: O_22  and  C_11 
REMARK    7  A    between atoms: O_21  and  C_12 
REMARK    8  A    between atoms: C_18  and  C_14 
ROOT
ATOM      1  N   UNL d   1       0.436   1.095   0.835  0.00  0.00    -0.273 N 
ATOM      2  H   UNL d   1      -0.584   1.124   0.822  0.00  0.00     0.189 HD
ENDROOT
BRANCH   1   3
ATOM      3  N   UNL d   1       1.030   1.673   1.965  0.00  0.00    -0.264 N 
ATOM      4  C   UNL d   1       0.280   2.596   2.676  0.00  0.00     0.270 C 
ATOM      5  O   UNL d   1      -0.913   2.815   2.458  0.00  0.00    -0.266 OA
ATOM      6  H   UNL d   1       2.043   1.758   1.930  0.00  0.00     0.190 HD
BRANCH   4   7
ATOM      7  C   UNL d   1       1.012   3.364   3.721  0.00  0.00     0.038 A 
ATOM      8  C   UNL d   1       0.600   4.669   4.029  0.00  0.00     0.054 A 
ATOM      9  C   UNL d   1       1.281   5.405   5.002  0.00  0.00     0.071 A 
ATOM     10  C   UNL d   1       2.346   4.814   5.694  0.00  0.00     0.073 A 
ATOM     11  C   UNL d   1       2.719   3.499   5.432  0.00  0.00     0.071 A 
ATOM     12  C   UNL d   1       2.076   2.783   4.422  0.00  0.00     0.054 A 
BRANCH   9  13
ATOM     13  O   UNL d   1       1.013   6.693   5.376  0.00  0.00    -0.356 OA
ATOM     14  C   UNL d   1      -0.059   7.352   4.714  0.00  0.00     0.210 C 
ENDBRANCH   9  13
BRANCH  11  15
ATOM     15  O   UNL d   1       3.716   2.820   6.085  0.00  0.00    -0.356 OA
ATOM     16  C   UNL d   1       3.923   3.208   7.442  0.00  0.00     0.210 C 
ENDBRANCH  11  15
ENDBRANCH   4   7
ENDBRANCH   1   3
BRANCH   1  17
ATOM     17  C   UNL d   1       1.038   0.090   0.108  0.00  0.00     0.191 C 
ATOM     18  S   UNL d   1       2.332  -0.833   0.624  0.00  0.00    -0.039 SA
BRANCH  17  19
ATOM     19  N   UNL d   1       0.469  -0.149  -1.123  0.00  0.00    -0.332 N 
ATOM     20  H   UNL d   1       0.679  -1.051  -1.538  0.00  0.00     0.168 HD
BRANCH  19  21
ATOM     21  C   UNL d   1      -0.048   0.828  -2.010  0.00  0.00     0.034 A 
ATOM     22  C   UNL d   1       0.296   2.179  -1.915  0.00  0.00     0.030 A 
ATOM     23  C   UNL d   1      -0.158   3.103  -2.861  0.00  0.00     0.010 A 
ATOM     24  C   UNL d   1      -0.977   2.703  -3.924  0.00  0.00    -0.055 A 
ATOM     25  C   UNL d   1      -1.333   1.348  -4.005  0.00  0.00     0.010 A 
ATOM     26  C   UNL d   1      -0.856   0.416  -3.069  0.00  0.00     0.030 A 
BRANCH  24  27
ATOM     27  C   UNL d   1      -1.454   3.698  -4.971  0.00  0.00     0.010 C 
ATOM     28  C   UNL d   1      -2.273   4.832  -4.347  0.00  0.00     0.015 C 
ATOM     29  C   UNL d   1      -0.291   4.282  -5.782  0.00  0.00     0.015 C 
ENDBRANCH  24  27
ENDBRANCH  19  21
ENDBRANCH  17  19
ENDBRANCH   1  17
TORSDOF 8
