REMARK  5 active torsions:
REMARK  status: ('A' for Active; 'I' for Inactive)
REMARK    1  A    between atoms: S_8  and  C_1 
REMARK    2  A    between atoms: C_13  and  N_4 
REMARK    3  A    between atoms: C_7  and  C_9 
REMARK    4  A    between atoms: C_17  and  S_8 
REMARK    5  A    between atoms: C_19  and  C_17 
ROOT
ATOM      1  C   UNL d   1       2.360   0.095  -0.056  0.00  0.00     0.148 A 
ATOM      2  N   UNL d   1       1.669  -1.020  -0.020  0.00  0.00    -0.335 N 
ATOM      3  HN  UNL d   1       2.032  -1.973  -0.002  1.00  0.00     0.168 HD
ATOM      4  N   UNL d   1       1.550   1.209  -0.105  0.00  0.00    -0.321 N 
ATOM      5  C   UNL d   1       0.357  -0.631  -0.011  0.00  0.00     0.062 A 
ATOM      6  C   UNL d   1       0.241   0.758  -0.048  0.00  0.00     0.063 A 
ATOM      7  C   UNL d   1      -2.062  -0.814   0.025  0.00  0.00     0.050 A 
ATOM      8  C   UNL d   1      -0.797  -1.428   0.024  0.00  0.00     0.048 A 
ATOM      9  C   UNL d   1      -1.006   1.396  -0.037  0.00  0.00     0.033 A 
ATOM     10  C   UNL d   1      -2.149   0.587  -0.001  0.00  0.00     0.018 A 
ENDROOT
BRANCH   1  11
ATOM     11  S   UNL d   1       4.093   0.163  -0.023  0.00  0.00    -0.089 SA
BRANCH  11  12
ATOM     12  C   UNL d   1       4.508  -1.491  -0.649  0.00  0.00     0.121 C 
BRANCH  12  13
ATOM     13  C   UNL d   1       6.003  -1.715  -0.653  0.00  0.00    -0.048 A 
ATOM     14  C   UNL d   1       6.620  -2.398   0.407  0.00  0.00     0.009 A 
ATOM     15  C   UNL d   1       8.003  -2.596   0.415  0.00  0.00     0.024 A 
ATOM     16  C   UNL d   1       8.778  -2.106  -0.632  0.00  0.00     0.034 A 
ATOM     17  C   UNL d   1       8.184  -1.418  -1.688  0.00  0.00     0.024 A 
ATOM     18 CL   UNL d   1      10.482  -2.347  -0.620  0.00  0.00    -0.084 Cl
ATOM     19  C   UNL d   1       6.800  -1.222  -1.699  0.00  0.00     0.009 A 
ENDBRANCH  12  13
ENDBRANCH  11  12
ENDBRANCH   1  11
BRANCH   4  20
ATOM     20  C   UNL d   1       1.979   2.598  -0.263  0.00  0.00     0.084 C 
ATOM     21  C   UNL d   1       1.477   3.212  -1.573  0.00  0.00     0.032 C 
ATOM     22  C   UNL d   1       1.633   3.464   0.948  0.00  0.00     0.032 C 
ENDBRANCH   4  20
BRANCH   7  23
ATOM     23  C   UNL d   1      -3.323  -1.641   0.040  0.00  0.00     0.417 C 
ATOM     24  F   UNL d   1      -3.100  -2.983   0.096  0.00  0.00    -0.166 F 
ATOM     25  F   UNL d   1      -4.122  -1.351   1.105  0.00  0.00    -0.166 F 
ATOM     26  F   UNL d   1      -4.090  -1.436  -1.067  0.00  0.00    -0.166 F 
ENDBRANCH   7  23
TORSDOF 5
