REMARK  7 active torsions:
REMARK  status: ('A' for Active; 'I' for Inactive)
REMARK    1  A    between atoms: N_3  and  C_1 
REMARK    2  A    between atoms: C_2  and  N_3 
REMARK    3  A    between atoms: N_11  and  C_2 
REMARK    4  A    between atoms: N_6  and  C_13 
REMARK    5  A    between atoms: C_19  and  N_11 
REMARK    6  A    between atoms: C_13  and  C_14 
REMARK    7  A    between atoms: C_14  and  C_19 
ROOT
ATOM      1  C   UNL d   1       3.821   0.305   0.235  0.00  0.00     0.172 C 
ATOM      2  S   UNL d   1       3.738   1.872  -0.337  0.00  0.00    -0.041 SA
ENDROOT
BRANCH   1   3
ATOM      3  N   UNL d   1       2.766  -0.482   0.694  0.00  0.00    -0.332 N 
ATOM      4  H   UNL d   1       3.056  -1.026   1.492  0.00  0.00     0.168 HD
BRANCH   3   5
ATOM      5  C   UNL d   1       1.368  -0.229   0.633  0.00  0.00     0.046 A 
ATOM      6  C   UNL d   1       0.692  -0.025  -0.591  0.00  0.00    -0.034 A 
ATOM      7  C   UNL d   1      -0.707   0.139  -0.590  0.00  0.00     0.015 A 
ATOM      8  C   UNL d   1       1.361  -0.032  -1.942  0.00  0.00     0.050 C 
ATOM      9  C   UNL d   1      -1.458   0.026   0.582  0.00  0.00    -0.061 A 
ATOM     10  C   UNL d   1      -0.788  -0.221   1.779  0.00  0.00     0.015 A 
ATOM     11  C   UNL d   1      -2.952   0.132   0.536  0.00  0.00     0.048 C 
ATOM     12  C   UNL d   1       0.613  -0.347   1.824  0.00  0.00    -0.034 A 
ATOM     13  C   UNL d   1       1.204  -0.579   3.194  0.00  0.00     0.050 C 
ENDBRANCH   3   5
ENDBRANCH   1   3
BRANCH   1  14
ATOM     14  N   UNL d   1       5.005  -0.408   0.423  0.00  0.00    -0.367 N 
ATOM     15  H   UNL d   1       4.874  -1.410   0.480  0.00  0.00     0.161 HD
BRANCH  14  16
ATOM     16  C   UNL d   1       6.359   0.012   0.077  0.00  0.00     0.123 C 
BRANCH  16  17
ATOM     17  C   UNL d   1       6.967   1.007   1.070  0.00  0.00     0.050 C 
BRANCH  17  18
ATOM     18  C   UNL d   1       8.369   1.424   0.603  0.00  0.00     0.274 C 
BRANCH  18  19
ATOM     19  N   UNL d   1       9.032   2.402   1.482  0.00  0.00     0.092 N 
ATOM     20  C   UNL d   1       8.370   3.729   1.498  0.00  0.00     0.298 C 
ATOM     21  C   UNL d   1       8.534   4.525   0.192  0.00  0.00     0.198 C 
ATOM     22  O   UNL d   1       9.918   4.705  -0.134  0.00  0.00    -0.388 OA
ATOM     23  C   UNL d   1      10.589   3.443  -0.232  0.00  0.00     0.198 C 
ATOM     24  C   UNL d   1      10.440   2.620   1.062  0.00  0.00     0.298 C 
ENDBRANCH  18  19
ENDBRANCH  17  18
ENDBRANCH  16  17
ENDBRANCH  14  16
ENDBRANCH   1  14
TORSDOF 7
