REMARK  2 active torsions:
REMARK  status: ('A' for Active; 'I' for Inactive)
REMARK    1  A    between atoms: C_13  and  C_11 
REMARK    2  A    between atoms: O_20  and  C_13 
ROOT
ATOM      1  N   UNL d   1       0.252   0.651   0.025  0.00  0.00    -0.239 N 
ATOM      2  C   UNL d   1       0.420  -0.711   0.068  0.00  0.00     0.175 A 
ATOM      3  C   UNL d   1       1.548   1.153   0.054  0.00  0.00     0.148 A 
ATOM      4  C   UNL d   1      -0.966   1.313  -0.061  0.00  0.00     0.257 A 
ATOM      5  N   UNL d   1       2.396   0.139   0.092  0.00  0.00    -0.282 N 
ATOM      6  HN  UNL d   1       3.413   0.216   0.108  1.00  0.00     0.188 HD
ATOM      7  N   UNL d   1       1.688  -1.026   0.107  0.00  0.00    -0.277 N 
ATOM      8  HN  UNL d   1       2.076  -1.969   0.141  1.00  0.00     0.189 HD
ATOM      9  C   UNL d   1      -2.191   0.494  -0.024  0.00  0.00     0.100 A 
ATOM     10  S   UNL d   1      -0.851  -1.869   0.038  0.00  0.00    -0.046 SA
ATOM     11  C   UNL d   1      -2.240  -0.843   0.015  0.00  0.00     0.088 A 
ATOM     12  C   UNL d   1       2.006   2.519   0.036  0.00  0.00     0.051 A 
ATOM     13  S   UNL d   1       3.481   2.907  -0.770  0.00  0.00    -0.098 SA
ATOM     14  O   UNL d   1      -1.029   2.529  -0.164  0.00  0.00    -0.268 OA
ATOM     15  C   UNL d   1       1.473   3.646   0.634  0.00  0.00     0.023 A 
ATOM     16  C   UNL d   1       3.364   4.559  -0.360  0.00  0.00     0.050 A 
ATOM     17  C   UNL d   1       2.237   4.825   0.381  0.00  0.00     0.009 A 
ENDROOT
BRANCH  11  18
ATOM     18  C   UNL d   1      -3.557  -1.570   0.027  0.00  0.00     0.300 C 
ATOM     19  O   UNL d   1      -3.672  -2.787   0.038  0.00  0.00    -0.259 OA
BRANCH  18  20
ATOM     20  O   UNL d   1      -4.603  -0.701   0.020  0.00  0.00    -0.322 OA
ATOM     21  C   UNL d   1      -5.882  -1.342   0.019  0.00  0.00     0.213 C 
ENDBRANCH  18  20
ENDBRANCH  11  18
TORSDOF 2
