REMARK  7 active torsions:
REMARK  status: ('A' for Active; 'I' for Inactive)
REMARK    1  A    between atoms: C_5  and  C_1 
REMARK    2  A    between atoms: C_6  and  C_2 
REMARK    3  A    between atoms: N_23  and  C_6 
REMARK    4  A    between atoms: O_12  and  N_9 
REMARK    5  A    between atoms: C_11  and  O_12 
REMARK    6  A    between atoms: C_15  and  C_11 
REMARK    7  A    between atoms: C_16  and  C_17 
ROOT
ATOM      1  C   UNL d   1       0.140  -2.835   0.866  0.00  0.00     0.114 C 
ATOM      2  N   UNL d   1      -0.623  -3.558   0.113  0.00  0.00    -0.245 N 
ATOM      3  HN  UNL d   1      -0.290  -4.327  -0.469  1.00  0.00     0.196 HD
ENDROOT
BRANCH   1   4
ATOM      4  C   UNL d   1       1.540  -3.212   1.013  0.00  0.00     0.065 A 
ATOM      5  C   UNL d   1       2.175  -4.501   0.812  0.00  0.00     0.086 A 
ATOM      6  N   UNL d   1       3.472  -4.436   1.152  0.00  0.00    -0.259 N 
ATOM      7  O   UNL d   1       3.736  -3.130   1.462  0.00  0.00    -0.241 OA
ATOM      8  HN  UNL d   1       4.134  -5.212   1.176  1.00  0.00     0.195 HD
ATOM      9  C   UNL d   1       2.595  -2.393   1.362  0.00  0.00     0.088 A 
ATOM     10  C   UNL d   1       2.799  -0.954   1.626  0.00  0.00     0.080 C 
BRANCH   5  11
ATOM     11  C   UNL d   1       1.614  -5.775   0.353  0.00  0.00     0.054 A 
ATOM     12  C   UNL d   1       0.438  -6.266   0.931  0.00  0.00     0.130 A 
ATOM     13  F   UNL d   1      -0.135  -5.623   1.964  0.00  0.00    -0.205 F 
ATOM     14  C   UNL d   1      -0.176  -7.434   0.474  0.00  0.00     0.043 A 
ATOM     15  C   UNL d   1       0.411  -8.177  -0.544  0.00  0.00     0.005 A 
ATOM     16  C   UNL d   1       1.616  -7.748  -1.095  0.00  0.00     0.025 A 
ATOM     17  C   UNL d   1       2.211  -6.553  -0.659  0.00  0.00     0.049 A 
ATOM     18 CL   UNL d   1       3.681  -6.106  -1.465  0.00  0.00    -0.083 Cl
ENDBRANCH   5  11
ENDBRANCH   1   4
BRANCH   1  19
ATOM     19  N   UNL d   1      -0.240  -1.749   1.606  0.00  0.00    -0.286 NA
ATOM     20  H   UNL d   1       0.262  -1.577   2.470  0.00  0.00     0.125 HD
ATOM     21  H   UNL d   1      -1.243  -1.652   1.702  0.00  0.00     0.125 HD
ENDBRANCH   1  19
BRANCH   2  22
ATOM     22  O   UNL d   1      -1.977  -3.153   0.194  0.00  0.00    -0.193 OA
BRANCH  22  23
ATOM     23  C   UNL d   1      -2.787  -4.186  -0.208  0.00  0.00     0.315 C 
ATOM     24  O   UNL d   1      -2.437  -5.294  -0.590  0.00  0.00    -0.257 OA
BRANCH  23  25
ATOM     25  C   UNL d   1      -4.227  -3.806  -0.124  0.00  0.00     0.041 A 
ATOM     26  C   UNL d   1      -5.175  -4.750  -0.536  0.00  0.00     0.018 A 
ATOM     27  C   UNL d   1      -6.541  -4.437  -0.558  0.00  0.00     0.009 A 
ATOM     28  C   UNL d   1      -7.005  -3.165  -0.184  0.00  0.00    -0.051 A 
ATOM     29  C   UNL d   1      -6.046  -2.257   0.305  0.00  0.00     0.009 A 
ATOM     30  C   UNL d   1      -4.676  -2.564   0.327  0.00  0.00     0.018 A 
BRANCH  28  31
ATOM     31  C   UNL d   1      -8.495  -2.781  -0.309  0.00  0.00    -0.024 C 
ATOM     32  C   UNL d   1      -8.676  -1.280  -0.636  0.00  0.00     0.019 C 
ATOM     33  C   UNL d   1      -9.213  -3.557  -1.440  0.00  0.00     0.019 C 
ATOM     34  C   UNL d   1      -9.217  -3.086   1.018  0.00  0.00     0.019 C 
ENDBRANCH  28  31
ENDBRANCH  23  25
ENDBRANCH  22  23
ENDBRANCH   2  22
TORSDOF 7
