REMARK  2 active torsions:
REMARK  status: ('A' for Active; 'I' for Inactive)
REMARK    1  A    between atoms: C_2  and  S_1 
REMARK    2  A    between atoms: N_10  and  S_1 
ROOT
ATOM      1  C   UNL d   1       0.499  -1.381   0.917  0.00  0.00     0.091 A 
ATOM      2  C   UNL d   1       1.120  -2.608   0.618  0.00  0.00     0.033 A 
ATOM      3  C   UNL d   1      -0.531  -1.339   1.859  0.00  0.00     0.029 A 
ATOM      4  C   UNL d   1       0.723  -3.798   1.249  0.00  0.00    -0.054 A 
ATOM      5  C   UNL d   1      -0.919  -2.526   2.499  0.00  0.00     0.027 A 
ATOM      6  C   UNL d   1      -0.306  -3.755   2.205  0.00  0.00    -0.055 A 
ATOM      7  I   UNL d   1      -1.613   0.372   2.433  0.00  0.00    -0.043 I 
ATOM      8  C   UNL d   1       1.385  -5.095   0.867  0.00  0.00     0.049 C 
ATOM      9  C   UNL d   1      -0.788  -5.000   2.901  0.00  0.00     0.049 C 
ENDROOT
BRANCH   1  10
ATOM     10  S   UNL d   1       1.049   0.046   0.021  0.00  0.00     0.240 S 
ATOM     11  O   UNL d   1      -0.081   0.683  -0.612  0.00  0.00    -0.206 OA
ATOM     12  O   UNL d   1       2.238  -0.295  -0.725  0.00  0.00    -0.206 OA
BRANCH  10  13
ATOM     13  N   UNL d   1       1.594   1.081   1.224  0.00  0.00    -0.225 NA
ATOM     14  H   UNL d   1       0.966   1.882   1.306  0.00  0.00     0.136 HD
ATOM     15  H   UNL d   1       2.566   1.335   1.043  0.00  0.00     0.136 HD
ENDBRANCH  10  13
ENDBRANCH   1  10
TORSDOF 2
