REMARK  3 active torsions:
REMARK  status: ('A' for Active; 'I' for Inactive)
REMARK    1  A    between atoms: N_12  and  N_5 
REMARK    2  A    between atoms: C_17  and  N_7 
REMARK    3  A    between atoms: C_24  and  C_19 
ROOT
ATOM      1  C   UNL d   1      -0.252  -0.792   0.025  0.00  0.00     0.146 A 
ATOM      2  C   UNL d   1      -0.270   0.577  -0.062  0.00  0.00     0.097 A 
ATOM      3  N   UNL d   1       0.857  -1.570   0.027  0.00  0.00    -0.328 N 
ATOM      4  HN  UNL d   1       0.820  -2.579   0.170  1.00  0.00     0.168 HD
ATOM      5  N   UNL d   1       2.081   0.460  -0.360  0.00  0.00    -0.208 N 
ATOM      6  C   UNL d   1       0.960   1.309  -0.181  0.00  0.00     0.283 C 
ATOM      7  N   UNL d   1      -1.583  -1.203   0.064  0.00  0.00    -0.239 N 
ATOM      8  C   UNL d   1       1.976  -0.927  -0.168  0.00  0.00     0.104 C 
ATOM      9  N   UNL d   1      -2.421  -0.115   0.041  0.00  0.00    -0.302 N 
ATOM     10  HN  UNL d   1      -3.441  -0.117   0.066  1.00  0.00     0.186 HD
ATOM     11  C   UNL d   1      -1.613   0.945  -0.022  0.00  0.00     0.128 A 
ATOM     12  O   UNL d   1       0.968   2.536  -0.112  0.00  0.00    -0.265 OA
ATOM     13  C   UNL d   1       3.237  -1.767  -0.185  0.00  0.00     0.091 C 
ENDROOT
BRANCH   5  14
ATOM     14  N   UNL d   1       3.356   0.947  -0.627  0.00  0.00    -0.300 N 
ATOM     15  C   UNL d   1       3.494   2.101  -1.193  0.00  0.00     0.119 C 
ATOM     16  HN  UNL d   1       4.178   0.397  -0.378  1.00  0.00     0.186 HD
BRANCH  15  17
ATOM     17  C   UNL d   1       4.830   2.654  -1.483  0.00  0.00    -0.017 A 
ATOM     18  C   UNL d   1       4.943   4.036  -1.657  0.00  0.00     0.052 A 
ATOM     19  C   UNL d   1       6.196   4.532  -1.940  0.00  0.00     0.105 A 
ATOM     20  O   UNL d   1       6.502   5.843  -2.129  0.00  0.00    -0.323 OA
ATOM     21  C   UNL d   1       7.294   3.712  -2.064  0.00  0.00     0.105 A 
ATOM     22  C   UNL d   1       7.915   5.755  -2.407  0.00  0.00     0.352 A 
ATOM     23  O   UNL d   1       8.427   4.407  -2.353  0.00  0.00    -0.323 OA
ATOM     24  C   UNL d   1       7.206   2.345  -1.905  0.00  0.00     0.040 A 
ATOM     25  C   UNL d   1       5.951   1.808  -1.603  0.00  0.00     0.016 A 
ENDBRANCH  15  17
ENDBRANCH   5  14
BRANCH   7  26
ATOM     26  C   UNL d   1      -2.123  -2.524   0.082  0.00  0.00     0.058 A 
ATOM     27  C   UNL d   1      -1.306  -3.656   0.198  0.00  0.00     0.031 A 
ATOM     28  C   UNL d   1      -1.865  -4.938   0.179  0.00  0.00     0.002 A 
ATOM     29  C   UNL d   1      -3.241  -5.101   0.044  0.00  0.00     0.000 A 
ATOM     30  C   UNL d   1      -4.064  -3.983  -0.062  0.00  0.00     0.002 A 
ATOM     31  C   UNL d   1      -3.512  -2.699  -0.038  0.00  0.00     0.031 A 
ENDBRANCH   7  26
TORSDOF 3
