REMARK  3 active torsions:
REMARK  status: ('A' for Active; 'I' for Inactive)
REMARK       I    between atoms: C_3  and  N_1 
REMARK    1  A    between atoms: C_2  and  C_3 
REMARK    2  A    between atoms: C_4  and  C_6 
REMARK       I    between atoms: N_13  and  C_6 
REMARK    3  A    between atoms: C_18  and  N_13 
ROOT
ATOM      1  N   UNL d   1       1.852  -1.205  -0.826  0.00  0.00    -0.334 N 
ATOM      2  C   UNL d   1       2.997  -1.993  -1.043  0.00  0.00     0.264 C 
ATOM      3  C   UNL d   1       2.037   0.246  -0.535  0.00  0.00     0.180 C 
ATOM      4  C   UNL d   1       0.482  -1.745  -0.749  0.00  0.00     0.132 C 
ATOM      5  C   UNL d   1       1.208   0.691   0.686  0.00  0.00     0.040 C 
ATOM      6  C   UNL d   1      -0.276  -1.294   0.510  0.00  0.00     0.008 C 
ATOM      7  C   UNL d   1      -0.256   0.232   0.642  0.00  0.00    -0.006 C 
ATOM      8  O   UNL d   1       4.120  -1.494  -0.988  0.00  0.00    -0.267 OA
ATOM      9  C   UNL d   1      -1.722  -1.807   0.539  0.00  0.00     0.006 C 
ATOM     10  C   UNL d   1      -1.101   0.895  -0.460  0.00  0.00     0.005 C 
ATOM     11  C   UNL d   1      -2.536   0.366  -0.478  0.00  0.00     0.000 C 
ATOM     12  C   UNL d   1      -2.602  -1.159  -0.527  0.00  0.00     0.000 C 
ENDROOT
BRANCH   2  13
ATOM     13  C   UNL d   1       2.844  -3.406  -1.291  0.00  0.00     0.110 A 
ATOM     14  C   UNL d   1       3.370  -4.500  -0.616  0.00  0.00     0.043 A 
ATOM     15  N   UNL d   1       3.031  -5.733  -1.168  0.00  0.00    -0.296 N 
ATOM     16  C   UNL d   1       4.228  -4.506   0.597  0.00  0.00     0.071 C 
ATOM     17  N   UNL d   1       2.327  -5.601  -2.279  0.00  0.00    -0.061 NA
ATOM     18  HN  UNL d   1       3.295  -6.631  -0.763  1.00  0.00     0.183 HD
ATOM     19  S   UNL d   1       2.091  -4.004  -2.710  0.00  0.00     0.007 SA
ENDBRANCH   2  13
BRANCH   3  20
ATOM     20  C   UNL d   1       1.839   1.281  -1.677  0.00  0.00     0.241 C 
ATOM     21  N   UNL d   1       1.746   0.790  -2.961  0.00  0.00    -0.351 N 
ATOM     22  H   UNL d   1       1.793  -0.215  -3.079  0.00  0.00     0.163 HD
ATOM     23  O   UNL d   1       1.800   2.487  -1.433  0.00  0.00    -0.271 OA
BRANCH  21  24
ATOM     24  C   UNL d   1       1.438   1.637  -4.133  0.00  0.00     0.022 C 
ATOM     25  C   UNL d   1       2.484   2.751  -4.325  0.00  0.00     0.037 C 
ATOM     26  C   UNL d   1       1.445   0.757  -5.394  0.00  0.00     0.037 C 
ATOM     27  C   UNL d   1       0.038   2.265  -3.994  0.00  0.00     0.037 C 
ENDBRANCH  21  24
ENDBRANCH   3  20
TORSDOF 3
