REMARK  3 active torsions:
REMARK  status: ('A' for Active; 'I' for Inactive)
REMARK    1  A    between atoms: C_8  and  C_1 
REMARK    2  A    between atoms: C_7  and  C_6 
REMARK    3  A    between atoms: O_18  and  C_10 
ROOT
ATOM      1  C   UNL d   1       1.024  -1.159   0.035  0.00  0.00     0.125 A 
ATOM      2  N   UNL d   1      -0.317  -1.153  -0.001  0.00  0.00    -0.322 N 
ATOM      3  HN  UNL d   1      -0.868  -2.011  -0.008  1.00  0.00     0.169 HD
ATOM      4  N   UNL d   1       1.802  -0.059   0.044  0.00  0.00    -0.337 N 
ATOM      5  HN  UNL d   1       2.820  -0.129   0.069  1.00  0.00     0.167 HD
ATOM      6  C   UNL d   1       1.177   1.147   0.018  0.00  0.00     0.122 A 
ATOM      7  C   UNL d   1      -0.200   1.247  -0.019  0.00  0.00     0.090 A 
ATOM      8  C   UNL d   1      -0.873   0.057  -0.027  0.00  0.00     0.143 A 
ENDROOT
BRANCH   1   9
ATOM      9  C   UNL d   1       1.726  -2.445   0.076  0.00  0.00     0.049 A 
ATOM     10  S   UNL d   1       0.864  -3.933   0.125  0.00  0.00    -0.098 SA
ATOM     11  C   UNL d   1       2.302  -4.856   0.167  0.00  0.00     0.050 A 
ATOM     12  C   UNL d   1       3.425  -4.063   0.141  0.00  0.00     0.009 A 
ATOM     13  C   UNL d   1       3.093  -2.678   0.088  0.00  0.00     0.023 A 
ENDBRANCH   1   9
BRANCH   8  14
ATOM     14  O   UNL d   1      -2.230   0.045  -0.063  0.00  0.00    -0.346 OA
ATOM     15  H   UNL d   1      -2.405  -0.914  -0.059  0.00  0.00     0.219 HD
ENDBRANCH   8  14
BRANCH   6  16
ATOM     16  C   UNL d   1       2.005   2.420   0.032  0.00  0.00     0.432 C 
ATOM     17  F   UNL d   1       3.350   2.210   0.060  0.00  0.00    -0.165 F 
ATOM     18  F   UNL d   1       1.772   3.204  -1.060  0.00  0.00    -0.165 F 
ATOM     19  F   UNL d   1       1.728   3.207   1.112  0.00  0.00    -0.165 F 
ENDBRANCH   6  16
TORSDOF 3
