REMARK  7 active torsions:
REMARK  status: ('A' for Active; 'I' for Inactive)
REMARK    1  A    between atoms: O_10  and  C_1 
REMARK    2  A    between atoms: C_5  and  C_2 
REMARK    3  A    between atoms: O_11  and  C_3 
REMARK    4  A    between atoms: O_12  and  C_4 
REMARK       I    between atoms: N_9  and  C_5 
REMARK    5  A    between atoms: C_13  and  N_9 
REMARK    6  A    between atoms: C_15  and  C_13 
REMARK    7  A    between atoms: C_14  and  C_15 
ROOT
ATOM      1  C   UNL d   1       1.373  -0.364  -0.068  0.00  0.00     0.135 A 
ATOM      2  C   UNL d   1      -1.379   0.224  -0.074  0.00  0.00     0.037 A 
ATOM      3  C   UNL d   1       0.420  -1.401   0.070  0.00  0.00     0.105 A 
ATOM      4  C   UNL d   1       0.938   0.973  -0.141  0.00  0.00     0.105 A 
ATOM      5  C   UNL d   1      -0.438   1.252  -0.141  0.00  0.00     0.057 A 
ATOM      6  C   UNL d   1      -0.947  -1.100   0.017  0.00  0.00     0.057 A 
ENDROOT
BRANCH   2   7
ATOM      7  C   UNL d   1      -2.843   0.492  -0.122  0.00  0.00     0.251 C 
ATOM      8  O   UNL d   1      -3.597  -0.342  -0.602  0.00  0.00    -0.268 OA
ATOM      9  N   UNL d   1      -3.274   1.679   0.433  0.00  0.00    -0.357 N 
ATOM     10  H   UNL d   1      -2.638   2.201   1.021  0.00  0.00     0.162 HD
BRANCH   9  11
ATOM     11  C   UNL d   1      -4.694   1.992   0.485  0.00  0.00     0.127 C 
BRANCH  11  12
ATOM     12  C   UNL d   1      -4.953   3.360   1.111  0.00  0.00     0.058 C 
BRANCH  12  13
ATOM     13  C   UNL d   1      -6.417   3.719   1.156  0.00  0.00    -0.057 A 
ATOM     14  C   UNL d   1      -7.214   3.327   2.241  0.00  0.00     0.007 A 
ATOM     15  C   UNL d   1      -8.565   3.679   2.291  0.00  0.00     0.001 A 
ATOM     16  C   UNL d   1      -9.132   4.419   1.257  0.00  0.00     0.000 A 
ATOM     17  C   UNL d   1      -8.353   4.800   0.166  0.00  0.00     0.001 A 
ATOM     18  C   UNL d   1      -7.003   4.449   0.113  0.00  0.00     0.007 A 
ENDBRANCH  12  13
ENDBRANCH  11  12
ENDBRANCH   9  11
ENDBRANCH   2   7
BRANCH   4  19
ATOM     19  O   UNL d   1       1.679   2.123  -0.222  0.00  0.00    -0.353 OA
ATOM     20  C   UNL d   1       3.095   2.043  -0.205  0.00  0.00     0.210 C 
ENDBRANCH   4  19
BRANCH   3  21
ATOM     21  O   UNL d   1       0.900  -2.674   0.267  0.00  0.00    -0.353 OA
ATOM     22  C   UNL d   1      -0.018  -3.641   0.764  0.00  0.00     0.210 C 
ENDBRANCH   3  21
BRANCH   1  23
ATOM     23  O   UNL d   1       2.719  -0.630  -0.010  0.00  0.00    -0.351 OA
ATOM     24  C   UNL d   1       3.193  -1.562  -0.985  0.00  0.00     0.210 C 
ENDBRANCH   1  23
TORSDOF 7
