REMARK  5 active torsions:
REMARK  status: ('A' for Active; 'I' for Inactive)
REMARK    1  A    between atoms: C_2  and  C_1 
REMARK       I    between atoms: N_6  and  C_2 
REMARK    2  A    between atoms: N_3  and  N_6 
REMARK    3  A    between atoms: C_5  and  C_7 
REMARK    4  A    between atoms: N_11  and  C_8 
REMARK    5  A    between atoms: O_12  and  C_9 
ROOT
ATOM      1  C   UNL d   1      -1.096   1.414  -0.271  0.00  0.00     0.271 C 
ATOM      2  N   UNL d   1      -1.885   2.556  -0.174  0.00  0.00    -0.266 N 
ATOM      3  O   UNL d   1       0.122   1.433  -0.448  0.00  0.00    -0.266 OA
ATOM      4  H   UNL d   1      -2.855   2.494   0.104  0.00  0.00     0.190 HD
ENDROOT
BRANCH   2   5
ATOM      5  N   UNL d   1      -1.267   3.773  -0.229  0.00  0.00    -0.301 N 
ATOM      6  C   UNL d   1      -1.959   4.869  -0.114  0.00  0.00     0.035 C 
ATOM      7  C   UNL d   1      -3.466   4.908   0.007  0.00  0.00     0.070 C 
ATOM      8  HN  UNL d   1      -0.257   3.823  -0.360  1.00  0.00     0.186 HD
BRANCH   6   9
ATOM      9  C   UNL d   1      -1.207   6.166  -0.138  0.00  0.00     0.021 A 
ATOM     10  C   UNL d   1      -0.010   6.279  -0.860  0.00  0.00     0.077 A 
ATOM     11  C   UNL d   1       0.688   7.487  -0.900  0.00  0.00     0.037 A 
ATOM     12  C   UNL d   1       0.211   8.591  -0.198  0.00  0.00     0.003 A 
ATOM     13  C   UNL d   1      -0.964   8.486   0.546  0.00  0.00     0.001 A 
ATOM     14  C   UNL d   1      -1.672   7.279   0.579  0.00  0.00     0.016 A 
BRANCH  10  15
ATOM     15  O   UNL d   1       0.542   5.241  -1.562  0.00  0.00    -0.360 OA
ATOM     16  H   UNL d   1       0.127   4.406  -1.242  0.00  0.00     0.217 HD
ENDBRANCH  10  15
ENDBRANCH   6   9
ENDBRANCH   2   5
BRANCH   1  17
ATOM     17  C   UNL d   1      -1.792   0.095  -0.137  0.00  0.00     0.054 A 
ATOM     18  C   UNL d   1      -1.095  -1.012   0.403  0.00  0.00     0.021 A 
ATOM     19  C   UNL d   1      -1.760  -2.242   0.508  0.00  0.00     0.024 A 
ATOM     20  C   UNL d   1      -3.053  -2.405   0.008  0.00  0.00     0.002 A 
ATOM     21  C   UNL d   1      -3.716  -1.326  -0.570  0.00  0.00     0.001 A 
ATOM     22  C   UNL d   1      -3.091  -0.077  -0.641  0.00  0.00     0.019 A 
BRANCH  18  23
ATOM     23  N   UNL d   1       0.152  -0.875   1.049  0.00  0.00    -0.302 NA
ATOM     24  H   UNL d   1       0.669  -0.066   0.679  0.00  0.00     0.124 HD
ATOM     25  H   UNL d   1       0.720  -1.716   1.020  0.00  0.00     0.124 HD
ENDBRANCH  18  23
ENDBRANCH   1  17
TORSDOF 5
