REMARK  2 active torsions:
REMARK  status: ('A' for Active; 'I' for Inactive)
REMARK       I    between atoms: N_3  and  C_1 
REMARK       I    between atoms: N_5  and  C_1 
REMARK    1  A    between atoms: C_4  and  N_3 
REMARK    2  A    between atoms: C_13  and  N_5 
ROOT
ATOM      1  N   UNL d   1       1.785   1.008  -7.595  0.00  0.00    -0.191 NA
ATOM      2  C   UNL d   1       1.523   0.861  -6.473  0.00  0.00     0.099 C 
ATOM      3  C   UNL d   1       1.203   0.669  -5.090  0.00  0.00     0.044 A 
ATOM      4  C   UNL d   1       0.578   0.281  -2.373  0.00  0.00     0.036 A 
ATOM      5  C   UNL d   1       2.198   0.293  -4.190  0.00  0.00     0.025 A 
ATOM      6  C   UNL d   1      -0.108   0.845  -4.634  0.00  0.00     0.025 A 
ATOM      7  C   UNL d   1       1.883   0.095  -2.844  0.00  0.00     0.031 A 
ATOM      8  C   UNL d   1      -0.420   0.645  -3.283  0.00  0.00     0.031 A 
ENDROOT
BRANCH   4   9
ATOM      9  N   UNL d   1       0.218   0.080  -1.019  0.00  0.00    -0.309 N 
ATOM     10  C   UNL d   1       1.115   0.059   0.039  0.00  0.00     0.325 C 
ATOM     11  N   UNL d   1       0.525  -0.416   1.199  0.00  0.00    -0.309 N 
ATOM     12  O   UNL d   1       2.287   0.403  -0.062  0.00  0.00    -0.247 OA
ATOM     13  H   UNL d   1      -0.336  -0.928   1.084  0.00  0.00     0.170 HD
ATOM     14  H   UNL d   1      -0.754   0.198  -0.775  0.00  0.00     0.170 HD
BRANCH  11  15
ATOM     15  C   UNL d   1       1.178  -0.551   2.450  0.00  0.00     0.037 A 
ATOM     16  C   UNL d   1       2.391   0.079   2.744  0.00  0.00     0.036 A 
ATOM     17  C   UNL d   1       3.045  -0.132   3.964  0.00  0.00    -0.059 A 
ATOM     18  C   UNL d   1       4.372   0.516   4.230  0.00  0.00     0.048 C 
ATOM     19  C   UNL d   1       2.456  -0.966   4.915  0.00  0.00     0.013 A 
ATOM     20  C   UNL d   1       1.223  -1.581   4.659  0.00  0.00    -0.059 A 
ATOM     21  C   UNL d   1       0.586  -1.363   3.426  0.00  0.00     0.036 A 
ATOM     22  C   UNL d   1       0.616  -2.470   5.705  0.00  0.00     0.048 C 
ENDBRANCH  11  15
ENDBRANCH   4   9
TORSDOF 2
