REMARK  4 active torsions:
REMARK  status: ('A' for Active; 'I' for Inactive)
REMARK    1  A    between atoms: C_3  and  C_1 
REMARK    2  A    between atoms: C_6  and  C_2 
REMARK       I    between atoms: N_9  and  C_3 
REMARK    3  A    between atoms: C_12  and  N_9 
REMARK    4  A    between atoms: C_10  and  C_12 
ROOT
ATOM      1  C   UNL d   1       1.986  -3.793   0.093  0.00  0.00     0.092 A 
ATOM      2  C   UNL d   1       3.326  -3.311   0.337  0.00  0.00     0.085 A 
ATOM      3  N   UNL d   1       4.175  -4.349   0.438  0.00  0.00    -0.259 N 
ATOM      4  HN  UNL d   1       5.173  -4.296   0.643  1.00  0.00     0.195 HD
ATOM      5  O   UNL d   1       3.457  -5.483   0.215  0.00  0.00    -0.241 OA
ATOM      6  C   UNL d   1       2.156  -5.169   0.025  0.00  0.00     0.090 A 
ATOM      7  C   UNL d   1       1.273  -6.345  -0.143  0.00  0.00     0.080 C 
ENDROOT
BRANCH   1   8
ATOM      8  C   UNL d   1       0.719  -3.085   0.005  0.00  0.00     0.257 C 
ATOM      9  N   UNL d   1      -0.261  -3.716  -0.739  0.00  0.00    -0.348 N 
ATOM     10  H   UNL d   1      -0.010  -4.489  -1.337  0.00  0.00     0.163 HD
ATOM     11  O   UNL d   1       0.523  -2.012   0.570  0.00  0.00    -0.267 OA
BRANCH   9  12
ATOM     12  C   UNL d   1      -1.660  -3.297  -0.777  0.00  0.00     0.114 C 
ATOM     13  C   UNL d   1      -2.406  -3.895   0.416  0.00  0.00     0.037 C 
BRANCH  12  14
ATOM     14  C   UNL d   1      -2.212  -3.512  -2.188  0.00  0.00    -0.030 A 
ATOM     15  C   UNL d   1      -3.158  -4.459  -2.640  0.00  0.00    -0.053 A 
ATOM     16  C   UNL d   1      -3.587  -4.411  -3.991  0.00  0.00     0.014 A 
ATOM     17  C   UNL d   1      -3.832  -5.516  -1.808  0.00  0.00     0.049 C 
ATOM     18  C   UNL d   1      -3.063  -3.502  -4.914  0.00  0.00    -0.061 A 
ATOM     19  C   UNL d   1      -2.093  -2.607  -4.483  0.00  0.00     0.007 A 
ATOM     20  C   UNL d   1      -3.584  -3.458  -6.319  0.00  0.00     0.048 C 
ATOM     21  C   UNL d   1      -1.681  -2.615  -3.151  0.00  0.00     0.010 A 
ENDBRANCH  12  14
ENDBRANCH   9  12
ENDBRANCH   1   8
BRANCH   2  22
ATOM     22  C   UNL d   1       3.890  -1.969   0.546  0.00  0.00     0.015 A 
ATOM     23  C   UNL d   1       5.085  -1.562  -0.090  0.00  0.00     0.046 A 
ATOM     24 CL   UNL d   1       5.809  -2.444  -1.398  0.00  0.00    -0.083 Cl
ATOM     25  C   UNL d   1       5.748  -0.391   0.304  0.00  0.00     0.025 A 
ATOM     26  C   UNL d   1       5.215   0.412   1.308  0.00  0.00     0.002 A 
ATOM     27  C   UNL d   1       4.007   0.057   1.903  0.00  0.00     0.001 A 
ATOM     28  C   UNL d   1       3.353  -1.125   1.532  0.00  0.00     0.015 A 
ENDBRANCH   2  22
TORSDOF 4
