REMARK  3 active torsions:
REMARK  status: ('A' for Active; 'I' for Inactive)
REMARK    1  A    between atoms: S_2  and  C_1 
REMARK    2  A    between atoms: C_3  and  S_2 
REMARK    3  A    between atoms: N_11  and  C_8 
ROOT
ATOM      1  S   UNL d   1       0.000  -2.492  -0.057  0.00  0.00    -0.085 SA
ENDROOT
BRANCH   1   2
ATOM      2  C   UNL d   1      -0.100  -0.975   0.915  0.00  0.00     0.051 A 
ATOM      3  C   UNL d   1       0.087  -0.985   2.310  0.00  0.00     0.068 A 
ATOM      4 CL   UNL d   1       0.373  -2.414   3.237  0.00  0.00    -0.081 Cl
ATOM      5  C   UNL d   1       0.086   0.226   2.998  0.00  0.00     0.113 A 
ATOM      6  N   UNL d   1      -0.072   1.434   2.415  0.00  0.00    -0.372 N 
ATOM      7  C   UNL d   1      -0.233   1.428   1.073  0.00  0.00     0.113 A 
ATOM      8  HN  UNL d   1      -0.069   2.300   2.955  1.00  0.00     0.164 HD
ATOM      9  C   UNL d   1      -0.256   0.278   0.292  0.00  0.00     0.068 A 
ATOM     10 CL   UNL d   1      -0.435   0.485  -1.414  0.00  0.00    -0.081 Cl
ENDBRANCH   1   2
BRANCH   1  11
ATOM     11  C   UNL d   1      -1.701  -3.070  -0.053  0.00  0.00     0.026 A 
ATOM     12  C   UNL d   1      -2.572  -2.819  -1.136  0.00  0.00     0.023 A 
ATOM     13  C   UNL d   1      -3.856  -3.384  -1.117  0.00  0.00     0.024 A 
ATOM     14  C   UNL d   1      -4.297  -4.134  -0.027  0.00  0.00     0.002 A 
ATOM     15  C   UNL d   1      -3.443  -4.370   1.044  0.00  0.00     0.001 A 
ATOM     16  C   UNL d   1      -2.146  -3.850   1.024  0.00  0.00     0.021 A 
BRANCH  12  17
ATOM     17  N   UNL d   1      -2.119  -2.238  -2.335  0.00  0.00    -0.302 NA
ATOM     18  H   UNL d   1      -1.296  -1.653  -2.206  0.00  0.00     0.124 HD
ATOM     19  H   UNL d   1      -2.843  -1.781  -2.879  0.00  0.00     0.124 HD
ENDBRANCH  12  17
ENDBRANCH   1  11
TORSDOF 3
