REMARK  7 active torsions:
REMARK  status: ('A' for Active; 'I' for Inactive)
REMARK    1  A    between atoms: C_21  and  C_1 
REMARK    2  A    between atoms: C_7  and  C_17 
REMARK    3  A    between atoms: O_22  and  C_9 
REMARK    4  A    between atoms: C_10  and  C_24 
REMARK       I    between atoms: N_16  and  C_10 
REMARK    5  A    between atoms: N_12  and  N_16 
REMARK    6  A    between atoms: S_19  and  C_21 
REMARK    7  A    between atoms: C_24  and  S_19 
ROOT
ATOM      1  C   UNL d   1      -4.866   3.950   0.564  0.00  0.00     0.245 C 
ATOM      2  N   UNL d   1      -4.084   4.501   1.566  0.00  0.00    -0.270 N 
ATOM      3  O   UNL d   1      -6.064   3.679   0.671  0.00  0.00    -0.271 OA
ATOM      4  H   UNL d   1      -3.094   4.654   1.402  0.00  0.00     0.190 HD
ENDROOT
BRANCH   1   5
ATOM      5  C   UNL d   1      -4.149   3.775  -0.763  0.00  0.00     0.178 C 
BRANCH   5   6
ATOM      6  S   UNL d   1      -2.419   3.220  -0.605  0.00  0.00    -0.155 SA
BRANCH   6   7
ATOM      7  C   UNL d   1      -2.707   1.550   0.091  0.00  0.00     0.114 C 
BRANCH   7   8
ATOM      8  C   UNL d   1      -1.408   0.744   0.197  0.00  0.00    -0.036 A 
ATOM      9  C   UNL d   1      -0.459   1.047   1.219  0.00  0.00    -0.048 A 
ATOM     10  C   UNL d   1       0.801   0.397   1.222  0.00  0.00    -0.049 A 
ATOM     11  C   UNL d   1      -0.771   2.108   2.254  0.00  0.00     0.049 C 
ATOM     12  C   UNL d   1       1.876   0.730   2.239  0.00  0.00     0.049 C 
ATOM     13  C   UNL d   1       1.079  -0.621   0.268  0.00  0.00    -0.049 A 
ATOM     14  C   UNL d   1       0.085  -1.026  -0.661  0.00  0.00    -0.049 A 
ATOM     15  C   UNL d   1       2.467  -1.239   0.250  0.00  0.00     0.049 C 
ATOM     16  C   UNL d   1      -1.139  -0.308  -0.734  0.00  0.00    -0.048 A 
ATOM     17  C   UNL d   1       0.383  -2.210  -1.556  0.00  0.00     0.049 C 
ATOM     18  C   UNL d   1      -2.185  -0.637  -1.779  0.00  0.00     0.049 C 
ENDBRANCH   7   8
ENDBRANCH   6   7
ENDBRANCH   5   6
ENDBRANCH   1   5
BRANCH   2  19
ATOM     19  N   UNL d   1      -4.638   4.800   2.778  0.00  0.00    -0.308 N 
ATOM     20  C   UNL d   1      -3.818   5.246   3.676  0.00  0.00     0.121 C 
ATOM     21  HN  UNL d   1      -5.633   4.679   2.964  1.00  0.00     0.186 HD
BRANCH  20  22
ATOM     22  C   UNL d   1      -4.288   5.642   5.020  0.00  0.00     0.017 A 
ATOM     23  C   UNL d   1      -3.377   6.081   5.981  0.00  0.00     0.099 A 
ATOM     24  C   UNL d   1      -3.834   6.483   7.244  0.00  0.00     0.069 A 
ATOM     25 CL   UNL d   1      -2.716   7.026   8.440  0.00  0.00    -0.081 Cl
ATOM     26  C   UNL d   1      -5.194   6.454   7.545  0.00  0.00     0.050 A 
ATOM     27  C   UNL d   1      -6.098   6.015   6.583  0.00  0.00     0.036 A 
ATOM     28  C   UNL d   1      -5.658   5.609   5.323  0.00  0.00     0.039 A 
ATOM     29 CL   UNL d   1      -7.778   5.985   6.952  0.00  0.00    -0.084 Cl
BRANCH  23  30
ATOM     30  O   UNL d   1      -2.038   6.112   5.684  0.00  0.00    -0.358 OA
ATOM     31  H   UNL d   1      -1.566   6.437   6.476  0.00  0.00     0.217 HD
ENDBRANCH  23  30
ENDBRANCH  20  22
ENDBRANCH   2  19
TORSDOF 7
