REMARK  4 active torsions:
REMARK  status: ('A' for Active; 'I' for Inactive)
REMARK    1  A    between atoms: C_2  and  S_1 
REMARK    2  A    between atoms: N_7  and  S_1 
REMARK       I    between atoms: C_3  and  N_4 
REMARK    3  A    between atoms: C_13  and  C_3 
REMARK    4  A    between atoms: N_4  and  C_5 
ROOT
ATOM      1  C   UNL d   1       0.511  -0.991  -1.602  0.00  0.00     0.081 A 
ATOM      2  C   UNL d   1      -0.460  -1.127  -3.834  0.00  0.00     0.042 A 
ATOM      3  C   UNL d   1      -0.155  -0.397  -2.679  0.00  0.00     0.055 A 
ATOM      4  C   UNL d   1      -0.162  -2.511  -3.850  0.00  0.00    -0.035 A 
ATOM      5  C   UNL d   1       0.826  -2.345  -1.624  0.00  0.00     0.026 A 
ATOM      6  C   UNL d   1       0.478  -3.103  -2.738  0.00  0.00     0.010 A 
ATOM      7  C   UNL d   1      -0.488  -3.415  -5.011  0.00  0.00     0.050 C 
ENDROOT
BRANCH   2   8
ATOM      8  N   UNL d   1      -1.061  -0.511  -4.967  0.00  0.00    -0.326 N 
ATOM      9  C   UNL d   1      -1.299   0.852  -5.161  0.00  0.00     0.226 C 
ATOM     10  O   UNL d   1      -0.984   1.750  -4.385  0.00  0.00    -0.273 OA
ATOM     11  H   UNL d   1      -1.303  -1.126  -5.732  0.00  0.00     0.169 HD
BRANCH   9  12
ATOM     12  C   UNL d   1      -2.008   1.165  -6.492  0.00  0.00     0.078 C 
ATOM     13  C   UNL d   1      -1.107   0.885  -7.702  0.00  0.00     0.014 C 
ATOM     14  C   UNL d   1      -0.067   1.979  -7.934  0.00  0.00     0.001 C 
ATOM     15  C   UNL d   1      -0.724   3.343  -8.097  0.00  0.00     0.000 C 
ATOM     16  C   UNL d   1      -1.580   3.692  -6.887  0.00  0.00     0.001 C 
ATOM     17  C   UNL d   1      -2.589   2.594  -6.542  0.00  0.00     0.014 C 
ENDBRANCH   9  12
ENDBRANCH   2   8
BRANCH   1  18
ATOM     18  S   UNL d   1       0.903  -0.014  -0.166  0.00  0.00     0.260 S 
ATOM     19  O   UNL d   1       1.611  -0.883   0.759  0.00  0.00    -0.200 OA
ATOM     20  O   UNL d   1      -0.311   0.660   0.236  0.00  0.00    -0.200 OA
BRANCH  18  21
ATOM     21  N   UNL d   1       2.021   1.137  -0.726  0.00  0.00    -0.315 N 
ATOM     22  C   UNL d   1       3.331   0.633  -1.166  0.00  0.00     0.162 C 
ATOM     23  C   UNL d   1       1.518   2.261  -1.533  0.00  0.00     0.162 C 
ENDBRANCH  18  21
ENDBRANCH   1  18
TORSDOF 4
