REMARK  1 active torsions:
REMARK  status: ('A' for Active; 'I' for Inactive)
REMARK    1  A    between atoms: C_11  and  C_5 
ROOT
ATOM      1  N   UNL d   1      -0.250   0.644  -0.007  0.00  0.00    -0.310 N 
ATOM      2  C   UNL d   1      -0.236  -0.733  -0.015  0.00  0.00     0.130 A 
ATOM      3  C   UNL d   1       1.013  -1.446  -0.022  0.00  0.00     0.275 A 
ATOM      4  N   UNL d   1       2.135  -0.628  -0.013  0.00  0.00    -0.320 N 
ATOM      5  C   UNL d   1       2.100   0.751   0.001  0.00  0.00     0.061 A 
ATOM      6  C   UNL d   1       0.918   1.392   0.002  0.00  0.00     0.128 A 
ATOM      7  N   UNL d   1      -2.377  -0.004  -0.004  0.00  0.00    -0.354 N 
ATOM      8  HN  UNL d   1      -3.396   0.014  -0.000  1.00  0.00     0.166 HD
ATOM      9  C   UNL d   1      -1.563   1.030  -0.003  0.00  0.00     0.188 A 
ATOM     10  C   UNL d   1      -1.561  -1.118  -0.009  0.00  0.00     0.039 A 
ATOM     11  O   UNL d   1       1.130  -2.667  -0.034  0.00  0.00    -0.266 OA
ATOM     12  C   UNL d   1      -2.158  -2.473  -0.005  0.00  0.00     0.071 C 
ATOM     13  H   UNL d   1       3.025  -1.112  -0.015  0.00  0.00     0.169 HD
ENDROOT
BRANCH   5  14
ATOM     14  C   UNL d   1       3.371   1.479   0.028  0.00  0.00    -0.008 A 
ATOM     15  C   UNL d   1       3.987   1.769   1.253  0.00  0.00     0.015 A 
ATOM     16  C   UNL d   1       5.183   2.491   1.286  0.00  0.00     0.024 A 
ATOM     17  C   UNL d   1       5.763   2.924   0.095  0.00  0.00     0.034 A 
ATOM     18  C   UNL d   1       5.165   2.631  -1.129  0.00  0.00     0.024 A 
ATOM     19 CL   UNL d   1       7.224   3.832   0.138  0.00  0.00    -0.084 Cl
ATOM     20  C   UNL d   1       3.970   1.905  -1.163  0.00  0.00     0.015 A 
ENDBRANCH   5  14
TORSDOF 1
