REMARK  5 active torsions:
REMARK  status: ('A' for Active; 'I' for Inactive)
REMARK    1  A    between atoms: C_7  and  C_1 
REMARK    2  A    between atoms: C_10  and  C_6 
REMARK       I    between atoms: C_9  and  N_12 
REMARK       I    between atoms: N_15  and  C_9 
REMARK    3  A    between atoms: C_11  and  C_10 
REMARK       I    between atoms: N_16  and  C_11 
REMARK    4  A    between atoms: N_12  and  N_16 
REMARK    5  A    between atoms: C_21  and  N_15 
ROOT
ATOM      1  C   UNL d   1       2.487  -2.102   0.117  0.00  0.00     0.243 C 
ATOM      2  N   UNL d   1       3.067  -0.927   0.586  0.00  0.00    -0.266 N 
ATOM      3  O   UNL d   1       3.169  -3.100  -0.127  0.00  0.00    -0.271 OA
ATOM      4  H   UNL d   1       2.474  -0.295   1.130  0.00  0.00     0.190 HD
ENDROOT
BRANCH   1   5
ATOM      5  C   UNL d   1       0.997  -2.090  -0.171  0.00  0.00     0.191 C 
BRANCH   5   6
ATOM      6  C   UNL d   1       0.249  -1.332   0.848  0.00  0.00     0.157 A 
ATOM      7  N   UNL d   1       0.649  -0.329   1.594  0.00  0.00    -0.321 N 
ATOM      8  C   UNL d   1      -0.434  -0.114   2.424  0.00  0.00     0.156 A 
ATOM      9  HN  UNL d   1       1.539   0.169   1.566  1.00  0.00     0.169 HD
ATOM     10  N   UNL d   1      -1.488  -0.902   2.147  0.00  0.00    -0.241 N 
ATOM     11  O   UNL d   1      -1.034  -1.709   1.101  0.00  0.00    -0.222 OA
ATOM     12  HN  UNL d   1      -2.404  -0.909   2.596  1.00  0.00     0.196 HD
BRANCH   8  13
ATOM     13  C   UNL d   1      -0.350   0.811   3.547  0.00  0.00     0.094 A 
ATOM     14  N   UNL d   1       0.799   1.541   3.654  0.00  0.00    -0.360 N 
ATOM     15  C   UNL d   1       0.911   2.299   4.768  0.00  0.00     0.105 A 
ATOM     16  HN  UNL d   1       1.525   1.516   2.938  1.00  0.00     0.165 HD
ATOM     17  C   UNL d   1      -0.072   2.339   5.741  0.00  0.00     0.104 A 
ATOM     18  N   UNL d   1      -1.224   1.638   5.635  0.00  0.00    -0.372 N 
ATOM     19  C   UNL d   1      -1.341   0.874   4.519  0.00  0.00     0.121 A 
ATOM     20  HN  UNL d   1      -1.954   1.681   6.346  1.00  0.00     0.164 HD
ENDBRANCH   8  13
ENDBRANCH   5   6
ENDBRANCH   1   5
BRANCH   2  21
ATOM     21  N   UNL d   1       4.412  -1.047   1.014  0.00  0.00    -0.249 N 
ATOM     22  C   UNL d   1       5.353  -0.084   0.709  0.00  0.00     0.339 C 
ATOM     23  N   UNL d   1       4.873   1.201   0.659  0.00  0.00    -0.308 N 
ATOM     24  O   UNL d   1       6.525  -0.424   0.560  0.00  0.00    -0.245 OA
ATOM     25  H   UNL d   1       4.012   1.351   1.165  0.00  0.00     0.170 HD
ATOM     26  H   UNL d   1       4.792  -1.992   0.917  0.00  0.00     0.192 HD
BRANCH  23  27
ATOM     27  C   UNL d   1       5.618   2.336   0.275  0.00  0.00     0.036 A 
ATOM     28  C   UNL d   1       6.734   2.256  -0.567  0.00  0.00     0.031 A 
ATOM     29  C   UNL d   1       7.429   3.410  -0.943  0.00  0.00     0.026 A 
ATOM     30  C   UNL d   1       7.017   4.651  -0.467  0.00  0.00     0.034 A 
ATOM     31  C   UNL d   1       5.911   4.746   0.374  0.00  0.00     0.026 A 
ATOM     32 CL   UNL d   1       7.871   6.071  -0.927  0.00  0.00    -0.084 Cl
ATOM     33  C   UNL d   1       5.203   3.591   0.732  0.00  0.00     0.031 A 
ENDBRANCH  23  27
ENDBRANCH   2  21
TORSDOF 5
