REMARK  7 active torsions:
REMARK  status: ('A' for Active; 'I' for Inactive)
REMARK    1  A    between atoms: C_3  and  C_1 
REMARK    2  A    between atoms: O_14  and  C_1 
REMARK       I    between atoms: C_2  and  N_4 
REMARK    3  A    between atoms: C_10  and  C_2 
REMARK    4  A    between atoms: N_4  and  C_11 
REMARK    5  A    between atoms: S_6  and  C_10 
REMARK    6  A    between atoms: C_12  and  S_6 
REMARK    7  A    between atoms: C_22  and  O_14 
ROOT
ATOM      1  C   UNL d   1      -3.127   4.935   1.916  0.00  0.00     0.231 C 
ATOM      2  N   UNL d   1      -2.037   4.720   1.092  0.00  0.00    -0.327 N 
ATOM      3  O   UNL d   1      -3.628   4.103   2.671  0.00  0.00    -0.272 OA
ATOM      4  H   UNL d   1      -1.747   5.521   0.536  0.00  0.00     0.169 HD
ENDROOT
BRANCH   2   5
ATOM      5  C   UNL d   1      -1.324   3.522   0.890  0.00  0.00     0.034 A 
ATOM      6  C   UNL d   1      -1.639   2.317   1.520  0.00  0.00     0.030 A 
ATOM      7  C   UNL d   1      -0.881   1.165   1.279  0.00  0.00     0.020 A 
ATOM      8  C   UNL d   1       0.208   1.201   0.403  0.00  0.00     0.039 A 
ATOM      9  C   UNL d   1       0.520   2.403  -0.242  0.00  0.00     0.020 A 
ATOM     10  C   UNL d   1      -0.241   3.554   0.000  0.00  0.00     0.030 A 
BRANCH   8  11
ATOM     11  C   UNL d   1       1.049   0.002   0.132  0.00  0.00     0.293 C 
ATOM     12  O   UNL d   1       1.933  -0.028  -0.709  0.00  0.00    -0.259 OA
BRANCH  11  13
ATOM     13  O   UNL d   1       0.698  -1.011   0.963  0.00  0.00    -0.318 OA
BRANCH  13  14
ATOM     14  C   UNL d   1       1.431  -2.236   0.818  0.00  0.00     0.174 C 
ATOM     15  C   UNL d   1       2.706  -2.191   1.640  0.00  0.00     0.034 C 
ENDBRANCH  13  14
ENDBRANCH  11  13
ENDBRANCH   8  11
ENDBRANCH   2   5
BRANCH   1  16
ATOM     16  C   UNL d   1      -3.666   6.364   1.923  0.00  0.00     0.182 C 
BRANCH  16  17
ATOM     17  S   UNL d   1      -3.376   7.237   0.346  0.00  0.00    -0.121 SA
BRANCH  17  18
ATOM     18  C   UNL d   1      -4.241   8.789   0.550  0.00  0.00     0.001 A 
ATOM     19  C   UNL d   1      -4.888   9.211   1.717  0.00  0.00     0.020 A 
ATOM     20  C   UNL d   1      -5.534  10.454   1.762  0.00  0.00     0.025 A 
ATOM     21  C   UNL d   1      -5.533  11.283   0.644  0.00  0.00     0.034 A 
ATOM     22  C   UNL d   1      -4.893  10.880  -0.523  0.00  0.00     0.025 A 
ATOM     23 CL   UNL d   1      -6.322  12.809   0.703  0.00  0.00    -0.084 Cl
ATOM     24  C   UNL d   1      -4.252   9.639  -0.566  0.00  0.00     0.020 A 
ENDBRANCH  17  18
ENDBRANCH  16  17
ENDBRANCH   1  16
TORSDOF 7
