REMARK  3 active torsions:
REMARK  status: ('A' for Active; 'I' for Inactive)
REMARK       I    between atoms: N_3  and  C_1 
REMARK    1  A    between atoms: C_9  and  C_1 
REMARK    2  A    between atoms: C_2  and  N_4 
REMARK    3  A    between atoms: N_4  and  N_3 
ROOT
ATOM      1  N   UNL d   1       0.656   2.016   1.565  0.00  0.00    -0.200 NA
ATOM      2  H   UNL d   1       1.639   2.171   1.296  0.00  0.00     0.153 HD
ENDROOT
BRANCH   1   3
ATOM      3  C   UNL d   1      -0.069   3.235   1.523  0.00  0.00     0.066 A 
ATOM      4  C   UNL d   1       0.133   4.183   2.542  0.00  0.00     0.142 A 
ATOM      5  C   UNL d   1      -0.569   5.384   2.580  0.00  0.00     0.086 A 
ATOM      6  F   UNL d   1       1.002   3.923   3.532  0.00  0.00    -0.204 F 
ATOM      7  C   UNL d   1      -1.467   5.665   1.562  0.00  0.00     0.119 A 
ATOM      8  C   UNL d   1      -1.651   4.780   0.505  0.00  0.00     0.044 A 
ATOM      9  F   UNL d   1      -2.164   6.807   1.593  0.00  0.00    -0.206 F 
ATOM     10  C   UNL d   1      -0.946   3.572   0.479  0.00  0.00     0.031 A 
ENDBRANCH   1   3
BRANCH   1  11
ATOM     11  N   UNL d   1       0.085   0.984   0.803  0.00  0.00    -0.286 N 
ATOM     12  C   UNL d   1       0.938   0.158   0.092  0.00  0.00     0.236 C 
ATOM     13  O   UNL d   1       2.138   0.428  -0.033  0.00  0.00    -0.272 OA
ATOM     14  H   UNL d   1      -0.826   0.663   1.119  0.00  0.00     0.184 HD
BRANCH  12  15
ATOM     15  C   UNL d   1       0.262  -1.101  -0.520  0.00  0.00     0.079 C 
ATOM     16  C   UNL d   1       0.359  -1.241  -2.065  0.00  0.00     0.014 C 
ATOM     17  C   UNL d   1      -1.037  -1.885  -2.043  0.00  0.00     0.002 C 
ATOM     18  C   UNL d   1      -1.281  -1.157  -0.710  0.00  0.00     0.014 C 
ENDBRANCH  12  15
ENDBRANCH   1  11
TORSDOF 3
