REMARK  5 active torsions:
REMARK  status: ('A' for Active; 'I' for Inactive)
REMARK       I    between atoms: N_2  and  C_1 
REMARK       I    between atoms: N_3  and  C_1 
REMARK    1  A    between atoms: C_10  and  N_2 
REMARK    2  A    between atoms: C_22  and  N_2 
REMARK    3  A    between atoms: C_12  and  N_3 
REMARK    4  A    between atoms: C_5  and  C_10 
REMARK    5  A    between atoms: C_19  and  C_22 
ROOT
ATOM      1  N   UNL d   1       2.150   1.302   5.457  0.00  0.00    -0.197 NA
ATOM      2  C   UNL d   1       1.715   0.769   4.519  0.00  0.00     0.060 C 
ATOM      3  C   UNL d   1       1.148   0.115   3.334  0.00  0.00     0.144 C 
ENDROOT
BRANCH   3   4
ATOM      4  C   UNL d   1       0.942   1.141   2.220  0.00  0.00     0.142 C 
BRANCH   4   5
ATOM      5  N   UNL d   1       0.339   0.601   0.993  0.00  0.00    -0.328 N 
ATOM      6  C   UNL d   1       1.164  -0.144   0.146  0.00  0.00     0.323 C 
ATOM      7  N   UNL d   1       0.674  -0.261  -1.137  0.00  0.00    -0.309 N 
ATOM      8  O   UNL d   1       2.261  -0.554   0.515  0.00  0.00    -0.247 OA
ATOM      9  H   UNL d   1       0.073   0.506  -1.403  0.00  0.00     0.170 HD
BRANCH   7  10
ATOM     10  C   UNL d   1       1.347  -0.900  -2.201  0.00  0.00     0.037 A 
ATOM     11  C   UNL d   1       2.102  -2.071  -2.041  0.00  0.00     0.039 A 
ATOM     12  C   UNL d   1       2.719  -2.615  -3.161  0.00  0.00    -0.021 A 
ATOM     13  C   UNL d   1       3.475  -3.879  -3.320  0.00  0.00     0.068 C 
ATOM     14  C   UNL d   1       2.611  -2.005  -4.401  0.00  0.00     0.075 A 
ATOM     15  C   UNL d   1       4.090  -3.624  -4.698  0.00  0.00     0.180 C 
ATOM     16  O   UNL d   1       3.278  -2.657  -5.404  0.00  0.00    -0.350 OA
ATOM     17  C   UNL d   1       1.866  -0.862  -4.588  0.00  0.00     0.039 A 
ATOM     18  C   UNL d   1       1.213  -0.320  -3.479  0.00  0.00     0.032 A 
ENDBRANCH   7  10
BRANCH   5  19
ATOM     19  C   UNL d   1      -1.125   0.524   0.924  0.00  0.00     0.173 C 
BRANCH  19  20
ATOM     20  C   UNL d   1      -1.756   1.885   0.832  0.00  0.00     0.000 A 
ATOM     21  S   UNL d   1      -3.352   2.097   1.437  0.00  0.00    -0.105 SA
ATOM     22  C   UNL d   1      -3.368   3.752   1.017  0.00  0.00     0.050 A 
ATOM     23  C   UNL d   1      -2.193   4.144   0.420  0.00  0.00     0.008 A 
ATOM     24  C   UNL d   1      -1.266   3.065   0.301  0.00  0.00     0.017 A 
ENDBRANCH  19  20
ENDBRANCH   5  19
ENDBRANCH   4   5
ENDBRANCH   3   4
TORSDOF 5
