REMARK  10 active torsions:
REMARK  status: ('A' for Active; 'I' for Inactive)
REMARK    1  A    between atoms: C_4  and  C_1 
REMARK    2  A    between atoms: O_13  and  C_2 
REMARK       I    between atoms: N_11  and  C_4 
REMARK    3  A    between atoms: C_5  and  C_7 
REMARK    4  A    between atoms: C_6  and  C_8 
REMARK    5  A    between atoms: C_9  and  C_23 
REMARK    6  A    between atoms: C_10  and  C_25 
REMARK    7  A    between atoms: C_14  and  N_11 
REMARK    8  A    between atoms: C_23  and  O_13 
REMARK    9  A    between atoms: O_22  and  C_18 
REMARK   10  A    between atoms: C_25  and  O_22 
ROOT
ATOM      1  C   UNL d   1       1.454   1.238   0.208  0.00  0.00     0.067 A 
ATOM      2  C   UNL d   1       0.044   1.268   0.084  0.00  0.00     0.108 A 
ATOM      3  C   UNL d   1      -0.683   0.053   0.107  0.00  0.00     0.112 A 
ATOM      4  C   UNL d   1      -2.111   0.067   0.165  0.00  0.00     0.105 C 
ATOM      5  N   UNL d   1      -3.272   0.062   0.151  0.00  0.00    -0.191 NA
ATOM      6  C   UNL d   1       2.114   0.007   0.331  0.00  0.00     0.023 A 
ATOM      7  C   UNL d   1       0.003  -1.175   0.141  0.00  0.00     0.092 A 
ATOM      8  C   UNL d   1       1.389  -1.186   0.296  0.00  0.00     0.039 A 
ENDROOT
BRANCH   2   9
ATOM      9  O   UNL d   1      -0.580   2.502   0.061  0.00  0.00    -0.340 OA
BRANCH   9  10
ATOM     10  C   UNL d   1      -1.455   2.719  -1.069  0.00  0.00     0.293 C 
BRANCH  10  11
ATOM     11  C   UNL d   1      -1.476   4.157  -1.587  0.00  0.00     0.408 C 
ATOM     12  F   UNL d   1      -0.358   4.853  -1.318  0.00  0.00    -0.169 F 
ATOM     13  F   UNL d   1      -1.644   4.156  -2.934  0.00  0.00    -0.169 F 
ATOM     14  F   UNL d   1      -2.521   4.841  -1.065  0.00  0.00    -0.169 F 
ENDBRANCH  10  11
ENDBRANCH   9  10
ENDBRANCH   2   9
BRANCH   7  15
ATOM     15  O   UNL d   1      -0.570  -2.425   0.112  0.00  0.00    -0.341 OA
BRANCH  15  16
ATOM     16  C   UNL d   1      -1.552  -2.653  -0.920  0.00  0.00     0.293 C 
BRANCH  16  17
ATOM     17  C   UNL d   1      -1.492  -4.072  -1.486  0.00  0.00     0.408 C 
ATOM     18  F   UNL d   1      -0.410  -4.758  -1.059  0.00  0.00    -0.169 F 
ATOM     19  F   UNL d   1      -2.591  -4.782  -1.142  0.00  0.00    -0.169 F 
ATOM     20  F   UNL d   1      -1.441  -4.041  -2.839  0.00  0.00    -0.169 F 
ENDBRANCH  16  17
ENDBRANCH  15  16
ENDBRANCH   7  15
BRANCH   1  21
ATOM     21  C   UNL d   1       2.256   2.487   0.059  0.00  0.00     0.259 C 
ATOM     22  N   UNL d   1       3.442   2.588   0.780  0.00  0.00    -0.323 N 
ATOM     23  H   UNL d   1       3.751   1.789   1.317  0.00  0.00     0.169 HD
ATOM     24  O   UNL d   1       1.862   3.297  -0.777  0.00  0.00    -0.267 OA
BRANCH  22  25
ATOM     25  C   UNL d   1       4.363   3.657   0.660  0.00  0.00     0.036 A 
ATOM     26  C   UNL d   1       3.992   4.923   0.199  0.00  0.00     0.045 A 
ATOM     27  C   UNL d   1       4.943   5.936  -0.005  0.00  0.00     0.050 A 
ATOM     28  C   UNL d   1       6.290   5.668   0.275  0.00  0.00     0.032 A 
ATOM     29  C   UNL d   1       6.685   4.413   0.762  0.00  0.00     0.050 A 
ATOM     30  C   UNL d   1       5.706   3.423   0.983  0.00  0.00     0.045 A 
BRANCH  27  31
ATOM     31  C   UNL d   1       4.494   7.275  -0.536  0.00  0.00     0.417 C 
ATOM     32  F   UNL d   1       5.534   8.095  -0.866  0.00  0.00    -0.166 F 
ATOM     33  F   UNL d   1       3.737   7.172  -1.662  0.00  0.00    -0.166 F 
ATOM     34  F   UNL d   1       3.748   7.971   0.364  0.00  0.00    -0.166 F 
ENDBRANCH  27  31
BRANCH  29  35
ATOM     35  C   UNL d   1       8.146   4.103   1.002  0.00  0.00     0.417 C 
ATOM     36  F   UNL d   1       8.985   5.102   0.615  0.00  0.00    -0.166 F 
ATOM     37  F   UNL d   1       8.421   3.866   2.313  0.00  0.00    -0.166 F 
ATOM     38  F   UNL d   1       8.553   2.992   0.327  0.00  0.00    -0.166 F 
ENDBRANCH  29  35
ENDBRANCH  22  25
ENDBRANCH   1  21
TORSDOF 10
