REMARK  2 active torsions:
REMARK  status: ('A' for Active; 'I' for Inactive)
REMARK    1  A    between atoms: C_4  and  C_1 
REMARK       I    between atoms: N_12  and  C_4 
REMARK    2  A    between atoms: C_15  and  N_12 
ROOT
ATOM      1  C   UNL d   1       3.923  -0.016   0.024  0.00  0.00     0.264 C 
ATOM      2  N   UNL d   1       4.553  -1.241  -0.155  0.00  0.00    -0.322 N 
ATOM      3  O   UNL d   1       4.552   1.031   0.160  0.00  0.00    -0.267 OA
ATOM      4  H   UNL d   1       3.963  -2.013  -0.443  0.00  0.00     0.169 HD
ENDROOT
BRANCH   2   5
ATOM      5  C   UNL d   1       5.925  -1.526   0.053  0.00  0.00     0.037 A 
ATOM      6  C   UNL d   1       6.803  -0.631   0.684  0.00  0.00     0.062 A 
ATOM      7  C   UNL d   1       8.125  -1.028   0.932  0.00  0.00     0.076 A 
ATOM      8  N   UNL d   1       9.158  -0.374   1.551  0.00  0.00    -0.282 N 
ATOM      9  C   UNL d   1       8.546  -2.288   0.534  0.00  0.00     0.074 A 
ATOM     10  N   UNL d   1      10.212  -1.181   1.557  0.00  0.00    -0.022 NA
ATOM     11  HN  UNL d   1       9.123   0.568   1.939  1.00  0.00     0.184 HD
ATOM     12  N   UNL d   1       9.847  -2.322   0.951  0.00  0.00    -0.282 N 
ATOM     13  H   UNL d   1      10.528  -3.067   0.872  0.00  0.00     0.184 HD
ATOM     14  C   UNL d   1       7.718  -3.201  -0.118  0.00  0.00     0.035 A 
ATOM     15  C   UNL d   1       6.393  -2.793  -0.339  0.00  0.00     0.032 A 
ENDBRANCH   2   5
BRANCH   1  16
ATOM     16  C   UNL d   1       2.461  -0.043   0.054  0.00  0.00     0.096 A 
ATOM     17  S   UNL d   1       1.575  -1.499  -0.119  0.00  0.00    -0.082 SA
ATOM     18  C   UNL d   1       0.065  -0.731   0.185  0.00  0.00     0.017 A 
ATOM     19  C   UNL d   1      -1.208  -1.336   0.226  0.00  0.00     0.020 A 
ATOM     20  C   UNL d   1       0.228   0.636   0.410  0.00  0.00     0.004 A 
ATOM     21  C   UNL d   1      -2.324  -0.554   0.539  0.00  0.00     0.001 A 
ATOM     22  C   UNL d   1      -2.183   0.798   0.810  0.00  0.00     0.001 A 
ATOM     23  C   UNL d   1      -0.925   1.398   0.738  0.00  0.00     0.014 A 
ATOM     24  C   UNL d   1       1.605   1.026   0.254  0.00  0.00     0.068 A 
ATOM     25 CL   UNL d   1       2.067   2.683   0.367  0.00  0.00    -0.082 Cl
ENDBRANCH   1  16
TORSDOF 2
