REMARK  8 active torsions:
REMARK  status: ('A' for Active; 'I' for Inactive)
REMARK    1  A    between atoms: C_12  and  C_1 
REMARK    2  A    between atoms: N_15  and  C_3 
REMARK    3  A    between atoms: C_13  and  C_8 
REMARK    4  A    between atoms: S_14  and  C_9 
REMARK    5  A    between atoms: O_19  and  C_12 
REMARK    6  A    between atoms: C_21  and  S_14 
REMARK    7  A    between atoms: C_26  and  O_19 
REMARK    8  A    between atoms: C_25  and  C_21 
ROOT
ATOM      1  C   UNL d   1      -2.439  -0.657   0.047  0.00  0.00     0.109 C 
ATOM      2  C   UNL d   1      -0.080  -0.898  -0.019  0.00  0.00     0.053 A 
ATOM      3  C   UNL d   1      -1.370  -1.536   0.142  0.00  0.00     0.064 C 
ATOM      4  C   UNL d   1      -0.254   0.477  -0.039  0.00  0.00     0.091 A 
ATOM      5  S   UNL d   1      -1.885   0.957  -0.049  0.00  0.00    -0.063 SA
ATOM      6  N   UNL d   1       0.705   1.413  -0.070  0.00  0.00    -0.330 N 
ATOM      7  HN  UNL d   1       0.506   2.414  -0.077  1.00  0.00     0.168 HD
ATOM      8  C   UNL d   1       1.263  -1.319  -0.143  0.00  0.00     0.059 A 
ATOM      9  C   UNL d   1       1.941   0.917  -0.089  0.00  0.00     0.145 A 
ATOM     10  N   UNL d   1       2.258  -0.384  -0.143  0.00  0.00    -0.335 N 
ATOM     11  HN  UNL d   1       3.235  -0.674  -0.184  1.00  0.00     0.168 HD
ENDROOT
BRANCH   9  12
ATOM     12  S   UNL d   1       3.248   2.118   0.038  0.00  0.00    -0.089 SA
BRANCH  12  13
ATOM     13  C   UNL d   1       4.579   1.263  -0.853  0.00  0.00     0.121 C 
BRANCH  13  14
ATOM     14  C   UNL d   1       5.829   2.116  -0.933  0.00  0.00    -0.049 A 
ATOM     15  C   UNL d   1       6.802   2.053   0.078  0.00  0.00     0.008 A 
ATOM     16  C   UNL d   1       7.954   2.841   0.006  0.00  0.00     0.001 A 
ATOM     17  C   UNL d   1       8.146   3.705  -1.070  0.00  0.00     0.000 A 
ATOM     18  C   UNL d   1       7.182   3.786  -2.074  0.00  0.00     0.001 A 
ATOM     19  C   UNL d   1       6.029   3.000  -2.005  0.00  0.00     0.008 A 
ENDBRANCH  13  14
ENDBRANCH  12  13
ENDBRANCH   9  12
BRANCH   8  20
ATOM     20  C   UNL d   1       1.693  -2.719  -0.326  0.00  0.00    -0.008 A 
ATOM     21  C   UNL d   1       0.965  -3.635  -1.108  0.00  0.00     0.015 A 
ATOM     22  C   UNL d   1       1.373  -4.965  -1.259  0.00  0.00     0.024 A 
ATOM     23  C   UNL d   1       2.561  -5.391  -0.678  0.00  0.00     0.034 A 
ATOM     24  C   UNL d   1       3.337  -4.498   0.054  0.00  0.00     0.024 A 
ATOM     25 CL   UNL d   1       3.077  -7.018  -0.879  0.00  0.00    -0.084 Cl
ATOM     26  C   UNL d   1       2.902  -3.178   0.231  0.00  0.00     0.015 A 
ENDBRANCH   8  20
BRANCH   1  27
ATOM     27  C   UNL d   1      -3.855  -0.993   0.059  0.00  0.00     0.302 C 
ATOM     28  O   UNL d   1      -4.298  -2.131   0.156  0.00  0.00    -0.259 OA
BRANCH  27  29
ATOM     29  O   UNL d   1      -4.644   0.117  -0.065  0.00  0.00    -0.317 OA
BRANCH  29  30
ATOM     30  C   UNL d   1      -6.058  -0.122  -0.112  0.00  0.00     0.174 C 
ATOM     31  C   UNL d   1      -6.619  -0.308   1.286  0.00  0.00     0.034 C 
ENDBRANCH  29  30
ENDBRANCH  27  29
ENDBRANCH   1  27
BRANCH   3  32
ATOM     32  N   UNL d   1      -1.556  -2.862   0.355  0.00  0.00    -0.397 N 
ATOM     33  H   UNL d   1      -0.835  -3.454   0.760  0.00  0.00     0.156 HD
ATOM     34  H   UNL d   1      -2.498  -3.231   0.528  0.00  0.00     0.156 HD
ENDBRANCH   3  32
TORSDOF 8
