REMARK  4 active torsions:
REMARK  status: ('A' for Active; 'I' for Inactive)
REMARK    1  A    between atoms: N_7  and  C_1 
REMARK    2  A    between atoms: C_5  and  C_2 
REMARK    3  A    between atoms: C_16  and  N_10 
REMARK    4  A    between atoms: C_19  and  C_16 
ROOT
ATOM      1  C   UNL d   1      -1.036  -1.461  -0.193  0.00  0.00     0.045 A 
ATOM      2  C   UNL d   1      -1.211   0.742   0.799  0.00  0.00     0.119 A 
ATOM      3  N   UNL d   1      -1.181   1.346  -0.416  0.00  0.00    -0.352 N 
ATOM      4  HN  UNL d   1      -1.245   2.361  -0.494  1.00  0.00     0.166 HD
ATOM      5  C   UNL d   1      -1.161  -0.643   0.937  0.00  0.00     0.064 A 
ATOM      6  C   UNL d   1      -0.985  -0.828  -1.468  0.00  0.00     0.017 A 
ATOM      7  C   UNL d   1      -1.065   0.583  -1.513  0.00  0.00     0.045 A 
ATOM      8  C   UNL d   1      -0.800  -1.522  -2.692  0.00  0.00     0.016 A 
ATOM      9  C   UNL d   1      -0.990   1.229  -2.739  0.00  0.00     0.030 A 
ATOM     10  C   UNL d   1      -0.741  -0.852  -3.912  0.00  0.00     0.001 A 
ATOM     11  C   UNL d   1      -0.835   0.529  -3.937  0.00  0.00     0.002 A 
ENDROOT
BRANCH   1  12
ATOM     12  N   UNL d   1      -0.877  -2.848  -0.066  0.00  0.00    -0.377 N 
ATOM     13  C   UNL d   1      -0.190  -3.374   1.129  0.00  0.00     0.153 C 
ATOM     14  C   UNL d   1       0.331  -4.797   0.829  0.00  0.00     0.292 C 
ATOM     15  N   UNL d   1      -0.700  -5.763   0.374  0.00  0.00     0.095 N 
ATOM     16  C   UNL d   1      -1.449  -5.153  -0.758  0.00  0.00     0.292 C 
ATOM     17  C   UNL d   1      -1.988  -3.712  -0.514  0.00  0.00     0.153 C 
BRANCH  15  18
ATOM     18  C   UNL d   1      -1.627  -6.173   1.442  0.00  0.00     0.311 C 
BRANCH  18  19
ATOM     19  C   UNL d   1      -0.957  -6.791   2.651  0.00  0.00    -0.030 A 
ATOM     20  C   UNL d   1      -1.097  -6.198   3.915  0.00  0.00     0.009 A 
ATOM     21  C   UNL d   1      -0.484  -6.760   5.035  0.00  0.00     0.001 A 
ATOM     22  C   UNL d   1       0.271  -7.924   4.906  0.00  0.00     0.000 A 
ATOM     23  C   UNL d   1       0.418  -8.523   3.656  0.00  0.00     0.001 A 
ATOM     24  C   UNL d   1      -0.193  -7.963   2.533  0.00  0.00     0.009 A 
ENDBRANCH  18  19
ENDBRANCH  15  18
ENDBRANCH   1  12
BRANCH   2  25
ATOM     25  C   UNL d   1      -1.269   1.597   2.057  0.00  0.00     0.432 C 
ATOM     26  F   UNL d   1      -1.162   2.938   1.841  0.00  0.00    -0.165 F 
ATOM     27  F   UNL d   1      -2.429   1.424   2.755  0.00  0.00    -0.165 F 
ATOM     28  F   UNL d   1      -0.270   1.288   2.939  0.00  0.00    -0.165 F 
ENDBRANCH   2  25
TORSDOF 4
