REMARK  7 active torsions:
REMARK  status: ('A' for Active; 'I' for Inactive)
REMARK    1  A    between atoms: N_2  and  C_1 
REMARK    2  A    between atoms: C_3  and  N_2 
REMARK    3  A    between atoms: O_7  and  C_5 
REMARK    4  A    between atoms: C_10  and  N_6 
REMARK    5  A    between atoms: C_8  and  C_10 
REMARK    6  A    between atoms: C_12  and  C_8 
REMARK    7  A    between atoms: O_9  and  C_12 
ROOT
ATOM      1  N   UNL d   1       0.582  -1.103   0.806  0.00  0.00    -0.331 N 
ATOM      2  H   UNL d   1      -0.391  -1.284   0.603  0.00  0.00     0.168 HD
ENDROOT
BRANCH   1   3
ATOM      3  C   UNL d   1       1.255  -0.596  -0.255  0.00  0.00     0.172 C 
ATOM      4  S   UNL d   1       0.395  -0.056  -1.582  0.00  0.00    -0.041 SA
ATOM      5  N   UNL d   1       2.607  -0.580  -0.308  0.00  0.00    -0.367 N 
ATOM      6  H   UNL d   1       2.955  -0.180  -1.172  0.00  0.00     0.161 HD
BRANCH   5   7
ATOM      7  C   UNL d   1       3.533  -1.482   0.373  0.00  0.00     0.124 C 
BRANCH   7   8
ATOM      8  C   UNL d   1       3.778  -2.756  -0.437  0.00  0.00     0.046 C 
BRANCH   8   9
ATOM      9  C   UNL d   1       4.760  -3.681   0.277  0.00  0.00     0.168 C 
BRANCH   9  10
ATOM     10  O   UNL d   1       4.204  -4.064   1.533  0.00  0.00    -0.396 OA
ATOM     11  C   UNL d   1       5.108  -4.834   2.312  0.00  0.00     0.201 C 
ENDBRANCH   9  10
ENDBRANCH   8   9
ENDBRANCH   7   8
ENDBRANCH   5   7
ENDBRANCH   1   3
BRANCH   1  12
ATOM     12  C   UNL d   1       0.848  -0.955   2.189  0.00  0.00     0.068 A 
ATOM     13  C   UNL d   1       0.214  -1.752   3.163  0.00  0.00     0.095 A 
ATOM     14  C   UNL d   1       0.462  -1.487   4.523  0.00  0.00     0.039 A 
ATOM     15  C   UNL d   1       1.297  -0.448   4.928  0.00  0.00     0.003 A 
ATOM     16  C   UNL d   1       1.906   0.350   3.970  0.00  0.00     0.002 A 
ATOM     17  C   UNL d   1       1.684   0.095   2.616  0.00  0.00     0.032 A 
BRANCH  13  18
ATOM     18  O   UNL d   1      -0.642  -2.809   3.022  0.00  0.00    -0.354 OA
ATOM     19  C   UNL d   1      -0.894  -3.390   1.756  0.00  0.00     0.210 C 
ENDBRANCH  13  18
ENDBRANCH   1  12
TORSDOF 7
