REMARK  3 active torsions:
REMARK  status: ('A' for Active; 'I' for Inactive)
REMARK    1  A    between atoms: C_5  and  C_1 
REMARK    2  A    between atoms: C_6  and  C_2 
REMARK       I    between atoms: N_7  and  C_5 
REMARK    3  A    between atoms: C_12  and  N_11 
ROOT
ATOM      1  C   UNL d   1       0.274  -2.534   0.535  0.00  0.00     0.258 C 
ATOM      2  N   UNL d   1      -0.627  -3.563   0.246  0.00  0.00    -0.346 N 
ATOM      3  N   UNL d   1      -2.678  -5.503  -0.289  0.00  0.00    -0.280 NA
ATOM      4  O   UNL d   1       0.461  -1.595  -0.234  0.00  0.00    -0.267 OA
ATOM      5  C   UNL d   1      -1.415  -3.479  -0.991  0.00  0.00     0.141 C 
ATOM      6  C   UNL d   1      -0.535  -4.932   0.789  0.00  0.00     0.141 C 
ATOM      7  C   UNL d   1      -2.810  -4.124  -0.829  0.00  0.00     0.115 C 
ATOM      8  C   UNL d   1      -1.935  -5.545   0.988  0.00  0.00     0.115 C 
ENDROOT
BRANCH   1   9
ATOM      9  C   UNL d   1       0.954  -2.577   1.815  0.00  0.00     0.093 C 
ATOM     10  C   UNL d   1       2.320  -2.291   2.132  0.00  0.00     0.088 C 
ATOM     11  N   UNL d   1       2.542  -2.506   3.440  0.00  0.00    -0.259 N 
ATOM     12  O   UNL d   1       1.319  -2.768   4.010  0.00  0.00    -0.241 OA
ATOM     13  HN  UNL d   1       3.443  -2.480   3.916  1.00  0.00     0.195 HD
ATOM     14  C   UNL d   1       0.365  -2.767   3.050  0.00  0.00     0.090 C 
ATOM     15  C   UNL d   1      -1.019  -2.945   3.532  0.00  0.00     0.080 C 
BRANCH  10  16
ATOM     16  C   UNL d   1       3.417  -1.865   1.265  0.00  0.00     0.054 A 
ATOM     17  C   UNL d   1       4.276  -0.800   1.601  0.00  0.00     0.049 A 
ATOM     18 CL   UNL d   1       4.060   0.186   3.010  0.00  0.00    -0.083 Cl
ATOM     19  C   UNL d   1       5.351  -0.456   0.768  0.00  0.00     0.025 A 
ATOM     20  C   UNL d   1       5.576  -1.149  -0.419  0.00  0.00     0.005 A 
ATOM     21  C   UNL d   1       4.723  -2.192  -0.774  0.00  0.00     0.043 A 
ATOM     22  C   UNL d   1       3.664  -2.543   0.065  0.00  0.00     0.130 A 
ATOM     23  F   UNL d   1       2.895  -3.581  -0.302  0.00  0.00    -0.205 F 
ENDBRANCH  10  16
ENDBRANCH   1   9
BRANCH   3  24
ATOM     24  C   UNL d   1      -3.891  -6.227  -0.346  0.00  0.00     0.024 A 
ATOM     25  C   UNL d   1      -4.269  -6.886  -1.548  0.00  0.00     0.012 A 
ATOM     26  C   UNL d   1      -5.500  -7.581  -1.572  0.00  0.00     0.045 A 
ATOM     27  C   UNL d   1      -3.462  -6.897  -2.711  0.00  0.00     0.017 A 
ATOM     28  C   UNL d   1      -5.890  -8.231  -2.733  0.00  0.00     0.054 A 
ATOM     29  N   UNL d   1      -6.316  -7.649  -0.510  0.00  0.00    -0.365 N 
ATOM     30  C   UNL d   1      -5.089  -8.216  -3.875  0.00  0.00     0.036 A 
ATOM     31  C   UNL d   1      -3.871  -7.553  -3.869  0.00  0.00     0.025 A 
ATOM     32 CL   UNL d   1      -5.609  -9.033  -5.297  0.00  0.00    -0.084 Cl
ATOM     33  C   UNL d   1      -5.932  -7.027   0.620  0.00  0.00     0.090 A 
ATOM     34  HN  UNL d   1      -7.200  -8.156  -0.558  1.00  0.00     0.165 HD
ATOM     35  C   UNL d   1      -4.754  -6.316   0.751  0.00  0.00     0.041 A 
ENDBRANCH   3  24
TORSDOF 3
