REMARK  4 active torsions:
REMARK  status: ('A' for Active; 'I' for Inactive)
REMARK    1  A    between atoms: C_3  and  CA_1 
REMARK    2  A    between atoms: N_4  and  CA_1 
REMARK    3  A    between atoms: C_9  and  C_2 
REMARK    4  A    between atoms: OXT_16  and  C_3 
REMARK       I    between atoms: C_6  and  N_4 
ROOT
ATOM      1  CA  UNL d   1       0.860   0.077  -0.154  0.00  0.00     0.110 C 
ATOM      2  C   UNL d   1       0.345  -0.336  -1.330  0.00  0.00     0.048 C 
ENDROOT
BRANCH   1   3
ATOM      3  C   UNL d   1       2.316   0.321   0.162  0.00  0.00     0.193 C 
ATOM      4  O   UNL d   1       2.616   0.927   1.189  0.00  0.00    -0.645 OA
BRANCH   3   5
ATOM      5  OXT UNL d   1       3.259  -0.194  -0.641  0.00  0.00    -0.772 OA
ATOM      6  HXT UNL d   1       2.944  -0.730  -1.386  0.00  0.00     0.167 HD
ENDBRANCH   3   5
ENDBRANCH   1   3
BRANCH   1   7
ATOM      7  N   UNL d   1       0.062   0.373   0.952  0.00  0.00    -0.322 N 
ATOM      8  C   UNL d   1      -1.306   0.299   1.109  0.00  0.00     0.218 C 
ATOM      9  O   UNL d   1      -2.114  -0.057   0.258  0.00  0.00    -0.274 OA
ATOM     10  C   UNL d   1      -1.773   0.701   2.486  0.00  0.00     0.117 C 
ATOM     11  H   UNL d   1       0.607   0.713   1.747  0.00  0.00     0.169 HD
ENDBRANCH   1   7
BRANCH   2  12
ATOM     12  C   UNL d   1       1.031  -0.652  -2.582  0.00  0.00    -0.031 A 
ATOM     13  C   UNL d   1       1.352   0.364  -3.491  0.00  0.00     0.051 A 
ATOM     14  C   UNL d   1       2.033   0.005  -4.636  0.00  0.00     0.105 A 
ATOM     15  O   UNL d   1       2.429   0.852  -5.622  0.00  0.00    -0.323 OA
ATOM     16  C   UNL d   1       2.395  -1.298  -4.888  0.00  0.00     0.105 A 
ATOM     17  C   UNL d   1       3.092  -0.064  -6.520  0.00  0.00     0.352 A 
ATOM     18  O   UNL d   1       3.071  -1.432  -6.059  0.00  0.00    -0.323 OA
ATOM     19  C   UNL d   1       2.084  -2.321  -4.018  0.00  0.00     0.040 A 
ATOM     20  C   UNL d   1       1.383  -1.993  -2.855  0.00  0.00     0.014 A 
ENDBRANCH   2  12
TORSDOF 4
