REMARK  6 active torsions:
REMARK  status: ('A' for Active; 'I' for Inactive)
REMARK    1  A    between atoms: C_7  and  C_1 
REMARK    2  A    between atoms: C_2  and  C_11 
REMARK    3  A    between atoms: C_14  and  C_2 
REMARK    4  A    between atoms: C_23  and  C_2 
REMARK    5  A    between atoms: O_19  and  C_4 
REMARK    6  A    between atoms: C_17  and  N_8 
ROOT
ATOM      1  C   UNL d   1       0.108  10.024   0.107  0.00  0.00     0.103 C 
ATOM      2  C   UNL d   1       1.430  10.662  -0.206  0.00  0.00     0.079 C 
ATOM      3  N   UNL d   1       2.454  11.163  -0.446  0.00  0.00    -0.196 NA
ENDROOT
BRANCH   1   4
ATOM      4  C   UNL d   1       0.288   8.476   0.131  0.00  0.00    -0.031 A 
ATOM      5  C   UNL d   1      -0.489   7.649   0.962  0.00  0.00     0.011 A 
ATOM      6  C   UNL d   1      -0.388   6.255   0.906  0.00  0.00     0.030 A 
ATOM      7  C   UNL d   1       0.531   5.635   0.061  0.00  0.00     0.031 A 
ATOM      8  C   UNL d   1       1.304   6.440  -0.773  0.00  0.00     0.030 A 
ATOM      9  C   UNL d   1       1.179   7.835  -0.754  0.00  0.00     0.011 A 
BRANCH   7  10
ATOM     10  N   UNL d   1       0.702   4.245  -0.030  0.00  0.00    -0.365 N 
ATOM     11  C   UNL d   1       0.528   3.513   1.023  0.00  0.00     0.102 C 
ATOM     12  HN  UNL d   1       0.961   3.816  -0.919  1.00  0.00     0.165 HD
BRANCH  11  13
ATOM     13  C   UNL d   1       0.754   2.057   0.989  0.00  0.00     0.016 A 
ATOM     14  C   UNL d   1       0.487   1.281   2.119  0.00  0.00     0.099 A 
ATOM     15  C   UNL d   1       0.749  -0.092   2.088  0.00  0.00     0.069 A 
ATOM     16 CL   UNL d   1       0.433  -1.068   3.475  0.00  0.00    -0.081 Cl
ATOM     17  C   UNL d   1       1.272  -0.688   0.941  0.00  0.00     0.050 A 
ATOM     18  C   UNL d   1       1.531   0.096  -0.182  0.00  0.00     0.036 A 
ATOM     19  C   UNL d   1       1.273   1.464  -0.168  0.00  0.00     0.039 A 
ATOM     20 CL   UNL d   1       2.185  -0.633  -1.596  0.00  0.00    -0.084 Cl
BRANCH  14  21
ATOM     21  O   UNL d   1      -0.025   1.870   3.246  0.00  0.00    -0.358 OA
ATOM     22  H   UNL d   1      -0.136   1.175   3.923  0.00  0.00     0.217 HD
ENDBRANCH  14  21
ENDBRANCH  11  13
ENDBRANCH   7  10
ENDBRANCH   1   4
BRANCH   1  23
ATOM     23  C   UNL d   1      -1.004  10.388  -0.917  0.00  0.00    -0.031 A 
ATOM     24  C   UNL d   1      -2.320   9.911  -0.731  0.00  0.00     0.009 A 
ATOM     25  C   UNL d   1      -3.354  10.252  -1.604  0.00  0.00     0.001 A 
ATOM     26  C   UNL d   1      -3.099  11.085  -2.686  0.00  0.00     0.000 A 
ATOM     27  C   UNL d   1      -1.810  11.562  -2.901  0.00  0.00     0.001 A 
ATOM     28  C   UNL d   1      -0.770  11.214  -2.032  0.00  0.00     0.009 A 
ENDBRANCH   1  23
BRANCH   1  29
ATOM     29  C   UNL d   1      -0.300  10.582   1.521  0.00  0.00     0.030 C 
ATOM     30  C   UNL d   1      -0.473  12.102   1.595  0.00  0.00     0.007 C 
ENDBRANCH   1  29
TORSDOF 6
