REMARK  6 active torsions:
REMARK  status: ('A' for Active; 'I' for Inactive)
REMARK    1  A    between atoms: N_11  and  C_2 
REMARK    2  A    between atoms: C_13  and  C_7 
REMARK    3  A    between atoms: N_14  and  N_11 
REMARK    4  A    between atoms: O_17  and  C_13 
REMARK    5  A    between atoms: C_18  and  N_14 
REMARK    6  A    between atoms: C_20  and  O_17 
ROOT
ATOM      1  C   UNL d   1       0.174  -0.785   0.067  0.00  0.00     0.062 A 
ATOM      2  C   UNL d   1      -1.042  -1.521   0.143  0.00  0.00     0.077 A 
ATOM      3  C   UNL d   1       0.117   0.605   0.013  0.00  0.00     0.136 A 
ATOM      4  N   UNL d   1       2.320   0.041  -0.036  0.00  0.00    -0.301 N 
ATOM      5  HN  UNL d   1       3.336   0.116  -0.076  1.00  0.00     0.187 HD
ATOM      6  N   UNL d   1       1.413   1.038  -0.029  0.00  0.00    -0.280 N 
ATOM      7  C   UNL d   1      -2.216  -0.726   0.183  0.00  0.00     0.083 A 
ATOM      8  C   UNL d   1       1.574  -1.070   0.021  0.00  0.00     0.038 A 
ATOM      9  N   UNL d   1      -0.983   1.381   0.013  0.00  0.00    -0.349 N 
ATOM     10  HN  UNL d   1      -0.957   2.399  -0.046  1.00  0.00     0.167 HD
ATOM     11  C   UNL d   1      -2.126   0.664   0.099  0.00  0.00     0.110 A 
ATOM     12  C   UNL d   1       1.872   2.404  -0.039  0.00  0.00     0.179 C 
ATOM     13  C   UNL d   1       2.254  -2.390   0.027  0.00  0.00     0.071 C 
ENDROOT
BRANCH   2  14
ATOM     14  N   UNL d   1      -1.014  -2.937   0.200  0.00  0.00    -0.315 N 
ATOM     15  H   UNL d   1      -0.091  -3.308  -0.008  0.00  0.00     0.181 HD
BRANCH  14  16
ATOM     16  N   UNL d   1      -2.042  -3.741  -0.225  0.00  0.00    -0.205 NA
ATOM     17  H   UNL d   1      -2.934  -3.513   0.247  0.00  0.00     0.153 HD
BRANCH  16  18
ATOM     18  C   UNL d   1      -1.972  -5.161  -0.191  0.00  0.00     0.027 A 
ATOM     19  C   UNL d   1      -0.922  -5.866   0.406  0.00  0.00     0.025 A 
ATOM     20  C   UNL d   1      -0.934  -7.265   0.432  0.00  0.00     0.002 A 
ATOM     21  C   UNL d   1      -1.990  -7.969  -0.146  0.00  0.00     0.000 A 
ATOM     22  C   UNL d   1      -3.035  -7.278  -0.753  0.00  0.00     0.002 A 
ATOM     23  C   UNL d   1      -3.025  -5.883  -0.772  0.00  0.00     0.025 A 
ENDBRANCH  16  18
ENDBRANCH  14  16
ENDBRANCH   2  14
BRANCH   7  24
ATOM     24  C   UNL d   1      -3.564  -1.304   0.325  0.00  0.00     0.297 C 
ATOM     25  O   UNL d   1      -3.839  -2.248   1.050  0.00  0.00    -0.259 OA
BRANCH  24  26
ATOM     26  O   UNL d   1      -4.398  -0.735  -0.583  0.00  0.00    -0.318 OA
BRANCH  26  27
ATOM     27  C   UNL d   1      -5.570  -1.505  -0.895  0.00  0.00     0.174 C 
ATOM     28  C   UNL d   1      -5.276  -2.302  -2.152  0.00  0.00     0.034 C 
ENDBRANCH  26  27
ENDBRANCH  24  26
ENDBRANCH   7  24
TORSDOF 6
