REMARK  6 active torsions:
REMARK  status: ('A' for Active; 'I' for Inactive)
REMARK    1  A    between atoms: C_2  and  C_1 
REMARK       I    between atoms: N_3  and  C_1 
REMARK    2  A    between atoms: N_4  and  C_2 
REMARK    3  A    between atoms: C_15  and  N_3 
REMARK    4  A    between atoms: C_14  and  N_4 
REMARK    5  A    between atoms: C_6  and  C_14 
REMARK    6  A    between atoms: C_8  and  C_9 
ROOT
ATOM      1  C   UNL d   1       1.325   1.255   1.885  0.00  0.00     0.283 C 
ATOM      2  N   UNL d   1       0.387   0.285   1.572  0.00  0.00    -0.321 N 
ATOM      3  O   UNL d   1       1.203   2.183   2.665  0.00  0.00    -0.265 OA
ATOM      4  H   UNL d   1       0.717  -0.528   1.061  0.00  0.00     0.169 HD
ENDROOT
BRANCH   1   5
ATOM      5  C   UNL d   1       2.662   1.100   1.162  0.00  0.00     0.165 C 
ATOM      6  S   UNL d   1       2.663   1.336  -0.489  0.00  0.00    -0.055 SA
BRANCH   5   7
ATOM      7  N   UNL d   1       3.825   0.824   1.844  0.00  0.00    -0.372 N 
ATOM      8  H   UNL d   1       4.681   0.911   1.304  0.00  0.00     0.161 HD
BRANCH   7   9
ATOM      9  C   UNL d   1       3.952   0.601   3.268  0.00  0.00     0.166 C 
BRANCH   9  10
ATOM     10  C   UNL d   1       5.316   0.036   3.565  0.00  0.00    -0.000 A 
ATOM     11  S   UNL d   1       5.720  -1.565   3.082  0.00  0.00    -0.105 SA
ATOM     12  C   UNL d   1       7.264  -1.470   3.813  0.00  0.00     0.050 A 
ATOM     13  C   UNL d   1       7.483  -0.245   4.400  0.00  0.00     0.008 A 
ATOM     14  C   UNL d   1       6.365   0.628   4.243  0.00  0.00     0.017 A 
ENDBRANCH   9  10
ENDBRANCH   7   9
ENDBRANCH   5   7
ENDBRANCH   1   5
BRANCH   2  15
ATOM     15  C   UNL d   1      -1.008   0.361   1.795  0.00  0.00     0.035 A 
ATOM     16  C   UNL d   1      -1.687   1.556   2.031  0.00  0.00     0.030 A 
ATOM     17  C   UNL d   1      -3.092   1.578   2.119  0.00  0.00     0.010 A 
ATOM     18  C   UNL d   1      -3.865   0.406   2.006  0.00  0.00    -0.051 A 
ATOM     19  C   UNL d   1      -3.158  -0.792   1.814  0.00  0.00     0.010 A 
ATOM     20  C   UNL d   1      -1.758  -0.810   1.687  0.00  0.00     0.030 A 
BRANCH  18  21
ATOM     21  C   UNL d   1      -5.407   0.467   2.035  0.00  0.00    -0.024 C 
ATOM     22  C   UNL d   1      -6.086  -0.923   2.017  0.00  0.00     0.019 C 
ATOM     23  C   UNL d   1      -5.914   1.192   3.301  0.00  0.00     0.019 C 
ATOM     24  C   UNL d   1      -5.911   1.231   0.790  0.00  0.00     0.019 C 
ENDBRANCH  18  21
ENDBRANCH   2  15
TORSDOF 6
