REMARK  6 active torsions:
REMARK  status: ('A' for Active; 'I' for Inactive)
REMARK    1  A    between atoms: C_8  and  N_1 
REMARK    2  A    between atoms: C_7  and  C_2 
REMARK    3  A    between atoms: C_9  and  C_15 
REMARK    4  A    between atoms: O_21  and  C_10 
REMARK    5  A    between atoms: O_22  and  C_11 
REMARK    6  A    between atoms: O_23  and  C_12 
ROOT
ATOM      1  N   UNL d   1       0.829  -0.591  -0.388  0.00  0.00    -0.271 N 
ATOM      2  C   UNL d   1       0.880   0.733   0.011  0.00  0.00     0.140 A 
ATOM      3  N   UNL d   1      -0.244   1.193   0.488  0.00  0.00    -0.282 N 
ATOM      4  HN  UNL d   1      -0.429   2.126   0.857  1.00  0.00     0.188 HD
ATOM      5  C   UNL d   1      -0.487  -0.967  -0.144  0.00  0.00     0.199 A 
ATOM      6  N   UNL d   1      -1.113   0.157   0.383  0.00  0.00    -0.274 N 
ATOM      7  S   UNL d   1      -1.299  -2.410  -0.288  0.00  0.00    -0.039 SA
ATOM      8  H   UNL d   1      -2.068   0.215   0.714  0.00  0.00     0.189 HD
ENDROOT
BRANCH   2   9
ATOM      9  C   UNL d   1       2.057   1.621  -0.127  0.00  0.00     0.015 A 
ATOM     10  C   UNL d   1       2.868   1.583  -1.263  0.00  0.00     0.055 A 
ATOM     11  C   UNL d   1       4.033   2.360  -1.346  0.00  0.00     0.105 A 
ATOM     12  C   UNL d   1       4.337   3.273  -0.310  0.00  0.00     0.135 A 
ATOM     13  C   UNL d   1       3.438   3.394   0.775  0.00  0.00     0.105 A 
ATOM     14  C   UNL d   1       2.326   2.549   0.875  0.00  0.00     0.055 A 
BRANCH  11  15
ATOM     15  O   UNL d   1       4.885   2.272  -2.417  0.00  0.00    -0.353 OA
ATOM     16  C   UNL d   1       4.723   1.191  -3.328  0.00  0.00     0.210 C 
ENDBRANCH  11  15
BRANCH  12  17
ATOM     17  O   UNL d   1       5.452   4.065  -0.223  0.00  0.00    -0.351 OA
ATOM     18  C   UNL d   1       6.487   3.967  -1.187  0.00  0.00     0.210 C 
ENDBRANCH  12  17
BRANCH  13  19
ATOM     19  O   UNL d   1       3.561   4.252   1.842  0.00  0.00    -0.353 OA
ATOM     20  C   UNL d   1       4.067   5.551   1.548  0.00  0.00     0.210 C 
ENDBRANCH  13  19
ENDBRANCH   2   9
BRANCH   1  21
ATOM     21  C   UNL d   1       1.885  -1.429  -0.838  0.00  0.00     0.044 A 
ATOM     22  C   UNL d   1       3.182  -1.310  -0.310  0.00  0.00     0.046 A 
ATOM     23  C   UNL d   1       4.262  -2.045  -0.836  0.00  0.00     0.050 A 
ATOM     24  C   UNL d   1       4.021  -2.975  -1.857  0.00  0.00     0.016 A 
ATOM     25  C   UNL d   1       2.734  -3.141  -2.357  0.00  0.00     0.003 A 
ATOM     26  C   UNL d   1       1.681  -2.365  -1.862  0.00  0.00     0.030 A 
BRANCH  23  27
ATOM     27  C   UNL d   1       5.672  -1.813  -0.348  0.00  0.00     0.417 C 
ATOM     28  F   UNL d   1       5.776  -0.803   0.557  0.00  0.00    -0.166 F 
ATOM     29  F   UNL d   1       6.210  -2.913   0.247  0.00  0.00    -0.166 F 
ATOM     30  F   UNL d   1       6.515  -1.484  -1.368  0.00  0.00    -0.166 F 
ENDBRANCH  23  27
ENDBRANCH   1  21
TORSDOF 6
