REMARK  6 active torsions:
REMARK  status: ('A' for Active; 'I' for Inactive)
REMARK    1  A    between atoms: C_2  and  S_1 
REMARK    2  A    between atoms: N_4  and  S_1 
REMARK    3  A    between atoms: C_11  and  N_4 
REMARK    4  A    between atoms: C_25  and  N_4 
REMARK    5  A    between atoms: C_16  and  C_11 
REMARK    6  A    between atoms: C_24  and  C_25 
ROOT
ATOM      1  N   UNL d   1       2.731  -5.704  -0.192  0.00  0.00    -0.197 NA
ATOM      2  C   UNL d   1       2.554  -4.600   0.108  0.00  0.00     0.060 C 
ATOM      3  C   UNL d   1       2.301  -3.199   0.487  0.00  0.00     0.144 C 
ENDROOT
BRANCH   3   4
ATOM      4  C   UNL d   1       0.890  -2.795   0.047  0.00  0.00     0.149 C 
BRANCH   4   5
ATOM      5  N   UNL d   1       0.486  -1.395   0.409  0.00  0.00    -0.301 N 
BRANCH   5   6
ATOM      6  S   UNL d   1       1.297  -0.102  -0.366  0.00  0.00     0.263 S 
ATOM      7  O   UNL d   1       2.574  -0.563  -0.864  0.00  0.00    -0.200 OA
ATOM      8  O   UNL d   1       0.394   0.571  -1.270  0.00  0.00    -0.200 OA
BRANCH   6   9
ATOM      9  C   UNL d   1       1.610   1.043   0.940  0.00  0.00     0.109 A 
ATOM     10  C   UNL d   1       2.783   1.016   1.732  0.00  0.00     0.090 A 
ATOM     11  N   UNL d   1       3.748   0.082   1.758  0.00  0.00    -0.309 N 
ATOM     12  C   UNL d   1       3.062   2.148   2.702  0.00  0.00     0.068 A 
ATOM     13  S   UNL d   1       4.918   0.614   2.807  0.00  0.00     0.068 SA
ATOM     14  HN  UNL d   1       3.759  -0.791   1.231  1.00  0.00     0.176 HD
ATOM     15  N   UNL d   1       4.223   2.013   3.361  0.00  0.00    -0.310 N 
ATOM     16  HN  UNL d   1       4.602   2.647   4.064  1.00  0.00     0.176 HD
ATOM     17  C   UNL d   1       2.161   3.230   2.851  0.00  0.00     0.032 A 
ATOM     18  C   UNL d   1       1.018   3.202   2.039  0.00  0.00     0.004 A 
ATOM     19  C   UNL d   1       0.758   2.162   1.115  0.00  0.00     0.028 A 
ENDBRANCH   6   9
ENDBRANCH   5   6
BRANCH   5  20
ATOM     20  C   UNL d   1      -0.990  -1.240   0.633  0.00  0.00     0.181 C 
BRANCH  20  21
ATOM     21  C   UNL d   1      -1.804  -1.271  -0.639  0.00  0.00     0.001 C 
ATOM     22  S   UNL d   1      -2.178  -2.744  -1.440  0.00  0.00    -0.105 SA
ATOM     23  C   UNL d   1      -2.877  -1.928  -2.770  0.00  0.00     0.050 C 
ATOM     24  C   UNL d   1      -2.943  -0.571  -2.560  0.00  0.00     0.008 C 
ATOM     25  C   UNL d   1      -2.377  -0.201  -1.307  0.00  0.00     0.017 C 
ENDBRANCH  20  21
ENDBRANCH   5  20
ENDBRANCH   4   5
ENDBRANCH   3   4
TORSDOF 6
