REMARK  5 active torsions:
REMARK  status: ('A' for Active; 'I' for Inactive)
REMARK    1  A    between atoms: S_2  and  C_1 
REMARK    2  A    between atoms: C_12  and  S_2 
REMARK    3  A    between atoms: N_5  and  C_3 
REMARK    4  A    between atoms: S_14  and  C_4 
REMARK       I    between atoms: C_8  and  N_5 
REMARK    5  A    between atoms: C_11  and  C_8 
ROOT
ATOM      1  C   UNL d   1       1.190   0.992  -0.558  0.00  0.00     0.110 A 
ATOM      2  C   UNL d   1       1.465  -0.343   0.001  0.00  0.00     0.065 A 
ATOM      3  C   UNL d   1      -0.176   1.285  -0.537  0.00  0.00     0.064 A 
ATOM      4  S   UNL d   1      -1.101   0.007   0.126  0.00  0.00    -0.091 SA
ATOM      5  C   UNL d   1       0.271  -0.947   0.365  0.00  0.00     0.082 A 
ENDROOT
BRANCH   2   6
ATOM      6  N   UNL d   1       2.601  -1.148   0.230  0.00  0.00    -0.321 N 
ATOM      7  C   UNL d   1       3.945  -0.888   0.097  0.00  0.00     0.256 C 
ATOM      8  O   UNL d   1       4.460   0.148  -0.292  0.00  0.00    -0.267 OA
ATOM      9  H   UNL d   1       2.373  -2.084   0.546  0.00  0.00     0.169 HD
BRANCH   7  10
ATOM     10  C   UNL d   1       4.882  -2.014   0.391  0.00  0.00     0.032 A 
ATOM     11  C   UNL d   1       6.107  -2.030  -0.300  0.00  0.00     0.018 A 
ATOM     12  C   UNL d   1       7.054  -3.026  -0.055  0.00  0.00     0.025 A 
ATOM     13  C   UNL d   1       6.782  -4.012   0.888  0.00  0.00     0.034 A 
ATOM     14  C   UNL d   1       5.570  -4.010   1.582  0.00  0.00     0.025 A 
ATOM     15 CL   UNL d   1       7.953  -5.228   1.213  0.00  0.00    -0.084 Cl
ATOM     16  C   UNL d   1       4.619  -3.010   1.339  0.00  0.00     0.018 A 
ENDBRANCH   7  10
ENDBRANCH   2   6
BRANCH   1  17
ATOM     17  S   UNL d   1       2.387   2.094  -1.224  0.00  0.00     0.183 S 
ATOM     18  O   UNL d   1       1.671   3.184  -1.854  0.00  0.00    -0.222 OA
ATOM     19  O   UNL d   1       3.237   2.390  -0.090  0.00  0.00    -0.222 OA
BRANCH  17  20
ATOM     20  C   UNL d   1       3.168   1.147  -2.552  0.00  0.00     0.105 C 
ATOM     21  C   UNL d   1       2.277   1.127  -3.795  0.00  0.00     0.026 C 
ATOM     22  C   UNL d   1       4.556   1.689  -2.881  0.00  0.00     0.026 C 
ENDBRANCH  17  20
ENDBRANCH   1  17
BRANCH   3  23
ATOM     23  S   UNL d   1      -1.112   2.663  -1.132  0.00  0.00    -0.126 SA
ATOM     24  C   UNL d   1      -0.757   3.908   0.128  0.00  0.00     0.096 C 
ENDBRANCH   3  23
TORSDOF 5
