REMARK  6 active torsions:
REMARK  status: ('A' for Active; 'I' for Inactive)
REMARK    1  A    between atoms: C_8  and  C_3 
REMARK    2  A    between atoms: C_15  and  C_6 
REMARK    3  A    between atoms: C_9  and  C_18 
REMARK    4  A    between atoms: O_14  and  C_9 
REMARK    5  A    between atoms: C_17  and  C_15 
REMARK    6  A    between atoms: C_18  and  C_17 
ROOT
ATOM      1  N   UNL d   1       1.273   0.184  -0.127  0.00  0.00    -0.323 N 
ATOM      2  HN  UNL d   1       2.279   0.332  -0.215  1.00  0.00     0.169 HD
ATOM      3  C   UNL d   1       0.269   1.122  -0.043  0.00  0.00     0.139 A 
ATOM      4  N   UNL d   1      -0.959   0.592   0.087  0.00  0.00    -0.242 N 
ATOM      5  HN  UNL d   1      -1.850   1.080   0.179  1.00  0.00     0.196 HD
ATOM      6  C   UNL d   1       0.614  -0.948  -0.066  0.00  0.00     0.148 A 
ATOM      7  O   UNL d   1      -0.731  -0.784   0.065  0.00  0.00    -0.223 OA
ENDROOT
BRANCH   3   8
ATOM      8  C   UNL d   1       0.546   2.546  -0.060  0.00  0.00     0.025 A 
ATOM      9  C   UNL d   1       1.854   3.011  -0.159  0.00  0.00     0.102 A 
ATOM     10  N   UNL d   1       2.203   4.322  -0.179  0.00  0.00    -0.374 N 
ATOM     11  C   UNL d   1       1.195   5.216  -0.100  0.00  0.00     0.087 A 
ATOM     12  HN  UNL d   1       3.177   4.617  -0.249  1.00  0.00     0.164 HD
ATOM     13  C   UNL d   1      -0.140   4.862   0.002  0.00  0.00     0.018 A 
ATOM     14  C   UNL d   1      -0.467   3.506   0.024  0.00  0.00     0.018 A 
ENDBRANCH   3   8
BRANCH   6  15
ATOM     15  C   UNL d   1       1.137  -2.333  -0.006  0.00  0.00     0.087 C 
BRANCH  15  16
ATOM     16  C   UNL d   1       2.059  -2.532   1.204  0.00  0.00     0.018 C 
BRANCH  16  17
ATOM     17  C   UNL d   1       1.375  -2.298   2.557  0.00  0.00     0.110 C 
BRANCH  17  18
ATOM     18  C   UNL d   1       0.232  -3.257   2.786  0.00  0.00     0.139 C 
ATOM     19  O   UNL d   1       0.182  -4.389   2.332  0.00  0.00    -0.650 OA
BRANCH  18  20
ATOM     20  O   UNL d   1      -0.746  -2.747   3.565  0.00  0.00    -0.776 OA
ATOM     21  H   UNL d   1      -0.595  -1.829   3.860  0.00  0.00     0.167 HD
ENDBRANCH  18  20
ENDBRANCH  17  18
ENDBRANCH  16  17
ENDBRANCH  15  16
ENDBRANCH   6  15
TORSDOF 6
