REMARK  0 active torsions:
REMARK  status: ('A' for Active; 'I' for Inactive)
ROOT
ATOM      1  N   UNL d   1       0.017   1.397   0.016  0.00  0.00    -0.356 N 
ATOM      2  HN  UNL d   1       0.006   2.417   0.033  1.00  0.00     0.166 HD
ATOM      3  N   UNL d   1       0.040  -1.418  -0.016  0.00  0.00    -0.356 N 
ATOM      4  HN  UNL d   1       0.046  -2.438  -0.032  1.00  0.00     0.166 HD
ATOM      5  C   UNL d   1       1.174   0.706   0.010  0.00  0.00     0.062 A 
ATOM      6  C   UNL d   1      -1.132   0.677  -0.003  0.00  0.00     0.032 A 
ATOM      7  C   UNL d   1      -1.120  -0.717   0.001  0.00  0.00     0.032 A 
ATOM      8  C   UNL d   1       1.182  -0.711  -0.011  0.00  0.00     0.059 A 
ATOM      9  C   UNL d   1       2.381   1.389   0.025  0.00  0.00     0.074 A 
ATOM     10  C   UNL d   1       2.397  -1.385  -0.029  0.00  0.00     0.035 A 
ATOM     11  C   UNL d   1       3.583   0.695   0.011  0.00  0.00     0.118 A 
ATOM     12  C   UNL d   1       3.605  -0.691  -0.019  0.00  0.00     0.044 A 
ATOM     13  F   UNL d   1       4.739   1.371   0.024  0.00  0.00    -0.206 F 
ATOM     14  C   UNL d   1      -2.420   1.454   0.039  0.00  0.00     0.059 C 
ATOM     15  C   UNL d   1      -2.390  -1.522  -0.044  0.00  0.00     0.059 C 
ATOM     16  C   UNL d   1      -3.622  -0.718   0.363  0.00  0.00     0.006 C 
ATOM     17  C   UNL d   1      -3.636   0.622  -0.364  0.00  0.00     0.006 C 
ENDROOT
TORSDOF 0
