REMARK  8 active torsions:
REMARK  status: ('A' for Active; 'I' for Inactive)
REMARK    1  A    between atoms: C_2  and  S_1 
REMARK    2  A    between atoms: N_11  and  S_1 
REMARK       I    between atoms: C_5  and  N_8 
REMARK    3  A    between atoms: C_13  and  C_5 
REMARK    4  A    between atoms: C_14  and  C_6 
REMARK    5  A    between atoms: N_8  and  C_14 
REMARK    6  A    between atoms: C_15  and  N_11 
REMARK    7  A    between atoms: C_17  and  C_15 
REMARK    8  A    between atoms: C_16  and  C_17 
ROOT
ATOM      1  C   UNL d   1       0.430  -1.852  -0.030  0.00  0.00     0.115 A 
ATOM      2  S   UNL d   1      -1.161  -2.304   0.400  0.00  0.00    -0.080 SA
ATOM      3  C   UNL d   1       1.219  -2.961  -0.270  0.00  0.00     0.033 A 
ATOM      4  C   UNL d   1      -0.766  -3.972   0.405  0.00  0.00     0.002 A 
ATOM      5  C   UNL d   1       0.532  -4.183  -0.016  0.00  0.00     0.018 A 
ENDROOT
BRANCH   1   6
ATOM      6  S   UNL d   1       0.818  -0.113  -0.092  0.00  0.00     0.248 S 
ATOM      7  O   UNL d   1      -0.321   0.635   0.381  0.00  0.00    -0.205 OA
ATOM      8  O   UNL d   1       1.372   0.083  -1.415  0.00  0.00    -0.205 OA
BRANCH   6   9
ATOM      9  N   UNL d   1       2.106   0.137   0.983  0.00  0.00    -0.215 NA
ATOM     10  H   UNL d   1       2.753   0.806   0.564  0.00  0.00     0.140 HD
BRANCH   9  11
ATOM     11  C   UNL d   1       1.785   0.437   2.400  0.00  0.00     0.109 C 
BRANCH  11  12
ATOM     12  C   UNL d   1       0.998  -0.679   3.079  0.00  0.00     0.054 C 
BRANCH  12  13
ATOM     13  C   UNL d   1       0.624  -0.364   4.501  0.00  0.00    -0.057 A 
ATOM     14  C   UNL d   1      -0.527   0.390   4.767  0.00  0.00     0.007 A 
ATOM     15  C   UNL d   1      -0.925   0.628   6.082  0.00  0.00     0.001 A 
ATOM     16  C   UNL d   1      -0.172   0.119   7.138  0.00  0.00     0.000 A 
ATOM     17  C   UNL d   1       0.987  -0.613   6.881  0.00  0.00     0.001 A 
ATOM     18  C   UNL d   1       1.388  -0.852   5.567  0.00  0.00     0.007 A 
ENDBRANCH  12  13
ENDBRANCH  11  12
ENDBRANCH   9  11
ENDBRANCH   6   9
ENDBRANCH   1   6
BRANCH   4  19
ATOM     19  C   UNL d   1      -1.792  -4.984   0.802  0.00  0.00     0.169 C 
BRANCH  19  20
ATOM     20  N   UNL d   1      -2.549  -5.342  -0.372  0.00  0.00    -0.352 N 
ATOM     21  C   UNL d   1      -3.566  -6.266  -0.292  0.00  0.00     0.251 C 
ATOM     22  O   UNL d   1      -3.866  -6.850   0.742  0.00  0.00    -0.268 OA
ATOM     23  H   UNL d   1      -2.527  -4.706  -1.158  0.00  0.00     0.163 HD
BRANCH  21  24
ATOM     24  C   UNL d   1      -4.322  -6.510  -1.551  0.00  0.00     0.032 A 
ATOM     25  C   UNL d   1      -3.715  -6.367  -2.807  0.00  0.00     0.017 A 
ATOM     26  C   UNL d   1      -4.445  -6.627  -3.969  0.00  0.00     0.001 A 
ATOM     27  C   UNL d   1      -5.775  -7.034  -3.881  0.00  0.00     0.000 A 
ATOM     28  C   UNL d   1      -6.381  -7.185  -2.633  0.00  0.00     0.001 A 
ATOM     29  C   UNL d   1      -5.655  -6.928  -1.468  0.00  0.00     0.017 A 
ENDBRANCH  21  24
ENDBRANCH  19  20
ENDBRANCH   4  19
TORSDOF 8
