REMARK  2 active torsions:
REMARK  status: ('A' for Active; 'I' for Inactive)
REMARK    1  A    between atoms: C_19  and  C_13 
REMARK    2  A    between atoms: C_20  and  C_14 
ROOT
ATOM      1  C   UNL d   1       0.929  -2.958  -0.064  0.00  0.00     0.044 A 
ATOM      2  C   UNL d   1       2.020  -2.214   0.110  0.00  0.00     0.061 A 
ATOM      3  C   UNL d   1       1.099  -4.338  -0.084  0.00  0.00     0.065 A 
ATOM      4  C   UNL d   1      -0.284  -2.283  -0.156  0.00  0.00     0.065 A 
ATOM      5  S   UNL d   1       3.412  -3.171   0.075  0.00  0.00    -0.079 SA
ATOM      6  S   UNL d   1       1.621  -0.592   0.313  0.00  0.00    -0.079 SA
ATOM      7  C   UNL d   1      -0.124  -0.916   0.140  0.00  0.00     0.045 A 
ATOM      8  C   UNL d   1       2.470  -4.674  -0.046  0.00  0.00     0.045 A 
ATOM      9  N   UNL d   1       0.084  -5.232  -0.101  0.00  0.00    -0.357 N 
ATOM     10  HN  UNL d   1      -0.893  -4.944  -0.167  1.00  0.00     0.166 HD
ATOM     11  N   UNL d   1      -1.466  -2.879  -0.450  0.00  0.00    -0.357 N 
ATOM     12  HN  UNL d   1      -1.528  -3.864  -0.707  1.00  0.00     0.166 HD
ATOM     13  C   UNL d   1       2.820  -6.052  -0.106  0.00  0.00     0.002 C 
ATOM     14  C   UNL d   1      -1.295  -0.102   0.252  0.00  0.00     0.002 A 
ATOM     15  C   UNL d   1      -2.526  -2.104  -0.380  0.00  0.00     0.017 A 
ATOM     16  C   UNL d   1       0.437  -6.498  -0.025  0.00  0.00     0.017 C 
ATOM     17  C   UNL d   1      -2.509  -0.777  -0.008  0.00  0.00    -0.023 A 
ATOM     18  C   UNL d   1       1.735  -6.948  -0.020  0.00  0.00    -0.023 C 
ATOM     19  C   UNL d   1      -3.930  -0.295   0.091  0.00  0.00     0.042 C 
ATOM     20  C   UNL d   1       1.742  -8.447   0.017  0.00  0.00     0.042 C 
ATOM     21  C   UNL d   1      -0.560  -7.612   0.002  0.00  0.00     0.058 C 
ATOM     22  C   UNL d   1      -3.899  -2.627  -0.656  0.00  0.00     0.058 C 
ATOM     23  C   UNL d   1      -4.687  -1.325  -0.756  0.00  0.00     0.011 C 
ATOM     24  C   UNL d   1       0.316  -8.762   0.492  0.00  0.00     0.011 C 
ENDROOT
BRANCH  13  25
ATOM     25  C   UNL d   1       4.155  -6.629  -0.286  0.00  0.00    -0.024 A 
ATOM     26  C   UNL d   1       4.417  -7.330  -1.482  0.00  0.00     0.012 A 
ATOM     27  C   UNL d   1       5.456  -8.256  -1.565  0.00  0.00     0.001 A 
ATOM     28  C   UNL d   1       6.279  -8.465  -0.466  0.00  0.00     0.000 A 
ATOM     29  C   UNL d   1       6.089  -7.719   0.698  0.00  0.00     0.001 A 
ATOM     30  C   UNL d   1       5.033  -6.802   0.790  0.00  0.00     0.012 A 
ENDBRANCH  13  25
BRANCH  14  31
ATOM     31  C   UNL d   1      -1.316   1.338   0.562  0.00  0.00    -0.024 A 
ATOM     32  C   UNL d   1      -0.657   2.270  -0.255  0.00  0.00     0.012 A 
ATOM     33  C   UNL d   1      -0.919   3.640  -0.135  0.00  0.00     0.001 A 
ATOM     34  C   UNL d   1      -1.847   4.102   0.797  0.00  0.00     0.000 A 
ATOM     35  C   UNL d   1      -2.468   3.203   1.654  0.00  0.00     0.001 A 
ATOM     36  C   UNL d   1      -2.182   1.839   1.553  0.00  0.00     0.012 A 
ENDBRANCH  14  31
TORSDOF 2
