REMARK  3 active torsions:
REMARK  status: ('A' for Active; 'I' for Inactive)
REMARK    1  A    between atoms: C_5  and  C_2 
REMARK    2  A    between atoms: O_12  and  C_5 
REMARK    3  A    between atoms: C_13  and  O_12 
ROOT
ATOM      1  C   UNL d   1       0.118  -0.499   0.044  0.00  0.00     0.086 A 
ATOM      2  C   UNL d   1      -2.239  -0.688  -0.164  0.00  0.00     0.042 A 
ATOM      3  C   UNL d   1       0.015   0.945  -0.118  0.00  0.00     0.085 A 
ATOM      4  C   UNL d   1      -1.004  -1.349   0.020  0.00  0.00     0.051 A 
ATOM      5  O   UNL d   1       2.096   0.391   0.160  0.00  0.00    -0.156 OA
ATOM      6  N   UNL d   1       1.408  -0.811   0.211  0.00  0.00    -0.240 N 
ATOM      7  HN  UNL d   1       1.804  -1.741   0.348  1.00  0.00     0.197 HD
ATOM      8  N   UNL d   1       1.245   1.465  -0.044  0.00  0.00    -0.240 N 
ATOM      9  HN  UNL d   1       1.503   2.448  -0.121  1.00  0.00     0.197 HD
ATOM     10  C   UNL d   1      -2.332   0.730  -0.324  0.00  0.00     0.020 A 
ATOM     11  C   UNL d   1      -1.217   1.593  -0.311  0.00  0.00     0.035 A 
ENDROOT
BRANCH   2  12
ATOM     12  C   UNL d   1      -3.522  -1.451  -0.167  0.00  0.00     0.298 C 
ATOM     13  O   UNL d   1      -4.614  -0.914  -0.060  0.00  0.00    -0.259 OA
BRANCH  12  14
ATOM     14  O   UNL d   1      -3.266  -2.804  -0.292  0.00  0.00    -0.272 OA
BRANCH  14  15
ATOM     15  C   UNL d   1      -4.417  -3.591  -0.402  0.00  0.00     0.121 A 
ATOM     16  C   UNL d   1      -5.248  -3.501  -1.517  0.00  0.00     0.188 A 
ATOM     17  C   UNL d   1      -6.357  -4.331  -1.611  0.00  0.00     0.157 A 
ATOM     18  F   UNL d   1      -4.968  -2.636  -2.503  0.00  0.00    -0.200 F 
ATOM     19  F   UNL d   1      -7.170  -4.253  -2.673  0.00  0.00    -0.203 F 
ATOM     20  C   UNL d   1      -6.630  -5.264  -0.612  0.00  0.00     0.046 A 
ATOM     21  C   UNL d   1      -5.778  -5.371   0.491  0.00  0.00     0.006 A 
ATOM     22  C   UNL d   1      -4.663  -4.535   0.597  0.00  0.00     0.041 A 
ENDBRANCH  14  15
ENDBRANCH  12  14
ENDBRANCH   2  12
TORSDOF 3
