REMARK  4 active torsions:
REMARK  status: ('A' for Active; 'I' for Inactive)
REMARK    1  A    between atoms: C_7  and  N_1 
REMARK    2  A    between atoms: C_12  and  N_2 
REMARK    3  A    between atoms: C_20  and  C_12 
REMARK    4  A    between atoms: S_19  and  C_17 
ROOT
ATOM      1  N   UNL d   1       0.926  -1.406   0.087  0.00  0.00    -0.246 N 
ATOM      2  N   UNL d   1       2.114   0.677   0.103  0.00  0.00    -0.260 N 
ATOM      3  C   UNL d   1       2.145  -0.731   0.247  0.00  0.00     0.338 C 
ATOM      4  C   UNL d   1      -0.251  -0.690  -0.006  0.00  0.00     0.150 A 
ATOM      5  C   UNL d   1      -0.229   0.671  -0.032  0.00  0.00     0.147 A 
ATOM      6  C   UNL d   1       0.958   1.451  -0.016  0.00  0.00     0.282 C 
ATOM      7  N   UNL d   1      -1.532  -1.161  -0.035  0.00  0.00    -0.336 N 
ATOM      8  HN  UNL d   1      -1.837  -2.134  -0.039  1.00  0.00     0.168 HD
ATOM      9  N   UNL d   1      -1.536   1.064  -0.071  0.00  0.00    -0.345 N 
ATOM     10  C   UNL d   1      -2.289  -0.081  -0.058  0.00  0.00     0.182 A 
ATOM     11  O   UNL d   1       3.205  -1.323   0.483  0.00  0.00    -0.246 OA
ATOM     12  O   UNL d   1       0.934   2.674  -0.084  0.00  0.00    -0.265 OA
ATOM     13  H   UNL d   1      -1.876   2.016  -0.088  0.00  0.00     0.167 HD
ENDROOT
BRANCH   1  14
ATOM     14  C   UNL d   1       0.861  -2.823   0.065  0.00  0.00     0.053 A 
ATOM     15  C   UNL d   1       1.268  -3.535   1.210  0.00  0.00     0.049 A 
ATOM     16  C   UNL d   1       1.298  -4.933   1.224  0.00  0.00     0.002 A 
ATOM     17  C   UNL d   1       0.910  -5.624   0.073  0.00  0.00     0.019 A 
ATOM     18  C   UNL d   1       0.514  -4.932  -1.073  0.00  0.00     0.010 A 
ATOM     19  C   UNL d   1       0.495  -3.528  -1.100  0.00  0.00    -0.035 A 
ATOM     20  C   UNL d   1       0.131  -2.868  -2.402  0.00  0.00     0.050 C 
BRANCH  16  21
ATOM     21  S   UNL d   1       1.751  -5.909   2.653  0.00  0.00    -0.134 SA
ATOM     22  C   UNL d   1       2.994  -4.864   3.457  0.00  0.00     0.095 C 
ENDBRANCH  16  21
ENDBRANCH   1  14
BRANCH   2  23
ATOM     23  C   UNL d   1       3.392   1.374   0.077  0.00  0.00     0.175 C 
BRANCH  23  24
ATOM     24  C   UNL d   1       3.986   1.415  -1.318  0.00  0.00    -0.040 A 
ATOM     25  C   UNL d   1       3.690   2.469  -2.194  0.00  0.00     0.009 A 
ATOM     26  C   UNL d   1       4.210   2.481  -3.491  0.00  0.00     0.001 A 
ATOM     27  C   UNL d   1       5.025   1.439  -3.928  0.00  0.00     0.000 A 
ATOM     28  C   UNL d   1       5.330   0.388  -3.067  0.00  0.00     0.001 A 
ATOM     29  C   UNL d   1       4.815   0.376  -1.770  0.00  0.00     0.009 A 
ENDBRANCH  23  24
ENDBRANCH   2  23
TORSDOF 4
