REMARK  6 active torsions:
REMARK  status: ('A' for Active; 'I' for Inactive)
REMARK    1  A    between atoms: N_2  and  C_1 
REMARK    2  A    between atoms: N_4  and  C_1 
REMARK       I    between atoms: C_3  and  N_2 
REMARK    3  A    between atoms: O_15  and  C_3 
REMARK    4  A    between atoms: C_5  and  N_4 
REMARK    5  A    between atoms: C_10  and  C_6 
REMARK    6  A    between atoms: C_19  and  O_15 
ROOT
ATOM      1  C   UNL d   1      -1.224   0.279   1.184  0.00  0.00     0.051 A 
ATOM      2  C   UNL d   1      -4.073   0.344   1.236  0.00  0.00    -0.049 A 
ATOM      3  C   UNL d   1      -1.972  -0.730   0.564  0.00  0.00     0.038 A 
ATOM      4  C   UNL d   1      -3.376  -0.705   0.603  0.00  0.00     0.029 A 
ATOM      5  C   UNL d   1      -1.910   1.312   1.820  0.00  0.00     0.031 A 
ATOM      6  C   UNL d   1      -3.305   1.342   1.848  0.00  0.00     0.010 A 
ATOM      7 BR   UNL d   1      -1.130  -2.190  -0.315  0.00  0.00    -0.049 Br
ENDROOT
BRANCH   1   8
ATOM      8  N   UNL d   1       0.183   0.319   1.058  0.00  0.00    -0.332 N 
ATOM      9  H   UNL d   1       0.560  -0.184   0.253  0.00  0.00     0.168 HD
BRANCH   8  10
ATOM     10  C   UNL d   1       1.099   0.947   1.865  0.00  0.00     0.180 C 
ATOM     11  S   UNL d   1       0.990   1.189   3.521  0.00  0.00    -0.040 SA
BRANCH  10  12
ATOM     12  N   UNL d   1       2.238   1.398   1.250  0.00  0.00    -0.279 N 
ATOM     13  C   UNL d   1       2.623   1.273  -0.060  0.00  0.00     0.366 C 
ATOM     14  O   UNL d   1       2.019   0.660  -0.925  0.00  0.00    -0.238 OA
ATOM     15  H   UNL d   1       2.898   1.882   1.840  0.00  0.00     0.173 HD
BRANCH  13  16
ATOM     16  O   UNL d   1       3.839   1.857  -0.208  0.00  0.00    -0.304 OA
BRANCH  16  17
ATOM     17  C   UNL d   1       4.544   1.490  -1.401  0.00  0.00     0.176 C 
ATOM     18  C   UNL d   1       5.258   0.173  -1.149  0.00  0.00     0.034 C 
ENDBRANCH  16  17
ENDBRANCH  13  16
ENDBRANCH  10  12
ENDBRANCH   8  10
ENDBRANCH   1   8
BRANCH   2  19
ATOM     19  C   UNL d   1      -5.610   0.404   1.213  0.00  0.00    -0.024 C 
ATOM     20  C   UNL d   1      -6.187   1.632   1.956  0.00  0.00     0.019 C 
ATOM     21  C   UNL d   1      -6.096   0.486  -0.249  0.00  0.00     0.019 C 
ATOM     22  C   UNL d   1      -6.204  -0.853   1.880  0.00  0.00     0.019 C 
ENDBRANCH   2  19
TORSDOF 6
