REMARK  4 active torsions:
REMARK  status: ('A' for Active; 'I' for Inactive)
REMARK    1  A    between atoms: C_8  and  N_4 
REMARK    2  A    between atoms: C_9  and  C_8 
REMARK    3  A    between atoms: C_11  and  C_9 
REMARK    4  A    between atoms: O_10  and  C_11 
ROOT
ATOM      1  C   UNL d   1       0.693   1.247  -0.055  0.00  0.00     0.170 C 
ATOM      2  N   UNL d   1       1.331   0.053  -0.034  0.00  0.00    -0.342 N 
ATOM      3  N   UNL d   1      -0.659   1.201  -0.024  0.00  0.00    -0.342 N 
ATOM      4  N   UNL d   1      -0.689  -1.143   0.289  0.00  0.00     0.122 N 
ATOM      5  C   UNL d   1       0.651  -1.186  -0.269  0.00  0.00     0.399 C 
ATOM      6  C   UNL d   1      -1.386  -0.004  -0.283  0.00  0.00     0.399 C 
ATOM      7  S   UNL d   1       1.521   2.683  -0.060  0.00  0.00    -0.041 SA
ATOM      8  H   UNL d   1       2.337   0.084  -0.130  0.00  0.00     0.163 HD
ATOM      9  H   UNL d   1      -1.139   2.087  -0.108  0.00  0.00     0.163 HD
ENDROOT
BRANCH   4  10
ATOM     10  C   UNL d   1      -0.691  -1.191   1.759  0.00  0.00     0.278 C 
BRANCH  10  11
ATOM     11  C   UNL d   1      -2.092  -1.382   2.349  0.00  0.00     0.056 C 
BRANCH  11  12
ATOM     12  C   UNL d   1      -2.050  -1.493   3.867  0.00  0.00     0.165 C 
BRANCH  12  13
ATOM     13  O   UNL d   1      -3.379  -1.635   4.351  0.00  0.00    -0.401 OA
ATOM     14  H   UNL d   1      -3.331  -1.667   5.321  0.00  0.00     0.209 HD
ENDBRANCH  12  13
ENDBRANCH  11  12
ENDBRANCH  10  11
ENDBRANCH   4  10
TORSDOF 4
