REMARK  3 active torsions:
REMARK  status: ('A' for Active; 'I' for Inactive)
REMARK    1  A    between atoms: N_2  and  S_1 
REMARK    2  A    between atoms: C_6  and  S_1 
REMARK    3  A    between atoms: S_10  and  C_3 
ROOT
ATOM      1  S   UNL d   1       0.932   0.234  -0.031  0.00  0.00     0.266 S 
ATOM      2  O   UNL d   1       0.530  -0.829  -0.934  0.00  0.00    -0.200 OA
ATOM      3  O   UNL d   1       2.332   0.494   0.217  0.00  0.00    -0.200 OA
ENDROOT
BRANCH   1   4
ATOM      4  N   UNL d   1       0.117  -0.008   1.400  0.00  0.00    -0.250 N 
ATOM      5  C   UNL d   1       0.301   0.569   2.661  0.00  0.00     0.151 C 
ATOM      6  N   UNL d   1      -0.643   0.316   3.511  0.00  0.00    -0.368 N 
ATOM      7  C   UNL d   1      -1.566  -0.632   2.829  0.00  0.00     0.143 C 
ATOM      8  HN  UNL d   1      -0.735   0.690   4.456  1.00  0.00     0.161 HD
ATOM      9  C   UNL d   1      -1.211  -0.623   1.342  0.00  0.00     0.163 C 
BRANCH   5  10
ATOM     10  S   UNL d   1       1.639   1.594   3.014  0.00  0.00    -0.098 SA
ATOM     11  C   UNL d   1       1.200   2.198   4.653  0.00  0.00     0.099 C 
ENDBRANCH   5  10
ENDBRANCH   1   4
BRANCH   1  12
ATOM     12  C   UNL d   1       0.254   1.731  -0.726  0.00  0.00     0.080 A 
ATOM     13  C   UNL d   1      -0.649   2.543  -0.035  0.00  0.00     0.027 A 
ATOM     14  C   UNL d   1      -1.180   3.674  -0.660  0.00  0.00     0.025 A 
ATOM     15  C   UNL d   1      -0.801   3.993  -1.964  0.00  0.00     0.034 A 
ATOM     16  C   UNL d   1       0.111   3.193  -2.651  0.00  0.00     0.025 A 
ATOM     17 CL   UNL d   1      -1.470   5.381  -2.728  0.00  0.00    -0.084 Cl
ATOM     18  C   UNL d   1       0.639   2.057  -2.034  0.00  0.00     0.027 A 
ENDBRANCH   1  12
TORSDOF 3
