REMARK  7 active torsions:
REMARK  status: ('A' for Active; 'I' for Inactive)
REMARK    1  A    between atoms: N_2  and  S_1 
REMARK    2  A    between atoms: C_4  and  S_1 
REMARK       I    between atoms: C_3  and  N_2 
REMARK       I    between atoms: N_8  and  C_3 
REMARK    3  A    between atoms: C_22  and  N_8 
REMARK    4  A    between atoms: O_20  and  C_11 
REMARK    5  A    between atoms: C_12  and  O_21 
REMARK    6  A    between atoms: O_21  and  C_23 
REMARK    7  A    between atoms: C_23  and  C_22 
ROOT
ATOM      1  N   UNL d   1       0.442  -1.687   0.464  0.00  0.00    -0.232 N 
ATOM      2  C   UNL d   1       0.877  -2.898  -0.038  0.00  0.00     0.329 C 
ATOM      3  O   UNL d   1       1.620  -2.993  -1.001  0.00  0.00    -0.246 OA
ATOM      4  N   UNL d   1       0.364  -3.973   0.636  0.00  0.00    -0.340 N 
ATOM      5  H   UNL d   1      -0.236  -1.613   1.208  0.00  0.00     0.183 HD
ATOM      6  H   UNL d   1      -0.351  -3.809   1.325  0.00  0.00     0.164 HD
ENDROOT
BRANCH   1   7
ATOM      7  S   UNL d   1       0.927  -0.206  -0.125  0.00  0.00     0.266 S 
ATOM      8  O   UNL d   1       2.361  -0.098   0.010  0.00  0.00    -0.200 OA
ATOM      9  O   UNL d   1       0.052   0.761   0.507  0.00  0.00    -0.200 OA
BRANCH   7  10
ATOM     10  C   UNL d   1       0.490  -0.247  -1.844  0.00  0.00     0.080 A 
ATOM     11  C   UNL d   1      -0.857  -0.338  -2.205  0.00  0.00     0.026 A 
ATOM     12  C   UNL d   1      -1.204  -0.374  -3.557  0.00  0.00     0.008 A 
ATOM     13  C   UNL d   1      -0.215  -0.309  -4.549  0.00  0.00    -0.062 A 
ATOM     14  C   UNL d   1       1.129  -0.197  -4.170  0.00  0.00     0.008 A 
ATOM     15  C   UNL d   1      -0.606  -0.362  -5.997  0.00  0.00     0.048 C 
ATOM     16  C   UNL d   1       1.485  -0.165  -2.820  0.00  0.00     0.026 A 
ENDBRANCH   7  10
ENDBRANCH   1   7
BRANCH   4  17
ATOM     17  C   UNL d   1       0.561  -5.318   0.125  0.00  0.00     0.151 C 
BRANCH  17  18
ATOM     18  C   UNL d   1       0.632  -6.381   1.220  0.00  0.00     0.195 C 
BRANCH  18  19
ATOM     19  O   UNL d   1       0.835  -7.646   0.585  0.00  0.00    -0.350 OA
BRANCH  19  20
ATOM     20  C   UNL d   1       0.898  -8.741   1.399  0.00  0.00     0.069 A 
ATOM     21  C   UNL d   1       0.632  -9.960   0.774  0.00  0.00     0.039 A 
ATOM     22  C   UNL d   1       0.668 -11.151   1.503  0.00  0.00     0.039 A 
ATOM     23  C   UNL d   1       0.986 -11.142   2.861  0.00  0.00     0.068 A 
ATOM     24  C   UNL d   1       1.274  -9.926   3.481  0.00  0.00     0.039 A 
ATOM     25  C   UNL d   1       1.232  -8.729   2.752  0.00  0.00     0.039 A 
BRANCH  23  26
ATOM     26  O   UNL d   1       0.988 -12.371   3.460  0.00  0.00    -0.356 OA
ATOM     27  C   UNL d   1       1.292 -12.408   4.849  0.00  0.00     0.210 C 
ENDBRANCH  23  26
ENDBRANCH  19  20
ENDBRANCH  18  19
ENDBRANCH  17  18
ENDBRANCH   4  17
TORSDOF 7
