REMARK  2 active torsions:
REMARK  status: ('A' for Active; 'I' for Inactive)
REMARK    1  A    between atoms: C_2  and  S_1 
REMARK    2  A    between atoms: N_3  and  S_1 
ROOT
ATOM      1  N   UNL d   1       0.431   1.437  -0.672  0.00  0.00    -0.206 NA
ATOM      2  C   UNL d   1      -0.374   4.212  -0.894  0.00  0.00     0.166 C 
ATOM      3  C   UNL d   1      -1.401   3.087  -0.923  0.00  0.00     0.084 C 
ATOM      4  C   UNL d   1       0.942   3.715  -1.482  0.00  0.00     0.084 C 
ATOM      5  C   UNL d   1       1.452   2.516  -0.697  0.00  0.00     0.113 C 
ATOM      6  C   UNL d   1      -0.894   1.872  -0.156  0.00  0.00     0.113 C 
ATOM      7  O   UNL d   1      -0.843   5.323  -1.676  0.00  0.00    -0.353 OA
ATOM      8  O   UNL d   1      -0.176   4.643   0.466  0.00  0.00    -0.353 OA
ATOM      9  C   UNL d   1      -0.160   6.067   0.395  0.00  0.00     0.197 C 
ATOM     10  C   UNL d   1      -1.111   6.360  -0.731  0.00  0.00     0.197 C 
ENDROOT
BRANCH   1  11
ATOM     11  S   UNL d   1       0.985  -0.064  -0.047  0.00  0.00     0.250 S 
ATOM     12  O   UNL d   1      -0.120  -0.998  -0.097  0.00  0.00    -0.205 OA
ATOM     13  O   UNL d   1       2.258  -0.377  -0.660  0.00  0.00    -0.205 OA
BRANCH  11  14
ATOM     14  C   UNL d   1       1.300   0.138   1.705  0.00  0.00     0.115 A 
ATOM     15  S   UNL d   1       2.842   0.727   2.165  0.00  0.00    -0.089 SA
ATOM     16  C   UNL d   1       2.434   0.697   3.826  0.00  0.00     0.051 A 
ATOM     17  C   UNL d   1       1.156   0.230   4.036  0.00  0.00     0.009 A 
ATOM     18  C   UNL d   1       0.505  -0.103   2.812  0.00  0.00     0.033 A 
ENDBRANCH  11  14
ENDBRANCH   1  11
TORSDOF 2
