REMARK  3 active torsions:
REMARK  status: ('A' for Active; 'I' for Inactive)
REMARK    1  A    between atoms: C_10  and  C_1 
REMARK    2  A    between atoms: N_5  and  C_2 
REMARK    3  A    between atoms: C_16  and  C_6 
ROOT
ATOM      1  C   UNL d   1       0.104  -0.975   0.022  0.00  0.00     0.072 A 
ATOM      2  N   UNL d   1      -1.645   0.490   0.113  0.00  0.00    -0.256 N 
ATOM      3  HN  UNL d   1      -2.586   0.884   0.122  1.00  0.00     0.195 HD
ATOM      4  C   UNL d   1      -1.341  -0.774   0.082  0.00  0.00     0.081 A 
ATOM      5  C   UNL d   1       0.667   0.382   0.119  0.00  0.00     0.317 A 
ATOM      6  O   UNL d   1      -0.415   1.231   0.132  0.00  0.00    -0.194 OA
ATOM      7  O   UNL d   1       1.840   0.713   0.138  0.00  0.00    -0.257 OA
ENDROOT
BRANCH   1   8
ATOM      8  C   UNL d   1       0.767  -2.125  -0.158  0.00  0.00     0.039 C 
ATOM      9  C   UNL d   1       2.180  -2.228  -0.108  0.00  0.00     0.008 A 
ATOM     10  S   UNL d   1       2.938  -2.567   1.401  0.00  0.00    -0.067 SA
ATOM     11  C   UNL d   1       3.110  -2.162  -1.129  0.00  0.00     0.022 A 
ATOM     12  C   UNL d   1       4.479  -2.598   0.693  0.00  0.00     0.144 A 
ATOM     13  C   UNL d   1       4.447  -2.373  -0.666  0.00  0.00     0.045 A 
BRANCH  12  14
ATOM     14  N   UNL d   1       5.646  -2.860   1.494  0.00  0.00    -0.108 N 
ATOM     15  O   UNL d   1       6.729  -2.883   0.893  0.00  0.00    -0.531 OA
ATOM     16  O   UNL d   1       5.497  -3.059   2.706  0.00  0.00    -0.531 OA
ENDBRANCH  12  14
ENDBRANCH   1   8
BRANCH   4  17
ATOM     17  C   UNL d   1      -2.355  -1.844   0.113  0.00  0.00    -0.006 A 
ATOM     18  C   UNL d   1      -3.577  -1.622  -0.534  0.00  0.00     0.014 A 
ATOM     19  C   UNL d   1      -4.552  -2.621  -0.549  0.00  0.00     0.001 A 
ATOM     20  C   UNL d   1      -4.314  -3.840   0.084  0.00  0.00     0.000 A 
ATOM     21  C   UNL d   1      -3.118  -4.049   0.767  0.00  0.00     0.001 A 
ATOM     22  C   UNL d   1      -2.149  -3.044   0.801  0.00  0.00     0.014 A 
ENDBRANCH   4  17
TORSDOF 3
