REMARK  4 active torsions:
REMARK  status: ('A' for Active; 'I' for Inactive)
REMARK    1  A    between atoms: C_11  and  C_2 
REMARK    2  A    between atoms: C_13  and  C_10 
REMARK    3  A    between atoms: C_14  and  C_12 
REMARK    4  A    between atoms: O_23  and  C_20 
ROOT
ATOM      1  N   UNL d   1       0.289   0.620   0.050  0.00  0.00    -0.235 N 
ATOM      2  C   UNL d   1      -0.820   1.453   0.040  0.00  0.00     0.144 A 
ATOM      3  C   UNL d   1       0.129  -0.770   0.058  0.00  0.00     0.130 A 
ATOM      4  N   UNL d   1       1.600   0.951   0.045  0.00  0.00    -0.295 N 
ATOM      5  HN  UNL d   1       1.995   1.891   0.063  1.00  0.00     0.187 HD
ATOM      6  N   UNL d   1      -1.095  -1.371   0.077  0.00  0.00    -0.340 N 
ATOM      7  HN  UNL d   1      -1.193  -2.386   0.086  1.00  0.00     0.167 HD
ATOM      8  C   UNL d   1      -2.056   0.911   0.043  0.00  0.00     0.067 A 
ATOM      9  C   UNL d   1       1.394  -1.305   0.038  0.00  0.00     0.077 A 
ATOM     10  C   UNL d   1       2.274  -0.204   0.010  0.00  0.00     0.037 A 
ATOM     11  C   UNL d   1      -2.135  -0.586   0.082  0.00  0.00     0.046 A 
ENDROOT
BRANCH  11  12
ATOM     12  C   UNL d   1      -3.499  -1.188   0.101  0.00  0.00    -0.009 A 
ATOM     13  C   UNL d   1      -4.586  -0.544   0.705  0.00  0.00     0.016 A 
ATOM     14  C   UNL d   1      -5.859  -1.124   0.673  0.00  0.00     0.037 A 
ATOM     15  C   UNL d   1      -6.050  -2.359   0.054  0.00  0.00     0.068 A 
ATOM     16  C   UNL d   1      -4.967  -3.008  -0.539  0.00  0.00     0.037 A 
ATOM     17  C   UNL d   1      -3.693  -2.435  -0.505  0.00  0.00     0.016 A 
BRANCH  15  18
ATOM     18  O   UNL d   1      -7.253  -2.998  -0.067  0.00  0.00    -0.356 OA
ATOM     19  C   UNL d   1      -8.185  -2.755   0.979  0.00  0.00     0.210 C 
ENDBRANCH  15  18
ENDBRANCH  11  12
BRANCH   2  20
ATOM     20  C   UNL d   1      -0.617   2.921   0.014  0.00  0.00     0.434 C 
ATOM     21  F   UNL d   1       0.658   3.369  -0.030  0.00  0.00    -0.165 F 
ATOM     22  F   UNL d   1      -1.252   3.474  -1.058  0.00  0.00    -0.165 F 
ATOM     23  F   UNL d   1      -1.186   3.497   1.111  0.00  0.00    -0.165 F 
ENDBRANCH   2  20
BRANCH  10  24
ATOM     24  C   UNL d   1       3.793  -0.205  -0.013  0.00  0.00    -0.007 C 
ATOM     25  C   UNL d   1       4.332  -0.220   1.430  0.00  0.00     0.021 C 
ATOM     26  C   UNL d   1       4.325  -1.447  -0.757  0.00  0.00     0.021 C 
ATOM     27  C   UNL d   1       4.351   1.044  -0.731  0.00  0.00     0.021 C 
ENDBRANCH  10  24
TORSDOF 4
