REMARK  2 active torsions:
REMARK  status: ('A' for Active; 'I' for Inactive)
REMARK    1  A    between atoms: C_5  and  C_1 
REMARK    2  A    between atoms: C_6  and  C_2 
REMARK       I    between atoms: N_9  and  C_5 
ROOT
ATOM      1  C   UNL d   1      -0.040  -1.125   0.012  0.00  0.00     0.092 C 
ATOM      2  C   UNL d   1      -1.360  -0.580   0.168  0.00  0.00     0.085 C 
ATOM      3  N   UNL d   1      -1.300   0.761   0.207  0.00  0.00    -0.259 N 
ATOM      4  HN  UNL d   1      -2.069   1.399   0.409  1.00  0.00     0.195 HD
ATOM      5  O   UNL d   1      -0.005   1.106  -0.078  0.00  0.00    -0.241 OA
ATOM      6  C   UNL d   1       0.742  -0.012  -0.237  0.00  0.00     0.090 C 
ATOM      7  C   UNL d   1       2.141   0.232  -0.637  0.00  0.00     0.080 C 
ENDROOT
BRANCH   1   8
ATOM      8  C   UNL d   1       0.356  -2.521  -0.035  0.00  0.00     0.258 C 
ATOM      9  N   UNL d   1       1.398  -2.972   0.802  0.00  0.00    -0.348 N 
ATOM     10  C   UNL d   1       1.905  -4.324   0.557  0.00  0.00     0.126 C 
ATOM     11  C   UNL d   1       2.254  -2.102   1.613  0.00  0.00     0.126 C 
ATOM     12  C   UNL d   1       2.434  -5.002   1.818  0.00  0.00     0.020 C 
ATOM     13  C   UNL d   1       3.444  -4.120   2.538  0.00  0.00     0.003 C 
ATOM     14  C   UNL d   1       2.806  -2.777   2.865  0.00  0.00     0.020 C 
ATOM     15  O   UNL d   1      -0.252  -3.295  -0.772  0.00  0.00    -0.267 OA
ENDBRANCH   1   8
BRANCH   2  16
ATOM     16  C   UNL d   1      -2.651  -1.258   0.347  0.00  0.00     0.015 A 
ATOM     17  C   UNL d   1      -3.821  -0.843  -0.324  0.00  0.00     0.046 A 
ATOM     18 CL   UNL d   1      -3.838   0.386  -1.544  0.00  0.00    -0.083 Cl
ATOM     19  C   UNL d   1      -5.053  -1.454  -0.047  0.00  0.00     0.025 A 
ATOM     20  C   UNL d   1      -5.133  -2.497   0.872  0.00  0.00     0.002 A 
ATOM     21  C   UNL d   1      -3.981  -2.943   1.511  0.00  0.00     0.001 A 
ATOM     22  C   UNL d   1      -2.750  -2.326   1.255  0.00  0.00     0.015 A 
ENDBRANCH   2  16
TORSDOF 2
