REMARK  1 active torsions:
REMARK  status: ('A' for Active; 'I' for Inactive)
REMARK    1  A    between atoms: C_12  and  C_2 
ROOT
ATOM      1  C   UNL d   1       0.789   0.734   1.117  0.00  0.00     0.019 C 
ATOM      2  C   UNL d   1      -1.495   0.329   0.097  0.00  0.00    -0.039 C 
ATOM      3  C   UNL d   1       0.261  -1.519   0.150  0.00  0.00    -0.012 C 
ATOM      4  C   UNL d   1       0.579   0.463  -1.371  0.00  0.00    -0.012 C 
ATOM      5  C   UNL d   1      -0.711   1.054   1.222  0.00  0.00     0.030 C 
ATOM      6  C   UNL d   1       1.010  -0.777   1.270  0.00  0.00     0.025 C 
ATOM      7  C   UNL d   1       1.321   1.206  -0.246  0.00  0.00     0.025 C 
ATOM      8  C   UNL d   1      -0.925   0.776  -1.274  0.00  0.00     0.014 C 
ATOM      9  C   UNL d   1      -1.241  -1.198   0.244  0.00  0.00     0.014 C 
ATOM     10  C   UNL d   1       0.795  -1.050  -1.213  0.00  0.00     0.009 C 
ATOM     11 BR   UNL d   1       1.746   1.671   2.540  0.00  0.00    -0.085 Br
ENDROOT
BRANCH   2  12
ATOM     12  C   UNL d   1      -3.016   0.597   0.196  0.00  0.00     0.005 C 
ATOM     13  C   UNL d   1      -3.438   2.058   0.088  0.00  0.00     0.006 C 
ENDBRANCH   2  12
TORSDOF 1
