REMARK  4 active torsions:
REMARK  status: ('A' for Active; 'I' for Inactive)
REMARK    1  A    between atoms: C_6  and  N_1 
REMARK    2  A    between atoms: C_7  and  C_6 
REMARK       I    between atoms: N_11  and  C_7 
REMARK    3  A    between atoms: C_16  and  N_11 
REMARK    4  A    between atoms: C_17  and  C_12 
ROOT
ATOM      1  C   UNL d   1       3.482  -2.247  -0.075  0.00  0.00     0.240 C 
ATOM      2  N   UNL d   1       4.211  -1.070  -0.018  0.00  0.00    -0.326 N 
ATOM      3  O   UNL d   1       2.251  -2.327  -0.053  0.00  0.00    -0.271 OA
ATOM      4  H   UNL d   1       5.178  -1.126  -0.338  0.00  0.00     0.169 HD
ENDROOT
BRANCH   1   5
ATOM      5  C   UNL d   1       4.330  -3.516  -0.078  0.00  0.00     0.239 C 
BRANCH   5   6
ATOM      6  N   UNL d   1       5.048  -3.838  -1.280  0.00  0.00    -0.268 N 
ATOM      7  C   UNL d   1       5.002  -5.047  -1.939  0.00  0.00     0.374 A 
ATOM      8  O   UNL d   1       5.993  -5.127  -2.928  0.00  0.00    -0.257 OA
ATOM      9  O   UNL d   1       4.235  -5.968  -1.703  0.00  0.00    -0.237 OA
ATOM     10  C   UNL d   1       6.607  -3.901  -2.810  0.00  0.00     0.125 A 
ATOM     11  C   UNL d   1       6.056  -3.101  -1.836  0.00  0.00     0.146 A 
ATOM     12  C   UNL d   1       7.669  -3.446  -3.555  0.00  0.00     0.043 A 
ATOM     13  N   UNL d   1       6.443  -1.856  -1.529  0.00  0.00    -0.350 N 
ATOM     14  C   UNL d   1       7.452  -1.392  -2.313  0.00  0.00     0.090 A 
ATOM     15  HN  UNL d   1       6.021  -1.309  -0.779  1.00  0.00     0.166 HD
ATOM     16  C   UNL d   1       8.094  -2.141  -3.308  0.00  0.00     0.020 A 
ENDBRANCH   5   6
ENDBRANCH   1   5
BRANCH   2  17
ATOM     17  C   UNL d   1       3.724   0.206   0.343  0.00  0.00     0.034 A 
ATOM     18  C   UNL d   1       2.469   0.410   0.914  0.00  0.00     0.030 A 
ATOM     19  C   UNL d   1       2.074   1.681   1.346  0.00  0.00     0.010 A 
ATOM     20  C   UNL d   1       2.925   2.784   1.218  0.00  0.00    -0.055 A 
ATOM     21  C   UNL d   1       4.174   2.585   0.612  0.00  0.00     0.010 A 
ATOM     22  C   UNL d   1       4.572   1.308   0.187  0.00  0.00     0.030 A 
BRANCH  20  23
ATOM     23  C   UNL d   1       2.547   4.143   1.786  0.00  0.00     0.010 C 
ATOM     24  C   UNL d   1       1.242   4.691   1.200  0.00  0.00     0.015 C 
ATOM     25  C   UNL d   1       2.459   4.078   3.316  0.00  0.00     0.015 C 
ENDBRANCH  20  23
ENDBRANCH   2  17
TORSDOF 4
