REMARK  4 active torsions:
REMARK  status: ('A' for Active; 'I' for Inactive)
REMARK    1  A    between atoms: C_2  and  S_1 
REMARK    2  A    between atoms: C_7  and  S_1 
REMARK    3  A    between atoms: N_6  and  C_3 
REMARK    4  A    between atoms: N_4  and  C_11 
ROOT
ATOM      1  C   UNL d   1      -0.585   3.231   1.113  0.00  0.00     0.154 C 
ATOM      2  C   UNL d   1      -0.319   2.294   0.187  0.00  0.00     0.120 C 
ATOM      3  C   UNL d   1      -1.635   4.166   0.956  0.00  0.00     0.113 C 
ATOM      4  N   UNL d   1      -2.482   4.943   0.778  0.00  0.00    -0.191 NA
ENDROOT
BRANCH   1   5
ATOM      5  S   UNL d   1       0.289   3.248   2.611  0.00  0.00     0.194 S 
ATOM      6  O   UNL d   1       0.921   1.955   2.816  0.00  0.00    -0.221 OA
ATOM      7  O   UNL d   1      -0.580   3.769   3.653  0.00  0.00    -0.221 OA
BRANCH   5   8
ATOM      8  C   UNL d   1       1.628   4.472   2.359  0.00  0.00     0.058 C 
ATOM      9  C   UNL d   1       1.067   5.851   1.983  0.00  0.00     0.031 C 
ATOM     10  C   UNL d   1       2.395   4.612   3.689  0.00  0.00     0.031 C 
ATOM     11  C   UNL d   1       2.599   3.998   1.269  0.00  0.00     0.031 C 
ENDBRANCH   5   8
ENDBRANCH   1   5
BRANCH   2  12
ATOM     12  N   UNL d   1      -0.906   2.170  -1.073  0.00  0.00    -0.388 N 
ATOM     13  C   UNL d   1      -0.719   3.227  -2.086  0.00  0.00     0.124 C 
ATOM     14  C   UNL d   1      -1.986   3.394  -2.907  0.00  0.00     0.045 C 
ATOM     15  C   UNL d   1      -2.468   2.070  -3.508  0.00  0.00     0.091 C 
ATOM     16  C   UNL d   1      -2.526   0.956  -2.454  0.00  0.00     0.045 C 
ATOM     17  C   UNL d   1      -1.254   0.848  -1.615  0.00  0.00     0.124 C 
BRANCH  15  18
ATOM     18  N   UNL d   1      -1.754   1.695  -4.731  0.00  0.00    -0.362 N 
ATOM     19  C   UNL d   1      -0.447   1.302  -4.857  0.00  0.00     0.091 A 
ATOM     20  C   UNL d   1      -0.193   1.039  -6.184  0.00  0.00     0.019 A 
ATOM     21  C   UNL d   1      -1.385   1.294  -6.896  0.00  0.00     0.019 A 
ATOM     22  C   UNL d   1      -2.329   1.699  -5.981  0.00  0.00     0.091 A 
ENDBRANCH  15  18
ENDBRANCH   2  12
TORSDOF 4
