REMARK  6 active torsions:
REMARK  status: ('A' for Active; 'I' for Inactive)
REMARK    1  A    between atoms: C_2  and  N_1 
REMARK       I    between atoms: C_3  and  N_1 
REMARK    2  A    between atoms: C_5  and  C_2 
REMARK    3  A    between atoms: C_4  and  C_3 
REMARK    4  A    between atoms: C_6  and  C_21 
REMARK    5  A    between atoms: O_20  and  C_11 
REMARK    6  A    between atoms: C_21  and  O_20 
ROOT
ATOM      1  N   UNL d   1       1.158  -0.002  -0.058  0.00  0.00    -0.308 N 
ATOM      2  C   UNL d   1       2.518   0.251  -0.164  0.00  0.00     0.258 C 
ATOM      3  O   UNL d   1       3.192  -0.035  -1.149  0.00  0.00    -0.267 OA
ATOM      4  H   UNL d   1       0.679   0.394   0.737  0.00  0.00     0.170 HD
ENDROOT
BRANCH   2   5
ATOM      5  C   UNL d   1       3.166   0.934   0.977  0.00  0.00     0.048 A 
ATOM      6  C   UNL d   1       4.273   1.727   0.722  0.00  0.00     0.107 A 
ATOM      7  N   UNL d   1       4.972   2.381   1.681  0.00  0.00    -0.346 N 
ATOM      8  C   UNL d   1       4.579   2.231   2.961  0.00  0.00     0.142 A 
ATOM      9  HN  UNL d   1       5.770   2.969   1.442  1.00  0.00     0.167 HD
ATOM     10  C   UNL d   1       3.489   1.443   3.312  0.00  0.00     0.057 A 
ATOM     11  C   UNL d   1       2.768   0.788   2.306  0.00  0.00     0.022 A 
BRANCH   8  12
ATOM     12  O   UNL d   1       5.402   2.875   3.834  0.00  0.00    -0.327 OA
BRANCH  12  13
ATOM     13  C   UNL d   1       4.844   3.303   5.077  0.00  0.00     0.294 C 
BRANCH  13  14
ATOM     14  C   UNL d   1       4.980   2.277   6.196  0.00  0.00     0.408 C 
ATOM     15  F   UNL d   1       5.614   1.152   5.802  0.00  0.00    -0.169 F 
ATOM     16  F   UNL d   1       5.654   2.782   7.252  0.00  0.00    -0.169 F 
ATOM     17  F   UNL d   1       3.753   1.906   6.640  0.00  0.00    -0.169 F 
ENDBRANCH  13  14
ENDBRANCH  12  13
ENDBRANCH   8  12
ENDBRANCH   2   5
BRANCH   1  18
ATOM     18  C   UNL d   1       0.376  -0.605  -1.029  0.00  0.00     0.112 C 
ATOM     19  N   UNL d   1       0.862  -1.023  -2.145  0.00  0.00    -0.385 N 
ATOM     20  H   UNL d   1       1.882  -0.840  -2.162  0.00  0.00     0.157 HD
ATOM     21  HN  UNL d   1       0.328  -1.464  -2.894  1.00  0.00     0.157 HD
BRANCH  18  22
ATOM     22  C   UNL d   1      -1.079  -0.724  -0.757  0.00  0.00     0.011 A 
ATOM     23  C   UNL d   1      -1.968  -0.683  -1.840  0.00  0.00     0.039 A 
ATOM     24  C   UNL d   1      -3.341  -0.735  -1.611  0.00  0.00     0.036 A 
ATOM     25 CL   UNL d   1      -4.434  -0.643  -2.938  0.00  0.00    -0.084 Cl
ATOM     26  C   UNL d   1      -3.841  -0.845  -0.316  0.00  0.00     0.047 A 
ATOM     27  C   UNL d   1      -2.951  -0.925   0.752  0.00  0.00     0.036 A 
ATOM     28  C   UNL d   1      -1.573  -0.873   0.543  0.00  0.00     0.039 A 
ATOM     29 CL   UNL d   1      -3.554  -1.079   2.357  0.00  0.00    -0.084 Cl
ENDBRANCH  18  22
ENDBRANCH   1  18
TORSDOF 6
