REMARK  2 active torsions:
REMARK  status: ('A' for Active; 'I' for Inactive)
REMARK    1  A    between atoms: C_2  and  N_1 
REMARK       I    between atoms: C_6  and  N_1 
REMARK    2  A    between atoms: C_7  and  C_3 
ROOT
ATOM      1  C   UNL d   1       0.280  -0.008   1.232  0.00  0.00     0.052 A 
ATOM      2  C   UNL d   1      -1.229  -0.813   3.504  0.00  0.00    -0.049 A 
ATOM      3  C   UNL d   1       0.625   0.443   2.507  0.00  0.00     0.038 A 
ATOM      4  C   UNL d   1      -0.134   0.065   3.623  0.00  0.00     0.029 A 
ATOM      5  C   UNL d   1      -0.808  -0.871   1.092  0.00  0.00     0.031 A 
ATOM      6  C   UNL d   1      -1.545  -1.275   2.217  0.00  0.00     0.010 A 
ATOM      7 BR   UNL d   1       2.064   1.655   2.775  0.00  0.00    -0.049 Br
ENDROOT
BRANCH   1   8
ATOM      8  N   UNL d   1       1.073   0.339   0.125  0.00  0.00    -0.326 N 
ATOM      9  C   UNL d   1       0.686   0.711  -1.132  0.00  0.00     0.218 C 
ATOM     10  O   UNL d   1       1.527   0.808  -2.022  0.00  0.00    -0.274 OA
ATOM     11  C   UNL d   1      -0.746   1.115  -1.378  0.00  0.00     0.117 C 
ATOM     12  H   UNL d   1       2.065   0.468   0.288  0.00  0.00     0.169 HD
ENDBRANCH   1   8
BRANCH   2  13
ATOM     13  C   UNL d   1      -2.009  -1.242   4.760  0.00  0.00    -0.024 C 
ATOM     14  C   UNL d   1      -3.166  -2.226   4.471  0.00  0.00     0.019 C 
ATOM     15  C   UNL d   1      -1.050  -1.944   5.747  0.00  0.00     0.019 C 
ATOM     16  C   UNL d   1      -2.625  -0.004   5.447  0.00  0.00     0.019 C 
ENDBRANCH   2  13
TORSDOF 2
