REMARK  5 active torsions:
REMARK  status: ('A' for Active; 'I' for Inactive)
REMARK    1  A    between atoms: C_6  and  C_1 
REMARK    2  A    between atoms: O_18  and  C_1 
REMARK    3  A    between atoms: N_4  and  C_9 
REMARK    4  A    between atoms: C_8  and  C_6 
REMARK    5  A    between atoms: C_10  and  C_8 
ROOT
ATOM      1  C   UNL d   1      -1.354  -1.587  -0.073  0.00  0.00     0.174 A 
ATOM      2  C   UNL d   1      -2.549  -0.614   0.213  0.00  0.00     0.262 A 
ATOM      3  C   UNL d   1      -0.166  -0.719   0.256  0.00  0.00     0.014 A 
ATOM      4  N   UNL d   1      -2.001   0.570   0.711  0.00  0.00    -0.324 N 
ATOM      5  C   UNL d   1      -0.613   0.536   0.678  0.00  0.00     0.044 A 
ATOM      6  C   UNL d   1       1.185  -0.972   0.090  0.00  0.00     0.032 A 
ATOM      7  O   UNL d   1      -3.739  -0.843   0.080  0.00  0.00    -0.269 OA
ATOM      8  C   UNL d   1       0.251   1.581   0.928  0.00  0.00     0.031 A 
ATOM      9  C   UNL d   1       2.071   0.084   0.305  0.00  0.00     0.011 A 
ATOM     10  C   UNL d   1       1.614   1.350   0.719  0.00  0.00     0.021 A 
ATOM     11 BR   UNL d   1       3.914  -0.176  -0.033  0.00  0.00    -0.051 Br
ATOM     12  H   UNL d   1      -2.564   1.380   0.914  0.00  0.00     0.169 HD
ENDROOT
BRANCH   1  13
ATOM     13  C   UNL d   1      -1.382  -2.132  -1.505  0.00  0.00     0.137 C 
BRANCH  13  14
ATOM     14  C   UNL d   1      -1.273  -1.062  -2.579  0.00  0.00     0.163 C 
ATOM     15  O   UNL d   1      -1.271   0.138  -2.321  0.00  0.00    -0.292 OA
BRANCH  14  16
ATOM     16  C   UNL d   1      -1.160  -1.460  -4.018  0.00  0.00     0.012 A 
ATOM     17  C   UNL d   1      -1.147  -2.790  -4.450  0.00  0.00     0.051 A 
ATOM     18  C   UNL d   1      -1.033  -3.063  -5.827  0.00  0.00     0.103 A 
ATOM     19  C   UNL d   1      -0.934  -2.028  -6.766  0.00  0.00     0.036 A 
ATOM     20  C   UNL d   1      -0.950  -0.707  -6.331  0.00  0.00     0.003 A 
ATOM     21  C   UNL d   1      -1.060  -0.427  -4.968  0.00  0.00     0.015 A 
BRANCH  18  22
ATOM     22  N   UNL d   1      -1.010  -4.458  -6.291  0.00  0.00    -0.116 N 
ATOM     23  O   UNL d   1      -1.068  -5.348  -5.435  0.00  0.00    -0.532 OA
ATOM     24  O   UNL d   1      -0.933  -4.657  -7.512  0.00  0.00    -0.532 OA
ENDBRANCH  18  22
ENDBRANCH  14  16
ENDBRANCH  13  14
ENDBRANCH   1  13
BRANCH   1  25
ATOM     25  O   UNL d   1      -1.365  -2.695   0.829  0.00  0.00    -0.375 OA
ATOM     26  H   UNL d   1      -1.300  -2.330   1.730  0.00  0.00     0.211 HD
ENDBRANCH   1  25
TORSDOF 5
