REMARK  0 active torsions:
REMARK  status: ('A' for Active; 'I' for Inactive)
ROOT
ATOM      1  C   UNL d   1       0.280  -0.745   0.000  0.00  0.00     0.068 A 
ATOM      2  C   UNL d   1       0.263   0.766  -0.002  0.00  0.00     0.070 A 
ATOM      3  C   UNL d   1      -0.954   1.480  -0.002  0.00  0.00     0.076 A 
ATOM      4  C   UNL d   1      -0.922  -1.488   0.002  0.00  0.00     0.059 A 
ATOM      5  S   UNL d   1       2.565   0.036  -0.001  0.00  0.00     0.068 SA
ATOM      6  C   UNL d   1      -2.103  -0.727   0.001  0.00  0.00     0.074 A 
ATOM      7  C   UNL d   1      -2.113   0.691  -0.001  0.00  0.00     0.140 A 
ATOM      8  N   UNL d   1       1.491   1.305  -0.002  0.00  0.00    -0.310 N 
ATOM      9  HN  UNL d   1       1.721   2.299  -0.003  1.00  0.00     0.176 HD
ATOM     10  N   UNL d   1       1.520  -1.256   0.001  0.00  0.00    -0.310 N 
ATOM     11  HN  UNL d   1       1.772  -2.244   0.002  1.00  0.00     0.176 HD
ATOM     12  F   UNL d   1      -3.291   1.337  -0.001  0.00  0.00    -0.204 F 
ATOM     13 CL   UNL d   1      -3.608  -1.579   0.003  0.00  0.00    -0.081 Cl
ENDROOT
TORSDOF 0
