REMARK  4 active torsions:
REMARK  status: ('A' for Active; 'I' for Inactive)
REMARK       I    between atoms: C_2  and  N_1 
REMARK       I    between atoms: N_8  and  C_2 
REMARK    1  A    between atoms: C_5  and  C_3 
REMARK    2  A    between atoms: C_6  and  C_5 
REMARK       I    between atoms: N_9  and  C_6 
REMARK    3  A    between atoms: C_7  and  N_9 
REMARK    4  A    between atoms: C_19  and  N_8 
ROOT
ATOM      1  N   UNL d   1      -1.504  -1.153   0.340  0.00  0.00    -0.318 N 
ATOM      2  C   UNL d   1      -2.352  -2.035   0.997  0.00  0.00     0.323 C 
ATOM      3  C   UNL d   1      -0.020  -1.273   0.460  0.00  0.00     0.189 C 
ATOM      4  C   UNL d   1       0.537  -0.126   1.342  0.00  0.00     0.241 C 
ATOM      5  N   UNL d   1      -3.702  -1.841   0.801  0.00  0.00    -0.309 N 
ATOM      6  N   UNL d   1      -0.028   1.116   1.150  0.00  0.00    -0.358 N 
ATOM      7  O   UNL d   1      -1.905  -2.980   1.641  0.00  0.00    -0.247 OA
ATOM      8  O   UNL d   1       1.545  -0.211   2.039  0.00  0.00    -0.271 OA
ATOM      9  C   UNL d   1      -1.907   0.162  -0.186  0.00  0.00     0.148 C 
ATOM     10  C   UNL d   1      -1.403   1.284   0.730  0.00  0.00     0.142 C 
ATOM     11  H   UNL d   1      -3.963  -1.306  -0.009  0.00  0.00     0.170 HD
ATOM     12  H   UNL d   1       0.391   1.831   1.736  0.00  0.00     0.162 HD
ENDROOT
BRANCH   3  13
ATOM     13  C   UNL d   1       0.635  -2.602   0.861  0.00  0.00     0.138 C 
BRANCH  13  14
ATOM     14  C   UNL d   1       0.593  -3.626  -0.248  0.00  0.00     0.224 C 
ATOM     15  N   UNL d   1      -0.421  -4.552  -0.136  0.00  0.00    -0.326 N 
ATOM     16  H   UNL d   1      -1.202  -4.306   0.488  0.00  0.00     0.169 HD
ATOM     17  O   UNL d   1       1.415  -3.587  -1.157  0.00  0.00    -0.273 OA
BRANCH  15  18
ATOM     18  C   UNL d   1      -0.520  -5.793  -0.810  0.00  0.00     0.058 A 
ATOM     19  C   UNL d   1       0.583  -6.388  -1.437  0.00  0.00     0.055 A 
ATOM     20  C   UNL d   1       0.482  -7.673  -1.979  0.00  0.00     0.036 A 
ATOM     21 CL   UNL d   1       1.857  -8.406  -2.711  0.00  0.00    -0.084 Cl
ATOM     22  C   UNL d   1      -0.715  -8.382  -1.914  0.00  0.00     0.026 A 
ATOM     23  C   UNL d   1      -1.831  -7.791  -1.326  0.00  0.00     0.028 A 
ATOM     24  C   UNL d   1      -1.735  -6.505  -0.781  0.00  0.00     0.060 A 
ATOM     25 CL   UNL d   1      -3.168  -5.812  -0.115  0.00  0.00    -0.082 Cl
ENDBRANCH  15  18
ENDBRANCH  13  14
ENDBRANCH   3  13
BRANCH   5  26
ATOM     26  C   UNL d   1      -4.729  -2.687   1.295  0.00  0.00     0.036 A 
ATOM     27  C   UNL d   1      -4.558  -3.591   2.348  0.00  0.00     0.029 A 
ATOM     28  C   UNL d   1      -5.569  -4.496   2.684  0.00  0.00     0.002 A 
ATOM     29  C   UNL d   1      -6.776  -4.483   1.993  0.00  0.00     0.000 A 
ATOM     30  C   UNL d   1      -6.985  -3.541   0.989  0.00  0.00     0.002 A 
ATOM     31  C   UNL d   1      -5.970  -2.640   0.648  0.00  0.00     0.029 A 
ENDBRANCH   5  26
TORSDOF 4
