REMARK  5 active torsions:
REMARK  status: ('A' for Active; 'I' for Inactive)
REMARK    1  A    between atoms: C_2  and  C_1 
REMARK       I    between atoms: N_6  and  C_2 
REMARK    2  A    between atoms: C_3  and  N_8 
REMARK    3  A    between atoms: N_5  and  C_3 
REMARK    4  A    between atoms: C_4  and  N_5 
REMARK    5  A    between atoms: N_8  and  N_6 
ROOT
ATOM      1  N   UNL d   1       1.608   4.029  -0.173  0.00  0.00    -0.273 N 
ATOM      2  H   UNL d   1       2.295   3.280  -0.081  0.00  0.00     0.189 HD
ENDROOT
BRANCH   1   3
ATOM      3  C   UNL d   1       2.028   5.326  -0.076  0.00  0.00     0.191 C 
ATOM      4  S   UNL d   1       1.456   6.590  -1.018  0.00  0.00    -0.039 SA
BRANCH   3   5
ATOM      5  N   UNL d   1       2.972   5.611   0.868  0.00  0.00    -0.331 N 
ATOM      6  H   UNL d   1       3.400   6.528   0.756  0.00  0.00     0.168 HD
BRANCH   5   7
ATOM      7  C   UNL d   1       3.277   4.969   2.100  0.00  0.00     0.057 A 
ATOM      8  C   UNL d   1       2.537   3.895   2.616  0.00  0.00     0.055 A 
ATOM      9  C   UNL d   1       2.861   3.345   3.858  0.00  0.00     0.036 A 
ATOM     10 CL   UNL d   1       1.931   2.030   4.472  0.00  0.00    -0.084 Cl
ATOM     11  C   UNL d   1       3.907   3.856   4.616  0.00  0.00     0.026 A 
ATOM     12  C   UNL d   1       4.638   4.940   4.131  0.00  0.00     0.028 A 
ATOM     13  C   UNL d   1       4.322   5.492   2.886  0.00  0.00     0.060 A 
ATOM     14 CL   UNL d   1       5.242   6.859   2.353  0.00  0.00    -0.082 Cl
ENDBRANCH   5   7
ENDBRANCH   3   5
ENDBRANCH   1   3
BRANCH   1  15
ATOM     15  N   UNL d   1       0.445   3.691  -0.868  0.00  0.00    -0.264 N 
ATOM     16  C   UNL d   1       0.299   2.392  -1.307  0.00  0.00     0.271 C 
ATOM     17  O   UNL d   1       1.232   1.599  -1.391  0.00  0.00    -0.266 OA
ATOM     18  H   UNL d   1      -0.364   4.284  -0.694  0.00  0.00     0.190 HD
BRANCH  16  19
ATOM     19  C   UNL d   1      -1.073   1.994  -1.714  0.00  0.00     0.055 A 
ATOM     20  C   UNL d   1      -2.226   2.332  -0.992  0.00  0.00     0.049 A 
ATOM     21 CL   UNL d   1      -2.194   3.203   0.502  0.00  0.00    -0.083 Cl
ATOM     22  C   UNL d   1      -3.482   1.924  -1.455  0.00  0.00     0.025 A 
ATOM     23  C   UNL d   1      -3.591   1.175  -2.627  0.00  0.00     0.002 A 
ATOM     24  C   UNL d   1      -2.446   0.816  -3.335  0.00  0.00     0.001 A 
ATOM     25  C   UNL d   1      -1.190   1.218  -2.878  0.00  0.00     0.019 A 
ENDBRANCH  16  19
ENDBRANCH   1  15
TORSDOF 5
