REMARK  4 active torsions:
REMARK  status: ('A' for Active; 'I' for Inactive)
REMARK    1  A    between atoms: C_8  and  C_1 
REMARK    2  A    between atoms: C_5  and  C_3 
REMARK    3  A    between atoms: C_12  and  C_6 
REMARK    4  A    between atoms: O_13  and  C_12 
ROOT
ATOM      1  C   UNL d   1      -3.023  -0.223   0.009  0.00  0.00     0.018 A 
ATOM      2  S   UNL d   1      -1.541  -1.095   0.010  0.00  0.00    -0.081 SA
ATOM      3  C   UNL d   1      -0.604   0.328   0.003  0.00  0.00     0.059 A 
ATOM      4  C   UNL d   1      -2.779   1.141  -0.010  0.00  0.00     0.022 A 
ATOM      5  C   UNL d   1      -1.389   1.456  -0.011  0.00  0.00     0.029 A 
ENDROOT
BRANCH   1   6
ATOM      6  C   UNL d   1      -4.323  -0.915   0.012  0.00  0.00    -0.004 A 
ATOM      7  C   UNL d   1      -4.521  -2.166   0.597  0.00  0.00     0.100 A 
ATOM      8  N   UNL d   1      -5.713  -2.815   0.652  0.00  0.00    -0.374 N 
ATOM      9  C   UNL d   1      -6.771  -2.189   0.097  0.00  0.00     0.087 A 
ATOM     10  HN  UNL d   1      -5.804  -3.731   1.092  1.00  0.00     0.164 HD
ATOM     11  C   UNL d   1      -6.691  -0.952  -0.514  0.00  0.00     0.018 A 
ATOM     12  C   UNL d   1      -5.453  -0.313  -0.556  0.00  0.00     0.015 A 
ENDBRANCH   1   6
BRANCH   3  13
ATOM     13  C   UNL d   1       0.821   0.346   0.009  0.00  0.00    -0.057 C 
ATOM     14  C   UNL d   1       2.020   0.417   0.012  0.00  0.00    -0.075 C 
BRANCH  14  15
ATOM     15  C   UNL d   1       3.474   0.555   0.009  0.00  0.00     0.258 C 
BRANCH  15  16
ATOM     16  O   UNL d   1       4.089  -0.725   0.018  0.00  0.00    -0.389 OA
ATOM     17  H   UNL d   1       3.706  -1.216   0.764  0.00  0.00     0.210 HD
ENDBRANCH  15  16
ENDBRANCH  14  15
ENDBRANCH   3  13
TORSDOF 4
