REMARK  3 active torsions:
REMARK  status: ('A' for Active; 'I' for Inactive)
REMARK       I    between atoms: N_2  and  C_1 
REMARK    1  A    between atoms: C_8  and  C_1 
REMARK    2  A    between atoms: C_3  and  N_2 
REMARK    3  A    between atoms: C_11  and  C_8 
ROOT
ATOM      1  C   UNL d   1       1.043  -0.086   0.222  0.00  0.00     0.226 C 
ATOM      2  N   UNL d   1       0.342  -1.038   0.943  0.00  0.00    -0.327 N 
ATOM      3  O   UNL d   1       2.237   0.180   0.357  0.00  0.00    -0.273 OA
ATOM      4  H   UNL d   1      -0.550  -1.337   0.569  0.00  0.00     0.169 HD
ENDROOT
BRANCH   2   5
ATOM      5  C   UNL d   1       0.755  -1.641   2.154  0.00  0.00     0.035 A 
ATOM      6  C   UNL d   1       1.847  -1.188   2.898  0.00  0.00     0.042 A 
ATOM      7  C   UNL d   1       2.137  -1.716   4.168  0.00  0.00    -0.024 A 
ATOM      8  C   UNL d   1       3.198  -1.212   4.937  0.00  0.00     0.012 A 
ATOM      9  C   UNL d   1       1.330  -2.747   4.694  0.00  0.00    -0.026 A 
ATOM     10  C   UNL d   1       3.439  -1.692   6.224  0.00  0.00     0.001 A 
ATOM     11  C   UNL d   1       2.634  -2.697   6.751  0.00  0.00     0.001 A 
ATOM     12  C   UNL d   1       1.594  -3.232   5.986  0.00  0.00     0.012 A 
ATOM     13  C   UNL d   1       0.270  -3.241   3.917  0.00  0.00     0.014 A 
ATOM     14  C   UNL d   1      -0.024  -2.684   2.667  0.00  0.00     0.030 A 
ENDBRANCH   2   5
BRANCH   1  15
ATOM     15  C   UNL d   1       0.192   0.668  -0.786  0.00  0.00     0.141 C 
BRANCH  15  16
ATOM     16  C   UNL d   1       0.221   0.165  -2.210  0.00  0.00    -0.050 A 
ATOM     17  C   UNL d   1      -0.799   0.577  -3.085  0.00  0.00     0.007 A 
ATOM     18  C   UNL d   1      -0.771   0.226  -4.436  0.00  0.00     0.001 A 
ATOM     19  C   UNL d   1       0.279  -0.540  -4.933  0.00  0.00     0.000 A 
ATOM     20  C   UNL d   1       1.298  -0.956  -4.079  0.00  0.00     0.001 A 
ATOM     21  C   UNL d   1       1.274  -0.602  -2.727  0.00  0.00     0.007 A 
ENDBRANCH  15  16
ENDBRANCH   1  15
TORSDOF 3
