REMARK  5 active torsions:
REMARK  status: ('A' for Active; 'I' for Inactive)
REMARK    1  A    between atoms: C_9  and  C_1 
REMARK    2  A    between atoms: C_6  and  C_2 
REMARK    3  A    between atoms: O_16  and  C_7 
REMARK    4  A    between atoms: O_17  and  C_9 
REMARK    5  A    between atoms: C_18  and  O_17 
ROOT
ATOM      1  C   UNL d   1      -0.747   1.285   0.020  0.00  0.00     0.072 A 
ATOM      2  C   UNL d   1      -1.395   0.049   0.015  0.00  0.00     0.135 A 
ATOM      3  N   UNL d   1      -0.660  -1.117   0.032  0.00  0.00    -0.331 N 
ATOM      4  HN  UNL d   1      -1.139  -2.018   0.049  1.00  0.00     0.168 HD
ATOM      5  C   UNL d   1       1.396   0.107   0.014  0.00  0.00     0.096 A 
ATOM      6  C   UNL d   1       0.685  -1.075   0.026  0.00  0.00     0.161 A 
ATOM      7  C   UNL d   1       0.665   1.296   0.013  0.00  0.00     0.047 A 
ATOM      8  C   UNL d   1       2.819   0.135  -0.001  0.00  0.00     0.104 C 
ATOM      9  N   UNL d   1       3.982   0.108  -0.012  0.00  0.00    -0.191 NA
ENDROOT
BRANCH   6  10
ATOM     10  O   UNL d   1       1.256  -2.311   0.019  0.00  0.00    -0.345 OA
ATOM     11  H   UNL d   1       2.224  -2.255  -0.003  0.00  0.00     0.219 HD
ENDBRANCH   6  10
BRANCH   1  12
ATOM     12  C   UNL d   1      -1.371   2.626  -0.029  0.00  0.00     0.295 C 
ATOM     13  O   UNL d   1      -0.838   3.558  -0.609  0.00  0.00    -0.259 OA
BRANCH  12  14
ATOM     14  O   UNL d   1      -2.492   2.689   0.714  0.00  0.00    -0.318 OA
BRANCH  14  15
ATOM     15  C   UNL d   1      -3.187   3.950   0.684  0.00  0.00     0.174 C 
ATOM     16  C   UNL d   1      -3.900   4.174  -0.643  0.00  0.00     0.034 C 
ENDBRANCH  14  15
ENDBRANCH  12  14
ENDBRANCH   1  12
BRANCH   2  17
ATOM     17  C   UNL d   1      -2.898  -0.175  -0.075  0.00  0.00     0.433 C 
ATOM     18  F   UNL d   1      -3.690   0.922  -0.182  0.00  0.00    -0.165 F 
ATOM     19  F   UNL d   1      -3.228  -0.928  -1.169  0.00  0.00    -0.165 F 
ATOM     20  F   UNL d   1      -3.378  -0.868   1.000  0.00  0.00    -0.165 F 
ENDBRANCH   2  17
TORSDOF 5
