REMARK  5 active torsions:
REMARK  status: ('A' for Active; 'I' for Inactive)
REMARK    1  A    between atoms: C_10  and  C_1 
REMARK    2  A    between atoms: C_5  and  O_11 
REMARK       I    between atoms: N_14  and  C_5 
REMARK    3  A    between atoms: O_11  and  N_7 
REMARK    4  A    between atoms: C_9  and  C_10 
REMARK    5  A    between atoms: N_17  and  C_9 
ROOT
ATOM      1  N   UNL d   1       3.156  -2.062  -1.227  0.00  0.00    -0.244 N 
ATOM      2  HN  UNL d   1       3.328  -2.630  -2.056  1.00  0.00     0.196 HD
ATOM      3  C   UNL d   1       3.616  -2.349  -0.049  0.00  0.00     0.100 C 
ENDROOT
BRANCH   3   4
ATOM      4  C   UNL d   1       4.496  -3.593   0.024  0.00  0.00     0.117 C 
BRANCH   4   5
ATOM      5  C   UNL d   1       5.973  -3.288   0.049  0.00  0.00    -0.033 A 
ATOM      6  C   UNL d   1       6.740  -2.598  -0.981  0.00  0.00    -0.010 A 
ATOM      7  C   UNL d   1       8.103  -2.553  -0.664  0.00  0.00     0.015 A 
ATOM      8  C   UNL d   1       6.347  -2.002  -2.208  0.00  0.00     0.037 A 
ATOM      9  C   UNL d   1       9.052  -1.946  -1.516  0.00  0.00     0.021 A 
ATOM     10  S   UNL d   1       8.430  -3.317   0.839  0.00  0.00    -0.101 SA
ATOM     11  C   UNL d   1       8.624  -1.360  -2.707  0.00  0.00     0.025 A 
ATOM     12  C   UNL d   1       7.282  -1.387  -3.046  0.00  0.00     0.035 A 
ATOM     13 CL   UNL d   1       6.760  -0.658  -4.516  0.00  0.00    -0.084 Cl
ATOM     14  C   UNL d   1       6.796  -3.717   1.074  0.00  0.00     0.058 A 
ENDBRANCH   4   5
ENDBRANCH   3   4
BRANCH   3  15
ATOM     15  N   UNL d   1       3.366  -1.639   1.097  0.00  0.00    -0.387 N 
ATOM     16  H   UNL d   1       2.635  -0.937   1.050  0.00  0.00     0.157 HD
ATOM     17  H   UNL d   1       3.552  -2.039   2.006  0.00  0.00     0.157 HD
ENDBRANCH   3  15
BRANCH   1  18
ATOM     18  O   UNL d   1       2.385  -0.870  -1.234  0.00  0.00    -0.180 OA
BRANCH  18  19
ATOM     19  C   UNL d   1       2.105  -0.477  -2.537  0.00  0.00     0.382 C 
ATOM     20  O   UNL d   1       1.471   0.537  -2.787  0.00  0.00    -0.236 OA
ATOM     21  N   UNL d   1       2.615  -1.333  -3.477  0.00  0.00    -0.340 N 
ATOM     22  C   UNL d   1       2.570  -1.153  -4.897  0.00  0.00     0.151 C 
ATOM     23  H   UNL d   1       3.115  -2.112  -3.062  0.00  0.00     0.164 HD
ENDBRANCH  18  19
ENDBRANCH   1  18
TORSDOF 5
