REMARK  5 active torsions:
REMARK  status: ('A' for Active; 'I' for Inactive)
REMARK    1  A    between atoms: N_3  and  C_1 
REMARK       I    between atoms: C_7  and  N_3 
REMARK       I    between atoms: N_9  and  C_7 
REMARK    2  A    between atoms: C_11  and  N_9 
REMARK    3  A    between atoms: C_19  and  C_13 
REMARK    4  A    between atoms: C_20  and  C_19 
REMARK    5  A    between atoms: C_21  and  C_20 
ROOT
ATOM      1  N   UNL d   1       1.659  -4.787  -0.061  0.00  0.00    -0.293 N 
ATOM      2  C   UNL d   1       0.854  -3.765  -0.558  0.00  0.00     0.326 C 
ATOM      3  N   UNL d   1      -0.449  -3.859  -0.094  0.00  0.00    -0.309 N 
ATOM      4  O   UNL d   1       1.268  -2.878  -1.294  0.00  0.00    -0.247 OA
ATOM      5  H   UNL d   1       1.413  -5.133   0.855  0.00  0.00     0.172 HD
ATOM      6  H   UNL d   1      -0.641  -4.551   0.614  0.00  0.00     0.170 HD
ENDROOT
BRANCH   1   7
ATOM      7  C   UNL d   1       3.017  -4.803  -0.369  0.00  0.00     0.127 C 
ATOM      8  N   UNL d   1       3.608  -4.462  -1.570  0.00  0.00    -0.281 N 
ATOM      9  N   UNL d   1       4.957  -4.385  -1.483  0.00  0.00    -0.302 N 
ATOM     10  C   UNL d   1       3.013  -4.298  -2.873  0.00  0.00     0.179 C 
ATOM     11  C   UNL d   1       5.228  -4.747  -0.226  0.00  0.00     0.025 C 
ATOM     12  HN  UNL d   1       5.616  -4.112  -2.211  1.00  0.00     0.186 HD
ATOM     13  C   UNL d   1       4.060  -5.135   0.470  0.00  0.00     0.076 C 
ATOM     14  C   UNL d   1       6.614  -4.648   0.287  0.00  0.00     0.070 C 
ENDBRANCH   1   7
BRANCH   3  15
ATOM     15  C   UNL d   1      -1.479  -2.928  -0.370  0.00  0.00     0.036 A 
ATOM     16  C   UNL d   1      -1.391  -1.966  -1.380  0.00  0.00     0.030 A 
ATOM     17  C   UNL d   1      -2.373  -0.987  -1.526  0.00  0.00     0.009 A 
ATOM     18  C   UNL d   1      -3.473  -0.953  -0.667  0.00  0.00    -0.058 A 
ATOM     19  C   UNL d   1      -3.612  -1.971   0.285  0.00  0.00     0.009 A 
ATOM     20  C   UNL d   1      -2.624  -2.953   0.430  0.00  0.00     0.030 A 
BRANCH  18  21
ATOM     21  C   UNL d   1      -4.446   0.196  -0.744  0.00  0.00     0.038 C 
BRANCH  21  22
ATOM     22  C   UNL d   1      -4.490   1.049   0.532  0.00  0.00     0.004 C 
BRANCH  22  23
ATOM     23  C   UNL d   1      -3.141   1.681   0.893  0.00  0.00    -0.004 C 
ATOM     24  C   UNL d   1      -3.244   2.523   2.156  0.00  0.00     0.005 C 
ENDBRANCH  22  23
ENDBRANCH  21  22
ENDBRANCH  18  21
ENDBRANCH   3  15
TORSDOF 5
