REMARK  7 active torsions:
REMARK  status: ('A' for Active; 'I' for Inactive)
REMARK    1  A    between atoms: C_9  and  N_1 
REMARK    2  A    between atoms: C_15  and  N_2 
REMARK    3  A    between atoms: C_20  and  N_5 
REMARK    4  A    between atoms: N_7  and  C_23 
REMARK    5  A    between atoms: C_10  and  C_15 
REMARK    6  A    between atoms: C_11  and  C_10 
REMARK    7  A    between atoms: O_27  and  C_11 
ROOT
ATOM      1  N   UNL d   1      -4.228  10.615  -0.867  0.00  0.00    -0.380 N 
ATOM      2  C   UNL d   1      -3.586   9.404  -0.722  0.00  0.00     0.036 A 
ATOM      3  C   UNL d   1      -3.189   8.871  -1.953  0.00  0.00    -0.028 A 
ATOM      4  C   UNL d   1      -3.321   8.695   0.433  0.00  0.00     0.032 A 
ATOM      5  C   UNL d   1      -4.078  11.030  -2.263  0.00  0.00     0.128 C 
ATOM      6  C   UNL d   1      -2.537   7.646  -2.061  0.00  0.00     0.040 A 
ATOM      7  C   UNL d   1      -3.623   9.785  -3.055  0.00  0.00     0.060 C 
ATOM      8  C   UNL d   1      -2.249   6.927  -0.896  0.00  0.00     0.048 A 
ATOM      9  C   UNL d   1      -2.639   7.473   0.345  0.00  0.00     0.033 A 
ENDROOT
BRANCH   8  10
ATOM     10  N   UNL d   1      -1.518   5.721  -0.996  0.00  0.00    -0.300 N 
ATOM     11  N   UNL d   1      -1.942   4.854  -0.201  0.00  0.00    -0.300 N 
ATOM     12  HN  UNL d   1      -2.781   4.971   0.368  1.00  0.00     0.187 HD
ATOM     13  HN  UNL d   1      -0.740   5.576  -1.640  1.00  0.00     0.187 HD
BRANCH  11  14
ATOM     14  C   UNL d   1      -1.134   3.699  -0.173  0.00  0.00     0.048 A 
ATOM     15  C   UNL d   1      -0.942   3.062   1.062  0.00  0.00     0.033 A 
ATOM     16  C   UNL d   1      -0.174   1.896   1.168  0.00  0.00     0.038 A 
ATOM     17  C   UNL d   1       0.405   1.351   0.017  0.00  0.00     0.103 A 
ATOM     18  C   UNL d   1       0.220   1.963  -1.228  0.00  0.00     0.038 A 
ATOM     19  C   UNL d   1      -0.552   3.129  -1.317  0.00  0.00     0.033 A 
BRANCH  17  20
ATOM     20  N   UNL d   1       1.211   0.125   0.117  0.00  0.00    -0.116 N 
ATOM     21  O   UNL d   1       1.698  -0.331  -0.927  0.00  0.00    -0.532 OA
ATOM     22  O   UNL d   1       1.359  -0.382   1.241  0.00  0.00    -0.532 OA
ENDBRANCH  17  20
ENDBRANCH  11  14
ENDBRANCH   8  10
BRANCH   1  23
ATOM     23  C   UNL d   1      -4.719  11.511   0.167  0.00  0.00     0.133 C 
BRANCH  23  24
ATOM     24  C   UNL d   1      -3.598  12.109   1.005  0.00  0.00     0.131 C 
BRANCH  24  25
ATOM     25  C   UNL d   1      -4.139  13.094   2.014  0.00  0.00     0.259 C 
ATOM     26  O   UNL d   1      -5.304  13.448   2.113  0.00  0.00    -0.265 OA
BRANCH  25  27
ATOM     27  O   UNL d   1      -3.112  13.531   2.800  0.00  0.00    -0.326 OA
ATOM     28  C   UNL d   1      -3.487  14.475   3.806  0.00  0.00     0.213 C 
ENDBRANCH  25  27
ENDBRANCH  24  25
ENDBRANCH  23  24
ENDBRANCH   1  23
TORSDOF 7
