REMARK  5 active torsions:
REMARK  status: ('A' for Active; 'I' for Inactive)
REMARK    1  A    between atoms: C_11  and  N_9 
REMARK    2  A    between atoms: C_15  and  C_11 
REMARK    3  A    between atoms: N_14  and  C_16 
REMARK    4  A    between atoms: C_16  and  C_15 
REMARK    5  A    between atoms: O_19  and  C_15 
ROOT
ATOM      1  C   UNL d   1      -0.012  -0.653  -0.071  0.00  0.00     0.145 A 
ATOM      2  C   UNL d   1       0.093   0.652   0.310  0.00  0.00     0.149 A 
ATOM      3  N   UNL d   1      -0.959  -1.496   0.455  0.00  0.00    -0.287 N 
ATOM      4  N   UNL d   1      -1.823   0.379   1.659  0.00  0.00    -0.269 N 
ATOM      5  C   UNL d   1      -1.919  -0.987   1.331  0.00  0.00     0.332 A 
ATOM      6  C   UNL d   1      -0.814   1.251   1.232  0.00  0.00     0.282 A 
ATOM      7  N   UNL d   1       0.903  -0.982  -1.022  0.00  0.00    -0.336 N 
ATOM      8  HN  UNL d   1       1.043  -1.889  -1.468  1.00  0.00     0.168 HD
ATOM      9  N   UNL d   1       1.170   1.139  -0.387  0.00  0.00    -0.333 N 
ATOM     10  C   UNL d   1       1.567   0.135  -1.236  0.00  0.00     0.185 A 
ATOM     11  O   UNL d   1      -2.812  -1.703   1.788  0.00  0.00    -0.246 OA
ATOM     12  O   UNL d   1      -0.726   2.418   1.604  0.00  0.00    -0.265 OA
ATOM     13  C   UNL d   1      -1.035  -2.887   0.051  0.00  0.00     0.163 C 
ATOM     14  C   UNL d   1      -2.841   0.948   2.522  0.00  0.00     0.164 C 
ENDROOT
BRANCH   9  15
ATOM     15  C   UNL d   1       1.722   2.479  -0.336  0.00  0.00     0.163 C 
BRANCH  15  16
ATOM     16  C   UNL d   1       3.256   2.601  -0.330  0.00  0.00     0.164 C 
BRANCH  16  17
ATOM     17  C   UNL d   1       3.952   1.847   0.825  0.00  0.00     0.305 C 
BRANCH  17  18
ATOM     18  N   UNL d   1       5.421   1.971   0.715  0.00  0.00     0.090 N 
ATOM     19  C   UNL d   1       5.918   3.317   1.022  0.00  0.00     0.272 C 
ATOM     20  C   UNL d   1       7.402   3.074   1.215  0.00  0.00     0.032 C 
ATOM     21  C   UNL d   1       7.454   1.745   1.948  0.00  0.00     0.032 C 
ATOM     22  C   UNL d   1       6.119   1.069   1.644  0.00  0.00     0.272 C 
ENDBRANCH  17  18
ENDBRANCH  16  17
BRANCH  16  23
ATOM     23  O   UNL d   1       3.811   2.172  -1.581  0.00  0.00    -0.392 OA
ATOM     24  H   UNL d   1       4.753   1.982  -1.381  0.00  0.00     0.210 HD
ENDBRANCH  16  23
ENDBRANCH  15  16
ENDBRANCH   9  15
TORSDOF 5
