REMARK  3 active torsions:
REMARK  status: ('A' for Active; 'I' for Inactive)
REMARK    1  A    between atoms: C_2  and  N_1 
REMARK    2  A    between atoms: N_5  and  C_3 
REMARK    3  A    between atoms: C_13  and  N_5 
ROOT
ATOM      1  C   UNL d   1       0.192   0.894   0.856  0.00  0.00     0.130 A 
ATOM      2  C   UNL d   1      -0.749   0.206   1.652  0.00  0.00     0.061 A 
ATOM      3  N   UNL d   1       0.747   5.336   2.728  0.00  0.00    -0.191 NA
ATOM      4  C   UNL d   1       0.427   4.252   2.483  0.00  0.00     0.099 C 
ATOM      5  C   UNL d   1       0.594   2.220   1.117  0.00  0.00     0.061 A 
ATOM      6  C   UNL d   1      -1.301   0.947   2.712  0.00  0.00     0.033 A 
ATOM      7  C   UNL d   1       0.030   2.907   2.189  0.00  0.00     0.047 A 
ATOM      8  C   UNL d   1      -0.927   2.271   2.978  0.00  0.00     0.025 A 
ENDROOT
BRANCH   1   9
ATOM      9  N   UNL d   1       0.831   0.235  -0.273  0.00  0.00    -0.113 N 
ATOM     10  O   UNL d   1       0.099  -0.291  -1.121  0.00  0.00    -0.532 OA
ATOM     11  O   UNL d   1       2.068   0.266  -0.314  0.00  0.00    -0.532 OA
ENDBRANCH   1   9
BRANCH   2  12
ATOM     12  N   UNL d   1      -1.121  -1.116   1.432  0.00  0.00    -0.384 N 
ATOM     13  H   UNL d   1      -0.738  -1.589   0.616  0.00  0.00     0.160 HD
BRANCH  12  14
ATOM     14  C   UNL d   1      -1.645  -1.982   2.491  0.00  0.00     0.073 C 
ATOM     15  C   UNL d   1      -3.172  -1.955   2.498  0.00  0.00     0.031 C 
ATOM     16  C   UNL d   1      -1.152  -3.413   2.274  0.00  0.00     0.031 C 
ENDBRANCH  12  14
ENDBRANCH   2  12
TORSDOF 3
