REMARK  2 active torsions:
REMARK  status: ('A' for Active; 'I' for Inactive)
REMARK    1  A    between atoms: C_7  and  C_3 
REMARK    2  A    between atoms: N_14  and  C_13 
ROOT
ATOM      1  N   UNL d   1      -1.588  -1.113   0.079  0.00  0.00    -0.340 N 
ATOM      2  HN  UNL d   1      -1.928  -2.073   0.137  1.00  0.00     0.167 HD
ATOM      3  C   UNL d   1      -2.341   0.038   0.020  0.00  0.00     0.060 A 
ATOM      4  N   UNL d   1      -0.248   0.676   0.001  0.00  0.00    -0.317 N 
ATOM      5  C   UNL d   1      -0.335  -0.711   0.046  0.00  0.00     0.111 A 
ATOM      6  C   UNL d   1      -1.532   1.155  -0.018  0.00  0.00     0.128 A 
ATOM      7  C   UNL d   1       0.957   1.374  -0.021  0.00  0.00     0.098 A 
ATOM      8  C   UNL d   1       0.889  -1.437   0.046  0.00  0.00     0.049 A 
ATOM      9  C   UNL d   1       2.111   0.684  -0.008  0.00  0.00     0.018 A 
ATOM     10  C   UNL d   1       2.061  -0.772   0.019  0.00  0.00     0.005 A 
ENDROOT
BRANCH   3  11
ATOM     11  C   UNL d   1      -3.792   0.038   0.011  0.00  0.00    -0.006 A 
ATOM     12  C   UNL d   1      -4.518   1.046  -0.641  0.00  0.00     0.037 A 
ATOM     13  C   UNL d   1      -5.915   1.015  -0.685  0.00  0.00     0.006 A 
ATOM     14  C   UNL d   1      -6.588   0.017   0.025  0.00  0.00     0.023 A 
ATOM     15  C   UNL d   1      -5.880  -0.994   0.677  0.00  0.00     0.003 A 
ATOM     16  C   UNL d   1      -4.486  -0.990   0.658  0.00  0.00     0.014 A 
BRANCH  13  17
ATOM     17  N   UNL d   1      -6.626   2.090  -1.237  0.00  0.00    -0.303 NA
ATOM     18  H   UNL d   1      -6.126   2.566  -1.982  0.00  0.00     0.124 HD
ATOM     19  H   UNL d   1      -7.576   1.851  -1.506  0.00  0.00     0.124 HD
ENDBRANCH  13  17
ENDBRANCH   3  11
TORSDOF 2
