REMARK  4 active torsions:
REMARK  status: ('A' for Active; 'I' for Inactive)
REMARK    1  A    between atoms: O_2  and  C_1 
REMARK    2  A    between atoms: C_7  and  C_1 
REMARK    3  A    between atoms: C_4  and  O_2 
REMARK    4  A    between atoms: N_3  and  C_5 
ROOT
ATOM      1  C   UNL d   1       1.100  -2.265  -0.041  0.00  0.00     0.106 A 
ATOM      2  C   UNL d   1       1.987  -2.449   1.046  0.00  0.00     0.064 A 
ATOM      3  C   UNL d   1       0.742  -3.320  -0.896  0.00  0.00     0.040 A 
ATOM      4  C   UNL d   1       2.514  -3.748   1.194  0.00  0.00     0.032 A 
ATOM      5  C   UNL d   1       1.256  -4.595  -0.686  0.00  0.00     0.003 A 
ATOM      6  C   UNL d   1       2.156  -4.805   0.348  0.00  0.00     0.002 A 
ENDROOT
BRANCH   1   7
ATOM      7  O   UNL d   1       0.608  -0.964  -0.327  0.00  0.00    -0.273 OA
BRANCH   7   8
ATOM      8  C   UNL d   1      -0.719  -0.775  -0.673  0.00  0.00     0.298 C 
ATOM      9  O   UNL d   1      -1.627  -1.586  -0.569  0.00  0.00    -0.259 OA
BRANCH   8  10
ATOM     10  C   UNL d   1      -0.912   0.591  -1.243  0.00  0.00     0.039 A 
ATOM     11  C   UNL d   1      -2.212   0.975  -1.602  0.00  0.00     0.017 A 
ATOM     12  C   UNL d   1      -2.452   2.235  -2.156  0.00  0.00     0.001 A 
ATOM     13  C   UNL d   1      -1.398   3.122  -2.356  0.00  0.00     0.000 A 
ATOM     14  C   UNL d   1      -0.100   2.746  -2.018  0.00  0.00     0.001 A 
ATOM     15  C   UNL d   1       0.147   1.483  -1.466  0.00  0.00     0.017 A 
ENDBRANCH   8  10
ENDBRANCH   7   8
ENDBRANCH   1   7
BRANCH   2  16
ATOM     16  N   UNL d   1       2.272  -1.458   1.975  0.00  0.00    -0.375 N 
ATOM     17  C   UNL d   1       2.714  -1.795   3.341  0.00  0.00     0.149 C 
ATOM     18  C   UNL d   1       2.203  -0.713   4.310  0.00  0.00     0.187 C 
ATOM     19  O   UNL d   1       2.629   0.604   3.915  0.00  0.00    -0.388 OA
ATOM     20  C   UNL d   1       2.168   0.900   2.583  0.00  0.00     0.187 C 
ATOM     21  C   UNL d   1       2.714  -0.116   1.566  0.00  0.00     0.149 C 
ENDBRANCH   2  16
TORSDOF 4
