REMARK  3 active torsions:
REMARK  status: ('A' for Active; 'I' for Inactive)
REMARK    1  A    between atoms: C_6  and  C_1 
REMARK    2  A    between atoms: C_9  and  N_2 
REMARK       I    between atoms: N_8  and  C_6 
REMARK    3  A    between atoms: C_13  and  N_8 
ROOT
ATOM      1  C   UNL d   1      -0.202   1.109  -0.010  0.00  0.00     0.073 A 
ATOM      2  N   UNL d   1       0.966  -0.791   0.161  0.00  0.00    -0.260 N 
ATOM      3  C   UNL d   1       1.061   0.600   0.303  0.00  0.00     0.048 A 
ATOM      4  N   UNL d   1      -0.305  -1.176  -0.098  0.00  0.00    -0.304 N 
ATOM      5  HN  UNL d   1      -0.664  -2.128  -0.167  1.00  0.00     0.186 HD
ATOM      6  C   UNL d   1      -0.983  -0.045  -0.241  0.00  0.00     0.126 A 
ATOM      7  C   UNL d   1       2.272   1.279   0.843  0.00  0.00     0.071 C 
ENDROOT
BRANCH   1   8
ATOM      8  C   UNL d   1      -0.763   2.462  -0.001  0.00  0.00     0.259 C 
ATOM      9  N   UNL d   1       0.140   3.495   0.137  0.00  0.00    -0.323 N 
ATOM     10  H   UNL d   1       1.112   3.275  -0.001  0.00  0.00     0.169 HD
ATOM     11  O   UNL d   1      -1.978   2.607  -0.108  0.00  0.00    -0.267 OA
BRANCH   9  12
ATOM     12  C   UNL d   1      -0.149   4.839   0.473  0.00  0.00     0.035 A 
ATOM     13  C   UNL d   1      -1.438   5.317   0.733  0.00  0.00     0.032 A 
ATOM     14  C   UNL d   1      -1.641   6.644   1.127  0.00  0.00     0.044 A 
ATOM     15  C   UNL d   1      -0.553   7.493   1.264  0.00  0.00     0.116 A 
ATOM     16  C   UNL d   1       0.735   7.043   1.007  0.00  0.00     0.044 A 
ATOM     17  F   UNL d   1      -0.746   8.759   1.657  0.00  0.00    -0.206 F 
ATOM     18  C   UNL d   1       0.936   5.718   0.609  0.00  0.00     0.032 A 
ENDBRANCH   9  12
ENDBRANCH   1   8
BRANCH   2  19
ATOM     19  C   UNL d   1       1.967  -1.795   0.325  0.00  0.00     0.056 A 
ATOM     20  C   UNL d   1       1.576  -3.078   0.752  0.00  0.00     0.034 A 
ATOM     21  C   UNL d   1       2.539  -4.051   1.028  0.00  0.00     0.044 A 
ATOM     22  C   UNL d   1       3.884  -3.756   0.842  0.00  0.00     0.116 A 
ATOM     23  C   UNL d   1       4.282  -2.516   0.357  0.00  0.00     0.044 A 
ATOM     24  F   UNL d   1       4.810  -4.678   1.130  0.00  0.00    -0.206 F 
ATOM     25  C   UNL d   1       3.324  -1.535   0.088  0.00  0.00     0.034 A 
ENDBRANCH   2  19
TORSDOF 3
