REMARK  1 active torsions:
REMARK  status: ('A' for Active; 'I' for Inactive)
REMARK    1  A    between atoms: C_8  and  N_5 
ROOT
ATOM      1  C   UNL d   1      -2.148  -0.822  -0.897  0.00  0.00     0.146 C 
ATOM      2  N   UNL d   1      -0.811  -0.545  -0.847  0.00  0.00    -0.356 N 
ATOM      3  S   UNL d   1      -3.013   0.125   0.311  0.00  0.00    -0.057 SA
ATOM      4  C   UNL d   1      -1.527   0.583   1.107  0.00  0.00     0.005 C 
ATOM      5  N   UNL d   1      -2.821  -1.656  -1.611  0.00  0.00    -0.335 N 
ATOM      6  HN  UNL d   1      -3.838  -1.660  -1.537  1.00  0.00     0.168 HD
ATOM      7  C   UNL d   1      -0.285   0.142   0.334  0.00  0.00     0.065 C 
ATOM      8  C   UNL d   1      -1.555   1.238   2.278  0.00  0.00     0.029 C 
ATOM      9  C   UNL d   1       0.578  -0.860   1.132  0.00  0.00     0.036 C 
ATOM     10  C   UNL d   1       0.549   1.363  -0.108  0.00  0.00     0.036 C 
ATOM     11  C   UNL d   1       1.850   0.981  -0.814  0.00  0.00     0.003 C 
ATOM     12  C   UNL d   1       1.870  -1.236   0.401  0.00  0.00     0.003 C 
ATOM     13  C   UNL d   1       2.676  -0.003   0.007  0.00  0.00     0.000 C 
ATOM     14  H   UNL d   1      -0.201  -1.206  -1.309  0.00  0.00     0.162 HD
ENDROOT
BRANCH   5  15
ATOM     15  C   UNL d   1      -2.198  -2.564  -2.489  0.00  0.00     0.056 A 
ATOM     16  C   UNL d   1      -2.563  -3.926  -2.471  0.00  0.00     0.060 A 
ATOM     17 CL   UNL d   1      -3.778  -4.517  -1.388  0.00  0.00    -0.082 Cl
ATOM     18  C   UNL d   1      -1.957  -4.850  -3.329  0.00  0.00     0.026 A 
ATOM     19  C   UNL d   1      -0.971  -4.431  -4.221  0.00  0.00     0.002 A 
ATOM     20  C   UNL d   1      -0.616  -3.086  -4.272  0.00  0.00     0.002 A 
ATOM     21  C   UNL d   1      -1.243  -2.159  -3.433  0.00  0.00     0.031 A 
ENDBRANCH   5  15
TORSDOF 1
