REMARK  2 active torsions:
REMARK  status: ('A' for Active; 'I' for Inactive)
REMARK    1  A    between atoms: C_6  and  C_1 
REMARK    2  A    between atoms: C_16  and  C_9 
ROOT
ATOM      1  C   UNL d   1      -3.761   0.021   0.022  0.00  0.00     0.034 A 
ATOM      2  S   UNL d   1      -4.598   0.937  -1.143  0.00  0.00    -0.086 SA
ATOM      3  C   UNL d   1      -6.126   0.365  -0.623  0.00  0.00     0.032 A 
ATOM      4  C   UNL d   1      -4.622  -0.646   0.866  0.00  0.00     0.023 A 
ATOM      5  C   UNL d   1      -5.990  -0.425   0.506  0.00  0.00     0.023 A 
ENDROOT
BRANCH   1   6
ATOM      6  C   UNL d   1      -2.274  -0.043   0.090  0.00  0.00     0.067 A 
ATOM      7  N   UNL d   1      -1.558  -0.830   0.963  0.00  0.00    -0.340 N 
ATOM      8  C   UNL d   1      -0.294  -0.622   0.653  0.00  0.00     0.111 A 
ATOM      9  HN  UNL d   1      -1.927  -1.441   1.692  1.00  0.00     0.167 HD
ATOM     10  C   UNL d   1       0.917  -1.169   1.166  0.00  0.00     0.050 A 
ATOM     11  N   UNL d   1      -0.171   0.301  -0.379  0.00  0.00    -0.316 N 
ATOM     12  C   UNL d   1       2.102  -0.769   0.660  0.00  0.00     0.012 A 
ATOM     13  C   UNL d   1       2.190   0.231  -0.406  0.00  0.00    -0.046 A 
ATOM     14  C   UNL d   1       1.043   0.732  -0.901  0.00  0.00     0.104 A 
ATOM     15  C   UNL d   1       3.543   0.648  -0.887  0.00  0.00     0.049 C 
ATOM     16  C   UNL d   1      -1.433   0.660  -0.746  0.00  0.00     0.129 A 
ENDBRANCH   1   6
BRANCH   3  17
ATOM     17  C   UNL d   1      -7.339   0.749  -1.354  0.00  0.00     0.049 A 
ATOM     18  N   UNL d   1      -8.455   0.854  -0.594  0.00  0.00    -0.365 N 
ATOM     19  C   UNL d   1      -9.601   1.188  -1.228  0.00  0.00     0.088 A 
ATOM     20  HN  UNL d   1      -8.432   0.689   0.412  1.00  0.00     0.165 HD
ATOM     21  C   UNL d   1      -9.698   1.405  -2.594  0.00  0.00     0.017 A 
ATOM     22  C   UNL d   1      -8.548   1.284  -3.360  0.00  0.00     0.004 A 
ATOM     23  C   UNL d   1      -7.351   0.953  -2.735  0.00  0.00     0.031 A 
ENDBRANCH   3  17
TORSDOF 2
