REMARK  8 active torsions:
REMARK  status: ('A' for Active; 'I' for Inactive)
REMARK    1  A    between atoms: C_2  and  S_1 
REMARK    2  A    between atoms: C_6  and  S_1 
REMARK    3  A    between atoms: N_5  and  C_3 
REMARK    4  A    between atoms: S_11  and  C_3 
REMARK    5  A    between atoms: C_10  and  N_5 
REMARK    6  A    between atoms: C_23  and  S_11 
REMARK    7  A    between atoms: O_20  and  C_16 
REMARK    8  A    between atoms: C_26  and  C_23 
ROOT
ATOM      1  C   UNL d   1       0.467  -1.352  -1.134  0.00  0.00     0.177 C 
ATOM      2  C   UNL d   1      -0.401  -2.304  -0.675  0.00  0.00     0.103 C 
ATOM      3  C   UNL d   1       0.936  -1.365  -2.481  0.00  0.00     0.115 C 
ATOM      4  N   UNL d   1       1.278  -1.324  -3.587  0.00  0.00    -0.191 NA
ENDROOT
BRANCH   1   5
ATOM      5  S   UNL d   1       1.027  -0.039  -0.150  0.00  0.00     0.219 S 
ATOM      6  O   UNL d   1       1.235  -0.449   1.231  0.00  0.00    -0.216 OA
ATOM      7  O   UNL d   1       0.251   1.155  -0.439  0.00  0.00    -0.216 OA
BRANCH   5   8
ATOM      8  C   UNL d   1       2.701   0.305  -0.719  0.00  0.00     0.065 A 
ATOM      9  C   UNL d   1       2.913   1.293  -1.683  0.00  0.00     0.025 A 
ATOM     10  C   UNL d   1       4.216   1.584  -2.095  0.00  0.00     0.025 A 
ATOM     11  C   UNL d   1       5.296   0.909  -1.524  0.00  0.00     0.034 A 
ATOM     12  C   UNL d   1       5.090  -0.045  -0.528  0.00  0.00     0.025 A 
ATOM     13 CL   UNL d   1       6.897   1.267  -2.044  0.00  0.00    -0.084 Cl
ATOM     14  C   UNL d   1       3.788  -0.347  -0.115  0.00  0.00     0.025 A 
ENDBRANCH   5   8
ENDBRANCH   1   5
BRANCH   2  15
ATOM     15  N   UNL d   1      -0.631  -3.458  -1.426  0.00  0.00    -0.349 N 
ATOM     16  H   UNL d   1      -0.678  -4.286  -0.837  0.00  0.00     0.166 HD
BRANCH  15  17
ATOM     17  C   UNL d   1      -1.575  -3.595  -2.481  0.00  0.00     0.035 A 
ATOM     18  C   UNL d   1      -1.665  -4.851  -3.116  0.00  0.00     0.066 A 
ATOM     19  C   UNL d   1      -2.450  -5.030  -4.254  0.00  0.00     0.070 A 
ATOM     20  C   UNL d   1      -3.179  -3.949  -4.752  0.00  0.00     0.037 A 
ATOM     21  C   UNL d   1      -3.118  -2.705  -4.127  0.00  0.00     0.005 A 
ATOM     22  C   UNL d   1      -2.311  -2.525  -3.002  0.00  0.00     0.029 A 
BRANCH  19  23
ATOM     23  O   UNL d   1      -2.582  -6.181  -4.979  0.00  0.00    -0.356 OA
ATOM     24  C   UNL d   1      -1.783  -7.294  -4.604  0.00  0.00     0.210 C 
ENDBRANCH  19  23
ENDBRANCH  15  17
ENDBRANCH   2  15
BRANCH   2  25
ATOM     25  S   UNL d   1      -1.254  -2.083   0.870  0.00  0.00    -0.110 SA
BRANCH  25  26
ATOM     26  C   UNL d   1      -1.771  -3.746   1.377  0.00  0.00     0.080 C 
BRANCH  26  27
ATOM     27  C   UNL d   1      -2.710  -3.670   2.583  0.00  0.00     0.006 C 
ATOM     28  C   UNL d   1      -3.016  -5.057   3.135  0.00  0.00     0.006 C 
ENDBRANCH  26  27
ENDBRANCH  25  26
ENDBRANCH   2  25
TORSDOF 8
