REMARK  5 active torsions:
REMARK  status: ('A' for Active; 'I' for Inactive)
REMARK    1  A    between atoms: C_10  and  C_1 
REMARK    2  A    between atoms: C_7  and  C_2 
REMARK    3  A    between atoms: N_9  and  C_3 
REMARK    4  A    between atoms: O_18  and  C_10 
REMARK    5  A    between atoms: C_24  and  O_18 
ROOT
ATOM      1  C   UNL d   1      -1.552   1.268   0.072  0.00  0.00     0.072 A 
ATOM      2  C   UNL d   1      -2.220   0.051   0.003  0.00  0.00     0.134 A 
ATOM      3  C   UNL d   1      -0.176  -1.140   0.100  0.00  0.00     0.104 A 
ATOM      4  N   UNL d   1      -1.526  -1.135   0.048  0.00  0.00    -0.341 N 
ATOM      5  HN  UNL d   1      -2.036  -2.019   0.041  1.00  0.00     0.167 HD
ATOM      6  C   UNL d   1       0.545   0.058   0.055  0.00  0.00     0.084 A 
ATOM      7  C   UNL d   1      -0.152   1.269   0.060  0.00  0.00     0.046 A 
ATOM      8  C   UNL d   1       1.975   0.075   0.012  0.00  0.00     0.102 C 
ATOM      9  N   UNL d   1       3.134   0.148  -0.007  0.00  0.00    -0.191 NA
ENDROOT
BRANCH   3  10
ATOM     10  N   UNL d   1       0.499  -2.373   0.220  0.00  0.00    -0.266 NA
ATOM     11  C   UNL d   1      -0.242  -3.514  -0.342  0.00  0.00     0.099 C 
ATOM     12  C   UNL d   1       0.712  -4.472  -1.049  0.00  0.00     0.045 C 
ATOM     13  C   UNL d   1       1.950  -4.928  -0.274  0.00  0.00     0.270 C 
ATOM     14  N   UNL d   1       1.855  -4.930   1.184  0.00  0.00     0.084 N 
ATOM     15  C   UNL d   1       2.089  -3.588   1.738  0.00  0.00     0.284 C 
ATOM     16  H   UNL d   1       0.951  -5.287   1.486  0.00  0.00     0.315 HD
ATOM     17  C   UNL d   1       0.915  -2.594   1.629  0.00  0.00     0.127 C 
ENDBRANCH   3  10
BRANCH   1  18
ATOM     18  C   UNL d   1      -2.267   2.542   0.231  0.00  0.00     0.295 C 
ATOM     19  O   UNL d   1      -3.204   2.685   0.987  0.00  0.00    -0.259 OA
BRANCH  18  20
ATOM     20  O   UNL d   1      -1.712   3.458  -0.595  0.00  0.00    -0.318 OA
BRANCH  20  21
ATOM     21  C   UNL d   1      -2.450   4.677  -0.761  0.00  0.00     0.174 C 
ATOM     22  C   UNL d   1      -3.174   4.587  -2.090  0.00  0.00     0.034 C 
ENDBRANCH  20  21
ENDBRANCH  18  20
ENDBRANCH   1  18
BRANCH   2  23
ATOM     23  C   UNL d   1      -3.726  -0.059  -0.204  0.00  0.00     0.433 C 
ATOM     24  F   UNL d   1      -4.371   1.096  -0.522  0.00  0.00    -0.165 F 
ATOM     25  F   UNL d   1      -4.022  -0.897  -1.246  0.00  0.00    -0.165 F 
ATOM     26  F   UNL d   1      -4.374  -0.579   0.876  0.00  0.00    -0.165 F 
ENDBRANCH   2  23
TORSDOF 5
