REMARK  6 active torsions:
REMARK  status: ('A' for Active; 'I' for Inactive)
REMARK    1  A    between atoms: C_10  and  C_1 
REMARK    2  A    between atoms: C_13  and  C_4 
REMARK       I    between atoms: C_7  and  N_12 
REMARK    3  A    between atoms: C_8  and  C_7 
REMARK    4  A    between atoms: C_11  and  C_9 
REMARK    5  A    between atoms: N_12  and  C_10 
REMARK    6  A    between atoms: O_16  and  C_11 
ROOT
ATOM      1  C   UNL d   1       0.373  -2.641   0.401  0.00  0.00     0.166 C 
ENDROOT
BRANCH   1   2
ATOM      2  C   UNL d   1       0.014  -1.207   0.279  0.00  0.00     0.020 A 
ATOM      3  C   UNL d   1       0.128  -0.158   1.252  0.00  0.00     0.075 A 
ATOM      4  N   UNL d   1      -0.358   0.989   0.744  0.00  0.00    -0.260 N 
ATOM      5  O   UNL d   1      -0.763   0.718  -0.539  0.00  0.00    -0.242 OA
ATOM      6  HN  UNL d   1      -0.415   1.889   1.221  1.00  0.00     0.195 HD
ATOM      7  C   UNL d   1      -0.547  -0.588  -0.820  0.00  0.00     0.082 A 
ATOM      8  C   UNL d   1      -0.953  -1.044  -2.163  0.00  0.00     0.079 C 
BRANCH   3   9
ATOM      9  C   UNL d   1       0.639  -0.197   2.628  0.00  0.00    -0.007 A 
ATOM     10  C   UNL d   1       0.122   0.682   3.595  0.00  0.00     0.014 A 
ATOM     11  C   UNL d   1       0.587   0.655   4.914  0.00  0.00     0.001 A 
ATOM     12  C   UNL d   1       1.578  -0.249   5.287  0.00  0.00     0.000 A 
ATOM     13  C   UNL d   1       2.112  -1.118   4.342  0.00  0.00     0.001 A 
ATOM     14  C   UNL d   1       1.652  -1.082   3.022  0.00  0.00     0.014 A 
ENDBRANCH   3   9
ENDBRANCH   1   2
BRANCH   1  15
ATOM     15  N   UNL d   1       1.755  -2.819   0.013  0.00  0.00    -0.352 N 
ATOM     16  C   UNL d   1       2.413  -3.996   0.259  0.00  0.00     0.253 C 
ATOM     17  O   UNL d   1       1.861  -4.962   0.774  0.00  0.00    -0.268 OA
ATOM     18  H   UNL d   1       2.271  -1.994  -0.299  0.00  0.00     0.163 HD
BRANCH  16  19
ATOM     19  C   UNL d   1       3.834  -4.129  -0.185  0.00  0.00     0.048 A 
ATOM     20  C   UNL d   1       4.832  -3.141  -0.140  0.00  0.00     0.053 A 
ATOM     21  C   UNL d   1       6.122  -3.422  -0.633  0.00  0.00     0.019 A 
ATOM     22  C   UNL d   1       6.439  -4.689  -1.120  0.00  0.00     0.001 A 
ATOM     23  C   UNL d   1       5.471  -5.686  -1.124  0.00  0.00     0.001 A 
ATOM     24  C   UNL d   1       4.182  -5.408  -0.664  0.00  0.00     0.018 A 
BRANCH  20  25
ATOM     25  C   UNL d   1       4.608  -1.783   0.393  0.00  0.00     0.177 C 
ATOM     26  O   UNL d   1       3.666  -1.087   0.062  0.00  0.00    -0.646 OA
BRANCH  25  27
ATOM     27  O   UNL d   1       5.563  -1.384   1.259  0.00  0.00    -0.773 OA
ATOM     28  H   UNL d   1       6.240  -2.048   1.491  0.00  0.00     0.167 HD
ENDBRANCH  25  27
ENDBRANCH  20  25
ENDBRANCH  16  19
ENDBRANCH   1  15
TORSDOF 6
