REMARK  5 active torsions:
REMARK  status: ('A' for Active; 'I' for Inactive)
REMARK    1  A    between atoms: C_2  and  C_1 
REMARK    2  A    between atoms: N_7  and  C_15 
REMARK    3  A    between atoms: C_18  and  C_8 
REMARK    4  A    between atoms: O_21  and  C_18 
REMARK    5  A    between atoms: C_22  and  O_21 
ROOT
ATOM      1  C   UNL d   1      -0.489  -0.711  -0.678  0.00  0.00     0.200 A 
ATOM      2  N   UNL d   1      -0.101   0.469  -1.124  0.00  0.00    -0.320 N 
ATOM      3  HN  UNL d   1      -0.085   0.815  -2.083  1.00  0.00     0.169 HD
ATOM      4  C   UNL d   1       0.277   1.116   0.029  0.00  0.00     0.128 A 
ATOM      5  N   UNL d   1       0.168   0.385   1.145  0.00  0.00    -0.244 N 
ATOM      6  HN  UNL d   1       0.397   0.651   2.102  1.00  0.00     0.196 HD
ATOM      7  O   UNL d   1      -0.335  -0.832   0.679  0.00  0.00    -0.216 OA
ENDROOT
BRANCH   4   8
ATOM      8  C   UNL d   1       0.653   2.558   0.044  0.00  0.00     0.254 C 
BRANCH   8   9
ATOM      9  O   UNL d   1       2.066   2.742  -0.106  0.00  0.00    -0.344 OA
BRANCH   9  10
ATOM     10  C   UNL d   1       2.504   4.037  -0.034  0.00  0.00     0.069 A 
ATOM     11  C   UNL d   1       3.821   4.193   0.408  0.00  0.00     0.039 A 
ATOM     12  C   UNL d   1       4.387   5.466   0.526  0.00  0.00     0.039 A 
ATOM     13  C   UNL d   1       3.627   6.588   0.182  0.00  0.00     0.103 A 
ATOM     14  C   UNL d   1       2.315   6.441  -0.285  0.00  0.00     0.039 A 
ATOM     15  C   UNL d   1       1.758   5.163  -0.394  0.00  0.00     0.039 A 
BRANCH  13  16
ATOM     16  N   UNL d   1       4.201   7.931   0.316  0.00  0.00    -0.116 N 
ATOM     17  O   UNL d   1       5.361   8.025   0.753  0.00  0.00    -0.532 OA
ATOM     18  O   UNL d   1       3.495   8.896  -0.013  0.00  0.00    -0.532 OA
ENDBRANCH  13  16
ENDBRANCH   9  10
ENDBRANCH   8   9
ENDBRANCH   4   8
BRANCH   1  19
ATOM     19  C   UNL d   1      -1.078  -1.772  -1.544  0.00  0.00     0.110 A 
ATOM     20  N   UNL d   1      -1.548  -2.929  -1.061  0.00  0.00    -0.257 N 
ATOM     21  O   UNL d   1      -2.024  -3.626  -2.160  0.00  0.00    -0.242 OA
ATOM     22  HN  UNL d   1      -1.554  -3.234  -0.088  1.00  0.00     0.195 HD
ATOM     23  C   UNL d   1      -1.825  -2.888  -3.286  0.00  0.00     0.075 A 
ATOM     24  C   UNL d   1      -1.239  -1.694  -2.946  0.00  0.00     0.070 A 
ATOM     25  C   UNL d   1      -2.247  -3.502  -4.556  0.00  0.00     0.079 C 
ENDBRANCH   1  19
TORSDOF 5
