REMARK  6 active torsions:
REMARK  status: ('A' for Active; 'I' for Inactive)
REMARK    1  A    between atoms: C_2  and  S_1 
REMARK    2  A    between atoms: C_3  and  S_1 
REMARK    3  A    between atoms: C_16  and  C_3 
REMARK    4  A    between atoms: C_4  and  C_8 
REMARK    5  A    between atoms: N_9  and  O_18 
REMARK    6  A    between atoms: O_18  and  C_16 
ROOT
ATOM      1  C   UNL d   1       0.367  -0.660   1.546  0.00  0.00     0.174 C 
ENDROOT
BRANCH   1   2
ATOM      2  S   UNL d   1       1.053  -0.120   0.006  0.00  0.00     0.177 S 
ATOM      3  O   UNL d   1       0.355   1.086  -0.396  0.00  0.00    -0.223 OA
ATOM      4  O   UNL d   1       2.497  -0.130   0.133  0.00  0.00    -0.223 OA
BRANCH   2   5
ATOM      5  C   UNL d   1       0.608  -1.370  -1.180  0.00  0.00     0.059 A 
ATOM      6  C   UNL d   1      -0.741  -1.566  -1.493  0.00  0.00     0.025 A 
ATOM      7  C   UNL d   1      -1.093  -2.535  -2.436  0.00  0.00     0.025 A 
ATOM      8  C   UNL d   1      -0.099  -3.288  -3.064  0.00  0.00     0.034 A 
ATOM      9  C   UNL d   1       1.247  -3.080  -2.759  0.00  0.00     0.025 A 
ATOM     10 CL   UNL d   1      -0.536  -4.474  -4.231  0.00  0.00    -0.084 Cl
ATOM     11  C   UNL d   1       1.606  -2.116  -1.814  0.00  0.00     0.025 A 
ENDBRANCH   2   5
ENDBRANCH   1   2
BRANCH   1  12
ATOM     12  C   UNL d   1       0.907  -2.003   1.972  0.00  0.00     0.216 C 
BRANCH  12  13
ATOM     13  O   UNL d   1       0.322  -2.348   3.231  0.00  0.00    -0.280 OA
BRANCH  13  14
ATOM     14  N   UNL d   1       0.799  -3.616   3.591  0.00  0.00    -0.275 N 
ATOM     15  C   UNL d   1       0.302  -3.959   4.737  0.00  0.00     0.151 C 
ATOM     16  HN  UNL d   1       1.440  -4.183   3.035  1.00  0.00     0.193 HD
BRANCH  15  17
ATOM     17  C   UNL d   1       0.639  -5.222   5.327  0.00  0.00     0.092 A 
ATOM     18  O   UNL d   1       0.069  -5.553   6.523  0.00  0.00    -0.321 OA
ATOM     19  C   UNL d   1       0.539  -6.781   6.865  0.00  0.00     0.142 A 
ATOM     20  C   UNL d   1       1.407  -7.249   5.906  0.00  0.00     0.027 A 
ATOM     21  C   UNL d   1       1.472  -6.243   4.912  0.00  0.00     0.040 A 
ENDBRANCH  15  17
ENDBRANCH  13  14
ENDBRANCH  12  13
ENDBRANCH   1  12
TORSDOF 6
