REMARK  7 active torsions:
REMARK  status: ('A' for Active; 'I' for Inactive)
REMARK    1  A    between atoms: N_2  and  C_1 
REMARK    2  A    between atoms: N_3  and  C_1 
REMARK    3  A    between atoms: C_9  and  N_3 
REMARK    4  A    between atoms: C_4  and  C_8 
REMARK    5  A    between atoms: O_15  and  C_4 
REMARK    6  A    between atoms: O_16  and  C_14 
REMARK    7  A    between atoms: C_20  and  O_15 
ROOT
ATOM      1  C   UNL d   1       0.997   0.053  -0.047  0.00  0.00     0.174 C 
ATOM      2  S   UNL d   1       1.994  -0.529   1.163  0.00  0.00    -0.041 SA
ENDROOT
BRANCH   1   3
ATOM      3  N   UNL d   1       0.127   1.148   0.107  0.00  0.00    -0.358 N 
ATOM      4  C   UNL d   1      -0.666   1.304   1.321  0.00  0.00     0.126 C 
ATOM      5  C   UNL d   1      -1.900   2.145   1.006  0.00  0.00     0.034 C 
ATOM      6  C   UNL d   1      -1.514   3.513   0.418  0.00  0.00     0.088 C 
ATOM      7  C   UNL d   1      -0.560   3.346  -0.775  0.00  0.00     0.034 C 
ATOM      8  C   UNL d   1       0.600   2.405  -0.471  0.00  0.00     0.126 C 
BRANCH   6   9
ATOM      9  C   UNL d   1      -0.917   4.393   1.503  0.00  0.00     0.263 C 
ATOM     10  O   UNL d   1       0.220   4.840   1.504  0.00  0.00    -0.265 OA
BRANCH   9  11
ATOM     11  O   UNL d   1      -1.832   4.567   2.498  0.00  0.00    -0.322 OA
BRANCH  11  12
ATOM     12  C   UNL d   1      -1.330   5.123   3.721  0.00  0.00     0.174 C 
ATOM     13  C   UNL d   1      -0.763   4.001   4.572  0.00  0.00     0.034 C 
ENDBRANCH  11  12
ENDBRANCH   9  11
ENDBRANCH   6   9
ENDBRANCH   1   3
BRANCH   1  14
ATOM     14  N   UNL d   1       0.816  -0.479  -1.317  0.00  0.00    -0.333 N 
ATOM     15  H   UNL d   1      -0.139  -0.384  -1.638  0.00  0.00     0.168 HD
BRANCH  14  16
ATOM     16  C   UNL d   1       1.657  -1.301  -2.084  0.00  0.00     0.036 A 
ATOM     17  C   UNL d   1       3.050  -1.201  -2.034  0.00  0.00     0.066 A 
ATOM     18  C   UNL d   1       3.842  -1.963  -2.898  0.00  0.00     0.070 A 
ATOM     19  C   UNL d   1       3.231  -2.849  -3.788  0.00  0.00     0.037 A 
ATOM     20  C   UNL d   1       1.842  -2.950  -3.845  0.00  0.00     0.005 A 
ATOM     21  C   UNL d   1       1.056  -2.160  -3.009  0.00  0.00     0.029 A 
BRANCH  18  22
ATOM     22  O   UNL d   1       5.207  -1.918  -2.981  0.00  0.00    -0.356 OA
ATOM     23  C   UNL d   1       5.860  -0.921  -2.204  0.00  0.00     0.210 C 
ENDBRANCH  18  22
ENDBRANCH  14  16
ENDBRANCH   1  14
TORSDOF 7
