REMARK  1 active torsions:
REMARK  status: ('A' for Active; 'I' for Inactive)
REMARK    1  A    between atoms: C_7  and  C_1 
ROOT
ATOM      1  C   UNL d   1       1.315  -1.395   0.050  0.00  0.00     0.034 A 
ATOM      2  C   UNL d   1       1.507  -0.007   0.107  0.00  0.00     0.049 A 
ATOM      3  C   UNL d   1       0.011  -1.909  -0.040  0.00  0.00     0.060 A 
ATOM      4  C   UNL d   1       0.404   0.855   0.035  0.00  0.00     0.051 A 
ATOM      5  C   UNL d   1      -1.077  -1.044  -0.101  0.00  0.00     0.139 A 
ATOM      6  C   UNL d   1      -0.886   0.335  -0.070  0.00  0.00     0.074 A 
ATOM      7 CL   UNL d   1       3.051   0.726   0.345  0.00  0.00    -0.083 Cl
ATOM      8  F   UNL d   1      -2.309  -1.563  -0.187  0.00  0.00    -0.204 F 
ATOM      9 CL   UNL d   1      -2.228   1.409  -0.143  0.00  0.00    -0.081 Cl
ENDROOT
BRANCH   1  10
ATOM     10  C   UNL d   1       2.407  -2.395   0.126  0.00  0.00     0.157 C 
ATOM     11  O   UNL d   1       2.243  -3.388   0.833  0.00  0.00    -0.293 OA
ATOM     12  C   UNL d   1       3.648  -2.221  -0.708  0.00  0.00     0.097 C 
ENDBRANCH   1  10
TORSDOF 1
