REMARK  0 active torsions:
REMARK  status: ('A' for Active; 'I' for Inactive)
ROOT
ATOM      1  C   UNL d   1       0.914  -0.667  -5.090  0.00  0.00     0.087 A 
ATOM      2  C   UNL d   1       3.551   0.263  -3.378  0.00  0.00     0.087 A 
ATOM      3  C   UNL d   1       2.288  -0.111  -3.679  0.00  0.00     0.023 A 
ATOM      4  C   UNL d   1       0.931   1.003  -4.803  0.00  0.00     0.023 A 
ATOM      5  N   UNL d   1      -0.000   1.639  -5.432  0.00  0.00    -0.305 N 
ATOM      6  HN  UNL d   1      -0.181   2.643  -5.431  1.00  0.00     0.186 HD
ATOM      7  N   UNL d   1       1.414  -0.154  -2.667  0.00  0.00    -0.305 N 
ATOM      8  HN  UNL d   1       0.421  -0.386  -2.708  1.00  0.00     0.186 HD
ATOM      9  C   UNL d   1      -0.234  -0.682  -6.040  0.00  0.00     0.251 A 
ATOM     10  C   UNL d   1       3.471   0.463  -1.881  0.00  0.00     0.251 A 
ATOM     11  N   UNL d   1      -0.704   0.644  -6.112  0.00  0.00    -0.269 N 
ATOM     12  N   UNL d   1       2.151   0.185  -1.563  0.00  0.00    -0.269 N 
ATOM     13  C   UNL d   1       2.489   1.615  -4.070  0.00  0.00     0.081 C 
ATOM     14  C   UNL d   1       2.256  -0.354  -5.455  0.00  0.00     0.081 C 
ATOM     15  C   UNL d   1       3.274  -1.549  -3.637  0.00  0.00     0.027 C 
ATOM     16  C   UNL d   1       1.587  -2.028  -4.337  0.00  0.00     0.027 C 
ATOM     17  O   UNL d   1      -0.683  -1.649  -6.630  0.00  0.00    -0.271 OA
ATOM     18  O   UNL d   1       4.371   0.800  -1.135  0.00  0.00    -0.271 OA
ATOM     19  H   UNL d   1      -1.495   0.905  -6.690  0.00  0.00     0.190 HD
ATOM     20  H   UNL d   1       1.746   0.231  -0.635  0.00  0.00     0.190 HD
ENDROOT
TORSDOF 0
