REMARK  5 active torsions:
REMARK  status: ('A' for Active; 'I' for Inactive)
REMARK    1  A    between atoms: C_7  and  N_1 
REMARK    2  A    between atoms: C_4  and  C_3 
REMARK    3  A    between atoms: C_5  and  C_4 
REMARK       I    between atoms: N_8  and  C_5 
REMARK    4  A    between atoms: C_14  and  C_7 
REMARK    5  A    between atoms: C_13  and  N_8 
ROOT
ATOM      1  N   UNL d   1       0.332   1.456   0.500  0.00  0.00    -0.344 N 
ATOM      2  C   UNL d   1       0.908   0.285   0.975  0.00  0.00     0.254 C 
ATOM      3  C   UNL d   1       0.176  -1.005   0.525  0.00  0.00     0.320 C 
ATOM      4  N   UNL d   1      -1.284  -0.906   0.798  0.00  0.00     0.099 N 
ATOM      5  O   UNL d   1       1.991   0.273   1.558  0.00  0.00    -0.271 OA
ATOM      6  C   UNL d   1      -1.123   1.565   0.433  0.00  0.00     0.156 C 
ATOM      7  C   UNL d   1      -1.814   0.245   0.044  0.00  0.00     0.290 C 
ATOM      8  H   UNL d   1      -1.734  -1.755   0.454  0.00  0.00     0.317 HD
ENDROOT
BRANCH   3   9
ATOM      9  C   UNL d   1       0.816  -2.221   1.205  0.00  0.00     0.148 C 
BRANCH   9  10
ATOM     10  C   UNL d   1       2.206  -2.428   0.627  0.00  0.00     0.224 C 
ATOM     11  N   UNL d   1       3.299  -2.649   1.411  0.00  0.00    -0.327 N 
ATOM     12  H   UNL d   1       4.152  -2.494   0.885  0.00  0.00     0.169 HD
ATOM     13  O   UNL d   1       2.389  -2.351  -0.596  0.00  0.00    -0.273 OA
BRANCH  11  14
ATOM     14  C   UNL d   1       3.454  -2.902   2.782  0.00  0.00     0.034 A 
ATOM     15  C   UNL d   1       2.468  -3.456   3.596  0.00  0.00     0.029 A 
ATOM     16  C   UNL d   1       2.698  -3.642   4.962  0.00  0.00     0.002 A 
ATOM     17  C   UNL d   1       3.930  -3.309   5.518  0.00  0.00     0.000 A 
ATOM     18  C   UNL d   1       4.942  -2.808   4.704  0.00  0.00     0.002 A 
ATOM     19  C   UNL d   1       4.707  -2.616   3.340  0.00  0.00     0.029 A 
ENDBRANCH  11  14
ENDBRANCH   9  10
ENDBRANCH   3   9
BRANCH   1  20
ATOM     20  C   UNL d   1       1.173   2.627   0.317  0.00  0.00     0.164 C 
BRANCH  20  21
ATOM     21  C   UNL d   1       1.037   3.762   1.300  0.00  0.00    -0.040 A 
ATOM     22  C   UNL d   1       0.745   3.578   2.656  0.00  0.00     0.009 A 
ATOM     23  C   UNL d   1       0.717   4.672   3.528  0.00  0.00     0.001 A 
ATOM     24  C   UNL d   1       1.006   5.953   3.060  0.00  0.00     0.000 A 
ATOM     25  C   UNL d   1       1.330   6.146   1.721  0.00  0.00     0.001 A 
ATOM     26  C   UNL d   1       1.348   5.058   0.851  0.00  0.00     0.009 A 
ENDBRANCH  20  21
ENDBRANCH   1  20
TORSDOF 5
