REMARK  6 active torsions:
REMARK  status: ('A' for Active; 'I' for Inactive)
REMARK    1  A    between atoms: C_2  and  C_1 
REMARK       I    between atoms: N_5  and  C_2 
REMARK    2  A    between atoms: C_3  and  N_6 
REMARK    3  A    between atoms: N_4  and  C_3 
REMARK    4  A    between atoms: C_7  and  N_4 
REMARK    5  A    between atoms: N_6  and  N_5 
REMARK    6  A    between atoms: O_14  and  C_11 
ROOT
ATOM      1  N   UNL d   1       1.682   3.827  -0.796  0.00  0.00    -0.273 N 
ATOM      2  H   UNL d   1       0.683   3.735  -0.980  0.00  0.00     0.189 HD
ENDROOT
BRANCH   1   3
ATOM      3  C   UNL d   1       2.286   5.061  -0.758  0.00  0.00     0.191 C 
ATOM      4  S   UNL d   1       3.919   5.338  -1.019  0.00  0.00    -0.039 SA
BRANCH   3   5
ATOM      5  N   UNL d   1       1.483   6.138  -0.501  0.00  0.00    -0.330 N 
ATOM      6  H   UNL d   1       1.913   7.035  -0.707  0.00  0.00     0.168 HD
BRANCH   5   7
ATOM      7  C   UNL d   1       0.389   6.229   0.392  0.00  0.00     0.068 A 
ATOM      8  C   UNL d   1      -0.452   7.358   0.381  0.00  0.00     0.095 A 
ATOM      9  C   UNL d   1      -1.419   7.512   1.385  0.00  0.00     0.039 A 
ATOM     10  C   UNL d   1      -1.554   6.569   2.403  0.00  0.00     0.003 A 
ATOM     11  C   UNL d   1      -0.719   5.460   2.426  0.00  0.00     0.002 A 
ATOM     12  C   UNL d   1       0.239   5.286   1.423  0.00  0.00     0.032 A 
BRANCH   8  13
ATOM     13  O   UNL d   1      -0.400   8.417  -0.489  0.00  0.00    -0.354 OA
ATOM     14  C   UNL d   1      -0.143   8.132  -1.859  0.00  0.00     0.210 C 
ENDBRANCH   8  13
ENDBRANCH   5   7
ENDBRANCH   3   5
ENDBRANCH   1   3
BRANCH   1  15
ATOM     15  N   UNL d   1       2.446   2.661  -0.853  0.00  0.00    -0.264 N 
ATOM     16  C   UNL d   1       2.005   1.533  -1.499  0.00  0.00     0.271 C 
ATOM     17  O   UNL d   1       0.986   1.517  -2.187  0.00  0.00    -0.266 OA
ATOM     18  H   UNL d   1       3.325   2.685  -0.330  0.00  0.00     0.190 HD
BRANCH  16  19
ATOM     19  C   UNL d   1       2.831   0.277  -1.323  0.00  0.00     0.055 A 
ATOM     20  C   UNL d   1       3.902   0.110  -0.423  0.00  0.00     0.049 A 
ATOM     21 CL   UNL d   1       4.555   1.355   0.587  0.00  0.00    -0.083 Cl
ATOM     22  C   UNL d   1       4.520  -1.143  -0.277  0.00  0.00     0.025 A 
ATOM     23  C   UNL d   1       4.095  -2.239  -1.021  0.00  0.00     0.002 A 
ATOM     24  C   UNL d   1       3.058  -2.086  -1.934  0.00  0.00     0.001 A 
ATOM     25  C   UNL d   1       2.435  -0.843  -2.085  0.00  0.00     0.019 A 
ENDBRANCH  16  19
ENDBRANCH   1  15
TORSDOF 6
