REMARK  3 active torsions:
REMARK  status: ('A' for Active; 'I' for Inactive)
REMARK    1  A    between atoms: C_9  and  C_1 
REMARK    2  A    between atoms: N_6  and  C_2 
REMARK       I    between atoms: C_7  and  N_6 
REMARK       I    between atoms: N_11  and  C_7 
REMARK    3  A    between atoms: C_10  and  N_11 
ROOT
ATOM      1  N   UNL d   1       1.964  -1.363  -0.339  0.00  0.00    -0.293 N 
ATOM      2  C   UNL d   1       3.326  -0.953  -0.349  0.00  0.00     0.326 C 
ATOM      3  N   UNL d   1       3.614   0.344  -0.670  0.00  0.00    -0.309 N 
ATOM      4  O   UNL d   1       4.094  -1.849  -0.045  0.00  0.00    -0.247 OA
ATOM      5  H   UNL d   1       1.916  -2.353  -0.110  0.00  0.00     0.172 HD
ATOM      6  H   UNL d   1       2.860   0.942  -0.930  0.00  0.00     0.170 HD
ENDROOT
BRANCH   1   7
ATOM      7  C   UNL d   1       0.762  -0.683  -0.424  0.00  0.00     0.126 A 
ATOM      8  C   UNL d   1       0.469   0.640  -0.637  0.00  0.00     0.082 A 
ATOM      9  C   UNL d   1      -0.927   0.764  -0.410  0.00  0.00     0.068 A 
ATOM     10  N   UNL d   1      -1.493  -0.428  -0.200  0.00  0.00    -0.298 N 
ATOM     11  N   UNL d   1      -0.465  -1.287  -0.253  0.00  0.00    -0.285 N 
ATOM     12  HN  UNL d   1      -2.479  -0.636  -0.038  1.00  0.00     0.187 HD
ATOM     13  H   UNL d   1      -0.666  -2.272  -0.120  0.00  0.00     0.188 HD
BRANCH   9  14
ATOM     14  C   UNL d   1      -1.688   2.053  -0.382  0.00  0.00     0.033 A 
ATOM     15  S   UNL d   1      -0.957   3.588  -0.591  0.00  0.00    -0.100 SA
ATOM     16  C   UNL d   1      -2.459   4.390  -0.482  0.00  0.00     0.050 A 
ATOM     17  C   UNL d   1      -3.495   3.513  -0.247  0.00  0.00     0.008 A 
ATOM     18  C   UNL d   1      -3.045   2.160  -0.167  0.00  0.00     0.021 A 
ENDBRANCH   9  14
ENDBRANCH   1   7
BRANCH   3  19
ATOM     19  C   UNL d   1       4.887   0.957  -0.613  0.00  0.00     0.039 A 
ATOM     20  C   UNL d   1       6.075   0.272  -0.342  0.00  0.00     0.053 A 
ATOM     21  C   UNL d   1       7.280   0.973  -0.219  0.00  0.00     0.037 A 
ATOM     22 CL   UNL d   1       8.727   0.113   0.141  0.00  0.00    -0.084 Cl
ATOM     23  C   UNL d   1       7.322   2.354  -0.368  0.00  0.00     0.048 A 
ATOM     24  C   UNL d   1       6.147   3.032  -0.669  0.00  0.00     0.037 A 
ATOM     25  C   UNL d   1       4.938   2.343  -0.807  0.00  0.00     0.053 A 
ATOM     26 CL   UNL d   1       6.172   4.743  -0.844  0.00  0.00    -0.084 Cl
ENDBRANCH   3  19
TORSDOF 3
