REMARK  8 active torsions:
REMARK  status: ('A' for Active; 'I' for Inactive)
REMARK    1  A    between atoms: S_16  and  C_5 
REMARK    2  A    between atoms: C_12  and  C_10 
REMARK    3  A    between atoms: C_14  and  C_11 
REMARK    4  A    between atoms: C_13  and  O_24 
REMARK       I    between atoms: N_15  and  C_13 
REMARK    5  A    between atoms: C_17  and  N_15 
REMARK    6  A    between atoms: C_31  and  S_16 
REMARK    7  A    between atoms: O_24  and  C_33 
REMARK    8  A    between atoms: C_33  and  C_31 
ROOT
ATOM      1  N   UNL d   1       0.262   0.613   0.148  0.00  0.00    -0.233 N 
ATOM      2  C   UNL d   1       0.123  -0.775   0.042  0.00  0.00     0.130 A 
ATOM      3  N   UNL d   1       1.576   0.971   0.150  0.00  0.00    -0.295 N 
ATOM      4  HN  UNL d   1       1.959   1.912   0.232  1.00  0.00     0.187 HD
ATOM      5  C   UNL d   1      -0.885   1.426   0.227  0.00  0.00     0.097 A 
ATOM      6  N   UNL d   1      -1.091  -1.400   0.026  0.00  0.00    -0.337 N 
ATOM      7  HN  UNL d   1      -1.165  -2.416  -0.038  1.00  0.00     0.167 HD
ATOM      8  C   UNL d   1       1.395  -1.286  -0.032  0.00  0.00     0.077 A 
ATOM      9  C   UNL d   1      -2.103   0.858   0.183  0.00  0.00     0.073 A 
ATOM     10  C   UNL d   1      -2.154  -0.643   0.095  0.00  0.00     0.120 A 
ATOM     11  C   UNL d   1       2.262  -0.175   0.021  0.00  0.00     0.037 A 
ENDROOT
BRANCH   5  12
ATOM     12  S   UNL d   1      -0.757   3.163   0.278  0.00  0.00    -0.108 SA
BRANCH  12  13
ATOM     13  C   UNL d   1       0.128   3.440   1.853  0.00  0.00     0.108 C 
BRANCH  13  14
ATOM     14  C   UNL d   1       0.240   4.947   2.108  0.00  0.00     0.191 C 
BRANCH  14  15
ATOM     15  O   UNL d   1       1.042   5.263   3.265  0.00  0.00    -0.303 OA
BRANCH  15  16
ATOM     16  C   UNL d   1       0.440   5.104   4.469  0.00  0.00     0.365 C 
ATOM     17  N   UNL d   1       1.138   5.545   5.559  0.00  0.00    -0.303 N 
ATOM     18  H   UNL d   1       0.656   5.298   6.415  0.00  0.00     0.171 HD
ATOM     19  O   UNL d   1      -0.662   4.582   4.615  0.00  0.00    -0.238 OA
BRANCH  17  20
ATOM     20  C   UNL d   1       2.377   6.199   5.699  0.00  0.00     0.038 A 
ATOM     21  C   UNL d   1       3.143   6.693   4.644  0.00  0.00     0.053 A 
ATOM     22  C   UNL d   1       4.405   7.242   4.892  0.00  0.00     0.036 A 
ATOM     23 CL   UNL d   1       5.365   7.802   3.576  0.00  0.00    -0.084 Cl
ATOM     24  C   UNL d   1       4.906   7.332   6.189  0.00  0.00     0.024 A 
ATOM     25  C   UNL d   1       4.123   6.900   7.254  0.00  0.00     0.004 A 
ATOM     26  C   UNL d   1       2.864   6.345   7.009  0.00  0.00     0.029 A 
ENDBRANCH  17  20
ENDBRANCH  15  16
ENDBRANCH  14  15
ENDBRANCH  13  14
ENDBRANCH  12  13
ENDBRANCH   5  12
BRANCH  10  27
ATOM     27  C   UNL d   1      -3.543  -1.290   0.100  0.00  0.00     0.432 C 
ATOM     28  F   UNL d   1      -4.551  -0.376   0.169  0.00  0.00    -0.165 F 
ATOM     29  F   UNL d   1      -3.776  -2.027  -1.020  0.00  0.00    -0.165 F 
ATOM     30  F   UNL d   1      -3.716  -2.125   1.161  0.00  0.00    -0.165 F 
ENDBRANCH  10  27
BRANCH  11  31
ATOM     31  C   UNL d   1       3.784  -0.172  -0.001  0.00  0.00    -0.007 C 
ATOM     32  C   UNL d   1       4.314  -0.290   1.440  0.00  0.00     0.021 C 
ATOM     33  C   UNL d   1       4.331  -1.358  -0.826  0.00  0.00     0.021 C 
ATOM     34  C   UNL d   1       4.341   1.123  -0.628  0.00  0.00     0.021 C 
ENDBRANCH  11  31
TORSDOF 8
