REMARK  2 active torsions:
REMARK  status: ('A' for Active; 'I' for Inactive)
REMARK       I    between atoms: C_3  and  N_1 
REMARK    1  A    between atoms: C_6  and  C_3 
REMARK    2  A    between atoms: C_10  and  N_8 
ROOT
ATOM      1  N   UNL d   1      -2.581   0.238  -0.003  0.00  0.00    -0.279 N 
ATOM      2  C   UNL d   1      -2.152  -0.742  -0.919  0.00  0.00     0.155 C 
ATOM      3  C   UNL d   1      -3.519  -0.158   0.972  0.00  0.00     0.267 C 
ATOM      4  S   UNL d   1      -0.914  -0.131  -1.995  0.00  0.00    -0.056 SA
ATOM      5  C   UNL d   1      -2.020   1.636  -0.256  0.00  0.00     0.075 C 
ATOM      6  C   UNL d   1      -0.799   1.378  -1.173  0.00  0.00     0.005 C 
ATOM      7  N   UNL d   1      -2.597  -1.956  -0.943  0.00  0.00    -0.335 N 
ATOM      8  HN  UNL d   1      -3.307  -2.222  -0.261  1.00  0.00     0.168 HD
ATOM      9  O   UNL d   1      -3.895  -1.317   1.181  0.00  0.00    -0.267 OA
ATOM     10  C   UNL d   1       0.249   2.177  -1.415  0.00  0.00     0.029 C 
ATOM     11  C   UNL d   1      -2.986   2.462  -1.170  0.00  0.00     0.037 C 
ATOM     12  C   UNL d   1      -1.522   2.317   1.052  0.00  0.00     0.037 C 
ATOM     13  C   UNL d   1      -2.130   3.670   1.411  0.00  0.00     0.003 C 
ATOM     14  C   UNL d   1      -3.402   3.863  -0.724  0.00  0.00     0.003 C 
ATOM     15  C   UNL d   1      -2.416   4.541   0.203  0.00  0.00     0.000 C 
ENDROOT
BRANCH   3  16
ATOM     16  C   UNL d   1      -4.125   0.759   1.937  0.00  0.00     0.109 A 
ATOM     17  C   UNL d   1      -5.066   1.706   1.553  0.00  0.00     0.135 A 
ATOM     18  F   UNL d   1      -5.411   1.849   0.262  0.00  0.00    -0.205 F 
ATOM     19  C   UNL d   1      -5.721   2.501   2.499  0.00  0.00     0.043 A 
ATOM     20  C   UNL d   1      -5.501   2.287   3.859  0.00  0.00     0.006 A 
ATOM     21  C   UNL d   1      -4.635   1.274   4.262  0.00  0.00     0.043 A 
ATOM     22  C   UNL d   1      -3.954   0.522   3.303  0.00  0.00     0.135 A 
ATOM     23  F   UNL d   1      -3.124  -0.440   3.730  0.00  0.00    -0.205 F 
ENDBRANCH   3  16
BRANCH   7  24
ATOM     24  C   UNL d   1      -2.156  -2.930  -1.858  0.00  0.00     0.056 A 
ATOM     25  C   UNL d   1      -3.027  -3.483  -2.812  0.00  0.00     0.060 A 
ATOM     26 CL   UNL d   1      -4.671  -2.955  -2.937  0.00  0.00    -0.082 Cl
ATOM     27  C   UNL d   1      -2.591  -4.480  -3.688  0.00  0.00     0.026 A 
ATOM     28  C   UNL d   1      -1.276  -4.943  -3.621  0.00  0.00     0.002 A 
ATOM     29  C   UNL d   1      -0.409  -4.424  -2.662  0.00  0.00     0.002 A 
ATOM     30  C   UNL d   1      -0.855  -3.446  -1.775  0.00  0.00     0.031 A 
ENDBRANCH   7  24
TORSDOF 2
