REMARK  2 active torsions:
REMARK  status: ('A' for Active; 'I' for Inactive)
REMARK    1  A    between atoms: C_7  and  C_2 
REMARK    2  A    between atoms: N_6  and  C_10 
ROOT
ATOM      1  C   UNL d   1      -0.013   0.708   0.127  0.00  0.00     0.024 C 
ATOM      2  C   UNL d   1      -1.290   1.525  -0.064  0.00  0.00     0.105 C 
ATOM      3  C   UNL d   1      -0.035  -0.637   0.210  0.00  0.00     0.021 C 
ATOM      4  C   UNL d   1      -2.563   0.678   0.100  0.00  0.00     0.057 C 
ATOM      5  N   UNL d   1      -1.248  -1.303   0.223  0.00  0.00    -0.362 N 
ATOM      6  C   UNL d   1      -2.483  -0.672   0.202  0.00  0.00     0.023 C 
ATOM      7  C   UNL d   1       1.285   1.440   0.170  0.00  0.00     0.159 C 
ATOM      8  C   UNL d   1      -3.821   1.350   0.068  0.00  0.00     0.098 C 
ATOM      9  N   UNL d   1      -4.853   1.882   0.010  0.00  0.00    -0.192 NA
ATOM     10  C   UNL d   1       1.222  -1.480   0.209  0.00  0.00     0.067 C 
ATOM     11  C   UNL d   1       2.466  -0.727  -0.318  0.00  0.00    -0.036 C 
ATOM     12  C   UNL d   1       2.547   0.634   0.392  0.00  0.00     0.092 C 
ATOM     13  O   UNL d   1       1.317   2.663   0.064  0.00  0.00    -0.293 OA
ATOM     14  C   UNL d   1      -3.706  -1.556   0.233  0.00  0.00     0.069 C 
ATOM     15  C   UNL d   1       2.396  -0.529  -1.849  0.00  0.00     0.015 C 
ATOM     16  C   UNL d   1       3.732  -1.544  -0.014  0.00  0.00     0.015 C 
ATOM     17  H   UNL d   1      -1.234  -2.316   0.317  0.00  0.00     0.165 HD
ENDROOT
BRANCH   2  18
ATOM     18  C   UNL d   1      -1.292   2.174  -1.464  0.00  0.00    -0.011 A 
ATOM     19  C   UNL d   1      -1.397   3.554  -1.759  0.00  0.00     0.110 A 
ATOM     20  C   UNL d   1      -1.349   3.989  -3.103  0.00  0.00     0.037 A 
ATOM     21  C   UNL d   1      -1.208   3.084  -4.153  0.00  0.00     0.002 A 
ATOM     22  C   UNL d   1      -1.119   1.728  -3.886  0.00  0.00     0.001 A 
ATOM     23  C   UNL d   1      -1.171   1.284  -2.567  0.00  0.00     0.011 A 
BRANCH  19  24
ATOM     24  N   UNL d   1      -1.591   4.610  -0.739  0.00  0.00    -0.115 N 
ATOM     25  O   UNL d   1      -1.786   4.286   0.434  0.00  0.00    -0.532 OA
ATOM     26  O   UNL d   1      -1.589   5.790  -1.132  0.00  0.00    -0.532 OA
ENDBRANCH  19  24
ENDBRANCH   2  18
TORSDOF 2
