REMARK  8 active torsions:
REMARK  status: ('A' for Active; 'I' for Inactive)
REMARK    1  A    between atoms: C_10  and  N_1 
REMARK    2  A    between atoms: C_3  and  C_4 
REMARK    3  A    between atoms: C_8  and  C_3 
REMARK    4  A    between atoms: N_9  and  C_6 
REMARK    5  A    between atoms: O_17  and  C_8 
REMARK    6  A    between atoms: C_16  and  N_9 
REMARK    7  A    between atoms: C_29  and  O_17 
REMARK    8  A    between atoms: O_28  and  C_19 
ROOT
ATOM      1  C   UNL d   1      -1.362  -2.159  -1.155  0.00  0.00     0.053 C 
ATOM      2  C   UNL d   1      -0.728  -2.756  -2.200  0.00  0.00     0.018 C 
ATOM      3  C   UNL d   1       0.789  -2.771  -2.272  0.00  0.00     0.069 C 
ENDROOT
BRANCH   1   4
ATOM      4  C   UNL d   1      -0.694  -1.287  -0.098  0.00  0.00     0.128 A 
ATOM      5  C   UNL d   1      -0.916  -1.824   1.308  0.00  0.00     0.240 A 
ATOM      6  N   UNL d   1      -1.442  -0.822   2.098  0.00  0.00    -0.252 N 
ATOM      7  O   UNL d   1      -0.639  -2.976   1.609  0.00  0.00    -0.272 OA
ATOM      8  C   UNL d   1      -1.579   0.355   1.393  0.00  0.00     0.232 A 
ATOM      9  C   UNL d   1      -1.185   0.147  -0.039  0.00  0.00     0.123 A 
ATOM     10  O   UNL d   1      -1.881   1.469   1.807  0.00  0.00    -0.273 OA
BRANCH   6  11
ATOM     11  C   UNL d   1      -1.758  -0.957   3.488  0.00  0.00     0.045 A 
ATOM     12  C   UNL d   1      -1.197  -1.967   4.287  0.00  0.00     0.033 A 
ATOM     13  C   UNL d   1      -1.487  -2.069   5.660  0.00  0.00     0.039 A 
ATOM     14  C   UNL d   1      -2.363  -1.172   6.262  0.00  0.00     0.068 A 
ATOM     15  C   UNL d   1      -2.935  -0.171   5.485  0.00  0.00     0.039 A 
ATOM     16  C   UNL d   1      -2.642  -0.069   4.119  0.00  0.00     0.033 A 
BRANCH  14  17
ATOM     17  O   UNL d   1      -2.708  -1.147   7.583  0.00  0.00    -0.356 OA
ATOM     18  C   UNL d   1      -2.551  -2.365   8.300  0.00  0.00     0.210 C 
ENDBRANCH  14  17
ENDBRANCH   6  11
ENDBRANCH   1   4
BRANCH   1  19
ATOM     19  C   UNL d   1      -2.812  -2.401  -0.860  0.00  0.00     0.292 C 
ATOM     20  O   UNL d   1      -3.495  -1.592  -0.246  0.00  0.00    -0.260 OA
BRANCH  19  21
ATOM     21  O   UNL d   1      -3.144  -3.685  -1.118  0.00  0.00    -0.318 OA
BRANCH  21  22
ATOM     22  C   UNL d   1      -4.244  -4.218  -0.374  0.00  0.00     0.174 C 
ATOM     23  C   UNL d   1      -3.657  -4.938   0.825  0.00  0.00     0.034 C 
ENDBRANCH  21  22
ENDBRANCH  19  21
ENDBRANCH   1  19
BRANCH   2  24
ATOM     24  N   UNL d   1      -1.319  -3.505  -3.212  0.00  0.00    -0.359 N 
ATOM     25  H   UNL d   1      -0.716  -4.222  -3.610  0.00  0.00     0.166 HD
BRANCH  24  26
ATOM     26  C   UNL d   1      -2.309  -3.110  -4.141  0.00  0.00     0.032 A 
ATOM     27  C   UNL d   1      -2.841  -1.816  -4.215  0.00  0.00     0.032 A 
ATOM     28  C   UNL d   1      -3.869  -1.518  -5.117  0.00  0.00     0.044 A 
ATOM     29  C   UNL d   1      -4.381  -2.516  -5.937  0.00  0.00     0.116 A 
ATOM     30  C   UNL d   1      -3.880  -3.808  -5.878  0.00  0.00     0.044 A 
ATOM     31  F   UNL d   1      -5.374  -2.231  -6.789  0.00  0.00    -0.206 F 
ATOM     32  C   UNL d   1      -2.852  -4.101  -4.980  0.00  0.00     0.032 A 
ENDBRANCH  24  26
ENDBRANCH   2  24
TORSDOF 8
