REMARK  3 active torsions:
REMARK  status: ('A' for Active; 'I' for Inactive)
REMARK    1  A    between atoms: C_3  and  C_1 
REMARK       I    between atoms: N_6  and  C_3 
REMARK    2  A    between atoms: C_8  and  N_6 
REMARK    3  A    between atoms: C_21  and  C_17 
ROOT
ATOM      1  C   UNL d   1      -2.384  -0.196  -0.277  0.00  0.00     0.102 A 
ATOM      2  N   UNL d   1      -1.612   0.934  -0.095  0.00  0.00    -0.351 N 
ATOM      3  C   UNL d   1      -1.499  -1.245  -0.463  0.00  0.00     0.049 A 
ATOM      4  C   UNL d   1      -0.177  -0.744  -0.296  0.00  0.00    -0.007 A 
ATOM      5  C   UNL d   1      -0.274   0.628  -0.095  0.00  0.00     0.043 A 
ATOM      6  C   UNL d   1       1.098  -1.338  -0.290  0.00  0.00     0.021 A 
ATOM      7  C   UNL d   1       0.846   1.446   0.075  0.00  0.00     0.031 A 
ATOM      8  C   UNL d   1       2.250  -0.551  -0.096  0.00  0.00    -0.058 A 
ATOM      9  C   UNL d   1       2.107   0.832   0.069  0.00  0.00     0.009 A 
ATOM     10  H   UNL d   1      -2.005   1.854   0.059  0.00  0.00     0.166 HD
ENDROOT
BRANCH   1  11
ATOM     11  C   UNL d   1      -3.829  -0.114  -0.234  0.00  0.00     0.272 C 
ATOM     12  N   UNL d   1      -4.492  -1.320  -0.384  0.00  0.00    -0.319 N 
ATOM     13  H   UNL d   1      -3.925  -2.151  -0.300  0.00  0.00     0.169 HD
ATOM     14  O   UNL d   1      -4.365   0.965   0.006  0.00  0.00    -0.266 OA
BRANCH  12  15
ATOM     15  C   UNL d   1      -5.895  -1.494  -0.344  0.00  0.00     0.074 A 
ATOM     16  C   UNL d   1      -6.826  -0.490  -0.645  0.00  0.00     0.144 A 
ATOM     17  C   UNL d   1      -8.193  -0.691  -0.469  0.00  0.00     0.062 A 
ATOM     18  F   UNL d   1      -6.451   0.673  -1.193  0.00  0.00    -0.204 F 
ATOM     19  C   UNL d   1      -8.652  -1.924  -0.022  0.00  0.00     0.009 A 
ATOM     20  C   UNL d   1      -7.753  -2.968   0.198  0.00  0.00     0.020 A 
ATOM     21  I   UNL d   1     -10.680  -2.206   0.316  0.00  0.00    -0.044 I 
ATOM     22  C   UNL d   1      -6.378  -2.756   0.027  0.00  0.00     0.034 A 
ENDBRANCH  12  15
ENDBRANCH   1  11
BRANCH   8  23
ATOM     23  C   UNL d   1       3.579  -1.272  -0.065  0.00  0.00     0.034 C 
ATOM     24  C   UNL d   1       4.830  -0.422   0.103  0.00  0.00     0.010 C 
ENDBRANCH   8  23
TORSDOF 3
