REMARK  1 active torsions:
REMARK  status: ('A' for Active; 'I' for Inactive)
REMARK    1  A    between atoms: C_2  and  C_4 
ROOT
ATOM      1  C   UNL d   1      -1.049  -2.905  -0.388  0.00  0.00     0.045 A 
ATOM      2  C   UNL d   1      -1.472  -4.170  -1.095  0.00  0.00     0.257 A 
ATOM      3  C   UNL d   1      -1.859  -1.950   0.090  0.00  0.00     0.032 C 
ATOM      4  N   UNL d   1      -0.285  -4.835  -1.368  0.00  0.00    -0.322 N 
ATOM      5  C   UNL d   1       0.418  -2.929  -0.307  0.00  0.00     0.006 A 
ATOM      6  C   UNL d   1       0.819  -4.121  -0.916  0.00  0.00     0.046 A 
ATOM      7  O   UNL d   1      -2.586  -4.553  -1.390  0.00  0.00    -0.267 OA
ATOM      8  C   UNL d   1       1.365  -2.065   0.218  0.00  0.00     0.015 A 
ATOM      9  C   UNL d   1       2.142  -4.498  -1.028  0.00  0.00     0.030 A 
ATOM     10  C   UNL d   1       2.716  -2.426   0.118  0.00  0.00     0.001 A 
ATOM     11  C   UNL d   1       3.101  -3.630  -0.500  0.00  0.00     0.002 A 
ATOM     12  H   UNL d   1      -0.265  -5.725  -1.840  0.00  0.00     0.169 HD
ENDROOT
BRANCH   3  13
ATOM     13  C   UNL d   1      -3.285  -1.956   0.046  0.00  0.00    -0.001 A 
ATOM     14  C   UNL d   1      -4.055  -1.488  -1.001  0.00  0.00     0.017 A 
ATOM     15  N   UNL d   1      -5.370  -1.667  -0.639  0.00  0.00    -0.358 N 
ATOM     16  C   UNL d   1      -3.705  -0.912  -2.324  0.00  0.00     0.069 C 
ATOM     17  C   UNL d   1      -5.463  -2.209   0.622  0.00  0.00     0.043 A 
ATOM     18  H   UNL d   1      -6.165  -1.439  -1.218  0.00  0.00     0.166 HD
ATOM     19  C   UNL d   1      -4.160  -2.413   1.077  0.00  0.00     0.003 A 
ATOM     20  C   UNL d   1      -6.592  -2.540   1.381  0.00  0.00     0.030 A 
ATOM     21  C   UNL d   1      -3.976  -2.986   2.353  0.00  0.00     0.014 A 
ATOM     22  C   UNL d   1      -5.093  -3.321   3.126  0.00  0.00     0.001 A 
ATOM     23  C   UNL d   1      -6.382  -3.097   2.646  0.00  0.00     0.002 A 
ENDBRANCH   3  13
TORSDOF 1
