REMARK  5 active torsions:
REMARK  status: ('A' for Active; 'I' for Inactive)
REMARK    1  A    between atoms: S_9  and  C_2 
REMARK    2  A    between atoms: C_15  and  C_3 
REMARK    3  A    between atoms: C_4  and  S_9 
REMARK    4  A    between atoms: C_16  and  C_12 
REMARK    5  A    between atoms: O_25  and  C_16 
ROOT
ATOM      1  N   UNL d   1      -1.246   4.351  -2.408  0.00  0.00    -0.320 N 
ATOM      2  C   UNL d   1      -0.451   3.789  -1.452  0.00  0.00     0.168 A 
ATOM      3  C   UNL d   1      -0.415   5.062  -3.244  0.00  0.00     0.132 A 
ATOM      4  N   UNL d   1       0.821   4.917  -2.800  0.00  0.00    -0.283 N 
ATOM      5  HN  UNL d   1       1.655   5.327  -3.220  1.00  0.00     0.188 HD
ATOM      6  N   UNL d   1       0.797   4.124  -1.680  0.00  0.00    -0.278 N 
ATOM      7  HN  UNL d   1       1.605   3.844  -1.124  1.00  0.00     0.189 HD
ATOM      8  H   UNL d   1      -2.247   4.235  -2.481  0.00  0.00     0.169 HD
ENDROOT
BRANCH   2   9
ATOM      9  S   UNL d   1      -0.957   2.745  -0.178  0.00  0.00    -0.016 SA
BRANCH   9  10
ATOM     10  C   UNL d   1      -2.726   2.819  -0.135  0.00  0.00     0.152 A 
ATOM     11  N   UNL d   1      -3.407   3.385  -1.140  0.00  0.00    -0.331 N 
ATOM     12  C   UNL d   1      -4.758   3.353  -1.020  0.00  0.00     0.112 A 
ATOM     13  HN  UNL d   1      -2.941   3.812  -1.941  1.00  0.00     0.168 HD
ATOM     14  C   UNL d   1      -5.435   2.788   0.040  0.00  0.00     0.060 A 
ATOM     15  C   UNL d   1      -4.652   2.221   1.011  0.00  0.00     0.009 A 
ATOM     16  N   UNL d   1      -3.306   2.236   0.934  0.00  0.00    -0.340 N 
ATOM     17  C   UNL d   1      -5.268   1.557   2.205  0.00  0.00     0.068 C 
ATOM     18  HN  UNL d   1      -2.738   1.814   1.668  1.00  0.00     0.167 HD
BRANCH  12  19
ATOM     19  C   UNL d   1      -5.571   3.956  -2.107  0.00  0.00     0.309 C 
ATOM     20  O   UNL d   1      -6.776   4.130  -2.031  0.00  0.00    -0.258 OA
BRANCH  19  21
ATOM     21  O   UNL d   1      -4.787   4.250  -3.178  0.00  0.00    -0.321 OA
ATOM     22  C   UNL d   1      -5.521   4.771  -4.288  0.00  0.00     0.213 C 
ENDBRANCH  19  21
ENDBRANCH  12  19
ENDBRANCH   9  10
ENDBRANCH   2   9
BRANCH   3  23
ATOM     23  C   UNL d   1      -0.807   5.822  -4.434  0.00  0.00     0.013 A 
ATOM     24  C   UNL d   1      -2.136   6.158  -4.721  0.00  0.00     0.039 A 
ATOM     25  C   UNL d   1      -2.449   6.883  -5.878  0.00  0.00     0.036 A 
ATOM     26 CL   UNL d   1      -4.081   7.312  -6.218  0.00  0.00    -0.084 Cl
ATOM     27  C   UNL d   1      -1.455   7.285  -6.762  0.00  0.00     0.047 A 
ATOM     28  C   UNL d   1      -0.131   6.976  -6.474  0.00  0.00     0.036 A 
ATOM     29  C   UNL d   1       0.192   6.255  -5.323  0.00  0.00     0.039 A 
ATOM     30 CL   UNL d   1       1.111   7.499  -7.540  0.00  0.00    -0.084 Cl
ENDBRANCH   3  23
TORSDOF 5
