REMARK  8 active torsions:
REMARK  status: ('A' for Active; 'I' for Inactive)
REMARK    1  A    between atoms: N_5  and  C_1 
REMARK    2  A    between atoms: N_7  and  C_1 
REMARK    3  A    between atoms: N_2  and  N_7 
REMARK    4  A    between atoms: O_16  and  C_4 
REMARK    5  A    between atoms: C_12  and  N_5 
REMARK    6  A    between atoms: O_17  and  C_8 
REMARK    7  A    between atoms: C_13  and  C_11 
REMARK    8  A    between atoms: O_22  and  C_14 
ROOT
ATOM      1  N   UNL d   1       2.603  -0.083   0.064  0.00  0.00    -0.276 N 
ATOM      2  H   UNL d   1       3.024  -0.341  -0.823  0.00  0.00     0.189 HD
ENDROOT
BRANCH   1   3
ATOM      3  N   UNL d   1       3.355  -0.193   1.198  0.00  0.00    -0.309 N 
ATOM      4  C   UNL d   1       4.635  -0.268   1.045  0.00  0.00     0.118 C 
ATOM      5  HN  UNL d   1       2.925  -0.216   2.123  1.00  0.00     0.186 HD
BRANCH   4   6
ATOM      6  C   UNL d   1       5.528  -0.411   2.215  0.00  0.00    -0.017 A 
ATOM      7  C   UNL d   1       6.915  -0.404   2.021  0.00  0.00     0.052 A 
ATOM      8  C   UNL d   1       7.771  -0.558   3.116  0.00  0.00     0.102 A 
ATOM      9  C   UNL d   1       7.216  -0.712   4.397  0.00  0.00     0.099 A 
ATOM     10  C   UNL d   1       5.836  -0.711   4.594  0.00  0.00     0.040 A 
ATOM     11  C   UNL d   1       4.989  -0.562   3.498  0.00  0.00     0.016 A 
BRANCH   8  12
ATOM     12  O   UNL d   1       9.139  -0.585   3.049  0.00  0.00    -0.353 OA
ATOM     13  C   UNL d   1       9.747  -0.420   1.777  0.00  0.00     0.210 C 
ENDBRANCH   8  12
BRANCH   9  14
ATOM     14  O   UNL d   1       8.052  -0.867   5.472  0.00  0.00    -0.358 OA
ATOM     15  H   UNL d   1       7.521  -1.004   6.271  0.00  0.00     0.217 HD
ENDBRANCH   9  14
ENDBRANCH   4   6
ENDBRANCH   1   3
BRANCH   1  16
ATOM     16  C   UNL d   1       1.236  -0.146   0.140  0.00  0.00     0.191 C 
ATOM     17  S   UNL d   1       0.356  -0.689  -1.172  0.00  0.00    -0.039 SA
BRANCH  16  18
ATOM     18  N   UNL d   1       0.607   0.143   1.317  0.00  0.00    -0.332 N 
ATOM     19  H   UNL d   1      -0.297  -0.295   1.440  0.00  0.00     0.168 HD
BRANCH  18  20
ATOM     20  C   UNL d   1       0.915   1.176   2.229  0.00  0.00     0.034 A 
ATOM     21  C   UNL d   1       1.675   2.291   1.870  0.00  0.00     0.032 A 
ATOM     22  C   UNL d   1       1.854   3.343   2.769  0.00  0.00     0.039 A 
ATOM     23  C   UNL d   1       1.268   3.295   4.035  0.00  0.00     0.068 A 
ATOM     24  C   UNL d   1       0.554   2.160   4.418  0.00  0.00     0.039 A 
ATOM     25  C   UNL d   1       0.357   1.113   3.508  0.00  0.00     0.032 A 
BRANCH  23  26
ATOM     26  O   UNL d   1       1.472   4.396   4.819  0.00  0.00    -0.356 OA
ATOM     27  C   UNL d   1       0.422   4.674   5.740  0.00  0.00     0.210 C 
ENDBRANCH  23  26
ENDBRANCH  18  20
ENDBRANCH  16  18
ENDBRANCH   1  16
TORSDOF 8
