REMARK  4 active torsions:
REMARK  status: ('A' for Active; 'I' for Inactive)
REMARK    1  A    between atoms: C_2  and  C_1 
REMARK       I    between atoms: N_11  and  C_1 
REMARK    2  A    between atoms: C_3  and  C_4 
REMARK    3  A    between atoms: N_5  and  N_11 
REMARK    4  A    between atoms: C_9  and  C_10 
ROOT
ATOM      1  N   UNL d   1       1.069   2.199   1.164  0.00  0.00    -0.305 N 
ATOM      2  HN  UNL d   1       0.644   2.615   1.993  1.00  0.00     0.186 HD
ATOM      3  C   UNL d   1       2.224   2.617   0.777  0.00  0.00     0.138 C 
ENDROOT
BRANCH   1   4
ATOM      4  N   UNL d   1       0.387   1.202   0.489  0.00  0.00    -0.262 N 
ATOM      5  C   UNL d   1       1.054   0.137  -0.176  0.00  0.00     0.273 C 
ATOM      6  O   UNL d   1       2.283   0.070  -0.280  0.00  0.00    -0.266 OA
ATOM      7  C   UNL d   1      -1.034   1.202   0.848  0.00  0.00     0.181 C 
BRANCH   5   8
ATOM      8  C   UNL d   1       0.255  -0.967  -0.801  0.00  0.00     0.055 A 
ATOM      9  C   UNL d   1       0.676  -2.311  -0.766  0.00  0.00     0.049 A 
ATOM     10 CL   UNL d   1       2.119  -2.853   0.021  0.00  0.00    -0.083 Cl
ATOM     11  C   UNL d   1      -0.098  -3.313  -1.378  0.00  0.00     0.025 A 
ATOM     12  C   UNL d   1      -1.305  -3.000  -2.002  0.00  0.00     0.002 A 
ATOM     13  C   UNL d   1      -1.715  -1.673  -2.068  0.00  0.00     0.001 A 
ATOM     14  C   UNL d   1      -0.919  -0.668  -1.512  0.00  0.00     0.019 A 
ENDBRANCH   5   8
ENDBRANCH   1   4
BRANCH   3  15
ATOM     15  C   UNL d   1       2.952   3.668   1.532  0.00  0.00     0.071 A 
ATOM     16  N   UNL d   1       3.769   4.424   0.743  0.00  0.00    -0.363 N 
ATOM     17  C   UNL d   1       4.416   5.458   1.327  0.00  0.00     0.104 A 
ATOM     18  HN  UNL d   1       3.888   4.217  -0.249  1.00  0.00     0.165 HD
ATOM     19  C   UNL d   1       4.304   5.782   2.671  0.00  0.00     0.065 A 
ATOM     20  C   UNL d   1       3.474   4.980   3.462  0.00  0.00     0.043 A 
ATOM     21  C   UNL d   1       2.783   3.904   2.897  0.00  0.00     0.062 A 
ATOM     22 CL   UNL d   1       1.827   2.945   3.963  0.00  0.00    -0.082 Cl
BRANCH  19  23
ATOM     23  C   UNL d   1       5.063   6.948   3.227  0.00  0.00     0.418 C 
ATOM     24  F   UNL d   1       4.867   7.136   4.561  0.00  0.00    -0.166 F 
ATOM     25  F   UNL d   1       6.407   6.819   3.061  0.00  0.00    -0.166 F 
ATOM     26  F   UNL d   1       4.722   8.122   2.630  0.00  0.00    -0.166 F 
ENDBRANCH  19  23
ENDBRANCH   3  15
TORSDOF 4
