REMARK  4 active torsions:
REMARK  status: ('A' for Active; 'I' for Inactive)
REMARK       I    between atoms: C_5  and  N_3 
REMARK    1  A    between atoms: C_8  and  C_5 
REMARK    2  A    between atoms: O_19  and  C_9 
REMARK    3  A    between atoms: O_20  and  C_10 
REMARK    4  A    between atoms: O_21  and  C_11 
ROOT
ATOM      1  N   UNL d   1      -5.248  -0.333  -2.406  0.00  0.00    -0.322 N 
ATOM      2  C   UNL d   1      -4.772  -0.847  -1.135  0.00  0.00     0.227 C 
ATOM      3  N   UNL d   1      -5.164  -2.266  -1.220  0.00  0.00    -0.322 N 
ATOM      4  C   UNL d   1      -6.531   0.173  -2.253  0.00  0.00     0.256 C 
ATOM      5  C   UNL d   1      -5.604  -3.052  -0.180  0.00  0.00     0.255 C 
ATOM      6  C   UNL d   1      -5.458   0.154  -0.237  0.00  0.00    -0.000 C 
ATOM      7  C   UNL d   1      -6.629   0.599  -0.849  0.00  0.00     0.042 C 
ATOM      8  O   UNL d   1      -7.383   0.357  -3.107  0.00  0.00    -0.267 OA
ATOM      9  O   UNL d   1      -5.021  -3.195   0.884  0.00  0.00    -0.267 OA
ATOM     10  C   UNL d   1      -4.735  -0.884  -3.633  0.00  0.00     0.130 C 
ATOM     11  C   UNL d   1      -4.434  -2.952  -2.284  0.00  0.00     0.130 C 
ATOM     12  C   UNL d   1      -4.877  -2.399  -3.633  0.00  0.00     0.040 C 
ATOM     13  C   UNL d   1      -4.828   1.034   0.647  0.00  0.00     0.012 C 
ATOM     14  C   UNL d   1      -7.314   1.753  -0.497  0.00  0.00     0.018 C 
ATOM     15  C   UNL d   1      -5.426   2.283   0.914  0.00  0.00     0.001 C 
ATOM     16  C   UNL d   1      -6.679   2.625   0.383  0.00  0.00     0.001 C 
ENDROOT
BRANCH   5  17
ATOM     17  C   UNL d   1      -6.955  -3.667  -0.417  0.00  0.00     0.037 A 
ATOM     18  C   UNL d   1      -7.173  -4.792  -1.231  0.00  0.00     0.057 A 
ATOM     19  C   UNL d   1      -8.474  -5.308  -1.406  0.00  0.00     0.105 A 
ATOM     20  C   UNL d   1      -9.564  -4.701  -0.753  0.00  0.00     0.135 A 
ATOM     21  C   UNL d   1      -9.328  -3.577   0.074  0.00  0.00     0.105 A 
ATOM     22  C   UNL d   1      -8.033  -3.067   0.231  0.00  0.00     0.057 A 
BRANCH  19  23
ATOM     23  O   UNL d   1      -8.696  -6.472  -2.100  0.00  0.00    -0.353 OA
ATOM     24  C   UNL d   1      -7.998  -6.625  -3.333  0.00  0.00     0.210 C 
ENDBRANCH  19  23
BRANCH  20  25
ATOM     25  O   UNL d   1     -10.879  -5.098  -0.785  0.00  0.00    -0.351 OA
ATOM     26  C   UNL d   1     -11.325  -6.026  -1.759  0.00  0.00     0.210 C 
ENDBRANCH  20  25
BRANCH  21  27
ATOM     27  O   UNL d   1     -10.439  -3.030   0.674  0.00  0.00    -0.353 OA
ATOM     28  C   UNL d   1     -10.215  -2.146   1.763  0.00  0.00     0.210 C 
ENDBRANCH  21  27
ENDBRANCH   5  17
TORSDOF 4
