REMARK  6 active torsions:
REMARK  status: ('A' for Active; 'I' for Inactive)
REMARK    1  A    between atoms: C_2  and  C_1 
REMARK       I    between atoms: N_6  and  C_1 
REMARK    2  A    between atoms: C_3  and  N_5 
REMARK    3  A    between atoms: N_7  and  C_3 
REMARK    4  A    between atoms: N_5  and  C_4 
REMARK    5  A    between atoms: C_14  and  N_6 
REMARK    6  A    between atoms: C_11  and  N_7 
ROOT
ATOM      1  C   UNL d   1       0.145  -0.396   1.945  0.00  0.00     0.059 A 
ATOM      2  C   UNL d   1       1.006   0.013   2.976  0.00  0.00     0.050 A 
ATOM      3  C   UNL d   1      -1.012  -1.132   2.244  0.00  0.00     0.019 A 
ATOM      4  C   UNL d   1       0.605  -0.172   4.305  0.00  0.00     0.030 A 
ATOM      5  C   UNL d   1      -1.347  -1.406   3.567  0.00  0.00     0.001 A 
ATOM      6  C   UNL d   1      -0.559  -0.891   4.596  0.00  0.00     0.002 A 
ENDROOT
BRANCH   2   7
ATOM      7  N   UNL d   1       2.227   0.626   2.649  0.00  0.00    -0.332 N 
ATOM      8  H   UNL d   1       2.176   1.201   1.804  0.00  0.00     0.168 HD
BRANCH   7   9
ATOM      9  C   UNL d   1       3.424   0.744   3.225  0.00  0.00     0.176 C 
ATOM     10  S   UNL d   1       4.399   1.978   2.625  0.00  0.00    -0.041 SA
BRANCH   9  11
ATOM     11  N   UNL d   1       3.987  -0.017   4.171  0.00  0.00    -0.333 N 
ATOM     12  H   UNL d   1       4.865   0.421   4.439  0.00  0.00     0.168 HD
BRANCH  11  13
ATOM     13  C   UNL d   1       3.772  -1.240   4.832  0.00  0.00     0.035 C 
ATOM     14  C   UNL d   1       2.803  -2.190   4.532  0.00  0.00     0.055 C 
ATOM     15  C   UNL d   1       2.574  -3.276   5.393  0.00  0.00     0.058 C 
ATOM     16 CL   UNL d   1       1.224  -4.303   5.051  0.00  0.00    -0.082 Cl
ATOM     17  C   UNL d   1       3.401  -3.486   6.500  0.00  0.00     0.055 C 
ATOM     18  C   UNL d   1       4.468  -2.621   6.723  0.00  0.00     0.028 C 
ATOM     19 CL   UNL d   1       3.163  -4.779   7.618  0.00  0.00    -0.083 Cl
ATOM     20  C   UNL d   1       4.645  -1.507   5.899  0.00  0.00     0.031 C 
ENDBRANCH  11  13
ENDBRANCH   9  11
ENDBRANCH   7   9
ENDBRANCH   2   7
BRANCH   1  21
ATOM     21  C   UNL d   1       0.352  -0.063   0.513  0.00  0.00     0.258 C 
ATOM     22  N   UNL d   1       1.650  -0.151   0.028  0.00  0.00    -0.323 N 
ATOM     23  H   UNL d   1       2.328  -0.621   0.614  0.00  0.00     0.169 HD
ATOM     24  O   UNL d   1      -0.643   0.231  -0.145  0.00  0.00    -0.267 OA
BRANCH  22  25
ATOM     25  C   UNL d   1       2.047   0.155  -1.294  0.00  0.00     0.035 A 
ATOM     26  C   UNL d   1       1.266   0.919  -2.170  0.00  0.00     0.032 A 
ATOM     27  C   UNL d   1       1.665   1.116  -3.494  0.00  0.00     0.044 A 
ATOM     28  C   UNL d   1       2.854   0.559  -3.938  0.00  0.00     0.116 A 
ATOM     29  C   UNL d   1       3.671  -0.156  -3.071  0.00  0.00     0.044 A 
ATOM     30  F   UNL d   1       3.218   0.709  -5.218  0.00  0.00    -0.206 F 
ATOM     31  C   UNL d   1       3.277  -0.343  -1.742  0.00  0.00     0.032 A 
ENDBRANCH  22  25
ENDBRANCH   1  21
TORSDOF 6
