REMARK  4 active torsions:
REMARK  status: ('A' for Active; 'I' for Inactive)
REMARK       I    between atoms: N_2  and  C_1 
REMARK       I    between atoms: N_3  and  C_1 
REMARK    1  A    between atoms: C_9  and  N_3 
REMARK    2  A    between atoms: C_4  and  C_8 
REMARK    3  A    between atoms: O_15  and  C_4 
REMARK    4  A    between atoms: C_20  and  O_15 
ROOT
ATOM      1  C   UNL d   1       0.903   0.093  -0.077  0.00  0.00     0.322 C 
ATOM      2  N   UNL d   1       0.253   1.213  -0.593  0.00  0.00    -0.334 N 
ATOM      3  N   UNL d   1       0.583  -0.220   1.224  0.00  0.00    -0.309 N 
ATOM      4  O   UNL d   1       1.715  -0.537  -0.753  0.00  0.00    -0.247 OA
ATOM      5  C   UNL d   1      -0.856   1.948   0.017  0.00  0.00     0.128 C 
ATOM      6  C   UNL d   1       0.736   1.772  -1.853  0.00  0.00     0.128 C 
ATOM      7  C   UNL d   1      -1.607   2.580  -2.352  0.00  0.00     0.088 C 
ATOM      8  C   UNL d   1      -2.026   2.103  -0.956  0.00  0.00     0.034 C 
ATOM      9  C   UNL d   1      -0.382   1.847  -2.886  0.00  0.00     0.034 C 
ATOM     10  H   UNL d   1       0.181   0.525   1.766  0.00  0.00     0.170 HD
ENDROOT
BRANCH   3  11
ATOM     11  C   UNL d   1       0.997  -1.351   1.963  0.00  0.00     0.037 A 
ATOM     12  C   UNL d   1       1.623  -2.467   1.401  0.00  0.00     0.053 A 
ATOM     13  C   UNL d   1       1.975  -3.552   2.208  0.00  0.00     0.036 A 
ATOM     14 CL   UNL d   1       2.741  -4.927   1.508  0.00  0.00    -0.084 Cl
ATOM     15  C   UNL d   1       1.708  -3.540   3.575  0.00  0.00     0.024 A 
ATOM     16  C   UNL d   1       1.087  -2.431   4.144  0.00  0.00     0.004 A 
ATOM     17  C   UNL d   1       0.733  -1.344   3.340  0.00  0.00     0.029 A 
ENDBRANCH   3  11
BRANCH   7  18
ATOM     18  C   UNL d   1      -1.410   4.085  -2.353  0.00  0.00     0.263 C 
ATOM     19  O   UNL d   1      -0.995   4.737  -1.409  0.00  0.00    -0.265 OA
BRANCH  18  20
ATOM     20  O   UNL d   1      -1.867   4.600  -3.530  0.00  0.00    -0.322 OA
BRANCH  20  21
ATOM     21  C   UNL d   1      -2.230   5.986  -3.487  0.00  0.00     0.174 C 
ATOM     22  C   UNL d   1      -3.665   6.077  -2.996  0.00  0.00     0.034 C 
ENDBRANCH  20  21
ENDBRANCH  18  20
ENDBRANCH   7  18
TORSDOF 4
