REMARK  2 active torsions:
REMARK  status: ('A' for Active; 'I' for Inactive)
REMARK    1  A    between atoms: C_4  and  N_1 
REMARK    2  A    between atoms: C_12  and  C_4 
ROOT
ATOM      1  N   UNL d   1       1.227  -1.334   0.347  0.00  0.00    -0.339 N 
ATOM      2  C   UNL d   1       0.001  -0.671  -0.172  0.00  0.00     0.092 C 
ATOM      3  C   UNL d   1       2.458  -0.751   0.023  0.00  0.00     0.220 C 
ATOM      4  C   UNL d   1       0.001   0.815   0.260  0.00  0.00     0.016 C 
ATOM      5  C   UNL d   1      -1.345  -1.330   0.188  0.00  0.00     0.033 C 
ATOM      6  C   UNL d   1      -1.226   1.602  -0.210  0.00  0.00     0.085 C 
ATOM      7  C   UNL d   1       2.507   0.758   0.150  0.00  0.00     0.103 C 
ATOM      8  C   UNL d   1      -2.492   0.860   0.127  0.00  0.00     0.127 C 
ATOM      9  O   UNL d   1       3.503  -1.370  -0.157  0.00  0.00    -0.273 OA
ATOM     10  C   UNL d   1       1.258   1.488  -0.285  0.00  0.00     0.016 C 
ATOM     11  O   UNL d   1      -3.448   1.407   0.669  0.00  0.00    -0.298 OA
ATOM     12  C   UNL d   1      -2.547  -0.565  -0.351  0.00  0.00     0.080 C 
ENDROOT
BRANCH   1  13
ATOM     13  C   UNL d   1       1.214  -2.703   0.930  0.00  0.00     0.116 C 
ATOM     14  C   UNL d   1       2.206  -2.830   2.110  0.00  0.00     0.037 C 
BRANCH  13  15
ATOM     15  C   UNL d   1       1.353  -3.855  -0.057  0.00  0.00    -0.036 A 
ATOM     16  C   UNL d   1       2.600  -4.274  -0.548  0.00  0.00     0.009 A 
ATOM     17  C   UNL d   1       2.715  -5.395  -1.375  0.00  0.00     0.001 A 
ATOM     18  C   UNL d   1       1.582  -6.116  -1.736  0.00  0.00     0.000 A 
ATOM     19  C   UNL d   1       0.335  -5.720  -1.265  0.00  0.00     0.001 A 
ATOM     20  C   UNL d   1       0.225  -4.608  -0.425  0.00  0.00     0.009 A 
ENDBRANCH  13  15
ENDBRANCH   1  13
TORSDOF 2
