REMARK  2 active torsions:
REMARK  status: ('A' for Active; 'I' for Inactive)
REMARK    1  A    between atoms: N_7  and  C_5 
REMARK    2  A    between atoms: C_9  and  N_7 
ROOT
ATOM      1  N   UNL d   1      -2.916  -1.245   1.115  0.00  0.00    -0.288 NA
ATOM      2  H   UNL d   1      -3.834  -0.921   0.804  0.00  0.00     0.128 HD
ENDROOT
BRANCH   1   3
ATOM      3  C   UNL d   1      -1.838  -0.782   0.235  0.00  0.00     0.075 C 
ATOM      4  C   UNL d   1      -0.459  -1.123   0.797  0.00  0.00     0.160 C 
ATOM      5  S   UNL d   1       0.639  -0.043  -0.082  0.00  0.00     0.146 S 
ATOM      6  O   UNL d   1       1.046  -0.709  -1.304  0.00  0.00    -0.228 OA
ATOM      7  O   UNL d   1       1.596   0.519   0.846  0.00  0.00    -0.228 OA
ATOM      8  C   UNL d   1      -0.572   1.196  -0.503  0.00  0.00     0.142 C 
ATOM      9  C   UNL d   1      -1.871   0.752   0.158  0.00  0.00     0.035 C 
ENDBRANCH   1   3
BRANCH   1  10
ATOM     10  C   UNL d   1      -3.011  -2.621   1.383  0.00  0.00     0.008 A 
ATOM     11  C   UNL d   1      -3.610  -3.014   2.585  0.00  0.00     0.024 A 
ATOM     12  C   UNL d   1      -3.748  -4.365   2.916  0.00  0.00     0.008 A 
ATOM     13  C   UNL d   1      -3.315  -5.357   2.030  0.00  0.00    -0.062 A 
ATOM     14  C   UNL d   1      -2.771  -4.972   0.803  0.00  0.00     0.008 A 
ATOM     15  C   UNL d   1      -3.432  -6.805   2.400  0.00  0.00     0.048 C 
ATOM     16  C   UNL d   1      -2.637  -3.619   0.478  0.00  0.00     0.024 A 
ENDBRANCH   1  10
TORSDOF 2
