REMARK  2 active torsions:
REMARK  status: ('A' for Active; 'I' for Inactive)
REMARK    1  A    between atoms: C_7  and  N_1 
REMARK    2  A    between atoms: C_10  and  C_7 
ROOT
ATOM      1  N   UNL d   1       7.018  -4.635  -2.607  0.00  0.00    -0.191 NA
ATOM      2  C   UNL d   1       6.447  -4.059  -1.779  0.00  0.00     0.099 C 
ATOM      3  C   UNL d   1       3.628  -2.466   0.133  0.00  0.00    -0.038 A 
ATOM      4  C   UNL d   1       5.728  -3.346  -0.756  0.00  0.00     0.045 A 
ATOM      5  C   UNL d   1       4.343  -3.149  -0.868  0.00  0.00     0.031 A 
ATOM      6  C   UNL d   1       5.707  -2.181   1.366  0.00  0.00     0.002 A 
ATOM      7  C   UNL d   1       4.329  -1.984   1.248  0.00  0.00     0.009 A 
ATOM      8  C   UNL d   1       6.405  -2.864   0.368  0.00  0.00     0.022 A 
ENDROOT
BRANCH   3   9
ATOM      9  C   UNL d   1       2.124  -2.320   0.048  0.00  0.00     0.173 C 
BRANCH   9  10
ATOM     10  N   UNL d   1       1.665  -0.955  -0.015  0.00  0.00    -0.286 N 
ATOM     11  C   UNL d   1       1.262  -0.172   1.049  0.00  0.00     0.373 A 
ATOM     12  O   UNL d   1       0.808   1.082   0.611  0.00  0.00    -0.259 OA
ATOM     13  O   UNL d   1       1.283  -0.490   2.231  0.00  0.00    -0.237 OA
ATOM     14  C   UNL d   1       0.995   1.005  -0.759  0.00  0.00     0.107 A 
ATOM     15  C   UNL d   1       1.516  -0.208  -1.160  0.00  0.00     0.073 A 
ATOM     16  C   UNL d   1       0.716   2.009  -1.661  0.00  0.00     0.040 A 
ATOM     17  C   UNL d   1       1.797  -0.487  -2.479  0.00  0.00     0.033 A 
ATOM     18  C   UNL d   1       1.539   0.521  -3.412  0.00  0.00     0.002 A 
ATOM     19  C   UNL d   1       1.000   1.758  -3.007  0.00  0.00     0.003 A 
ENDBRANCH   9  10
ENDBRANCH   3   9
TORSDOF 2
