REMARK  4 active torsions:
REMARK  status: ('A' for Active; 'I' for Inactive)
REMARK    1  A    between atoms: C_2  and  S_1 
REMARK    2  A    between atoms: C_16  and  S_1 
REMARK    3  A    between atoms: N_19  and  C_5 
REMARK    4  A    between atoms: C_7  and  C_6 
ROOT
ATOM      1  C   UNL d   1       0.636  -0.822  -1.387  0.00  0.00     0.117 A 
ATOM      2  N   UNL d   1       0.341  -2.753  -2.746  0.00  0.00    -0.333 N 
ATOM      3  HN  UNL d   1       0.490  -3.747  -2.920  1.00  0.00     0.168 HD
ATOM      4  C   UNL d   1       0.805  -2.166  -1.626  0.00  0.00     0.102 A 
ATOM      5  C   UNL d   1      -0.329  -1.983  -3.633  0.00  0.00     0.114 A 
ATOM      6  N   UNL d   1      -0.577  -0.672  -3.436  0.00  0.00    -0.352 N 
ATOM      7  HN  UNL d   1      -1.116  -0.127  -4.108  1.00  0.00     0.166 HD
ATOM      8  C   UNL d   1      -0.083  -0.115  -2.316  0.00  0.00     0.116 A 
ENDROOT
BRANCH   5   9
ATOM      9  C   UNL d   1      -0.862  -2.655  -4.899  0.00  0.00     0.220 C 
ATOM     10  O   UNL d   1      -1.585  -1.763  -5.772  0.00  0.00    -0.333 OA
ATOM     11  C   UNL d   1      -0.729  -0.982  -6.507  0.00  0.00     0.103 A 
ATOM     12  C   UNL d   1      -1.247   0.210  -7.009  0.00  0.00     0.040 A 
ATOM     13  C   UNL d   1       0.614  -1.310  -6.715  0.00  0.00     0.102 A 
ATOM     14  C   UNL d   1      -0.409   1.100  -7.682  0.00  0.00     0.003 A 
ATOM     15  C   UNL d   1       0.940   0.788  -7.864  0.00  0.00     0.003 A 
ATOM     16  C   UNL d   1       1.449  -0.421  -7.387  0.00  0.00     0.039 A 
ATOM     17  O   UNL d   1       1.191  -2.464  -6.254  0.00  0.00    -0.345 OA
ATOM     18  C   UNL d   1       0.231  -3.369  -5.695  0.00  0.00     0.216 C 
ENDBRANCH   5   9
BRANCH   4  19
ATOM     19  N   UNL d   1       1.506  -3.021  -0.783  0.00  0.00    -0.287 NA
ATOM     20  H   UNL d   1       1.424  -3.967  -1.147  0.00  0.00     0.125 HD
ATOM     21  H   UNL d   1       1.180  -2.957   0.184  0.00  0.00     0.125 HD
ENDBRANCH   4  19
BRANCH   1  22
ATOM     22  S   UNL d   1       1.149  -0.036   0.083  0.00  0.00     0.211 S 
ATOM     23  O   UNL d   1       1.048  -1.010   1.158  0.00  0.00    -0.217 OA
ATOM     24  O   UNL d   1       0.395   1.205   0.190  0.00  0.00    -0.217 OA
BRANCH  22  25
ATOM     25  C   UNL d   1       2.859   0.423  -0.080  0.00  0.00     0.064 A 
ATOM     26  C   UNL d   1       3.189   1.685  -0.587  0.00  0.00     0.024 A 
ATOM     27  C   UNL d   1       4.526   2.082  -0.632  0.00  0.00     0.002 A 
ATOM     28  C   UNL d   1       5.526   1.227  -0.166  0.00  0.00     0.000 A 
ATOM     29  C   UNL d   1       5.192  -0.026   0.350  0.00  0.00     0.002 A 
ATOM     30  C   UNL d   1       3.857  -0.432   0.399  0.00  0.00     0.024 A 
ENDBRANCH  22  25
ENDBRANCH   1  22
TORSDOF 4
