REMARK  4 active torsions:
REMARK  status: ('A' for Active; 'I' for Inactive)
REMARK    1  A    between atoms: N_2  and  C_1 
REMARK    2  A    between atoms: N_3  and  C_7 
REMARK    3  A    between atoms: C_9  and  C_6 
REMARK    4  A    between atoms: C_17  and  C_14 
ROOT
ATOM      1  C   UNL d   1      -0.881  -2.402  -0.010  0.00  0.00     0.038 C 
ATOM      2  C   UNL d   1      -0.151  -3.529   0.007  0.00  0.00     0.014 C 
ENDROOT
BRANCH   2   3
ATOM      3  C   UNL d   1      -0.710  -4.888  -0.090  0.00  0.00    -0.036 A 
ATOM      4  C   UNL d   1       0.091  -5.902  -0.639  0.00  0.00     0.014 A 
ATOM      5  C   UNL d   1      -0.389  -7.211  -0.762  0.00  0.00     0.037 A 
ATOM      6  C   UNL d   1      -1.682  -7.514  -0.321  0.00  0.00     0.102 A 
ATOM      7  C   UNL d   1      -2.486  -6.521   0.248  0.00  0.00     0.037 A 
ATOM      8  C   UNL d   1      -1.994  -5.216   0.368  0.00  0.00     0.014 A 
BRANCH   6   9
ATOM      9  N   UNL d   1      -2.197  -8.882  -0.451  0.00  0.00    -0.116 N 
ATOM     10  O   UNL d   1      -1.453  -9.732  -0.962  0.00  0.00    -0.532 OA
ATOM     11  O   UNL d   1      -3.345  -9.107  -0.044  0.00  0.00    -0.532 OA
ENDBRANCH   6   9
ENDBRANCH   2   3
BRANCH   1  12
ATOM     12  C   UNL d   1      -0.255  -1.125   0.030  0.00  0.00     0.078 A 
ATOM     13  O   UNL d   1       1.112  -0.934   0.066  0.00  0.00    -0.289 OA
ATOM     14  C   UNL d   1       1.340   0.403   0.074  0.00  0.00     0.215 A 
ATOM     15  C   UNL d   1       0.169   1.115   0.051  0.00  0.00     0.065 A 
ATOM     16  C   UNL d   1      -0.854   0.134   0.023  0.00  0.00     0.042 A 
BRANCH  14  17
ATOM     17  N   UNL d   1       2.706   0.815   0.101  0.00  0.00    -0.090 N 
ATOM     18  O   UNL d   1       2.908   2.037   0.117  0.00  0.00    -0.530 OA
ATOM     19  O   UNL d   1       3.578  -0.064   0.105  0.00  0.00    -0.530 OA
ENDBRANCH  14  17
ENDBRANCH   1  12
TORSDOF 4
