REMARK  3 active torsions:
REMARK  status: ('A' for Active; 'I' for Inactive)
REMARK    1  A    between atoms: N_2  and  C_1 
REMARK       I    between atoms: C_3  and  N_2 
REMARK       I    between atoms: N_8  and  C_3 
REMARK    2  A    between atoms: C_4  and  C_10 
REMARK    3  A    between atoms: C_17  and  N_8 
ROOT
ATOM      1  N   UNL d   1      -3.440   3.351  -0.508  0.00  0.00    -0.303 N 
ATOM      2  C   UNL d   1      -2.817   2.224  -0.057  0.00  0.00     0.325 C 
ATOM      3  N   UNL d   1      -3.471   1.034  -0.155  0.00  0.00    -0.309 N 
ATOM      4  O   UNL d   1      -1.700   2.385   0.431  0.00  0.00    -0.247 OA
ATOM      5  H   UNL d   1      -2.856   4.162  -0.340  0.00  0.00     0.171 HD
ATOM      6  H   UNL d   1      -4.316   1.051  -0.707  0.00  0.00     0.170 HD
ENDROOT
BRANCH   3   7
ATOM      7  C   UNL d   1      -3.131  -0.190   0.458  0.00  0.00     0.036 A 
ATOM      8  C   UNL d   1      -2.052  -0.346   1.330  0.00  0.00     0.030 A 
ATOM      9  C   UNL d   1      -1.851  -1.552   2.010  0.00  0.00     0.018 A 
ATOM     10  C   UNL d   1      -2.727  -2.630   1.828  0.00  0.00     0.048 A 
ATOM     11  C   UNL d   1      -3.773  -2.494   0.905  0.00  0.00     0.018 A 
ATOM     12  C   UNL d   1      -3.972  -1.285   0.228  0.00  0.00     0.030 A 
BRANCH  10  13
ATOM     13  C   UNL d   1      -2.550  -3.884   2.647  0.00  0.00     0.417 C 
ATOM     14  F   UNL d   1      -3.493  -4.835   2.399  0.00  0.00    -0.166 F 
ATOM     15  F   UNL d   1      -1.348  -4.486   2.441  0.00  0.00    -0.166 F 
ATOM     16  F   UNL d   1      -2.619  -3.637   3.987  0.00  0.00    -0.166 F 
ENDBRANCH  10  13
ENDBRANCH   3   7
BRANCH   1  17
ATOM     17  C   UNL d   1      -4.667   3.606  -1.077  0.00  0.00     0.078 A 
ATOM     18  S   UNL d   1      -5.788   2.403  -1.479  0.00  0.00    -0.084 SA
ATOM     19  C   UNL d   1      -6.886   3.543  -2.125  0.00  0.00     0.058 A 
ATOM     20  C   UNL d   1      -6.420   4.840  -2.029  0.00  0.00    -0.053 A 
ATOM     21  C   UNL d   1      -5.132   4.863  -1.403  0.00  0.00     0.044 A 
ATOM     22  C   UNL d   1      -7.138   6.051  -2.522  0.00  0.00     0.049 C 
ENDBRANCH   1  17
TORSDOF 3
