REMARK  4 active torsions:
REMARK  status: ('A' for Active; 'I' for Inactive)
REMARK    1  A    between atoms: N_2  and  S_1 
REMARK    2  A    between atoms: C_4  and  S_1 
REMARK    3  A    between atoms: C_3  and  N_2 
REMARK    4  A    between atoms: C_18  and  C_16 
ROOT
ATOM      1  N   UNL d   1       0.483   1.745   0.324  0.00  0.00    -0.166 NA
ATOM      2  H   UNL d   1      -0.535   1.738   0.245  0.00  0.00     0.147 HD
ENDROOT
BRANCH   1   3
ATOM      3  S   UNL d   1       0.968   0.143   0.070  0.00  0.00     0.247 S 
ATOM      4  O   UNL d   1      -0.228  -0.594  -0.281  0.00  0.00    -0.205 OA
ATOM      5  O   UNL d   1       1.863  -0.310   1.114  0.00  0.00    -0.205 OA
BRANCH   3   6
ATOM      6  C   UNL d   1       1.940   0.294  -1.417  0.00  0.00     0.074 A 
ATOM      7  C   UNL d   1       3.321   0.477  -1.313  0.00  0.00     0.025 A 
ATOM      8  C   UNL d   1       4.107   0.481  -2.467  0.00  0.00     0.008 A 
ATOM      9  C   UNL d   1       3.522   0.294  -3.727  0.00  0.00    -0.062 A 
ATOM     10  C   UNL d   1       2.135   0.115  -3.819  0.00  0.00     0.008 A 
ATOM     11  C   UNL d   1       4.389   0.256  -4.952  0.00  0.00     0.048 C 
ATOM     12  C   UNL d   1       1.342   0.109  -2.667  0.00  0.00     0.025 A 
ENDBRANCH   3   6
ENDBRANCH   1   3
BRANCH   1  13
ATOM     13  C   UNL d   1       0.809   2.252   1.600  0.00  0.00     0.094 A 
ATOM     14  N   UNL d   1      -0.110   1.974   2.538  0.00  0.00    -0.356 N 
ATOM     15  C   UNL d   1       0.165   2.418   3.784  0.00  0.00     0.090 A 
ATOM     16  HN  UNL d   1      -0.964   1.458   2.323  1.00  0.00     0.166 HD
ATOM     17  C   UNL d   1       1.293   3.157   4.113  0.00  0.00     0.024 A 
ATOM     18  C   UNL d   1       2.221   3.447   3.109  0.00  0.00    -0.054 A 
ATOM     19  C   UNL d   1       1.976   2.965   1.820  0.00  0.00     0.050 A 
BRANCH  18  20
ATOM     20  C   UNL d   1       3.438   4.285   3.405  0.00  0.00     0.034 C 
ATOM     21  C   UNL d   1       3.165   5.772   3.227  0.00  0.00     0.010 C 
ENDBRANCH  18  20
ENDBRANCH   1  13
TORSDOF 4
