REMARK  5 active torsions:
REMARK  status: ('A' for Active; 'I' for Inactive)
REMARK    1  A    between atoms: C_3  and  C_1 
REMARK       I    between atoms: N_7  and  C_3 
REMARK    2  A    between atoms: C_13  and  N_7 
REMARK    3  A    between atoms: C_15  and  C_11 
REMARK    4  A    between atoms: C_16  and  C_13 
REMARK    5  A    between atoms: O_14  and  C_16 
ROOT
ATOM      1  C   UNL d   1      -2.406  -0.197  -0.424  0.00  0.00     0.102 A 
ATOM      2  N   UNL d   1      -1.638   0.929  -0.212  0.00  0.00    -0.351 N 
ATOM      3  C   UNL d   1      -1.516  -1.252  -0.550  0.00  0.00     0.049 A 
ATOM      4  C   UNL d   1      -0.197  -0.753  -0.372  0.00  0.00    -0.007 A 
ATOM      5  C   UNL d   1      -0.300   0.620  -0.169  0.00  0.00     0.043 A 
ATOM      6  C   UNL d   1       1.081  -1.347  -0.356  0.00  0.00     0.021 A 
ATOM      7  C   UNL d   1       0.815   1.438   0.042  0.00  0.00     0.031 A 
ATOM      8  C   UNL d   1       2.221  -0.553  -0.138  0.00  0.00    -0.058 A 
ATOM      9  C   UNL d   1       2.075   0.825   0.057  0.00  0.00     0.009 A 
ATOM     10  H   UNL d   1      -2.030   1.854  -0.083  0.00  0.00     0.166 HD
ENDROOT
BRANCH   1  11
ATOM     11  C   UNL d   1      -3.851  -0.124  -0.462  0.00  0.00     0.268 C 
ATOM     12  N   UNL d   1      -4.496  -1.315  -0.717  0.00  0.00    -0.349 N 
ATOM     13  H   UNL d   1      -3.938  -2.155  -0.739  0.00  0.00     0.163 HD
ATOM     14  O   UNL d   1      -4.452   0.927  -0.262  0.00  0.00    -0.266 OA
BRANCH  12  15
ATOM     15  C   UNL d   1      -5.943  -1.459  -0.567  0.00  0.00     0.104 C 
ATOM     16  C   UNL d   1      -6.295  -1.704   0.903  0.00  0.00     0.034 C 
BRANCH  15  17
ATOM     17  C   UNL d   1      -6.478  -2.587  -1.469  0.00  0.00     0.191 C 
BRANCH  17  18
ATOM     18  O   UNL d   1      -7.876  -2.779  -1.256  0.00  0.00    -0.394 OA
ATOM     19  C   UNL d   1      -8.417  -3.766  -2.123  0.00  0.00     0.201 C 
ENDBRANCH  17  18
ENDBRANCH  15  17
ENDBRANCH  12  15
ENDBRANCH   1  11
BRANCH   8  20
ATOM     20  C   UNL d   1       3.586  -1.195  -0.083  0.00  0.00     0.034 C 
ATOM     21  C   UNL d   1       3.939  -1.663   1.321  0.00  0.00     0.010 C 
ENDBRANCH   8  20
TORSDOF 5
