REMARK  6 active torsions:
REMARK  status: ('A' for Active; 'I' for Inactive)
REMARK    1  A    between atoms: C_9  and  C_1 
REMARK    2  A    between atoms: C_5  and  C_3 
REMARK    3  A    between atoms: C_6  and  O_16 
REMARK    4  A    between atoms: C_10  and  C_6 
REMARK    5  A    between atoms: C_21  and  C_7 
REMARK    6  A    between atoms: O_16  and  C_21 
ROOT
ATOM      1  C   UNL d   1       2.143   1.770   0.131  0.00  0.00    -0.057 C 
ATOM      2  C   UNL d   1       3.112   2.478   0.134  0.00  0.00    -0.074 C 
ENDROOT
BRANCH   1   3
ATOM      3  C   UNL d   1       1.062   0.842   0.098  0.00  0.00     0.059 A 
ATOM      4  S   UNL d   1       1.315  -0.843   0.100  0.00  0.00    -0.079 SA
ATOM      5  C   UNL d   1      -0.367  -1.184   0.049  0.00  0.00     0.033 A 
ATOM      6  C   UNL d   1      -1.097  -0.008  -0.007  0.00  0.00     0.023 A 
ATOM      7  C   UNL d   1      -0.275   1.160   0.041  0.00  0.00     0.029 A 
BRANCH   5   8
ATOM      8  C   UNL d   1      -0.852  -2.571   0.039  0.00  0.00     0.049 A 
ATOM      9  N   UNL d   1      -2.032  -2.753  -0.604  0.00  0.00    -0.365 N 
ATOM     10  C   UNL d   1      -2.522  -4.013  -0.653  0.00  0.00     0.088 A 
ATOM     11  HN  UNL d   1      -2.530  -1.973  -1.032  1.00  0.00     0.165 HD
ATOM     12  C   UNL d   1      -1.901  -5.108  -0.075  0.00  0.00     0.017 A 
ATOM     13  C   UNL d   1      -0.703  -4.903   0.595  0.00  0.00     0.004 A 
ATOM     14  C   UNL d   1      -0.169  -3.619   0.655  0.00  0.00     0.031 A 
ENDBRANCH   5   8
ENDBRANCH   1   3
BRANCH   2  15
ATOM     15  C   UNL d   1       4.355   3.253   0.104  0.00  0.00     0.273 C 
BRANCH  15  16
ATOM     16  O   UNL d   1       4.172   4.489   0.806  0.00  0.00    -0.305 OA
BRANCH  16  17
ATOM     17  C   UNL d   1       5.051   4.728   1.806  0.00  0.00     0.294 C 
ATOM     18  O   UNL d   1       5.958   3.991   2.159  0.00  0.00    -0.259 OA
BRANCH  17  19
ATOM     19  C   UNL d   1       4.799   6.050   2.442  0.00  0.00     0.039 A 
ATOM     20  C   UNL d   1       5.644   6.441   3.491  0.00  0.00     0.019 A 
ATOM     21  C   UNL d   1       5.473   7.679   4.118  0.00  0.00     0.025 A 
ATOM     22  C   UNL d   1       4.457   8.532   3.693  0.00  0.00     0.034 A 
ATOM     23  C   UNL d   1       3.606   8.154   2.653  0.00  0.00     0.025 A 
ATOM     24 CL   UNL d   1       4.253  10.060   4.454  0.00  0.00    -0.084 Cl
ATOM     25  C   UNL d   1       3.775   6.914   2.026  0.00  0.00     0.019 A 
ENDBRANCH  17  19
ENDBRANCH  16  17
ENDBRANCH  15  16
ENDBRANCH   2  15
TORSDOF 6
