REMARK  6 active torsions:
REMARK  status: ('A' for Active; 'I' for Inactive)
REMARK    1  A    between atoms: N_7  and  C_2 
REMARK    2  A    between atoms: C_10  and  C_3 
REMARK       I    between atoms: C_6  and  N_7 
REMARK       I    between atoms: N_9  and  C_6 
REMARK    3  A    between atoms: C_12  and  N_9 
REMARK    4  A    between atoms: O_13  and  C_14 
REMARK    5  A    between atoms: C_15  and  O_13 
REMARK    6  A    between atoms: C_20  and  C_15 
ROOT
ATOM      1  C   UNL d   1      -1.209  -3.119   0.114  0.00  0.00     0.326 C 
ATOM      2  N   UNL d   1      -0.899  -4.437   0.164  0.00  0.00    -0.293 N 
ATOM      3  N   UNL d   1      -2.490  -2.736   0.422  0.00  0.00    -0.309 N 
ATOM      4  O   UNL d   1      -0.284  -2.361  -0.180  0.00  0.00    -0.247 OA
ATOM      5  H   UNL d   1       0.077  -4.601  -0.042  0.00  0.00     0.172 HD
ATOM      6  H   UNL d   1      -3.107  -3.489   0.711  0.00  0.00     0.170 HD
ENDROOT
BRANCH   3   7
ATOM      7  C   UNL d   1      -2.913  -1.407   0.678  0.00  0.00     0.036 C 
ATOM      8  C   UNL d   1      -2.158  -0.274   0.354  0.00  0.00     0.032 C 
ATOM      9  C   UNL d   1      -2.489   0.993   0.863  0.00  0.00     0.039 C 
ATOM     10  C   UNL d   1      -3.600   1.143   1.684  0.00  0.00     0.069 C 
ATOM     11  C   UNL d   1      -4.433   0.039   1.891  0.00  0.00     0.039 C 
ATOM     12  C   UNL d   1      -4.103  -1.226   1.382  0.00  0.00     0.032 C 
BRANCH  10  13
ATOM     13  O   UNL d   1      -3.946   2.261   2.387  0.00  0.00    -0.347 OA
BRANCH  13  14
ATOM     14  C   UNL d   1      -3.325   3.510   2.083  0.00  0.00     0.214 C 
BRANCH  14  15
ATOM     15  C   UNL d   1      -2.192   3.937   3.009  0.00  0.00    -0.034 A 
ATOM     16  C   UNL d   1      -1.588   5.190   2.784  0.00  0.00     0.009 A 
ATOM     17  C   UNL d   1      -0.588   5.670   3.629  0.00  0.00     0.001 A 
ATOM     18  C   UNL d   1      -0.170   4.907   4.715  0.00  0.00     0.000 A 
ATOM     19  C   UNL d   1      -0.752   3.664   4.946  0.00  0.00     0.001 A 
ATOM     20  C   UNL d   1      -1.759   3.178   4.098  0.00  0.00     0.009 A 
ENDBRANCH  14  15
ENDBRANCH  13  14
ENDBRANCH  10  13
ENDBRANCH   3   7
BRANCH   2  21
ATOM     21  C   UNL d   1      -1.665  -5.546   0.429  0.00  0.00     0.132 A 
ATOM     22  C   UNL d   1      -1.147  -6.863   0.389  0.00  0.00     0.086 A 
ATOM     23  C   UNL d   1      -2.234  -7.683   0.581  0.00  0.00     0.087 A 
ATOM     24  O   UNL d   1      -3.322  -6.895   0.828  0.00  0.00    -0.240 OA
ATOM     25  N   UNL d   1      -2.968  -5.557   0.726  0.00  0.00    -0.245 N 
ATOM     26  HN  UNL d   1      -3.577  -4.748   0.851  1.00  0.00     0.196 HD
BRANCH  23  27
ATOM     27  C   UNL d   1      -2.445  -9.177   0.545  0.00  0.00     0.000 C 
ATOM     28  C   UNL d   1      -2.408  -9.751   1.970  0.00  0.00     0.021 C 
ATOM     29  C   UNL d   1      -3.801  -9.509  -0.104  0.00  0.00     0.021 C 
ATOM     30  C   UNL d   1      -1.341  -9.860  -0.289  0.00  0.00     0.021 C 
ENDBRANCH  23  27
ENDBRANCH   2  21
TORSDOF 6
