REMARK  7 active torsions:
REMARK  status: ('A' for Active; 'I' for Inactive)
REMARK    1  A    between atoms: N_14  and  C_1 
REMARK    2  A    between atoms: C_2  and  C_11 
REMARK    3  A    between atoms: C_6  and  C_3 
REMARK    4  A    between atoms: C_11  and  O_21 
REMARK    5  A    between atoms: C_26  and  N_14 
REMARK    6  A    between atoms: O_21  and  C_25 
REMARK    7  A    between atoms: C_25  and  C_26 
ROOT
ATOM      1  C   UNL d   1      -0.992  -1.471   0.133  0.00  0.00     0.044 A 
ATOM      2  C   UNL d   1      -1.738   0.768  -0.484  0.00  0.00     0.119 A 
ATOM      3  N   UNL d   1      -0.578   1.328  -0.072  0.00  0.00    -0.352 N 
ATOM      4  HN  UNL d   1      -0.417   2.329  -0.180  1.00  0.00     0.166 HD
ATOM      5  C   UNL d   1      -1.971  -0.601  -0.376  0.00  0.00     0.064 A 
ATOM      6  C   UNL d   1       0.212  -0.858   0.633  0.00  0.00     0.017 A 
ATOM      7  C   UNL d   1       0.352   0.545   0.477  0.00  0.00     0.045 A 
ATOM      8  C   UNL d   1       1.272  -1.516   1.318  0.00  0.00     0.016 A 
ATOM      9  C   UNL d   1       1.498   1.194   0.915  0.00  0.00     0.030 A 
ATOM     10  C   UNL d   1       2.423  -0.846   1.748  0.00  0.00     0.001 A 
ATOM     11  C   UNL d   1       2.541   0.517   1.536  0.00  0.00     0.002 A 
ENDROOT
BRANCH   1  12
ATOM     12  N   UNL d   1      -1.232  -2.850   0.094  0.00  0.00    -0.382 N 
ATOM     13  C   UNL d   1      -0.164  -3.811  -0.163  0.00  0.00     0.150 C 
BRANCH  12  14
ATOM     14  C   UNL d   1      -2.589  -3.416   0.257  0.00  0.00     0.149 C 
BRANCH  14  15
ATOM     15  C   UNL d   1      -3.297  -3.730  -1.076  0.00  0.00     0.199 C 
BRANCH  15  16
ATOM     16  O   UNL d   1      -4.544  -4.441  -0.888  0.00  0.00    -0.316 OA
BRANCH  16  17
ATOM     17  C   UNL d   1      -5.578  -3.699  -0.434  0.00  0.00     0.295 C 
ATOM     18  O   UNL d   1      -5.480  -2.520  -0.113  0.00  0.00    -0.259 OA
BRANCH  17  19
ATOM     19  C   UNL d   1      -6.894  -4.407  -0.413  0.00  0.00     0.061 A 
ATOM     20  C   UNL d   1      -7.120  -5.784  -0.581  0.00  0.00     0.051 A 
ATOM     21  C   UNL d   1      -8.431  -6.295  -0.551  0.00  0.00     0.048 A 
ATOM     22 CL   UNL d   1      -5.871  -6.959  -0.800  0.00  0.00    -0.083 Cl
ATOM     23  C   UNL d   1      -9.517  -5.447  -0.344  0.00  0.00     0.035 A 
ATOM     24  C   UNL d   1      -9.314  -4.085  -0.163  0.00  0.00     0.025 A 
ATOM     25 CL   UNL d   1     -11.113  -6.085  -0.303  0.00  0.00    -0.084 Cl
ATOM     26  C   UNL d   1      -8.014  -3.573  -0.198  0.00  0.00     0.021 A 
ENDBRANCH  17  19
ENDBRANCH  16  17
ENDBRANCH  15  16
ENDBRANCH  14  15
ENDBRANCH  12  14
ENDBRANCH   1  12
BRANCH   2  27
ATOM     27  C   UNL d   1      -2.799   1.651  -1.121  0.00  0.00     0.432 C 
ATOM     28  F   UNL d   1      -2.440   2.962  -1.244  0.00  0.00    -0.165 F 
ATOM     29  F   UNL d   1      -3.127   1.242  -2.383  0.00  0.00    -0.165 F 
ATOM     30  F   UNL d   1      -3.972   1.655  -0.423  0.00  0.00    -0.165 F 
ENDBRANCH   2  27
TORSDOF 7
