REMARK  3 active torsions:
REMARK  status: ('A' for Active; 'I' for Inactive)
REMARK       I    between atoms: N_2  and  C_1 
REMARK    1  A    between atoms: C_7  and  C_1 
REMARK    2  A    between atoms: N_3  and  N_2 
REMARK    3  A    between atoms: C_4  and  N_3 
ROOT
ATOM      1  C   UNL d   1       0.982  -0.139  -0.122  0.00  0.00     0.266 C 
ATOM      2  N   UNL d   1       0.200  -1.276  -0.222  0.00  0.00    -0.283 N 
ATOM      3  O   UNL d   1       2.096  -0.147   0.398  0.00  0.00    -0.266 OA
ATOM      4  H   UNL d   1      -0.734  -1.314  -0.619  0.00  0.00     0.184 HD
ENDROOT
BRANCH   2   5
ATOM      5  N   UNL d   1       0.804  -2.491   0.135  0.00  0.00    -0.200 NA
ATOM      6  H   UNL d   1       1.661  -2.315   0.674  0.00  0.00     0.153 HD
BRANCH   5   7
ATOM      7  C   UNL d   1      -0.049  -3.433   0.762  0.00  0.00     0.066 A 
ATOM      8  C   UNL d   1      -1.412  -3.580   0.454  0.00  0.00     0.139 A 
ATOM      9  F   UNL d   1      -2.009  -2.729  -0.400  0.00  0.00    -0.204 F 
ATOM     10  C   UNL d   1      -2.183  -4.605   1.003  0.00  0.00     0.044 A 
ATOM     11  C   UNL d   1      -1.596  -5.526   1.867  0.00  0.00     0.003 A 
ATOM     12  C   UNL d   1      -0.241  -5.421   2.169  0.00  0.00     0.002 A 
ATOM     13  C   UNL d   1       0.527  -4.392   1.610  0.00  0.00     0.028 A 
ENDBRANCH   5   7
ENDBRANCH   2   5
BRANCH   1  14
ATOM     14  C   UNL d   1       0.408   1.127  -0.655  0.00  0.00     0.033 A 
ATOM     15  C   UNL d   1       0.874   2.336  -0.120  0.00  0.00     0.017 A 
ATOM     16  C   UNL d   1       0.390   3.553  -0.601  0.00  0.00     0.001 A 
ATOM     17  C   UNL d   1      -0.556   3.570  -1.624  0.00  0.00     0.000 A 
ATOM     18  C   UNL d   1      -1.016   2.371  -2.171  0.00  0.00     0.001 A 
ATOM     19  C   UNL d   1      -0.535   1.149  -1.691  0.00  0.00     0.017 A 
ENDBRANCH   1  14
TORSDOF 3
