REMARK  4 active torsions:
REMARK  status: ('A' for Active; 'I' for Inactive)
REMARK    1  A    between atoms: S_2  and  C_1 
REMARK    2  A    between atoms: C_5  and  S_2 
REMARK    3  A    between atoms: C_4  and  C_3 
REMARK    4  A    between atoms: O_14  and  C_4 
ROOT
ATOM      1  S   UNL d   1       2.894   1.650   0.151  0.00  0.00     0.208 S 
ATOM      2  O   UNL d   1       3.698   1.159  -0.945  0.00  0.00    -0.217 OA
ATOM      3  O   UNL d   1       2.333   2.989   0.157  0.00  0.00    -0.217 OA
ENDROOT
BRANCH   1   4
ATOM      4  C   UNL d   1       1.471   0.667   0.092  0.00  0.00     0.088 A 
ATOM      5  C   UNL d   1       0.550   0.680  -1.016  0.00  0.00     0.066 A 
ATOM      6  C   UNL d   1      -0.433  -0.279  -0.820  0.00  0.00     0.069 A 
ATOM      7  S   UNL d   1      -0.312  -1.082   0.681  0.00  0.00    -0.111 SA
ATOM      8  C   UNL d   1       1.102  -0.216   1.086  0.00  0.00     0.074 A 
BRANCH   5   9
ATOM      9  C   UNL d   1       0.568   1.477  -2.244  0.00  0.00     0.178 C 
ATOM     10  O   UNL d   1       0.116   1.056  -3.299  0.00  0.00    -0.646 OA
BRANCH   9  11
ATOM     11  O   UNL d   1       1.034   2.745  -2.143  0.00  0.00    -0.773 OA
ATOM     12  H   UNL d   1       1.290   3.061  -1.249  0.00  0.00     0.167 HD
ENDBRANCH   9  11
ENDBRANCH   5   9
ENDBRANCH   1   4
BRANCH   1  13
ATOM     13  C   UNL d   1       3.718   1.323   1.678  0.00  0.00     0.064 A 
ATOM     14  C   UNL d   1       4.720   0.346   1.717  0.00  0.00     0.025 A 
ATOM     15  C   UNL d   1       5.340   0.044   2.930  0.00  0.00     0.025 A 
ATOM     16  C   UNL d   1       4.964   0.725   4.089  0.00  0.00     0.034 A 
ATOM     17  C   UNL d   1       3.985   1.719   4.043  0.00  0.00     0.025 A 
ATOM     18 CL   UNL d   1       5.710   0.329   5.588  0.00  0.00    -0.084 Cl
ATOM     19  C   UNL d   1       3.362   2.030   2.831  0.00  0.00     0.025 A 
ENDBRANCH   1  13
TORSDOF 4
