REMARK  2 active torsions:
REMARK  status: ('A' for Active; 'I' for Inactive)
REMARK       I    between atoms: N_2  and  C_1 
REMARK       I    between atoms: N_6  and  C_1 
REMARK    1  A    between atoms: C_5  and  N_2 
REMARK    2  A    between atoms: C_7  and  N_6 
ROOT
ATOM      1  C   UNL d   1       1.013   0.218   0.052  0.00  0.00     0.326 C 
ATOM      2  N   UNL d   1       0.472   0.223   1.316  0.00  0.00    -0.294 N 
ATOM      3  N   UNL d   1       2.322   0.596  -0.032  0.00  0.00    -0.306 N 
ATOM      4  O   UNL d   1       0.290  -0.138  -0.874  0.00  0.00    -0.247 OA
ATOM      5  H   UNL d   1      -0.504  -0.033   1.318  0.00  0.00     0.172 HD
ATOM      6  H   UNL d   1       2.778   0.644   0.876  0.00  0.00     0.171 HD
ENDROOT
BRANCH   2   7
ATOM      7  C   UNL d   1       1.093   0.525   2.532  0.00  0.00     0.109 A 
ATOM      8  N   UNL d   1       2.418   0.795   2.546  0.00  0.00    -0.342 N 
ATOM      9  C   UNL d   1       3.012   1.082   3.714  0.00  0.00     0.043 A 
ATOM     10  HN  UNL d   1       2.958   0.781   1.681  1.00  0.00     0.167 HD
ATOM     11  C   UNL d   1       4.371   1.364   3.725  0.00  0.00     0.030 A 
ATOM     12  C   UNL d   1       2.308   1.109   4.932  0.00  0.00    -0.009 A 
ATOM     13  C   UNL d   1       5.045   1.666   4.909  0.00  0.00     0.002 A 
ATOM     14  C   UNL d   1       4.350   1.690   6.113  0.00  0.00     0.001 A 
ATOM     15  C   UNL d   1       2.983   1.414   6.127  0.00  0.00     0.013 A 
ATOM     16  C   UNL d   1       0.937   0.823   4.897  0.00  0.00     0.017 A 
ATOM     17  C   UNL d   1       0.320   0.525   3.683  0.00  0.00     0.049 A 
ENDBRANCH   2   7
BRANCH   3  18
ATOM     18  C   UNL d   1       3.134   0.793  -1.161  0.00  0.00     0.075 A 
ATOM     19  C   UNL d   1       2.677   0.969  -2.470  0.00  0.00     0.143 A 
ATOM     20  F   UNL d   1       1.373   1.048  -2.763  0.00  0.00    -0.204 F 
ATOM     21  C   UNL d   1       3.577   1.155  -3.521  0.00  0.00     0.044 A 
ATOM     22  C   UNL d   1       4.949   1.178  -3.277  0.00  0.00     0.003 A 
ATOM     23  C   UNL d   1       5.420   1.031  -1.976  0.00  0.00     0.002 A 
ATOM     24  C   UNL d   1       4.517   0.848  -0.925  0.00  0.00     0.033 A 
ENDBRANCH   3  18
TORSDOF 2
