REMARK  5 active torsions:
REMARK  status: ('A' for Active; 'I' for Inactive)
REMARK    1  A    between atoms: C_8  and  C_2 
REMARK    2  A    between atoms: S_9  and  C_5 
REMARK    3  A    between atoms: C_18  and  S_9 
REMARK    4  A    between atoms: C_11  and  C_18 
REMARK       I    between atoms: N_12  and  C_11 
REMARK    5  A    between atoms: C_20  and  N_12 
ROOT
ATOM      1  N   UNL d   1       1.048   0.160   0.192  0.00  0.00    -0.315 N 
ATOM      2  C   UNL d   1       0.138   1.182   0.006  0.00  0.00     0.134 C 
ATOM      3  N   UNL d   1      -1.065   0.640  -0.067  0.00  0.00    -0.283 N 
ATOM      4  HN  UNL d   1      -1.927   1.135  -0.294  1.00  0.00     0.188 HD
ATOM      5  C   UNL d   1       0.298  -0.956   0.432  0.00  0.00     0.163 C 
ATOM      6  N   UNL d   1      -0.964  -0.696   0.213  0.00  0.00    -0.278 N 
ATOM      7  HN  UNL d   1      -1.733  -1.366   0.245  1.00  0.00     0.189 HD
ATOM      8  C   UNL d   1       2.483   0.216   0.095  0.00  0.00     0.160 C 
ENDROOT
BRANCH   5   9
ATOM      9  S   UNL d   1       0.900  -2.394   1.181  0.00  0.00    -0.083 SA
BRANCH   9  10
ATOM     10  C   UNL d   1      -0.541  -3.500   1.100  0.00  0.00     0.185 C 
BRANCH  10  11
ATOM     11  C   UNL d   1      -1.641  -3.287   2.143  0.00  0.00     0.231 C 
ATOM     12  N   UNL d   1      -1.859  -1.988   2.543  0.00  0.00    -0.327 N 
ATOM     13  H   UNL d   1      -1.297  -1.283   2.083  0.00  0.00     0.169 HD
ATOM     14  O   UNL d   1      -2.310  -4.257   2.503  0.00  0.00    -0.272 OA
BRANCH  12  15
ATOM     15  C   UNL d   1      -2.898  -1.466   3.338  0.00  0.00     0.034 A 
ATOM     16  C   UNL d   1      -3.893  -2.236   3.937  0.00  0.00     0.029 A 
ATOM     17  C   UNL d   1      -4.929  -1.619   4.646  0.00  0.00     0.002 A 
ATOM     18  C   UNL d   1      -4.968  -0.231   4.774  0.00  0.00     0.000 A 
ATOM     19  C   UNL d   1      -3.965   0.544   4.199  0.00  0.00     0.002 A 
ATOM     20  C   UNL d   1      -2.936  -0.072   3.485  0.00  0.00     0.029 A 
ENDBRANCH  12  15
ENDBRANCH  10  11
ENDBRANCH   9  10
ENDBRANCH   5   9
BRANCH   2  21
ATOM     21  C   UNL d   1       0.405   2.621  -0.061  0.00  0.00     0.010 A 
ATOM     22  C   UNL d   1      -0.384   3.428  -0.891  0.00  0.00     0.027 A 
ATOM     23  C   UNL d   1      -0.209   4.825  -0.937  0.00  0.00    -0.025 A 
ATOM     24  C   UNL d   1      -1.007   5.641  -1.756  0.00  0.00     0.012 A 
ATOM     25  C   UNL d   1       0.786   5.422  -0.131  0.00  0.00    -0.026 A 
ATOM     26  C   UNL d   1      -0.823   7.024  -1.782  0.00  0.00     0.001 A 
ATOM     27  C   UNL d   1       0.165   7.610  -0.994  0.00  0.00     0.001 A 
ATOM     28  C   UNL d   1       0.962   6.814  -0.171  0.00  0.00     0.012 A 
ATOM     29  C   UNL d   1       1.562   4.614   0.710  0.00  0.00     0.013 A 
ATOM     30  C   UNL d   1       1.365   3.230   0.753  0.00  0.00     0.016 A 
ENDBRANCH   2  21
TORSDOF 5
