REMARK  5 active torsions:
REMARK  status: ('A' for Active; 'I' for Inactive)
REMARK    1  A    between atoms: C_2  and  C_1 
REMARK       I    between atoms: N_3  and  C_1 
REMARK    2  A    between atoms: C_14  and  N_4 
REMARK    3  A    between atoms: C_17  and  C_14 
REMARK    4  A    between atoms: O_15  and  C_17 
REMARK    5  A    between atoms: C_16  and  O_15 
ROOT
ATOM      1  C   UNL d   1       0.939   0.251  -0.020  0.00  0.00     0.260 C 
ATOM      2  N   UNL d   1       0.390  -0.044   1.237  0.00  0.00    -0.344 N 
ATOM      3  N   UNL d   1      -0.230  -0.947   3.980  0.00  0.00     0.093 N 
ATOM      4  O   UNL d   1       1.912   0.986  -0.149  0.00  0.00    -0.267 OA
ATOM      5  C   UNL d   1       0.835   0.746   2.391  0.00  0.00     0.156 C 
ATOM      6  C   UNL d   1      -0.728  -0.952   1.504  0.00  0.00     0.156 C 
ATOM      7  C   UNL d   1       0.962  -0.118   3.665  0.00  0.00     0.292 C 
ATOM      8  C   UNL d   1      -0.531  -1.764   2.789  0.00  0.00     0.292 C 
ENDROOT
BRANCH   1   9
ATOM      9  C   UNL d   1       0.357  -0.331  -1.258  0.00  0.00     0.109 A 
ATOM     10  C   UNL d   1      -1.020  -0.401  -1.473  0.00  0.00     0.135 A 
ATOM     11  F   UNL d   1      -1.894   0.108  -0.596  0.00  0.00    -0.205 F 
ATOM     12  C   UNL d   1      -1.551  -0.997  -2.615  0.00  0.00     0.043 A 
ATOM     13  C   UNL d   1      -0.703  -1.428  -3.625  0.00  0.00     0.006 A 
ATOM     14  C   UNL d   1       0.676  -1.281  -3.474  0.00  0.00     0.043 A 
ATOM     15  C   UNL d   1       1.198  -0.753  -2.288  0.00  0.00     0.135 A 
ATOM     16  F   UNL d   1       2.533  -0.685  -2.176  0.00  0.00    -0.205 F 
ENDBRANCH   1   9
BRANCH   3  17
ATOM     17  C   UNL d   1      -1.368  -0.108   4.411  0.00  0.00     0.299 C 
BRANCH  17  18
ATOM     18  C   UNL d   1      -2.622  -0.910   4.804  0.00  0.00     0.206 C 
BRANCH  18  19
ATOM     19  O   UNL d   1      -3.635  -0.007   5.254  0.00  0.00    -0.349 OA
BRANCH  19  20
ATOM     20  C   UNL d   1      -4.824  -0.575   5.633  0.00  0.00     0.068 A 
ATOM     21  C   UNL d   1      -5.132  -1.937   5.599  0.00  0.00     0.037 A 
ATOM     22  C   UNL d   1      -6.382  -2.388   6.034  0.00  0.00     0.003 A 
ATOM     23  C   UNL d   1      -7.330  -1.480   6.500  0.00  0.00     0.000 A 
ATOM     24  C   UNL d   1      -7.033  -0.119   6.526  0.00  0.00     0.003 A 
ATOM     25  C   UNL d   1      -5.784   0.330   6.091  0.00  0.00     0.037 A 
ENDBRANCH  19  20
ENDBRANCH  18  19
ENDBRANCH  17  18
ENDBRANCH   3  17
TORSDOF 5
