REMARK  6 active torsions:
REMARK  status: ('A' for Active; 'I' for Inactive)
REMARK    1  A    between atoms: C_3  and  N_1 
REMARK    2  A    between atoms: C_10  and  C_2 
REMARK    3  A    between atoms: C_4  and  O_11 
REMARK    4  A    between atoms: C_7  and  C_12 
REMARK    5  A    between atoms: O_11  and  C_8 
REMARK    6  A    between atoms: O_26  and  C_10 
ROOT
ATOM      1  C   UNL d   1       0.000   2.312  -0.205  0.00  0.00     0.080 A 
ATOM      2  C   UNL d   1      -0.642   2.988   0.860  0.00  0.00     0.103 A 
ATOM      3  C   UNL d   1       0.738   3.117  -1.108  0.00  0.00     0.049 A 
ATOM      4  C   UNL d   1       0.885   4.509  -0.963  0.00  0.00     0.050 A 
ATOM      5  C   UNL d   1      -0.481   4.384   1.013  0.00  0.00     0.040 A 
ATOM      6  C   UNL d   1       0.257   5.138   0.107  0.00  0.00     0.019 A 
ENDROOT
BRANCH   2   7
ATOM      7  O   UNL d   1      -1.314   2.306   1.860  0.00  0.00    -0.307 OA
BRANCH   7   8
ATOM      8  C   UNL d   1      -2.446   2.817   2.430  0.00  0.00     0.099 A 
ATOM      9  C   UNL d   1      -2.798   2.560   3.746  0.00  0.00     0.114 A 
ATOM     10  S   UNL d   1      -4.214   3.449   4.184  0.00  0.00    -0.093 SA
ATOM     11  C   UNL d   1      -4.403   4.081   2.615  0.00  0.00     0.053 A 
ATOM     12  C   UNL d   1      -3.416   3.639   1.765  0.00  0.00     0.046 A 
BRANCH   9  13
ATOM     13  C   UNL d   1      -2.199   1.731   4.779  0.00  0.00     0.302 C 
ATOM     14  O   UNL d   1      -2.560   1.675   5.950  0.00  0.00    -0.259 OA
BRANCH  13  15
ATOM     15  O   UNL d   1      -1.175   0.981   4.280  0.00  0.00    -0.322 OA
ATOM     16  C   UNL d   1      -0.625   0.071   5.234  0.00  0.00     0.213 C 
ENDBRANCH  13  15
ENDBRANCH   9  13
ENDBRANCH   7   8
ENDBRANCH   2   7
BRANCH   1  17
ATOM     17  N   UNL d   1      -0.004   0.888  -0.393  0.00  0.00    -0.242 N 
ATOM     18  C   UNL d   1      -0.906  -0.006   0.111  0.00  0.00     0.255 C 
ATOM     19  C   UNL d   1      -0.456  -1.357  -0.251  0.00  0.00     0.080 C 
ATOM     20  O   UNL d   1      -1.984   0.147   0.662  0.00  0.00    -0.268 OA
ATOM     21  C   UNL d   1       0.598  -1.232  -1.050  0.00  0.00     0.080 C 
ATOM     22  C   UNL d   1       0.885   0.197  -1.180  0.00  0.00     0.255 C 
ATOM     23  O   UNL d   1       1.807   0.572  -1.887  0.00  0.00    -0.268 OA
ENDBRANCH   1  17
BRANCH   4  24
ATOM     24  C   UNL d   1       1.736   5.312  -1.918  0.00  0.00     0.417 C 
ATOM     25  F   UNL d   1       2.353   4.562  -2.871  0.00  0.00    -0.166 F 
ATOM     26  F   UNL d   1       1.016   6.252  -2.589  0.00  0.00    -0.166 F 
ATOM     27  F   UNL d   1       2.729   5.989  -1.276  0.00  0.00    -0.166 F 
ENDBRANCH   4  24
TORSDOF 6
