REMARK  7 active torsions:
REMARK  status: ('A' for Active; 'I' for Inactive)
REMARK    1  A    between atoms: C_2  and  C_1 
REMARK    2  A    between atoms: O_18  and  C_2 
REMARK    3  A    between atoms: C_4  and  C_16 
REMARK       I    between atoms: N_11  and  C_4 
REMARK    4  A    between atoms: S_7  and  C_5 
REMARK    5  A    between atoms: C_16  and  S_7 
REMARK    6  A    between atoms: C_19  and  N_11 
REMARK    7  A    between atoms: C_17  and  C_19 
ROOT
ATOM      1  C   UNL d   1       3.835  -4.319  -0.282  0.00  0.00     0.227 C 
ATOM      2  N   UNL d   1       3.093  -5.479  -0.360  0.00  0.00    -0.356 N 
ATOM      3  O   UNL d   1       5.058  -4.352  -0.121  0.00  0.00    -0.273 OA
ATOM      4  H   UNL d   1       2.083  -5.456  -0.290  0.00  0.00     0.162 HD
ENDROOT
BRANCH   1   5
ATOM      5  C   UNL d   1       3.051  -3.005  -0.390  0.00  0.00     0.182 C 
BRANCH   5   6
ATOM      6  S   UNL d   1       4.008  -1.833  -1.443  0.00  0.00    -0.120 SA
BRANCH   6   7
ATOM      7  C   UNL d   1       3.277  -0.239  -1.065  0.00  0.00     0.017 A 
ATOM      8  C   UNL d   1       1.990   0.177  -1.441  0.00  0.00     0.054 A 
ATOM      9  C   UNL d   1       1.577   1.502  -1.207  0.00  0.00     0.020 A 
ATOM     10  C   UNL d   1       2.447   2.429  -0.633  0.00  0.00     0.001 A 
ATOM     11  C   UNL d   1       3.727   2.029  -0.265  0.00  0.00     0.001 A 
ATOM     12  C   UNL d   1       4.136   0.708  -0.476  0.00  0.00     0.019 A 
BRANCH   8  13
ATOM     13  C   UNL d   1       0.998  -0.692  -2.117  0.00  0.00     0.177 C 
ATOM     14  O   UNL d   1      -0.193  -0.651  -1.861  0.00  0.00    -0.646 OA
BRANCH  13  15
ATOM     15  O   UNL d   1       1.514  -1.478  -3.084  0.00  0.00    -0.773 OA
ATOM     16  H   UNL d   1       2.490  -1.417  -3.172  0.00  0.00     0.167 HD
ENDBRANCH  13  15
ENDBRANCH   8  13
ENDBRANCH   6   7
ENDBRANCH   5   6
ENDBRANCH   1   5
BRANCH   2  17
ATOM     17  C   UNL d   1       3.771  -6.763  -0.276  0.00  0.00     0.161 C 
BRANCH  17  18
ATOM     18  C   UNL d   1       2.838  -7.947  -0.338  0.00  0.00    -0.038 A 
ATOM     19  C   UNL d   1       1.947  -8.109  -1.412  0.00  0.00     0.048 A 
ATOM     20  C   UNL d   1       1.107  -9.205  -1.403  0.00  0.00     0.105 A 
ATOM     21  O   UNL d   1       0.151  -9.483  -2.331  0.00  0.00    -0.323 OA
ATOM     22  C   UNL d   1       1.152 -10.149  -0.404  0.00  0.00     0.105 A 
ATOM     23  C   UNL d   1      -0.502 -10.608  -1.706  0.00  0.00     0.352 C 
ATOM     24  O   UNL d   1       0.226 -11.131  -0.576  0.00  0.00    -0.323 OA
ATOM     25  C   UNL d   1       2.045 -10.056   0.638  0.00  0.00     0.040 A 
ATOM     26  C   UNL d   1       2.890  -8.941   0.671  0.00  0.00     0.012 A 
ENDBRANCH  17  18
ENDBRANCH   2  17
TORSDOF 7
