REMARK  0 active torsions:
REMARK  status: ('A' for Active; 'I' for Inactive)
ROOT
ATOM      1  N   UNL d   1      -0.103  -0.738  -0.328  0.00  0.00    -0.311 N 
ATOM      2  C   UNL d   1      -1.302  -0.908   0.337  0.00  0.00     0.326 C 
ATOM      3  N   UNL d   1      -1.950   0.284   0.356  0.00  0.00    -0.277 N 
ATOM      4  C   UNL d   1      -1.109   1.282  -0.029  0.00  0.00     0.249 C 
ATOM      5  C   UNL d   1       0.145   0.656  -0.623  0.00  0.00     0.191 C 
ATOM      6  C   UNL d   1       1.052  -1.542  -0.050  0.00  0.00     0.202 C 
ATOM      7  S   UNL d   1       2.266  -0.391   0.649  0.00  0.00    -0.147 SA
ATOM      8  O   UNL d   1      -1.688  -1.922   0.897  0.00  0.00    -0.247 OA
ATOM      9  O   UNL d   1      -1.328   2.478   0.090  0.00  0.00    -0.271 OA
ATOM     10  C   UNL d   1       1.433   1.111   0.036  0.00  0.00     0.110 C 
ATOM     11  H   UNL d   1      -2.797   0.437   0.876  0.00  0.00     0.173 HD
ENDROOT
TORSDOF 0
