REMARK  4 active torsions:
REMARK  status: ('A' for Active; 'I' for Inactive)
REMARK    1  A    between atoms: S_5  and  C_1 
REMARK    2  A    between atoms: S_6  and  C_2 
REMARK    3  A    between atoms: C_9  and  S_5 
REMARK    4  A    between atoms: C_10  and  S_6 
ROOT
ATOM      1  C   UNL d   1       0.707  -1.527  -0.015  0.00  0.00     0.081 A 
ATOM      2  C   UNL d   1      -0.645  -1.463   0.043  0.00  0.00     0.081 A 
ATOM      3  C   UNL d   1       0.852  -0.076   0.124  0.00  0.00     0.241 A 
ATOM      4  C   UNL d   1      -0.639  -0.006   0.194  0.00  0.00     0.241 A 
ATOM      5  O   UNL d   1       1.712   0.768   0.146  0.00  0.00    -0.283 OA
ATOM      6  O   UNL d   1      -1.414   0.902   0.357  0.00  0.00    -0.283 OA
ENDROOT
BRANCH   1   7
ATOM      7  S   UNL d   1       1.835  -2.840  -0.155  0.00  0.00    -0.085 SA
BRANCH   7   8
ATOM      8  C   UNL d   1       2.750  -2.496   1.336  0.00  0.00     0.005 A 
ATOM      9  C   UNL d   1       2.400  -3.154   2.522  0.00  0.00     0.020 A 
ATOM     10  C   UNL d   1       3.111  -2.912   3.699  0.00  0.00     0.025 A 
ATOM     11  C   UNL d   1       4.176  -2.012   3.692  0.00  0.00     0.034 A 
ATOM     12  C   UNL d   1       4.534  -1.354   2.517  0.00  0.00     0.025 A 
ATOM     13 CL   UNL d   1       5.053  -1.717   5.140  0.00  0.00    -0.084 Cl
ATOM     14  C   UNL d   1       3.824  -1.599   1.337  0.00  0.00     0.020 A 
ENDBRANCH   7   8
ENDBRANCH   1   7
BRANCH   2  15
ATOM     15  S   UNL d   1      -1.915  -2.645  -0.009  0.00  0.00    -0.085 SA
BRANCH  15  16
ATOM     16  C   UNL d   1      -2.127  -2.861   1.751  0.00  0.00     0.005 A 
ATOM     17  C   UNL d   1      -2.520  -1.806   2.584  0.00  0.00     0.020 A 
ATOM     18  C   UNL d   1      -2.705  -2.018   3.954  0.00  0.00     0.025 A 
ATOM     19  C   UNL d   1      -2.520  -3.289   4.491  0.00  0.00     0.034 A 
ATOM     20  C   UNL d   1      -2.147  -4.351   3.670  0.00  0.00     0.025 A 
ATOM     21 CL   UNL d   1      -2.765  -3.553   6.173  0.00  0.00    -0.084 Cl
ATOM     22  C   UNL d   1      -1.951  -4.137   2.302  0.00  0.00     0.020 A 
ENDBRANCH  15  16
ENDBRANCH   2  15
TORSDOF 4
