REMARK  3 active torsions:
REMARK  status: ('A' for Active; 'I' for Inactive)
REMARK    1  A    between atoms: C_7  and  C_3 
REMARK    2  A    between atoms: N_12  and  N_15 
REMARK    3  A    between atoms: C_22  and  C_20 
ROOT
ATOM      1  N   UNL d   1       5.372  -9.001   3.466  0.00  0.00    -0.191 NA
ATOM      2  C   UNL d   1       4.625  -8.270   2.955  0.00  0.00     0.099 C 
ATOM      3  C   UNL d   1       3.700  -7.371   2.331  0.00  0.00     0.044 A 
ATOM      4  C   UNL d   1       1.872  -5.605   1.143  0.00  0.00    -0.019 A 
ATOM      5  C   UNL d   1       3.970  -5.998   2.298  0.00  0.00     0.023 A 
ATOM      6  C   UNL d   1       2.516  -7.856   1.758  0.00  0.00     0.023 A 
ATOM      7  C   UNL d   1       3.060  -5.120   1.705  0.00  0.00     0.014 A 
ATOM      8  C   UNL d   1       1.600  -6.975   1.166  0.00  0.00     0.014 A 
ENDROOT
BRANCH   4   9
ATOM      9  C   UNL d   1       0.892  -4.665   0.551  0.00  0.00     0.118 C 
ATOM     10  N   UNL d   1       1.142  -3.396   0.519  0.00  0.00    -0.309 N 
ATOM     11  HN  UNL d   1       2.028  -3.024   0.861  1.00  0.00     0.186 HD
BRANCH  10  12
ATOM     12  N   UNL d   1       0.179  -2.574   0.013  0.00  0.00    -0.280 N 
ATOM     13  C   UNL d   1       0.353  -1.222  -0.011  0.00  0.00     0.164 A 
ATOM     14  S   UNL d   1      -1.005  -0.154  -0.070  0.00  0.00    -0.051 SA
ATOM     15  N   UNL d   1       1.516  -0.608   0.019  0.00  0.00    -0.344 N 
ATOM     16  C   UNL d   1       0.039   1.216  -0.001  0.00  0.00     0.034 A 
ATOM     17  C   UNL d   1       1.345   0.758   0.001  0.00  0.00     0.110 A 
ATOM     18  HN  UNL d   1       2.421  -1.078   0.051  1.00  0.00     0.167 HD
ATOM     19  H   UNL d   1      -0.767  -2.921  -0.110  0.00  0.00     0.189 HD
BRANCH  16  20
ATOM     20  C   UNL d   1      -0.459   2.602   0.071  0.00  0.00    -0.015 A 
ATOM     21  C   UNL d   1      -1.674   3.000  -0.507  0.00  0.00     0.052 A 
ATOM     22  C   UNL d   1      -2.116   4.332  -0.434  0.00  0.00     0.102 A 
ATOM     23  O   UNL d   1      -3.297   4.586  -1.085  0.00  0.00    -0.348 OA
ATOM     24  C   UNL d   1      -1.367   5.280   0.274  0.00  0.00     0.102 A 
ATOM     25  C   UNL d   1      -3.323   5.863  -1.724  0.00  0.00     0.178 C 
ATOM     26  C   UNL d   1      -3.772   6.953  -0.766  0.00  0.00     0.053 C 
ATOM     27  C   UNL d   1      -3.117   6.813   0.597  0.00  0.00     0.178 C 
ATOM     28  O   UNL d   1      -1.712   6.592   0.471  0.00  0.00    -0.348 OA
ATOM     29  C   UNL d   1      -0.143   4.905   0.826  0.00  0.00     0.040 A 
ATOM     30  C   UNL d   1       0.304   3.583   0.728  0.00  0.00     0.016 A 
ENDBRANCH  16  20
ENDBRANCH  10  12
ENDBRANCH   4   9
TORSDOF 3
