REMARK  4 active torsions:
REMARK  status: ('A' for Active; 'I' for Inactive)
REMARK    1  A    between atoms: S_12  and  C_2 
REMARK    2  A    between atoms: C_6  and  C_3 
REMARK    3  A    between atoms: O_13  and  C_6 
REMARK    4  A    between atoms: C_15  and  O_13 
ROOT
ATOM      1  C   UNL d   1      -0.718   1.303  -0.033  0.00  0.00     0.094 A 
ATOM      2  C   UNL d   1      -1.354   0.062  -0.037  0.00  0.00     0.089 A 
ATOM      3  C   UNL d   1       0.686   1.311  -0.038  0.00  0.00     0.064 A 
ATOM      4  N   UNL d   1      -0.667  -1.109  -0.038  0.00  0.00    -0.353 N 
ATOM      5  HN  UNL d   1      -1.167  -1.998  -0.046  1.00  0.00     0.166 HD
ATOM      6  C   UNL d   1      -1.494   2.502   0.032  0.00  0.00     0.103 C 
ATOM      7  N   UNL d   1      -2.167   3.445   0.093  0.00  0.00    -0.191 NA
ATOM      8  C   UNL d   1       1.392   0.101  -0.027  0.00  0.00     0.043 A 
ATOM      9  C   UNL d   1       0.682  -1.086  -0.028  0.00  0.00     0.007 A 
ATOM     10  C   UNL d   1       1.379  -2.413  -0.003  0.00  0.00     0.068 C 
ENDROOT
BRANCH   2  11
ATOM     11  S   UNL d   1      -3.126  -0.175  -0.012  0.00  0.00    -0.124 SA
ATOM     12  H   UNL d   1      -3.515   1.109  -0.017  0.00  0.00     0.108 HD
ENDBRANCH   2  11
BRANCH   3  13
ATOM     13  C   UNL d   1       1.514   2.543   0.049  0.00  0.00     0.295 C 
ATOM     14  O   UNL d   1       2.613   2.557   0.578  0.00  0.00    -0.259 OA
BRANCH  13  15
ATOM     15  O   UNL d   1       0.878   3.596  -0.505  0.00  0.00    -0.318 OA
BRANCH  15  16
ATOM     16  C   UNL d   1       1.351   4.898  -0.125  0.00  0.00     0.174 C 
ATOM     17  C   UNL d   1       1.962   5.614  -1.311  0.00  0.00     0.034 C 
ENDBRANCH  15  16
ENDBRANCH  13  15
ENDBRANCH   3  13
TORSDOF 4
