REMARK  3 active torsions:
REMARK  status: ('A' for Active; 'I' for Inactive)
REMARK    1  A    between atoms: C_5  and  C_1 
REMARK    2  A    between atoms: C_6  and  C_2 
REMARK       I    between atoms: N_9  and  C_5 
REMARK    3  A    between atoms: C_12  and  N_9 
ROOT
ATOM      1  C   UNL d   1      -0.298  -1.188   0.245  0.00  0.00     0.093 A 
ATOM      2  C   UNL d   1      -1.597  -0.601   0.365  0.00  0.00     0.085 A 
ATOM      3  N   UNL d   1      -1.493   0.737   0.467  0.00  0.00    -0.259 N 
ATOM      4  HN  UNL d   1      -2.259   1.400   0.581  1.00  0.00     0.195 HD
ATOM      5  O   UNL d   1      -0.155   1.037   0.387  0.00  0.00    -0.241 OA
ATOM      6  C   UNL d   1       0.560  -0.103   0.237  0.00  0.00     0.090 A 
ATOM      7  C   UNL d   1       2.013   0.074   0.029  0.00  0.00     0.080 C 
ENDROOT
BRANCH   1   8
ATOM      8  C   UNL d   1       0.077  -2.574   0.022  0.00  0.00     0.261 C 
ATOM      9  N   UNL d   1       1.260  -2.929   0.654  0.00  0.00    -0.323 N 
ATOM     10  H   UNL d   1       1.598  -2.301   1.371  0.00  0.00     0.169 HD
ATOM     11  O   UNL d   1      -0.604  -3.298  -0.685  0.00  0.00    -0.267 OA
BRANCH   9  12
ATOM     12  C   UNL d   1       2.133  -3.970   0.276  0.00  0.00     0.035 A 
ATOM     13  C   UNL d   1       1.858  -4.868  -0.756  0.00  0.00     0.031 A 
ATOM     14  C   UNL d   1       2.850  -5.735  -1.225  0.00  0.00     0.026 A 
ATOM     15  C   UNL d   1       4.116  -5.717  -0.651  0.00  0.00     0.034 A 
ATOM     16  C   UNL d   1       4.382  -4.876   0.426  0.00  0.00     0.026 A 
ATOM     17 CL   UNL d   1       5.366  -6.704  -1.297  0.00  0.00    -0.084 Cl
ATOM     18  C   UNL d   1       3.388  -4.014   0.899  0.00  0.00     0.031 A 
ENDBRANCH   9  12
ENDBRANCH   1   8
BRANCH   2  19
ATOM     19  C   UNL d   1      -2.928  -1.217   0.344  0.00  0.00     0.015 A 
ATOM     20  C   UNL d   1      -3.292  -2.324   1.127  0.00  0.00     0.046 A 
ATOM     21 CL   UNL d   1      -2.240  -3.037   2.301  0.00  0.00    -0.083 Cl
ATOM     22  C   UNL d   1      -4.586  -2.857   1.038  0.00  0.00     0.025 A 
ATOM     23  C   UNL d   1      -5.539  -2.276   0.199  0.00  0.00     0.002 A 
ATOM     24  C   UNL d   1      -5.204  -1.157  -0.553  0.00  0.00     0.001 A 
ATOM     25  C   UNL d   1      -3.909  -0.637  -0.487  0.00  0.00     0.015 A 
ENDBRANCH   2  19
TORSDOF 3
