REMARK  2 active torsions:
REMARK  status: ('A' for Active; 'I' for Inactive)
REMARK    1  A    between atoms: C_5  and  C_9 
REMARK    2  A    between atoms: C_10  and  N_7 
ROOT
ATOM      1  C   UNL d   1      -0.757  -1.042  -0.099  0.00  0.00     0.146 C 
ATOM      2  S   UNL d   1      -1.605   0.435   0.393  0.00  0.00    -0.057 SA
ATOM      3  N   UNL d   1       0.563  -0.937   0.253  0.00  0.00    -0.357 N 
ATOM      4  C   UNL d   1      -0.249   0.942   1.388  0.00  0.00     0.004 C 
ATOM      5  C   UNL d   1       0.829  -0.133   1.445  0.00  0.00     0.058 C 
ATOM      6  N   UNL d   1      -1.437  -1.993  -0.642  0.00  0.00    -0.337 N 
ATOM      7  HN  UNL d   1      -2.429  -1.846  -0.831  1.00  0.00     0.168 HD
ATOM      8  C   UNL d   1      -0.222   2.159   1.949  0.00  0.00     0.029 C 
ATOM      9  C   UNL d   1       2.265   0.391   1.386  0.00  0.00     0.044 C 
ATOM     10  C   UNL d   1       0.641  -1.021   2.687  0.00  0.00     0.044 C 
ATOM     11  H   UNL d   1       1.164  -1.730   0.090  0.00  0.00     0.162 HD
ENDROOT
BRANCH   6  12
ATOM     12  C   UNL d   1      -0.854  -3.222  -0.980  0.00  0.00     0.034 A 
ATOM     13  C   UNL d   1       0.021  -3.918  -0.138  0.00  0.00     0.045 A 
ATOM     14  C   UNL d   1       0.630  -5.116  -0.540  0.00  0.00     0.050 A 
ATOM     15  C   UNL d   1       0.249  -5.690  -1.758  0.00  0.00     0.016 A 
ATOM     16  C   UNL d   1      -0.694  -5.056  -2.567  0.00  0.00     0.003 A 
ATOM     17  C   UNL d   1      -1.227  -3.822  -2.184  0.00  0.00     0.029 A 
BRANCH  14  18
ATOM     18  C   UNL d   1       1.688  -5.761   0.317  0.00  0.00     0.417 C 
ATOM     19  F   UNL d   1       2.112  -4.960   1.336  0.00  0.00    -0.166 F 
ATOM     20  F   UNL d   1       1.269  -6.918   0.897  0.00  0.00    -0.166 F 
ATOM     21  F   UNL d   1       2.809  -6.075  -0.389  0.00  0.00    -0.166 F 
ENDBRANCH  14  18
ENDBRANCH   6  12
TORSDOF 2
