REMARK  3 active torsions:
REMARK  status: ('A' for Active; 'I' for Inactive)
REMARK       I    between atoms: N_2  and  C_1 
REMARK       I    between atoms: N_5  and  C_1 
REMARK    1  A    between atoms: C_3  and  N_2 
REMARK    2  A    between atoms: C_4  and  C_7 
REMARK    3  A    between atoms: C_7  and  N_5 
ROOT
ATOM      1  C   UNL d   1       1.021  -0.057  -0.011  0.00  0.00     0.321 C 
ATOM      2  N   UNL d   1       2.373  -0.330  -0.030  0.00  0.00    -0.306 N 
ATOM      3  N   UNL d   1       0.351  -1.011   0.709  0.00  0.00    -0.339 N 
ATOM      4  O   UNL d   1       0.461   0.861  -0.606  0.00  0.00    -0.247 OA
ATOM      5  H   UNL d   1       2.577  -1.323   0.001  0.00  0.00     0.171 HD
ATOM      6  H   UNL d   1       0.856  -1.380   1.503  0.00  0.00     0.164 HD
ENDROOT
BRANCH   2   7
ATOM      7  C   UNL d   1       3.298   0.445  -0.759  0.00  0.00     0.075 A 
ATOM      8  C   UNL d   1       4.257  -0.216  -1.530  0.00  0.00     0.143 A 
ATOM      9  F   UNL d   1       4.265  -1.558  -1.573  0.00  0.00    -0.204 F 
ATOM     10  C   UNL d   1       5.171   0.492  -2.302  0.00  0.00     0.044 A 
ATOM     11  C   UNL d   1       5.163   1.886  -2.267  0.00  0.00     0.003 A 
ATOM     12  C   UNL d   1       4.234   2.558  -1.469  0.00  0.00     0.002 A 
ATOM     13  C   UNL d   1       3.292   1.840  -0.725  0.00  0.00     0.033 A 
ENDBRANCH   2   7
BRANCH   3  14
ATOM     14  C   UNL d   1      -1.090  -0.987   0.823  0.00  0.00     0.166 C 
BRANCH  14  15
ATOM     15  C   UNL d   1      -1.580  -2.344   1.240  0.00  0.00    -0.002 A 
ATOM     16  C   UNL d   1      -1.730  -2.665   2.590  0.00  0.00     0.124 A 
ATOM     17  F   UNL d   1      -1.497  -1.735   3.528  0.00  0.00    -0.205 F 
ATOM     18  C   UNL d   1      -2.089  -3.948   2.994  0.00  0.00     0.043 A 
ATOM     19  C   UNL d   1      -2.302  -4.938   2.036  0.00  0.00     0.003 A 
ATOM     20  C   UNL d   1      -2.164  -4.636   0.681  0.00  0.00     0.001 A 
ATOM     21  C   UNL d   1      -1.802  -3.346   0.284  0.00  0.00     0.012 A 
ENDBRANCH  14  15
ENDBRANCH   3  14
TORSDOF 3
