REMARK  5 active torsions:
REMARK  status: ('A' for Active; 'I' for Inactive)
REMARK    1  A    between atoms: N_2  and  S_1 
REMARK    2  A    between atoms: C_3  and  S_1 
REMARK    3  A    between atoms: N_4  and  N_2 
REMARK    4  A    between atoms: C_15  and  C_8 
REMARK    5  A    between atoms: C_14  and  C_13 
ROOT
ATOM      1  N   UNL d   1       0.330   1.538   0.593  0.00  0.00    -0.223 N 
ATOM      2  H   UNL d   1      -0.361   2.013   0.014  0.00  0.00     0.200 HD
ENDROOT
BRANCH   1   3
ATOM      3  S   UNL d   1       0.957   0.089  -0.041  0.00  0.00     0.276 S 
ATOM      4  O   UNL d   1       2.403   0.138   0.007  0.00  0.00    -0.199 OA
ATOM      5  O   UNL d   1       0.259  -0.151  -1.290  0.00  0.00    -0.199 OA
BRANCH   3   6
ATOM      6  C   UNL d   1       0.405  -1.129   1.137  0.00  0.00     0.081 A 
ATOM      7  C   UNL d   1      -0.797  -1.811   0.934  0.00  0.00     0.026 A 
ATOM      8  C   UNL d   1      -1.180  -2.815   1.830  0.00  0.00     0.008 A 
ATOM      9  C   UNL d   1      -0.361  -3.154   2.917  0.00  0.00    -0.062 A 
ATOM     10  C   UNL d   1       0.846  -2.468   3.103  0.00  0.00     0.008 A 
ATOM     11  C   UNL d   1      -0.771  -4.252   3.855  0.00  0.00     0.048 C 
ATOM     12  C   UNL d   1       1.232  -1.461   2.215  0.00  0.00     0.026 A 
ENDBRANCH   3   6
ENDBRANCH   1   3
BRANCH   1  13
ATOM     13  N   UNL d   1       0.734   1.947   1.889  0.00  0.00    -0.302 N 
ATOM     14  C   UNL d   1       0.287   3.069   2.346  0.00  0.00     0.119 C 
ATOM     15  HN  UNL d   1       1.362   1.369   2.447  1.00  0.00     0.186 HD
BRANCH  14  16
ATOM     16  C   UNL d   1       0.703   3.491   3.707  0.00  0.00    -0.019 A 
ATOM     17  C   UNL d   1       1.560   2.662   4.436  0.00  0.00     0.013 A 
ATOM     18  C   UNL d   1       1.962   3.014   5.721  0.00  0.00     0.008 A 
ATOM     19  C   UNL d   1       1.517   4.204   6.309  0.00  0.00    -0.055 A 
ATOM     20  C   UNL d   1       0.660   5.037   5.565  0.00  0.00     0.008 A 
ATOM     21  C   UNL d   1       0.250   4.685   4.268  0.00  0.00     0.013 A 
BRANCH  19  22
ATOM     22  C   UNL d   1       1.942   4.579   7.719  0.00  0.00     0.010 C 
ATOM     23  C   UNL d   1       1.485   3.531   8.741  0.00  0.00     0.015 C 
ATOM     24  C   UNL d   1       3.456   4.788   7.827  0.00  0.00     0.015 C 
ENDBRANCH  19  22
ENDBRANCH  14  16
ENDBRANCH   1  13
TORSDOF 5
