REMARK  5 active torsions:
REMARK  status: ('A' for Active; 'I' for Inactive)
REMARK    1  A    between atoms: C_11  and  C_1 
REMARK    2  A    between atoms: C_3  and  C_13 
REMARK    3  A    between atoms: C_13  and  C_8 
REMARK    4  A    between atoms: O_19  and  C_11 
REMARK    5  A    between atoms: C_22  and  O_19 
ROOT
ATOM      1  C   UNL d   1       0.035  -2.595  -0.037  0.00  0.00     0.106 C 
ENDROOT
BRANCH   1   2
ATOM      2  C   UNL d   1       1.328  -3.365   0.058  0.00  0.00    -0.012 A 
ATOM      3  C   UNL d   1       2.038  -3.857  -1.014  0.00  0.00     0.082 A 
ATOM      4  S   UNL d   1       3.398  -4.760  -0.598  0.00  0.00    -0.077 SA
ATOM      5 CL   UNL d   1       1.672  -3.675  -2.688  0.00  0.00    -0.076 Cl
ATOM      6  C   UNL d   1       3.109  -4.539   1.082  0.00  0.00     0.017 A 
ATOM      7  C   UNL d   1       1.979  -3.741   1.306  0.00  0.00    -0.009 A 
ATOM      8  C   UNL d   1       3.873  -5.068   2.141  0.00  0.00     0.021 A 
ATOM      9  C   UNL d   1       1.641  -3.450   2.655  0.00  0.00     0.037 A 
ATOM     10  C   UNL d   1       2.406  -3.967   3.705  0.00  0.00     0.035 A 
ATOM     11  C   UNL d   1       3.505  -4.774   3.455  0.00  0.00     0.025 A 
ATOM     12 CL   UNL d   1       1.975  -3.601   5.332  0.00  0.00    -0.084 Cl
ENDBRANCH   1   2
BRANCH   1  13
ATOM     13  C   UNL d   1       0.219  -1.107  -0.114  0.00  0.00     0.055 A 
ATOM     14  N   UNL d   1       0.223  -0.306   0.932  0.00  0.00    -0.348 N 
ATOM     15  C   UNL d   1       0.363   1.024   0.526  0.00  0.00     0.115 A 
ATOM     16  HN  UNL d   1       0.135  -0.613   1.901  1.00  0.00     0.166 HD
ATOM     17  C   UNL d   1       0.450   1.192  -0.845  0.00  0.00     0.087 A 
ATOM     18  S   UNL d   1       0.364  -0.320  -1.637  0.00  0.00    -0.086 SA
BRANCH  15  19
ATOM     19  C   UNL d   1       0.464   2.136   1.473  0.00  0.00     0.310 C 
ATOM     20  O   UNL d   1       0.649   3.296   1.128  0.00  0.00    -0.258 OA
BRANCH  19  21
ATOM     21  O   UNL d   1       0.414   1.711   2.770  0.00  0.00    -0.317 OA
BRANCH  21  22
ATOM     22  C   UNL d   1       0.928   2.634   3.736  0.00  0.00     0.175 C 
ATOM     23  C   UNL d   1       2.429   2.425   3.836  0.00  0.00     0.034 C 
ENDBRANCH  21  22
ENDBRANCH  19  21
ENDBRANCH  15  19
ENDBRANCH   1  13
TORSDOF 5
