REMARK  5 active torsions:
REMARK  status: ('A' for Active; 'I' for Inactive)
REMARK    1  A    between atoms: N_4  and  C_1 
REMARK    2  A    between atoms: N_5  and  C_1 
REMARK       I    between atoms: C_2  and  N_3 
REMARK    3  A    between atoms: C_10  and  C_2 
REMARK    4  A    between atoms: N_3  and  N_4 
REMARK    5  A    between atoms: C_11  and  N_5 
ROOT
ATOM      1  N   UNL d   1       0.652   0.541  -1.345  0.00  0.00    -0.274 N 
ATOM      2  H   UNL d   1      -0.315   0.858  -1.349  0.00  0.00     0.189 HD
ENDROOT
BRANCH   1   3
ATOM      3  N   UNL d   1       1.450   1.097  -2.364  0.00  0.00    -0.264 N 
ATOM      4  C   UNL d   1       0.936   2.184  -3.049  0.00  0.00     0.270 C 
ATOM      5  O   UNL d   1      -0.196   2.622  -2.852  0.00  0.00    -0.266 OA
ATOM      6  H   UNL d   1       2.445   0.905  -2.314  0.00  0.00     0.190 HD
BRANCH   4   7
ATOM      7  C   UNL d   1       1.829   2.830  -4.047  0.00  0.00     0.036 A 
ATOM      8  C   UNL d   1       2.797   2.108  -4.745  0.00  0.00     0.034 A 
ATOM      9  C   UNL d   1       3.547   2.783  -5.694  0.00  0.00     0.088 A 
ATOM     10  N   UNL d   1       3.395   4.096  -5.975  0.00  0.00    -0.375 N 
ATOM     11  C   UNL d   1       2.446   4.767  -5.289  0.00  0.00     0.088 A 
ATOM     12  HN  UNL d   1       3.973   4.560  -6.676  1.00  0.00     0.164 HD
ATOM     13  C   UNL d   1       1.641   4.184  -4.328  0.00  0.00     0.034 A 
ENDBRANCH   4   7
ENDBRANCH   1   3
BRANCH   1  14
ATOM     14  C   UNL d   1       1.216  -0.009  -0.226  0.00  0.00     0.186 C 
ATOM     15  S   UNL d   1       2.856  -0.273  -0.020  0.00  0.00    -0.040 SA
BRANCH  14  16
ATOM     16  N   UNL d   1       0.379  -0.396   0.775  0.00  0.00    -0.361 N 
ATOM     17  H   UNL d   1       0.864  -0.869   1.529  0.00  0.00     0.162 HD
BRANCH  16  18
ATOM     18  C   UNL d   1      -1.084  -0.336   0.863  0.00  0.00     0.083 C 
ATOM     19  C   UNL d   1      -1.535  -0.341   2.331  0.00  0.00     0.025 C 
ATOM     20  C   UNL d   1      -1.326  -1.692   3.018  0.00  0.00     0.002 C 
ATOM     21  C   UNL d   1      -1.929  -2.850   2.228  0.00  0.00     0.000 C 
ATOM     22  C   UNL d   1      -1.511  -2.842   0.761  0.00  0.00     0.002 C 
ATOM     23  C   UNL d   1      -1.753  -1.486   0.099  0.00  0.00     0.025 C 
ENDBRANCH  16  18
ENDBRANCH  14  16
ENDBRANCH   1  14
TORSDOF 5
