REMARK  3 active torsions:
REMARK  status: ('A' for Active; 'I' for Inactive)
REMARK    1  A    between atoms: N_10  and  C_1 
REMARK    2  A    between atoms: C_8  and  C_6 
REMARK    3  A    between atoms: O_24  and  C_22 
ROOT
ATOM      1  C   UNL d   1       0.825   1.509   0.022  0.00  0.00     0.027 A 
ATOM      2  C   UNL d   1      -0.329   0.637   0.063  0.00  0.00     0.034 A 
ATOM      3  C   UNL d   1      -0.051  -0.750  -0.055  0.00  0.00     0.048 A 
ATOM      4  N   UNL d   1       1.179  -1.267  -0.142  0.00  0.00    -0.352 N 
ATOM      5  HN  UNL d   1       1.307  -2.275  -0.222  1.00  0.00     0.166 HD
ATOM      6  C   UNL d   1       2.252  -0.443  -0.123  0.00  0.00     0.118 A 
ATOM      7  C   UNL d   1       2.104   0.933  -0.074  0.00  0.00     0.059 A 
ATOM      8  C   UNL d   1      -1.714   0.975   0.242  0.00  0.00     0.050 A 
ATOM      9  C   UNL d   1      -2.728   0.008   0.215  0.00  0.00     0.048 A 
ATOM     10  C   UNL d   1      -1.067  -1.689  -0.066  0.00  0.00     0.054 A 
ATOM     11  C   UNL d   1      -2.397  -1.321   0.054  0.00  0.00     0.037 A 
ATOM     12 CL   UNL d   1      -2.282   2.573   0.594  0.00  0.00    -0.083 Cl
ATOM     13 CL   UNL d   1      -3.628  -2.521   0.040  0.00  0.00    -0.084 Cl
ENDROOT
BRANCH   1  14
ATOM     14  N   UNL d   1       0.699   2.917   0.083  0.00  0.00    -0.282 NA
ATOM     15  C   UNL d   1       1.754   3.647   0.807  0.00  0.00     0.098 C 
ATOM     16  C   UNL d   1       1.251   5.045   1.148  0.00  0.00     0.046 C 
ATOM     17  C   UNL d   1       0.783   5.797  -0.095  0.00  0.00     0.120 C 
ATOM     18  C   UNL d   1      -0.149   4.968  -0.979  0.00  0.00     0.046 C 
ATOM     19  C   UNL d   1       0.357   3.539  -1.212  0.00  0.00     0.098 C 
BRANCH  17  20
ATOM     20  O   UNL d   1       1.907   6.262  -0.843  0.00  0.00    -0.395 OA
ATOM     21  H   UNL d   1       2.344   5.505  -1.268  0.00  0.00     0.210 HD
ENDBRANCH  17  20
ENDBRANCH   1  14
BRANCH   6  22
ATOM     22  C   UNL d   1       3.655  -1.034  -0.143  0.00  0.00     0.432 C 
ATOM     23  F   UNL d   1       3.696  -2.395  -0.097  0.00  0.00    -0.165 F 
ATOM     24  F   UNL d   1       4.355  -0.675  -1.258  0.00  0.00    -0.165 F 
ATOM     25  F   UNL d   1       4.410  -0.605   0.912  0.00  0.00    -0.165 F 
ENDBRANCH   6  22
TORSDOF 3
