REMARK  5 active torsions:
REMARK  status: ('A' for Active; 'I' for Inactive)
REMARK    1  A    between atoms: C_8  and  N_1 
REMARK    2  A    between atoms: C_7  and  C_2 
REMARK    3  A    between atoms: O_16  and  C_9 
REMARK    4  A    between atoms: O_17  and  C_10 
REMARK    5  A    between atoms: O_18  and  C_11 
ROOT
ATOM      1  N   UNL d   1       0.817  -0.613  -0.453  0.00  0.00    -0.269 N 
ATOM      2  C   UNL d   1       0.833   0.717  -0.079  0.00  0.00     0.140 A 
ATOM      3  N   UNL d   1      -0.281   1.142   0.447  0.00  0.00    -0.282 N 
ATOM      4  HN  UNL d   1      -0.490   2.079   0.790  1.00  0.00     0.188 HD
ATOM      5  C   UNL d   1      -0.423  -1.067  -0.020  0.00  0.00     0.199 A 
ATOM      6  N   UNL d   1      -1.104   0.057   0.436  0.00  0.00    -0.274 N 
ATOM      7  S   UNL d   1      -1.057  -2.593   0.161  0.00  0.00    -0.039 SA
ATOM      8  H   UNL d   1      -2.008   0.065   0.890  0.00  0.00     0.189 HD
ENDROOT
BRANCH   2   9
ATOM      9  C   UNL d   1       1.999   1.626  -0.208  0.00  0.00     0.015 A 
ATOM     10  C   UNL d   1       2.843   1.605  -1.319  0.00  0.00     0.055 A 
ATOM     11  C   UNL d   1       4.015   2.375  -1.341  0.00  0.00     0.105 A 
ATOM     12  C   UNL d   1       4.294   3.236  -0.258  0.00  0.00     0.135 A 
ATOM     13  C   UNL d   1       3.393   3.314   0.827  0.00  0.00     0.105 A 
ATOM     14  C   UNL d   1       2.253   2.506   0.845  0.00  0.00     0.055 A 
BRANCH  11  15
ATOM     15  O   UNL d   1       4.920   2.308  -2.365  0.00  0.00    -0.353 OA
ATOM     16  C   UNL d   1       4.507   1.701  -3.583  0.00  0.00     0.210 C 
ENDBRANCH  11  15
BRANCH  12  17
ATOM     17  O   UNL d   1       5.360   4.104  -0.194  0.00  0.00    -0.351 OA
ATOM     18  C   UNL d   1       6.613   3.639  -0.678  0.00  0.00     0.210 C 
ENDBRANCH  12  17
BRANCH  13  19
ATOM     19  O   UNL d   1       3.709   4.209   1.823  0.00  0.00    -0.353 OA
ATOM     20  C   UNL d   1       3.025   4.073   3.062  0.00  0.00     0.210 C 
ENDBRANCH  13  19
ENDBRANCH   2   9
BRANCH   1  21
ATOM     21  C   UNL d   1       1.868  -1.404  -0.990  0.00  0.00     0.065 A 
ATOM     22  C   UNL d   1       1.698  -2.232  -2.122  0.00  0.00     0.061 A 
ATOM     23 CL   UNL d   1       0.237  -2.282  -3.052  0.00  0.00    -0.082 Cl
ATOM     24  C   UNL d   1       2.785  -2.928  -2.669  0.00  0.00     0.026 A 
ATOM     25  C   UNL d   1       4.067  -2.764  -2.149  0.00  0.00     0.002 A 
ATOM     26  C   UNL d   1       4.256  -1.939  -1.046  0.00  0.00     0.002 A 
ATOM     27  C   UNL d   1       3.164  -1.298  -0.453  0.00  0.00     0.032 A 
ENDBRANCH   1  21
TORSDOF 5
