REMARK  2 active torsions:
REMARK  status: ('A' for Active; 'I' for Inactive)
REMARK    1  A    between atoms: C_2  and  C_1 
REMARK    2  A    between atoms: C_4  and  C_2 
ROOT
ATOM      1  C   UNL d   1      -1.591  -1.208  -0.015  0.00  0.00     0.047 A 
ATOM      2  C   UNL d   1      -2.364  -0.060  -0.026  0.00  0.00     0.104 A 
ATOM      3  N   UNL d   1      -1.537   1.033  -0.021  0.00  0.00    -0.364 N 
ATOM      4  C   UNL d   1      -0.219  -0.761  -0.009  0.00  0.00     0.006 A 
ATOM      5  C   UNL d   1      -0.225   0.635  -0.015  0.00  0.00     0.043 A 
ATOM      6  C   UNL d   1       1.033  -1.415  -0.002  0.00  0.00     0.014 A 
ATOM      7  C   UNL d   1       0.946   1.404  -0.017  0.00  0.00     0.030 A 
ATOM      8  C   UNL d   1       2.213  -0.663  -0.008  0.00  0.00     0.001 A 
ATOM      9  C   UNL d   1       2.167   0.728  -0.015  0.00  0.00     0.002 A 
ATOM     10  H   UNL d   1      -1.842   1.998  -0.025  0.00  0.00     0.165 HD
ENDROOT
BRANCH   1  11
ATOM     11  C   UNL d   1      -2.052  -2.608  -0.011  0.00  0.00     0.267 C 
ATOM     12  O   UNL d   1      -1.221  -3.524   0.025  0.00  0.00    -0.282 OA
BRANCH  11  13
ATOM     13  C   UNL d   1      -3.546  -2.942  -0.059  0.00  0.00     0.456 C 
ATOM     14  F   UNL d   1      -4.393  -1.875  -0.067  0.00  0.00    -0.163 F 
ATOM     15  F   UNL d   1      -3.867  -3.669  -1.170  0.00  0.00    -0.163 F 
ATOM     16  F   UNL d   1      -3.931  -3.703   1.007  0.00  0.00    -0.163 F 
ENDBRANCH  11  13
ENDBRANCH   1  11
TORSDOF 2
