REMARK  2 active torsions:
REMARK  status: ('A' for Active; 'I' for Inactive)
REMARK       I    between atoms: C_3  and  N_2 
REMARK    1  A    between atoms: C_15  and  C_3 
REMARK    2  A    between atoms: N_4  and  C_5 
ROOT
ATOM      1  N   UNL d   1       1.834  -5.454   0.467  0.00  0.00    -0.349 N 
ATOM      2  C   UNL d   1       2.009  -6.768   0.878  0.00  0.00     0.224 C 
ATOM      3  N   UNL d   1       1.208  -2.758  -0.299  0.00  0.00    -0.377 N 
ATOM      4  C   UNL d   1       0.987  -5.192  -0.711  0.00  0.00     0.145 C 
ATOM      5  C   UNL d   1       2.717  -4.332   0.823  0.00  0.00     0.145 C 
ATOM      6  C   UNL d   1       0.256  -3.832  -0.643  0.00  0.00     0.143 C 
ATOM      7  C   UNL d   1       1.923  -3.025   0.967  0.00  0.00     0.143 C 
ATOM      8  O   UNL d   1       1.373  -7.688   0.359  0.00  0.00    -0.273 OA
ENDROOT
BRANCH   3   9
ATOM      9  C   UNL d   1       0.827  -1.420  -0.440  0.00  0.00     0.043 A 
ATOM     10  C   UNL d   1       1.806  -0.394  -0.588  0.00  0.00     0.018 A 
ATOM     11  C   UNL d   1       1.419   0.944  -0.693  0.00  0.00     0.044 A 
ATOM     12  C   UNL d   1       3.235  -0.403  -0.682  0.00  0.00     0.033 A 
ATOM     13  N   UNL d   1       2.564   1.701  -0.798  0.00  0.00    -0.365 N 
ATOM     14  C   UNL d   1       0.081   1.344  -0.684  0.00  0.00     0.030 A 
ATOM     15  C   UNL d   1       3.670   0.897  -0.789  0.00  0.00     0.089 A 
ATOM     16  H   UNL d   1       2.578   2.707  -0.880  0.00  0.00     0.165 HD
ATOM     17  C   UNL d   1      -0.883   0.344  -0.573  0.00  0.00     0.005 A 
ATOM     18  C   UNL d   1      -0.519  -1.001  -0.458  0.00  0.00     0.030 A 
ENDBRANCH   3   9
BRANCH   2  19
ATOM     19  C   UNL d   1       2.999  -7.041   2.024  0.00  0.00     0.078 C 
ATOM     20  C   UNL d   1       3.380  -8.529   2.126  0.00  0.00     0.014 C 
ATOM     21  C   UNL d   1       2.321  -9.398   2.802  0.00  0.00     0.001 C 
ATOM     22  C   UNL d   1       1.885  -8.827   4.144  0.00  0.00     0.000 C 
ATOM     23  C   UNL d   1       1.420  -7.384   4.008  0.00  0.00     0.001 C 
ATOM     24  C   UNL d   1       2.492  -6.503   3.372  0.00  0.00     0.014 C 
ENDBRANCH   2  19
TORSDOF 2
