REMARK  3 active torsions:
REMARK  status: ('A' for Active; 'I' for Inactive)
REMARK    1  A    between atoms: C_21  and  C_4 
REMARK    2  A    between atoms: C_7  and  C_11 
REMARK       I    between atoms: C_11  and  N_20 
REMARK    3  A    between atoms: N_20  and  C_25 
ROOT
ATOM      1  C   UNL d   1       3.687  -0.728  -0.280  0.00  0.00    -0.008 A 
ATOM      2  C   UNL d   1       4.572  -0.087   0.597  0.00  0.00     0.016 A 
ATOM      3  C   UNL d   1       4.191  -1.742  -1.100  0.00  0.00     0.016 A 
ATOM      4  C   UNL d   1       6.410  -1.506  -0.144  0.00  0.00     0.035 A 
ATOM      5  C   UNL d   1       5.534  -2.127  -1.031  0.00  0.00     0.030 A 
ATOM      6  C   UNL d   1       5.922  -0.468   0.659  0.00  0.00     0.030 A 
ENDROOT
BRANCH   4   7
ATOM      7  N   UNL d   1       7.769  -1.870  -0.006  0.00  0.00    -0.323 N 
ATOM      8  C   UNL d   1       8.405  -2.925  -0.638  0.00  0.00     0.256 C 
ATOM      9  O   UNL d   1       7.907  -3.711  -1.436  0.00  0.00    -0.267 OA
ATOM     10  H   UNL d   1       8.314  -1.277   0.605  0.00  0.00     0.169 HD
BRANCH   8  11
ATOM     11  C   UNL d   1       9.854  -3.104  -0.329  0.00  0.00     0.034 A 
ATOM     12  C   UNL d   1      10.650  -3.634  -1.371  0.00  0.00     0.051 A 
ATOM     13  C   UNL d   1      12.009  -3.789  -1.055  0.00  0.00     0.086 A 
ATOM     14  N   UNL d   1      13.011  -4.242  -1.818  0.00  0.00    -0.240 N 
ATOM     15  C   UNL d   1      12.550  -3.445   0.251  0.00  0.00     0.085 A 
ATOM     16  O   UNL d   1      14.145  -4.182  -1.025  0.00  0.00    -0.156 OA
ATOM     17  HN  UNL d   1      12.951  -4.566  -2.783  1.00  0.00     0.197 HD
ATOM     18  N   UNL d   1      13.864  -3.694   0.241  0.00  0.00    -0.240 N 
ATOM     19  HN  UNL d   1      14.524  -3.554   1.007  1.00  0.00     0.197 HD
ATOM     20  C   UNL d   1      11.745  -2.943   1.291  0.00  0.00     0.035 A 
ATOM     21  C   UNL d   1      10.381  -2.792   0.960  0.00  0.00     0.019 A 
ENDBRANCH   8  11
ENDBRANCH   4   7
BRANCH   1  22
ATOM     22  C   UNL d   1       2.283  -0.344  -0.321  0.00  0.00     0.060 A 
ATOM     23  N   UNL d   1       1.726   0.620   0.513  0.00  0.00    -0.335 N 
ATOM     24  C   UNL d   1       0.473   0.653   0.158  0.00  0.00     0.147 A 
ATOM     25  HN  UNL d   1       2.191   1.171   1.235  1.00  0.00     0.168 HD
ATOM     26  N   UNL d   1       0.191  -0.214  -0.841  0.00  0.00    -0.335 N 
ATOM     27  S   UNL d   1      -0.903   1.536   0.683  0.00  0.00    -0.092 SA
ATOM     28  C   UNL d   1       1.320  -0.875  -1.174  0.00  0.00     0.123 A 
ATOM     29  C   UNL d   1      -1.153  -0.224  -1.366  0.00  0.00     0.141 C 
ATOM     30  C   UNL d   1      -2.028   0.480  -0.325  0.00  0.00     0.102 C 
ENDBRANCH   1  22
TORSDOF 3
