REMARK  6 active torsions:
REMARK  status: ('A' for Active; 'I' for Inactive)
REMARK    1  A    between atoms: N_2  and  S_1 
REMARK    2  A    between atoms: C_13  and  S_1 
REMARK    3  A    between atoms: N_3  and  N_2 
REMARK    4  A    between atoms: C_5  and  C_7 
REMARK    5  A    between atoms: C_10  and  C_6 
REMARK    6  A    between atoms: N_20  and  C_6 
ROOT
ATOM      1  N   UNL d   1       0.706  -0.277  -2.721  0.00  0.00    -0.279 N 
ATOM      2  HN  UNL d   1       0.457  -0.668  -1.813  1.00  0.00     0.189 HD
ATOM      3  C   UNL d   1       0.307  -0.828  -3.828  0.00  0.00     0.120 C 
ENDROOT
BRANCH   3   4
ATOM      4  C   UNL d   1      -0.551  -2.066  -3.716  0.00  0.00     0.071 A 
ATOM      5  N   UNL d   1      -0.897  -2.652  -4.895  0.00  0.00    -0.362 N 
ATOM      6  C   UNL d   1      -1.645  -3.779  -4.807  0.00  0.00     0.104 A 
ATOM      7  HN  UNL d   1      -0.609  -2.265  -5.794  1.00  0.00     0.165 HD
ATOM      8  C   UNL d   1      -2.054  -4.357  -3.610  0.00  0.00     0.063 A 
ATOM      9  C   UNL d   1      -1.670  -3.728  -2.420  0.00  0.00     0.020 A 
ATOM     10  C   UNL d   1      -0.908  -2.567  -2.470  0.00  0.00     0.034 A 
BRANCH   8  11
ATOM     11  C   UNL d   1      -2.867  -5.616  -3.594  0.00  0.00     0.418 C 
ATOM     12  F   UNL d   1      -3.152  -6.096  -4.836  0.00  0.00    -0.166 F 
ATOM     13  F   UNL d   1      -2.240  -6.630  -2.937  0.00  0.00    -0.166 F 
ATOM     14  F   UNL d   1      -4.066  -5.453  -2.972  0.00  0.00    -0.166 F 
ENDBRANCH   8  11
ENDBRANCH   3   4
BRANCH   3  15
ATOM     15  N   UNL d   1       0.639  -0.388  -5.099  0.00  0.00    -0.286 NA
ATOM     16  H   UNL d   1       1.586  -0.046  -5.180  0.00  0.00     0.125 HD
ATOM     17  H   UNL d   1       0.433  -1.094  -5.807  0.00  0.00     0.125 HD
ENDBRANCH   3  15
BRANCH   1  18
ATOM     18  N   UNL d   1       1.507   0.898  -2.832  0.00  0.00    -0.222 N 
ATOM     19  H   UNL d   1       1.630   1.403  -3.710  0.00  0.00     0.200 HD
BRANCH  18  20
ATOM     20  S   UNL d   1       2.085   1.680  -1.449  0.00  0.00     0.276 S 
ATOM     21  O   UNL d   1       2.872   2.807  -1.920  0.00  0.00    -0.199 OA
ATOM     22  O   UNL d   1       2.652   0.703  -0.544  0.00  0.00    -0.199 OA
BRANCH  20  23
ATOM     23  C   UNL d   1       0.604   2.330  -0.706  0.00  0.00     0.081 A 
ATOM     24  C   UNL d   1      -0.098   1.560   0.229  0.00  0.00     0.025 A 
ATOM     25  C   UNL d   1      -1.201   2.109   0.886  0.00  0.00     0.002 A 
ATOM     26  C   UNL d   1      -1.593   3.422   0.618  0.00  0.00     0.000 A 
ATOM     27  C   UNL d   1      -0.889   4.188  -0.312  0.00  0.00     0.002 A 
ATOM     28  C   UNL d   1       0.214   3.646  -0.974  0.00  0.00     0.025 A 
ENDBRANCH  20  23
ENDBRANCH  18  20
ENDBRANCH   1  18
TORSDOF 6
