REMARK  6 active torsions:
REMARK  status: ('A' for Active; 'I' for Inactive)
REMARK    1  A    between atoms: C_4  and  C_1 
REMARK    2  A    between atoms: C_2  and  C_11 
REMARK    3  A    between atoms: C_3  and  C_10 
REMARK    4  A    between atoms: N_26  and  C_3 
REMARK    5  A    between atoms: N_12  and  N_5 
REMARK       I    between atoms: C_7  and  N_12 
REMARK       I    between atoms: N_13  and  C_7 
REMARK    6  A    between atoms: C_18  and  N_13 
ROOT
ATOM      1  C   UNL d   1       0.377  -1.842  -5.249  0.00  0.00     0.119 C 
ATOM      2  N   UNL d   1      -0.498  -1.340  -6.079  0.00  0.00    -0.284 N 
ATOM      3  HN  UNL d   1      -0.818  -1.822  -6.919  1.00  0.00     0.188 HD
ENDROOT
BRANCH   2   4
ATOM      4  N   UNL d   1      -0.940  -0.103  -5.703  0.00  0.00    -0.250 N 
ATOM      5  C   UNL d   1      -1.607   0.769  -6.530  0.00  0.00     0.339 C 
ATOM      6  N   UNL d   1      -1.769   0.305  -7.810  0.00  0.00    -0.308 N 
ATOM      7  O   UNL d   1      -1.976   1.852  -6.082  0.00  0.00    -0.245 OA
ATOM      8  H   UNL d   1      -1.521  -0.675  -7.899  0.00  0.00     0.170 HD
ATOM      9  H   UNL d   1      -0.816   0.181  -4.737  0.00  0.00     0.192 HD
BRANCH   6  10
ATOM     10  C   UNL d   1      -2.342   0.987  -8.896  0.00  0.00     0.037 A 
ATOM     11  C   UNL d   1      -2.596   2.362  -8.875  0.00  0.00     0.045 A 
ATOM     12  C   UNL d   1      -3.202   3.010  -9.963  0.00  0.00     0.050 A 
ATOM     13  C   UNL d   1      -3.553   2.255 -11.090  0.00  0.00     0.016 A 
ATOM     14  C   UNL d   1      -3.280   0.887 -11.132  0.00  0.00     0.003 A 
ATOM     15  C   UNL d   1      -2.667   0.258 -10.043  0.00  0.00     0.029 A 
BRANCH  12  16
ATOM     16  C   UNL d   1      -3.488   4.489  -9.913  0.00  0.00     0.417 C 
ATOM     17  F   UNL d   1      -2.994   5.114  -8.808  0.00  0.00    -0.166 F 
ATOM     18  F   UNL d   1      -2.961   5.156 -10.979  0.00  0.00    -0.166 F 
ATOM     19  F   UNL d   1      -4.823   4.761  -9.930  0.00  0.00    -0.166 F 
ENDBRANCH  12  16
ENDBRANCH   6  10
ENDBRANCH   2   4
BRANCH   1  20
ATOM     20  C   UNL d   1       0.879  -3.243  -5.458  0.00  0.00     0.071 A 
ATOM     21  C   UNL d   1       0.229  -4.125  -6.306  0.00  0.00     0.034 A 
ATOM     22  C   UNL d   1       0.802  -5.378  -6.503  0.00  0.00     0.020 A 
ATOM     23  C   UNL d   1       2.002  -5.706  -5.857  0.00  0.00     0.063 A 
ATOM     24  C   UNL d   1       2.557  -4.761  -5.004  0.00  0.00     0.104 A 
ATOM     25  N   UNL d   1       2.025  -3.537  -4.783  0.00  0.00    -0.362 N 
ATOM     26  HN  UNL d   1       2.459  -2.869  -4.145  1.00  0.00     0.165 HD
BRANCH  23  27
ATOM     27  C   UNL d   1       2.683  -7.019  -6.095  0.00  0.00     0.418 C 
ATOM     28  F   UNL d   1       3.856  -7.155  -5.418  0.00  0.00    -0.166 F 
ATOM     29  F   UNL d   1       2.988  -7.210  -7.408  0.00  0.00    -0.166 F 
ATOM     30  F   UNL d   1       1.914  -8.080  -5.731  0.00  0.00    -0.166 F 
ENDBRANCH  23  27
ENDBRANCH   1  20
BRANCH   1  31
ATOM     31  N   UNL d   1       0.938  -1.122  -4.204  0.00  0.00    -0.286 NA
ATOM     32  H   UNL d   1       1.758  -1.605  -3.829  0.00  0.00     0.125 HD
ATOM     33  H   UNL d   1       1.194  -0.181  -4.487  0.00  0.00     0.125 HD
ENDBRANCH   1  31
TORSDOF 6
