REMARK  9 active torsions:
REMARK  status: ('A' for Active; 'I' for Inactive)
REMARK    1  A    between atoms: C_14  and  C_1 
REMARK    2  A    between atoms: N_10  and  C_2 
REMARK    3  A    between atoms: C_15  and  C_6 
REMARK    4  A    between atoms: C_11  and  C_9 
REMARK       I    between atoms: C_13  and  N_10 
REMARK    5  A    between atoms: C_16  and  C_13 
REMARK    6  A    between atoms: O_25  and  C_14 
REMARK    7  A    between atoms: O_26  and  C_15 
REMARK    8  A    between atoms: C_31  and  O_25 
REMARK    9  A    between atoms: C_32  and  O_26 
ROOT
ATOM      1  C   UNL d   1      -1.985   0.866   0.098  0.00  0.00     0.110 C 
ATOM      2  C   UNL d   1      -0.839   1.637   0.255  0.00  0.00     0.071 C 
ATOM      3  C   UNL d   1       0.355   0.820   0.329  0.00  0.00     0.027 A 
ATOM      4  C   UNL d   1       0.048  -0.503   0.054  0.00  0.00     0.088 A 
ATOM      5  S   UNL d   1      -1.603  -0.772  -0.202  0.00  0.00    -0.063 SA
ATOM      6  C   UNL d   1       2.638   0.004   0.643  0.00  0.00     0.072 A 
ATOM      7  N   UNL d   1       0.894  -1.544   0.014  0.00  0.00    -0.345 N 
ATOM      8  HN  UNL d   1       0.580  -2.482  -0.233  1.00  0.00     0.166 HD
ATOM      9  C   UNL d   1       2.194  -1.280   0.320  0.00  0.00     0.134 A 
ATOM     10  C   UNL d   1       1.709   1.068   0.661  0.00  0.00     0.036 A 
ENDROOT
BRANCH   2  11
ATOM     11  N   UNL d   1      -0.932   3.031   0.378  0.00  0.00    -0.321 N 
ATOM     12  C   UNL d   1      -0.134   3.873  -0.382  0.00  0.00     0.256 C 
ATOM     13  O   UNL d   1       0.776   3.488  -1.111  0.00  0.00    -0.267 OA
ATOM     14  H   UNL d   1      -1.851   3.377   0.636  0.00  0.00     0.169 HD
BRANCH  12  15
ATOM     15  C   UNL d   1      -0.442   5.340  -0.320  0.00  0.00     0.032 A 
ATOM     16  C   UNL d   1       0.565   6.223  -0.745  0.00  0.00     0.018 A 
ATOM     17  C   UNL d   1       0.391   7.608  -0.658  0.00  0.00     0.025 A 
ATOM     18  C   UNL d   1      -0.801   8.122  -0.157  0.00  0.00     0.034 A 
ATOM     19  C   UNL d   1      -1.829   7.263   0.228  0.00  0.00     0.025 A 
ATOM     20 CL   UNL d   1      -1.004   9.823  -0.008  0.00  0.00    -0.084 Cl
ATOM     21  C   UNL d   1      -1.655   5.874   0.143  0.00  0.00     0.018 A 
ENDBRANCH  12  15
ENDBRANCH   2  11
BRANCH   1  22
ATOM     22  C   UNL d   1      -3.360   1.321   0.140  0.00  0.00     0.302 C 
ATOM     23  O   UNL d   1      -3.690   2.482   0.388  0.00  0.00    -0.259 OA
BRANCH  22  24
ATOM     24  O   UNL d   1      -4.229   0.290  -0.026  0.00  0.00    -0.317 OA
BRANCH  24  25
ATOM     25  C   UNL d   1      -5.574   0.503   0.414  0.00  0.00     0.174 C 
ATOM     26  C   UNL d   1      -5.642   0.189   1.898  0.00  0.00     0.034 C 
ENDBRANCH  24  25
ENDBRANCH  22  24
ENDBRANCH   1  22
BRANCH   6  27
ATOM     27  C   UNL d   1       4.028   0.339   1.019  0.00  0.00     0.295 C 
ATOM     28  O   UNL d   1       4.308   1.071   1.956  0.00  0.00    -0.259 OA
BRANCH  27  29
ATOM     29  O   UNL d   1       4.885  -0.192   0.119  0.00  0.00    -0.318 OA
BRANCH  29  30
ATOM     30  C   UNL d   1       6.276   0.130   0.297  0.00  0.00     0.174 C 
ATOM     31  C   UNL d   1       6.917  -0.661   1.426  0.00  0.00     0.034 C 
ENDBRANCH  29  30
ENDBRANCH  27  29
ENDBRANCH   6  27
BRANCH   9  32
ATOM     32  C   UNL d   1       3.091  -2.507   0.286  0.00  0.00     0.433 C 
ATOM     33  F   UNL d   1       4.287  -2.401   0.926  0.00  0.00    -0.165 F 
ATOM     34  F   UNL d   1       2.497  -3.591   0.877  0.00  0.00    -0.165 F 
ATOM     35  F   UNL d   1       3.376  -2.907  -0.989  0.00  0.00    -0.165 F 
ENDBRANCH   9  32
TORSDOF 9
