REMARK  1 active torsions:
REMARK  status: ('A' for Active; 'I' for Inactive)
REMARK    1  A    between atoms: C_4  and  C_1 
REMARK       I    between atoms: N_5  and  C_4 
ROOT
ATOM      1  C   UNL d   1       5.729  -1.219   0.253  0.00  0.00     0.262 C 
ATOM      2  N   UNL d   1       4.878  -2.295  -0.029  0.00  0.00    -0.343 N 
ATOM      3  C   UNL d   1       5.190  -3.538   0.664  0.00  0.00     0.165 C 
ATOM      4  C   UNL d   1       4.380  -4.732   0.222  0.00  0.00    -0.034 A 
ATOM      5  C   UNL d   1       3.478  -2.099  -0.403  0.00  0.00     0.131 C 
ATOM      6  O   UNL d   1       6.628  -1.319   1.089  0.00  0.00    -0.267 OA
ATOM      7  C   UNL d   1       3.267  -4.600  -0.624  0.00  0.00    -0.049 A 
ATOM      8  C   UNL d   1       2.931  -3.261  -1.226  0.00  0.00     0.059 C 
ATOM      9  C   UNL d   1       4.726  -6.004   0.707  0.00  0.00     0.009 A 
ATOM     10  C   UNL d   1       2.517  -5.734  -0.968  0.00  0.00     0.008 A 
ATOM     11  C   UNL d   1       3.974  -7.126   0.360  0.00  0.00     0.001 A 
ATOM     12  C   UNL d   1       2.865  -6.989  -0.471  0.00  0.00     0.001 A 
ENDROOT
BRANCH   1  13
ATOM     13  C   UNL d   1       5.568  -0.019  -0.534  0.00  0.00     0.096 A 
ATOM     14  S   UNL d   1       4.917   1.383   0.175  0.00  0.00    -0.082 SA
ATOM     15  C   UNL d   1       5.186   2.318  -1.248  0.00  0.00     0.017 A 
ATOM     16  C   UNL d   1       4.886   3.683  -1.433  0.00  0.00     0.020 A 
ATOM     17  C   UNL d   1       5.782   1.556  -2.258  0.00  0.00     0.004 A 
ATOM     18  C   UNL d   1       5.216   4.293  -2.647  0.00  0.00     0.001 A 
ATOM     19  C   UNL d   1       5.825   3.565  -3.658  0.00  0.00     0.001 A 
ATOM     20  C   UNL d   1       6.105   2.208  -3.478  0.00  0.00     0.014 A 
ATOM     21  C   UNL d   1       5.975   0.196  -1.831  0.00  0.00     0.068 A 
ATOM     22 CL   UNL d   1       6.693  -0.997  -2.838  0.00  0.00    -0.082 Cl
ENDBRANCH   1  13
TORSDOF 1
