REMARK  6 active torsions:
REMARK  status: ('A' for Active; 'I' for Inactive)
REMARK    1  A    between atoms: N_14  and  C_3 
REMARK    2  A    between atoms: C_12  and  C_10 
REMARK    3  A    between atoms: C_15  and  C_11 
REMARK    4  A    between atoms: C_13  and  C_18 
REMARK    5  A    between atoms: N_16  and  N_14 
REMARK    6  A    between atoms: C_28  and  C_27 
ROOT
ATOM      1  N   UNL d   1       0.241   0.671   0.024  0.00  0.00    -0.222 N 
ATOM      2  C   UNL d   1       0.114  -0.722   0.038  0.00  0.00     0.131 A 
ATOM      3  C   UNL d   1      -0.915   1.488   0.026  0.00  0.00     0.145 A 
ATOM      4  N   UNL d   1       1.556   1.050   0.006  0.00  0.00    -0.294 N 
ATOM      5  HN  UNL d   1       1.929   1.999   0.007  1.00  0.00     0.187 HD
ATOM      6  N   UNL d   1      -1.090  -1.362   0.068  0.00  0.00    -0.337 N 
ATOM      7  HN  UNL d   1      -1.154  -2.380   0.086  1.00  0.00     0.167 HD
ATOM      8  C   UNL d   1       1.390  -1.223   0.020  0.00  0.00     0.077 A 
ATOM      9  C   UNL d   1      -2.118   0.883   0.045  0.00  0.00     0.086 A 
ATOM     10  C   UNL d   1      -2.160  -0.610   0.074  0.00  0.00     0.121 A 
ATOM     11  C   UNL d   1       2.250  -0.102  -0.013  0.00  0.00     0.037 A 
ENDROOT
BRANCH   3  12
ATOM     12  N   UNL d   1      -0.772   2.871   0.009  0.00  0.00    -0.284 N 
ATOM     13  H   UNL d   1       0.196   3.207   0.018  0.00  0.00     0.188 HD
BRANCH  12  14
ATOM     14  N   UNL d   1      -1.851   3.691  -0.016  0.00  0.00    -0.309 N 
ATOM     15  C   UNL d   1      -1.649   4.967  -0.028  0.00  0.00     0.118 C 
ATOM     16  HN  UNL d   1      -2.797   3.311  -0.025  1.00  0.00     0.186 HD
BRANCH  15  17
ATOM     17  C   UNL d   1      -2.805   5.896  -0.056  0.00  0.00    -0.019 A 
ATOM     18  C   UNL d   1      -4.111   5.392  -0.089  0.00  0.00     0.013 A 
ATOM     19  C   UNL d   1      -5.205   6.261  -0.107  0.00  0.00     0.017 A 
ATOM     20  C   UNL d   1      -5.008   7.649  -0.090  0.00  0.00     0.048 A 
ATOM     21  C   UNL d   1      -3.693   8.147  -0.061  0.00  0.00     0.017 A 
ATOM     22  C   UNL d   1      -2.594   7.276  -0.044  0.00  0.00     0.013 A 
BRANCH  20  23
ATOM     23  C   UNL d   1      -6.184   8.600  -0.098  0.00  0.00     0.417 C 
ATOM     24  F   UNL d   1      -7.393   7.972  -0.129  0.00  0.00    -0.166 F 
ATOM     25  F   UNL d   1      -6.209   9.402   1.002  0.00  0.00    -0.166 F 
ATOM     26  F   UNL d   1      -6.170   9.436  -1.172  0.00  0.00    -0.166 F 
ENDBRANCH  20  23
ENDBRANCH  15  17
ENDBRANCH  12  14
ENDBRANCH   3  12
BRANCH  10  27
ATOM     27  C   UNL d   1      -3.547  -1.253   0.116  0.00  0.00     0.432 C 
ATOM     28  F   UNL d   1      -4.559  -0.339   0.127  0.00  0.00    -0.165 F 
ATOM     29  F   UNL d   1      -3.777  -2.057  -0.958  0.00  0.00    -0.165 F 
ATOM     30  F   UNL d   1      -3.724  -2.023   1.225  0.00  0.00    -0.165 F 
ENDBRANCH  10  27
BRANCH  11  31
ATOM     31  C   UNL d   1       3.775  -0.124  -0.017  0.00  0.00    -0.007 C 
ATOM     32  C   UNL d   1       4.294  -0.159   1.434  0.00  0.00     0.021 C 
ATOM     33  C   UNL d   1       4.310  -1.376  -0.751  0.00  0.00     0.021 C 
ATOM     34  C   UNL d   1       4.365   1.111  -0.727  0.00  0.00     0.021 C 
ENDBRANCH  11  31
TORSDOF 6
