REMARK  5 active torsions:
REMARK  status: ('A' for Active; 'I' for Inactive)
REMARK    1  A    between atoms: C_11  and  C_3 
REMARK    2  A    between atoms: C_12  and  C_6 
REMARK    3  A    between atoms: O_16  and  C_12 
REMARK    4  A    between atoms: N_13  and  O_16 
REMARK    5  A    between atoms: C_22  and  C_20 
ROOT
ATOM      1  C   UNL d   1       0.180   0.601  -0.034  0.00  0.00     0.172 A 
ATOM      2  N   UNL d   1      -0.073  -0.739  -0.055  0.00  0.00    -0.235 N 
ATOM      3  C   UNL d   1      -1.890   0.322  -0.015  0.00  0.00     0.207 A 
ATOM      4  N   UNL d   1      -0.907   1.313  -0.007  0.00  0.00    -0.316 N 
ATOM      5  HN  UNL d   1      -1.014   2.327   0.014  1.00  0.00     0.169 HD
ATOM      6  C   UNL d   1       2.180  -0.806  -0.040  0.00  0.00     0.109 A 
ATOM      7  N   UNL d   1      -1.402  -0.945  -0.043  0.00  0.00    -0.273 N 
ATOM      8  HN  UNL d   1      -1.913  -1.828  -0.053  1.00  0.00     0.189 HD
ATOM      9  C   UNL d   1       1.050  -1.548  -0.059  0.00  0.00     0.056 A 
ATOM     10  S   UNL d   1       1.875   0.941  -0.031  0.00  0.00    -0.044 SA
ATOM     11  C   UNL d   1       0.915  -3.032  -0.040  0.00  0.00     0.072 C 
ENDROOT
BRANCH   6  12
ATOM     12  C   UNL d   1       3.552  -1.360   0.070  0.00  0.00     0.324 C 
ATOM     13  O   UNL d   1       3.786  -2.564   0.051  0.00  0.00    -0.257 OA
BRANCH  12  14
ATOM     14  O   UNL d   1       4.468  -0.367   0.269  0.00  0.00    -0.195 OA
BRANCH  14  15
ATOM     15  N   UNL d   1       5.381  -0.796   1.249  0.00  0.00    -0.268 N 
ATOM     16  C   UNL d   1       6.369   0.032   1.338  0.00  0.00     0.126 C 
ATOM     17  HN  UNL d   1       5.278  -1.642   1.810  1.00  0.00     0.194 HD
BRANCH  16  18
ATOM     18  C   UNL d   1       7.371  -0.104   2.412  0.00  0.00    -0.019 A 
ATOM     19  C   UNL d   1       7.200  -1.066   3.414  0.00  0.00     0.013 A 
ATOM     20  C   UNL d   1       8.104  -1.137   4.472  0.00  0.00     0.001 A 
ATOM     21  C   UNL d   1       9.182  -0.254   4.526  0.00  0.00     0.000 A 
ATOM     22  C   UNL d   1       9.358   0.700   3.520  0.00  0.00     0.001 A 
ATOM     23  C   UNL d   1       8.451   0.780   2.461  0.00  0.00     0.013 A 
ENDBRANCH  16  18
ENDBRANCH  14  15
ENDBRANCH  12  14
ENDBRANCH   6  12
BRANCH   3  24
ATOM     24  C   UNL d   1      -3.373   0.633  -0.002  0.00  0.00     0.450 C 
ATOM     25  F   UNL d   1      -3.632   1.969   0.030  0.00  0.00    -0.163 F 
ATOM     26  F   UNL d   1      -4.007   0.146  -1.105  0.00  0.00    -0.163 F 
ATOM     27  F   UNL d   1      -4.002   0.093   1.079  0.00  0.00    -0.163 F 
ENDBRANCH   3  24
TORSDOF 5
