REMARK  5 active torsions:
REMARK  status: ('A' for Active; 'I' for Inactive)
REMARK    1  A    between atoms: N_2  and  C_1 
REMARK    2  A    between atoms: N_9  and  C_3 
REMARK    3  A    between atoms: N_10  and  C_4 
REMARK    4  A    between atoms: C_15  and  N_9 
REMARK    5  A    between atoms: C_14  and  N_10 
ROOT
ATOM      1  C   UNL d   1      -0.134  -1.522  -0.016  0.00  0.00     0.190 A 
ATOM      2  C   UNL d   1       1.099  -0.902  -0.198  0.00  0.00     0.144 A 
ATOM      3  C   UNL d   1      -1.270  -0.738   0.153  0.00  0.00     0.144 A 
ATOM      4  N   UNL d   1      -1.160   0.605   0.126  0.00  0.00    -0.336 N 
ATOM      5  HN  UNL d   1      -1.982   1.199   0.230  1.00  0.00     0.168 HD
ATOM      6  N   UNL d   1       1.172   0.443  -0.193  0.00  0.00    -0.336 N 
ATOM      7  HN  UNL d   1       2.068   0.918  -0.306  1.00  0.00     0.168 HD
ATOM      8  C   UNL d   1       0.048   1.136  -0.038  0.00  0.00     0.183 A 
ENDROOT
BRANCH   2   9
ATOM      9  N   UNL d   1       2.287  -1.632  -0.459  0.00  0.00    -0.340 N 
ATOM     10  H   UNL d   1       2.349  -2.454   0.147  0.00  0.00     0.167 HD
BRANCH   9  11
ATOM     11  C   UNL d   1       3.570  -1.098  -0.742  0.00  0.00     0.033 A 
ATOM     12  C   UNL d   1       3.751   0.112  -1.429  0.00  0.00     0.031 A 
ATOM     13  C   UNL d   1       5.025   0.647  -1.640  0.00  0.00     0.026 A 
ATOM     14  C   UNL d   1       6.143  -0.052  -1.208  0.00  0.00     0.034 A 
ATOM     15  C   UNL d   1       5.996  -1.294  -0.594  0.00  0.00     0.026 A 
ATOM     16 CL   UNL d   1       7.710   0.616  -1.437  0.00  0.00    -0.084 Cl
ATOM     17  C   UNL d   1       4.716  -1.818  -0.373  0.00  0.00     0.031 A 
ENDBRANCH   9  11
ENDBRANCH   2   9
BRANCH   1  18
ATOM     18  N   UNL d   1      -0.232  -2.953  -0.005  0.00  0.00    -0.108 N 
ATOM     19  O   UNL d   1       0.631  -3.581   0.630  0.00  0.00    -0.532 OA
ATOM     20  O   UNL d   1      -1.172  -3.468  -0.627  0.00  0.00    -0.532 OA
ENDBRANCH   1  18
BRANCH   3  21
ATOM     21  N   UNL d   1      -2.548  -1.296   0.425  0.00  0.00    -0.340 N 
ATOM     22  H   UNL d   1      -2.718  -2.113  -0.165  0.00  0.00     0.167 HD
BRANCH  21  23
ATOM     23  C   UNL d   1      -3.747  -0.587   0.689  0.00  0.00     0.033 A 
ATOM     24  C   UNL d   1      -3.766   0.653   1.347  0.00  0.00     0.031 A 
ATOM     25  C   UNL d   1      -4.957   1.358   1.540  0.00  0.00     0.026 A 
ATOM     26  C   UNL d   1      -6.159   0.803   1.121  0.00  0.00     0.034 A 
ATOM     27  C   UNL d   1      -6.178  -0.461   0.538  0.00  0.00     0.026 A 
ATOM     28 CL   UNL d   1      -7.623   1.680   1.326  0.00  0.00    -0.084 Cl
ATOM     29  C   UNL d   1      -4.979  -1.157   0.334  0.00  0.00     0.031 A 
ENDBRANCH  21  23
ENDBRANCH   3  21
TORSDOF 5
