REMARK  3 active torsions:
REMARK  status: ('A' for Active; 'I' for Inactive)
REMARK    1  A    between atoms: C_11  and  C_2 
REMARK    2  A    between atoms: C_13  and  C_10 
REMARK    3  A    between atoms: C_16  and  C_12 
ROOT
ATOM      1  N   UNL d   1       0.294   0.636   0.007  0.00  0.00    -0.235 N 
ATOM      2  C   UNL d   1      -0.828   1.453   0.029  0.00  0.00     0.144 A 
ATOM      3  C   UNL d   1       0.154  -0.761  -0.023  0.00  0.00     0.130 A 
ATOM      4  N   UNL d   1       1.599   0.986   0.012  0.00  0.00    -0.296 N 
ATOM      5  HN  UNL d   1       1.987   1.929   0.036  1.00  0.00     0.187 HD
ATOM      6  N   UNL d   1      -1.064  -1.379  -0.003  0.00  0.00    -0.339 N 
ATOM      7  HN  UNL d   1      -1.148  -2.396  -0.022  1.00  0.00     0.167 HD
ATOM      8  C   UNL d   1      -2.051   0.892   0.042  0.00  0.00     0.068 A 
ATOM      9  C   UNL d   1       1.430  -1.280  -0.061  0.00  0.00     0.077 A 
ATOM     10  C   UNL d   1       2.271  -0.162  -0.020  0.00  0.00     0.034 A 
ATOM     11  C   UNL d   1      -2.118  -0.608   0.040  0.00  0.00     0.062 A 
ENDROOT
BRANCH  11  12
ATOM     12  C   UNL d   1      -3.492  -1.209   0.104  0.00  0.00     0.059 A 
ATOM     13  N   UNL d   1      -4.537  -0.342   0.159  0.00  0.00    -0.364 N 
ATOM     14  C   UNL d   1      -5.773  -0.880   0.243  0.00  0.00     0.088 A 
ATOM     15  HN  UNL d   1      -4.394   0.667   0.138  1.00  0.00     0.165 HD
ATOM     16  C   UNL d   1      -6.022  -2.242   0.275  0.00  0.00     0.017 A 
ATOM     17  C   UNL d   1      -4.938  -3.111   0.216  0.00  0.00     0.004 A 
ATOM     18  C   UNL d   1      -3.649  -2.591   0.129  0.00  0.00     0.032 A 
ENDBRANCH  11  12
BRANCH   2  19
ATOM     19  C   UNL d   1      -0.652   2.925   0.039  0.00  0.00     0.434 C 
ATOM     20  F   UNL d   1       0.616   3.393  -0.021  0.00  0.00    -0.165 F 
ATOM     21  F   UNL d   1      -1.312   3.493  -1.010  0.00  0.00    -0.165 F 
ATOM     22  F   UNL d   1      -1.206   3.468   1.159  0.00  0.00    -0.165 F 
ENDBRANCH   2  19
BRANCH  10  23
ATOM     23  C   UNL d   1       3.790  -0.236  -0.003  0.00  0.00     0.037 A 
ATOM     24  C   UNL d   1       4.550   0.812   0.789  0.00  0.00     0.011 A 
ATOM     25  C   UNL d   1       4.576   0.857  -0.700  0.00  0.00     0.011 A 
ENDBRANCH  10  23
TORSDOF 3
