REMARK  6 active torsions:
REMARK  status: ('A' for Active; 'I' for Inactive)
REMARK    1  A    between atoms: N_8  and  C_1 
REMARK    2  A    between atoms: N_9  and  C_1 
REMARK    3  A    between atoms: N_2  and  N_9 
REMARK    4  A    between atoms: C_5  and  C_17 
REMARK    5  A    between atoms: C_17  and  N_8 
REMARK    6  A    between atoms: C_18  and  C_16 
ROOT
ATOM      1  N   UNL d   1       2.419  -0.151   0.159  0.00  0.00    -0.277 N 
ATOM      2  H   UNL d   1       2.899  -0.114  -0.732  0.00  0.00     0.189 HD
ENDROOT
BRANCH   1   3
ATOM      3  N   UNL d   1       3.119  -0.137   1.331  0.00  0.00    -0.309 N 
ATOM      4  C   UNL d   1       4.406  -0.117   1.225  0.00  0.00     0.118 C 
ATOM      5  HN  UNL d   1       2.652  -0.142   2.238  1.00  0.00     0.186 HD
BRANCH   4   6
ATOM      6  C   UNL d   1       5.249  -0.058   2.435  0.00  0.00    -0.018 A 
ATOM      7  C   UNL d   1       4.646  -0.029   3.699  0.00  0.00     0.038 A 
ATOM      8  C   UNL d   1       5.434   0.047   4.849  0.00  0.00     0.056 A 
ATOM      9 CL   UNL d   1       4.624   0.086   6.373  0.00  0.00    -0.083 Cl
ATOM     10  C   UNL d   1       6.828   0.091   4.734  0.00  0.00     0.055 A 
ATOM     11  C   UNL d   1       7.426   0.059   3.468  0.00  0.00     0.026 A 
ATOM     12 CL   UNL d   1       7.865   0.191   6.111  0.00  0.00    -0.083 Cl
ATOM     13  C   UNL d   1       6.637  -0.016   2.314  0.00  0.00     0.014 A 
ENDBRANCH   4   6
ENDBRANCH   1   3
BRANCH   1  14
ATOM     14  C   UNL d   1       1.055   0.054   0.165  0.00  0.00     0.186 C 
ATOM     15  S   UNL d   1       0.256   0.292  -1.278  0.00  0.00    -0.040 SA
BRANCH  14  16
ATOM     16  N   UNL d   1       0.504   0.078   1.419  0.00  0.00    -0.360 N 
ATOM     17  H   UNL d   1       1.186  -0.086   2.154  0.00  0.00     0.162 HD
BRANCH  16  18
ATOM     18  C   UNL d   1      -0.767   0.673   1.764  0.00  0.00     0.187 C 
BRANCH  18  19
ATOM     19  C   UNL d   1      -1.040   0.552   3.218  0.00  0.00     0.070 A 
ATOM     20  O   UNL d   1      -1.178  -0.708   3.726  0.00  0.00    -0.325 OA
ATOM     21  C   UNL d   1      -1.507  -0.574   5.037  0.00  0.00     0.142 A 
ATOM     22  C   UNL d   1      -1.577   0.754   5.384  0.00  0.00     0.027 A 
ATOM     23  C   UNL d   1      -1.262   1.484   4.213  0.00  0.00     0.036 A 
ENDBRANCH  18  19
ENDBRANCH  16  18
ENDBRANCH  14  16
ENDBRANCH   1  14
TORSDOF 6
