REMARK  6 active torsions:
REMARK  status: ('A' for Active; 'I' for Inactive)
REMARK    1  A    between atoms: N_6  and  C_1 
REMARK    2  A    between atoms: C_7  and  C_1 
REMARK    3  A    between atoms: C_8  and  C_2 
REMARK    4  A    between atoms: C_3  and  C_12 
REMARK    5  A    between atoms: O_14  and  N_9 
REMARK    6  A    between atoms: C_12  and  O_14 
ROOT
ATOM      1  C   UNL d   1       4.533   1.158  -0.292  0.00  0.00     0.320 C 
ATOM      2  O   UNL d   1       3.441   1.312  -0.822  0.00  0.00    -0.257 OA
ENDROOT
BRANCH   1   3
ATOM      3  C   UNL d   1       5.141  -0.135  -0.088  0.00  0.00     0.102 A 
ATOM      4  C   UNL d   1       6.155  -0.600   0.811  0.00  0.00     0.087 A 
ATOM      5  N   UNL d   1       6.404  -1.900   0.573  0.00  0.00    -0.259 N 
ATOM      6  O   UNL d   1       5.633  -2.266  -0.508  0.00  0.00    -0.241 OA
ATOM      7  HN  UNL d   1       7.043  -2.501   1.094  1.00  0.00     0.195 HD
ATOM      8  C   UNL d   1       4.876  -1.216  -0.900  0.00  0.00     0.091 A 
ATOM      9  C   UNL d   1       4.014  -1.407  -2.087  0.00  0.00     0.080 C 
BRANCH   4  10
ATOM     10  C   UNL d   1       6.889   0.126   1.863  0.00  0.00     0.037 A 
ATOM     11  C   UNL d   1       6.221   0.921   2.818  0.00  0.00     0.048 A 
ATOM     12 CL   UNL d   1       4.494   0.948   2.983  0.00  0.00    -0.083 Cl
ATOM     13  C   UNL d   1       6.930   1.721   3.728  0.00  0.00     0.025 A 
ATOM     14  C   UNL d   1       8.319   1.693   3.757  0.00  0.00     0.003 A 
ATOM     15  C   UNL d   1       9.001   0.857   2.881  0.00  0.00     0.025 A 
ATOM     16  C   UNL d   1       8.302   0.093   1.931  0.00  0.00     0.048 A 
ATOM     17 CL   UNL d   1       9.292  -0.830   0.846  0.00  0.00    -0.083 Cl
ENDBRANCH   4  10
ENDBRANCH   1   3
BRANCH   1  18
ATOM     18  O   UNL d   1       5.385   2.169   0.064  0.00  0.00    -0.193 OA
BRANCH  18  19
ATOM     19  N   UNL d   1       5.316   3.164  -0.917  0.00  0.00    -0.235 N 
ATOM     20  C   UNL d   1       6.201   4.108  -0.826  0.00  0.00     0.207 C 
ATOM     21  HN  UNL d   1       4.615   3.148  -1.657  1.00  0.00     0.197 HD
BRANCH  20  22
ATOM     22  N   UNL d   1       7.127   4.035   0.312  0.00  0.00    -0.095 N 
ATOM     23  O   UNL d   1       7.811   3.013   0.440  0.00  0.00    -0.530 OA
ATOM     24  O   UNL d   1       7.182   5.048   1.025  0.00  0.00    -0.530 OA
ENDBRANCH  20  22
BRANCH  20  25
ATOM     25  C   UNL d   1       6.300   5.220  -1.777  0.00  0.00     0.059 A 
ATOM     26  C   UNL d   1       7.537   5.631  -2.303  0.00  0.00     0.050 A 
ATOM     27 CL   UNL d   1       9.050   4.893  -1.908  0.00  0.00    -0.083 Cl
ATOM     28  C   UNL d   1       7.593   6.647  -3.268  0.00  0.00     0.025 A 
ATOM     29  C   UNL d   1       6.426   7.230  -3.741  0.00  0.00     0.003 A 
ATOM     30  C   UNL d   1       5.192   6.814  -3.249  0.00  0.00     0.025 A 
ATOM     31  C   UNL d   1       5.125   5.824  -2.263  0.00  0.00     0.050 A 
ATOM     32 CL   UNL d   1       3.538   5.450  -1.682  0.00  0.00    -0.083 Cl
ENDBRANCH  20  25
ENDBRANCH  18  19
ENDBRANCH   1  18
TORSDOF 6
