REMARK  7 active torsions:
REMARK  status: ('A' for Active; 'I' for Inactive)
REMARK    1  A    between atoms: C_2  and  C_1 
REMARK       I    between atoms: N_11  and  C_2 
REMARK    2  A    between atoms: C_3  and  C_4 
REMARK    3  A    between atoms: O_19  and  C_5 
REMARK       I    between atoms: C_8  and  N_16 
REMARK       I    between atoms: N_17  and  C_8 
REMARK    4  A    between atoms: C_10  and  C_21 
REMARK    5  A    between atoms: N_16  and  N_11 
REMARK    6  A    between atoms: C_23  and  N_17 
REMARK    7  A    between atoms: C_21  and  O_19 
ROOT
ATOM      1  C   UNL d   1       0.229   1.104   0.065  0.00  0.00     0.107 A 
ATOM      2  C   UNL d   1       1.494   0.559  -0.118  0.00  0.00     0.092 A 
ATOM      3  S   UNL d   1      -0.960  -0.138   0.223  0.00  0.00    -0.094 SA
ATOM      4  C   UNL d   1       1.470  -0.874  -0.039  0.00  0.00     0.045 A 
ATOM      5  C   UNL d   1       0.200  -1.375   0.119  0.00  0.00     0.053 A 
ENDROOT
BRANCH   1   6
ATOM      6  C   UNL d   1      -0.238   2.483   0.130  0.00  0.00     0.279 C 
ATOM      7  N   UNL d   1       0.732   3.460  -0.044  0.00  0.00    -0.261 N 
ATOM      8  H   UNL d   1       1.604   3.185  -0.496  0.00  0.00     0.190 HD
ATOM      9  O   UNL d   1      -1.420   2.809   0.305  0.00  0.00    -0.265 OA
BRANCH   7  10
ATOM     10  N   UNL d   1       0.270   4.775  -0.238  0.00  0.00    -0.249 N 
ATOM     11  C   UNL d   1       1.059   5.894  -0.197  0.00  0.00     0.335 C 
ATOM     12  N   UNL d   1       2.346   5.655   0.186  0.00  0.00    -0.334 N 
ATOM     13  O   UNL d   1       0.602   6.993  -0.480  0.00  0.00    -0.246 OA
ATOM     14  H   UNL d   1       2.554   4.686   0.370  0.00  0.00     0.165 HD
ATOM     15  H   UNL d   1      -0.734   4.900  -0.364  0.00  0.00     0.192 HD
BRANCH  12  16
ATOM     16  C   UNL d   1       3.486   6.569   0.075  0.00  0.00     0.023 C 
ATOM     17  C   UNL d   1       3.154   8.033   0.412  0.00  0.00     0.037 C 
ATOM     18  C   UNL d   1       4.536   6.085   1.092  0.00  0.00     0.037 C 
ATOM     19  C   UNL d   1       4.033   6.511  -1.359  0.00  0.00     0.037 C 
ENDBRANCH  12  16
ENDBRANCH   7  10
ENDBRANCH   1   6
BRANCH   2  20
ATOM     20  O   UNL d   1       2.586   1.356  -0.333  0.00  0.00    -0.344 OA
BRANCH  20  21
ATOM     21  C   UNL d   1       3.779   0.617  -0.663  0.00  0.00     0.234 C 
BRANCH  21  22
ATOM     22  C   UNL d   1       4.923   1.484  -1.160  0.00  0.00     0.055 A 
ATOM     23  N   UNL d   1       4.929   2.802  -0.820  0.00  0.00    -0.365 N 
ATOM     24  C   UNL d   1       5.950   3.562  -1.289  0.00  0.00     0.104 A 
ATOM     25  HN  UNL d   1       4.195   3.202  -0.235  1.00  0.00     0.165 HD
ATOM     26  C   UNL d   1       6.965   3.106  -2.111  0.00  0.00     0.064 A 
ATOM     27  C   UNL d   1       6.974   1.746  -2.411  0.00  0.00     0.043 A 
ATOM     28  C   UNL d   1       5.962   0.921  -1.915  0.00  0.00     0.059 A 
ATOM     29 CL   UNL d   1       6.057  -0.766  -2.264  0.00  0.00    -0.082 Cl
BRANCH  26  30
ATOM     30  C   UNL d   1       7.956   4.081  -2.665  0.00  0.00     0.418 C 
ATOM     31  F   UNL d   1       9.038   3.488  -3.238  0.00  0.00    -0.166 F 
ATOM     32  F   UNL d   1       7.408   4.873  -3.626  0.00  0.00    -0.166 F 
ATOM     33  F   UNL d   1       8.446   4.927  -1.719  0.00  0.00    -0.166 F 
ENDBRANCH  26  30
ENDBRANCH  21  22
ENDBRANCH  20  21
ENDBRANCH   2  20
TORSDOF 7
