REMARK  6 active torsions:
REMARK  status: ('A' for Active; 'I' for Inactive)
REMARK    1  A    between atoms: C_3  and  C_1 
REMARK    2  A    between atoms: C_2  and  C_4 
REMARK    3  A    between atoms: N_8  and  C_6 
REMARK       I    between atoms: C_7  and  N_8 
REMARK    4  A    between atoms: C_22  and  C_7 
REMARK    5  A    between atoms: C_11  and  S_14 
REMARK    6  A    between atoms: S_14  and  C_22 
ROOT
ATOM      1  C   UNL d   1       0.252  -1.350  -3.353  0.00  0.00     0.050 A 
ATOM      2  C   UNL d   1       0.779   0.136  -1.496  0.00  0.00     0.050 A 
ATOM      3  C   UNL d   1       0.861  -1.122  -2.112  0.00  0.00     0.032 A 
ATOM      4  C   UNL d   1      -0.568   0.952  -3.369  0.00  0.00     0.036 A 
ATOM      5  C   UNL d   1       0.057   1.164  -2.133  0.00  0.00     0.045 A 
ATOM      6  C   UNL d   1      -0.452  -0.304  -3.969  0.00  0.00     0.045 A 
ENDROOT
BRANCH   4   7
ATOM      7  N   UNL d   1      -1.268   2.030  -3.952  0.00  0.00    -0.326 N 
ATOM      8  C   UNL d   1      -2.037   1.995  -5.107  0.00  0.00     0.231 C 
ATOM      9  O   UNL d   1      -2.284   0.988  -5.773  0.00  0.00    -0.272 OA
ATOM     10  H   UNL d   1      -1.304   2.894  -3.421  0.00  0.00     0.169 HD
BRANCH   8  11
ATOM     11  C   UNL d   1      -2.563   3.356  -5.537  0.00  0.00     0.184 C 
BRANCH  11  12
ATOM     12  S   UNL d   1      -4.379   3.370  -5.554  0.00  0.00    -0.103 SA
BRANCH  12  13
ATOM     13  C   UNL d   1      -4.712   3.133  -3.821  0.00  0.00     0.069 A 
ATOM     14  N   UNL d   1      -3.834   3.648  -2.926  0.00  0.00    -0.361 N 
ATOM     15  C   UNL d   1      -4.164   3.534  -1.619  0.00  0.00     0.089 A 
ATOM     16  HN  UNL d   1      -2.969   4.099  -3.223  1.00  0.00     0.165 HD
ATOM     17  C   UNL d   1      -5.316   2.916  -1.159  0.00  0.00     0.017 A 
ATOM     18  C   UNL d   1      -6.189   2.376  -2.094  0.00  0.00     0.004 A 
ATOM     19  C   UNL d   1      -5.887   2.490  -3.448  0.00  0.00     0.037 A 
ENDBRANCH  12  13
ENDBRANCH  11  12
ENDBRANCH   8  11
ENDBRANCH   4   7
BRANCH   1  20
ATOM     20  C   UNL d   1       0.337  -2.691  -4.044  0.00  0.00     0.417 C 
ATOM     21  F   UNL d   1       1.069  -3.607  -3.351  0.00  0.00    -0.166 F 
ATOM     22  F   UNL d   1       0.915  -2.607  -5.274  0.00  0.00    -0.166 F 
ATOM     23  F   UNL d   1      -0.884  -3.259  -4.236  0.00  0.00    -0.166 F 
ENDBRANCH   1  20
BRANCH   2  24
ATOM     24  C   UNL d   1       1.451   0.392  -0.168  0.00  0.00     0.417 C 
ATOM     25  F   UNL d   1       2.174  -0.667   0.291  0.00  0.00    -0.166 F 
ATOM     26  F   UNL d   1       2.318   1.441  -0.218  0.00  0.00    -0.166 F 
ATOM     27  F   UNL d   1       0.560   0.690   0.818  0.00  0.00    -0.166 F 
ENDBRANCH   2  24
TORSDOF 6
