REMARK  6 active torsions:
REMARK  status: ('A' for Active; 'I' for Inactive)
REMARK    1  A    between atoms: N_6  and  C_1 
REMARK       I    between atoms: C_8  and  N_6 
REMARK       I    between atoms: N_10  and  C_8 
REMARK    2  A    between atoms: N_11  and  C_9 
REMARK    3  A    between atoms: C_13  and  N_10 
REMARK    4  A    between atoms: O_14  and  C_15 
REMARK    5  A    between atoms: C_17  and  O_14 
REMARK    6  A    between atoms: C_24  and  C_17 
ROOT
ATOM      1  N   UNL d   1      -1.247   2.907  -0.116  0.00  0.00    -0.293 N 
ATOM      2  C   UNL d   1      -2.411   3.597   0.023  0.00  0.00     0.326 C 
ATOM      3  N   UNL d   1      -3.567   2.864   0.082  0.00  0.00    -0.309 N 
ATOM      4  O   UNL d   1      -2.332   4.829   0.025  0.00  0.00    -0.247 OA
ATOM      5  H   UNL d   1      -0.430   3.482  -0.268  0.00  0.00     0.172 HD
ATOM      6  H   UNL d   1      -3.414   1.859   0.145  0.00  0.00     0.170 HD
ENDROOT
BRANCH   1   7
ATOM      7  C   UNL d   1      -0.981   1.572   0.099  0.00  0.00     0.139 C 
ATOM      8  C   UNL d   1       0.299   0.979  -0.151  0.00  0.00     0.064 A 
ATOM      9  C   UNL d   1       0.226  -0.250   0.502  0.00  0.00     0.066 A 
ATOM     10  C   UNL d   1       1.505   1.399  -0.784  0.00  0.00     0.045 A 
ATOM     11  C   UNL d   1       1.336  -1.087   0.670  0.00  0.00     0.032 A 
ATOM     12  N   UNL d   1      -1.077  -0.366   0.911  0.00  0.00    -0.294 N 
ATOM     13  C   UNL d   1       2.532  -0.669   0.095  0.00  0.00     0.005 A 
ATOM     14  C   UNL d   1       2.608   0.526  -0.628  0.00  0.00     0.030 A 
ATOM     15  N   UNL d   1      -1.846   0.709   0.626  0.00  0.00    -0.282 N 
ATOM     16  C   UNL d   1      -1.647  -1.482   1.627  0.00  0.00     0.178 C 
ATOM     17  HN  UNL d   1      -2.847   0.830   0.780  1.00  0.00     0.189 HD
BRANCH  10  18
ATOM     18  N   UNL d   1       1.603   2.616  -1.466  0.00  0.00    -0.389 N 
ATOM     19  C   UNL d   1       0.683   2.844  -2.585  0.00  0.00     0.149 C 
ATOM     20  C   UNL d   1       2.896   3.281  -1.571  0.00  0.00     0.149 C 
ENDBRANCH  10  18
ENDBRANCH   1   7
BRANCH   3  21
ATOM     21  C   UNL d   1      -4.886   3.349   0.211  0.00  0.00     0.036 A 
ATOM     22  C   UNL d   1      -5.201   4.708   0.253  0.00  0.00     0.032 A 
ATOM     23  C   UNL d   1      -6.503   5.139   0.526  0.00  0.00     0.039 A 
ATOM     24  C   UNL d   1      -7.518   4.214   0.754  0.00  0.00     0.069 A 
ATOM     25  C   UNL d   1      -7.240   2.856   0.596  0.00  0.00     0.039 A 
ATOM     26  C   UNL d   1      -5.929   2.424   0.334  0.00  0.00     0.032 A 
BRANCH  24  27
ATOM     27  O   UNL d   1      -8.800   4.547   1.112  0.00  0.00    -0.347 OA
BRANCH  27  28
ATOM     28  C   UNL d   1      -8.884   5.704   1.959  0.00  0.00     0.214 C 
BRANCH  28  29
ATOM     29  C   UNL d   1     -10.294   5.943   2.460  0.00  0.00    -0.034 A 
ATOM     30  C   UNL d   1     -10.494   6.581   3.695  0.00  0.00     0.009 A 
ATOM     31  C   UNL d   1     -11.780   6.917   4.123  0.00  0.00     0.001 A 
ATOM     32  C   UNL d   1     -12.880   6.625   3.321  0.00  0.00     0.000 A 
ATOM     33  C   UNL d   1     -12.696   5.989   2.095  0.00  0.00     0.001 A 
ATOM     34  C   UNL d   1     -11.409   5.654   1.665  0.00  0.00     0.009 A 
ENDBRANCH  28  29
ENDBRANCH  27  28
ENDBRANCH  24  27
ENDBRANCH   3  21
TORSDOF 6
