REMARK  4 active torsions:
REMARK  status: ('A' for Active; 'I' for Inactive)
REMARK    1  A    between atoms: C_2  and  C_1 
REMARK       I    between atoms: N_3  and  C_2 
REMARK    2  A    between atoms: N_4  and  N_3 
REMARK    3  A    between atoms: C_6  and  N_4 
REMARK    4  A    between atoms: N_13  and  C_5 
ROOT
ATOM      1  C   UNL d   1       0.880   2.562  -0.379  0.00  0.00     0.268 C 
ATOM      2  N   UNL d   1       0.076   3.594   0.100  0.00  0.00    -0.283 N 
ATOM      3  O   UNL d   1       2.032   2.735  -0.770  0.00  0.00    -0.266 OA
ATOM      4  H   UNL d   1      -0.692   3.373   0.727  0.00  0.00     0.184 HD
ENDROOT
BRANCH   2   5
ATOM      5  N   UNL d   1       0.688   4.836   0.344  0.00  0.00    -0.203 NA
ATOM      6  H   UNL d   1       1.674   4.832   0.052  0.00  0.00     0.153 HD
BRANCH   5   7
ATOM      7  C   UNL d   1      -0.018   5.957  -0.158  0.00  0.00     0.030 A 
ATOM      8  C   UNL d   1      -1.380   5.923  -0.492  0.00  0.00     0.049 A 
ATOM      9  C   UNL d   1      -2.042   7.076  -0.921  0.00  0.00     0.037 A 
ATOM     10 CL   UNL d   1      -3.703   6.984  -1.365  0.00  0.00    -0.084 Cl
ATOM     11  C   UNL d   1      -1.377   8.295  -0.991  0.00  0.00     0.047 A 
ATOM     12  C   UNL d   1      -0.042   8.352  -0.610  0.00  0.00     0.037 A 
ATOM     13  C   UNL d   1       0.632   7.201  -0.190  0.00  0.00     0.049 A 
ATOM     14 CL   UNL d   1       0.786   9.861  -0.652  0.00  0.00    -0.084 Cl
ENDBRANCH   5   7
ENDBRANCH   2   5
BRANCH   1  15
ATOM     15  C   UNL d   1       0.248   1.203  -0.345  0.00  0.00     0.054 A 
ATOM     16  C   UNL d   1       1.036   0.044  -0.186  0.00  0.00     0.021 A 
ATOM     17  C   UNL d   1       0.383  -1.191  -0.037  0.00  0.00     0.024 A 
ATOM     18  C   UNL d   1      -1.005  -1.296  -0.151  0.00  0.00     0.002 A 
ATOM     19  C   UNL d   1      -1.769  -0.161  -0.402  0.00  0.00     0.001 A 
ATOM     20  C   UNL d   1      -1.147   1.084  -0.500  0.00  0.00     0.019 A 
BRANCH  16  21
ATOM     21  N   UNL d   1       2.420   0.094   0.067  0.00  0.00    -0.302 NA
ATOM     22  H   UNL d   1       2.841   0.948  -0.317  0.00  0.00     0.124 HD
ATOM     23  H   UNL d   1       2.920  -0.736  -0.235  0.00  0.00     0.124 HD
ENDBRANCH  16  21
ENDBRANCH   1  15
TORSDOF 4
