REMARK  8 active torsions:
REMARK  status: ('A' for Active; 'I' for Inactive)
REMARK    1  A    between atoms: N_8  and  C_1 
REMARK    2  A    between atoms: N_12  and  C_1 
REMARK    3  A    between atoms: N_2  and  N_8 
REMARK    4  A    between atoms: C_4  and  C_5 
REMARK    5  A    between atoms: C_15  and  N_12 
REMARK    6  A    between atoms: C_13  and  C_15 
REMARK    7  A    between atoms: C_16  and  C_13 
REMARK    8  A    between atoms: O_14  and  C_16 
ROOT
ATOM      1  N   UNL d   1       0.410  -1.058  -0.643  0.00  0.00    -0.277 N 
ATOM      2  H   UNL d   1      -0.603  -1.086  -0.722  0.00  0.00     0.189 HD
ENDROOT
BRANCH   1   3
ATOM      3  N   UNL d   1       1.149  -2.206  -0.746  0.00  0.00    -0.307 N 
ATOM      4  C   UNL d   1       0.516  -3.258  -1.152  0.00  0.00     0.144 C 
ATOM      5  HN  UNL d   1       2.142  -2.229  -0.515  1.00  0.00     0.186 HD
BRANCH   4   6
ATOM      6  C   UNL d   1       1.195  -4.519  -1.175  0.00  0.00     0.091 A 
ATOM      7  O   UNL d   1       0.546  -5.602  -1.697  0.00  0.00    -0.321 OA
ATOM      8  C   UNL d   1       1.389  -6.662  -1.578  0.00  0.00     0.142 A 
ATOM      9  C   UNL d   1       2.568  -6.282  -0.979  0.00  0.00     0.027 A 
ATOM     10  C   UNL d   1       2.446  -4.898  -0.723  0.00  0.00     0.040 A 
ENDBRANCH   4   6
ENDBRANCH   1   3
BRANCH   1  11
ATOM     11  C   UNL d   1       0.972   0.050  -0.037  0.00  0.00     0.186 C 
ATOM     12  S   UNL d   1       0.001   1.296   0.482  0.00  0.00    -0.040 SA
BRANCH  11  13
ATOM     13  N   UNL d   1       2.337  -0.046   0.063  0.00  0.00    -0.366 N 
ATOM     14  H   UNL d   1       2.663  -0.926  -0.326  0.00  0.00     0.161 HD
BRANCH  13  15
ATOM     15  C   UNL d   1       3.218   0.661   0.976  0.00  0.00     0.124 C 
BRANCH  15  16
ATOM     16  C   UNL d   1       3.528  -0.224   2.184  0.00  0.00     0.046 C 
BRANCH  16  17
ATOM     17  C   UNL d   1       4.453   0.464   3.175  0.00  0.00     0.168 C 
BRANCH  17  18
ATOM     18  O   UNL d   1       3.806   1.629   3.679  0.00  0.00    -0.396 OA
ATOM     19  C   UNL d   1       4.626   2.340   4.594  0.00  0.00     0.201 C 
ENDBRANCH  17  18
ENDBRANCH  16  17
ENDBRANCH  15  16
ENDBRANCH  13  15
ENDBRANCH  11  13
ENDBRANCH   1  11
TORSDOF 8
