REMARK  6 active torsions:
REMARK  status: ('A' for Active; 'I' for Inactive)
REMARK    1  A    between atoms: C_6  and  N_1 
REMARK    2  A    between atoms: C_4  and  S_16 
REMARK    3  A    between atoms: C_5  and  C_7 
REMARK       I    between atoms: C_10  and  N_14 
REMARK    4  A    between atoms: C_22  and  C_10 
REMARK    5  A    between atoms: N_14  and  C_17 
REMARK    6  A    between atoms: S_16  and  C_22 
ROOT
ATOM      1  S   UNL d   1       3.435   5.027   4.333  0.00  0.00    -0.085 SA
ENDROOT
BRANCH   1   2
ATOM      2  C   UNL d   1       3.655   6.226   5.620  0.00  0.00     0.145 A 
ATOM      3  N   UNL d   1       2.577   6.696   6.265  0.00  0.00    -0.336 N 
ATOM      4  C   UNL d   1       2.794   7.690   7.155  0.00  0.00     0.052 A 
ATOM      5  HN  UNL d   1       1.644   6.323   6.093  1.00  0.00     0.168 HD
ATOM      6  C   UNL d   1       4.053   8.188   7.426  0.00  0.00     0.048 A 
ATOM      7  C   UNL d   1       5.086   7.624   6.720  0.00  0.00     0.092 A 
ATOM      8  N   UNL d   1       4.912   6.654   5.810  0.00  0.00    -0.347 N 
ATOM      9  HN  UNL d   1       5.697   6.262   5.289  1.00  0.00     0.167 HD
BRANCH   4  10
ATOM     10  C   UNL d   1       1.576   8.206   7.797  0.00  0.00     0.031 A 
ATOM     11  S   UNL d   1       1.450   9.861   8.255  0.00  0.00    -0.100 SA
ATOM     12  C   UNL d   1      -0.143   9.664   8.834  0.00  0.00     0.050 A 
ATOM     13  C   UNL d   1      -0.588   8.370   8.688  0.00  0.00     0.008 A 
ATOM     14  C   UNL d   1       0.399   7.533   8.085  0.00  0.00     0.021 A 
ENDBRANCH   4  10
ENDBRANCH   1   2
BRANCH   1  15
ATOM     15  C   UNL d   1       1.883   4.264   4.884  0.00  0.00     0.185 C 
BRANCH  15  16
ATOM     16  C   UNL d   1       1.520   3.110   3.963  0.00  0.00     0.231 C 
ATOM     17  N   UNL d   1       1.353   3.486   2.636  0.00  0.00    -0.326 N 
ATOM     18  H   UNL d   1       1.666   4.423   2.402  0.00  0.00     0.169 HD
ATOM     19  O   UNL d   1       1.371   1.977   4.413  0.00  0.00    -0.272 OA
BRANCH  17  20
ATOM     20  C   UNL d   1       1.009   2.647   1.556  0.00  0.00     0.037 A 
ATOM     21  C   UNL d   1       0.522   1.347   1.717  0.00  0.00     0.065 A 
ATOM     22  C   UNL d   1       0.248   0.556   0.592  0.00  0.00     0.105 A 
ATOM     23  C   UNL d   1       0.449   1.057  -0.701  0.00  0.00     0.036 A 
ATOM     24  C   UNL d   1       0.907   2.363  -0.862  0.00  0.00     0.005 A 
ATOM     25  C   UNL d   1       1.177   3.154   0.260  0.00  0.00     0.029 A 
BRANCH  22  26
ATOM     26  N   UNL d   1      -0.250  -0.812   0.770  0.00  0.00    -0.116 N 
ATOM     27  O   UNL d   1      -0.455  -1.214   1.925  0.00  0.00    -0.532 OA
ATOM     28  O   UNL d   1      -0.444  -1.491  -0.249  0.00  0.00    -0.532 OA
ENDBRANCH  22  26
ENDBRANCH  17  20
ENDBRANCH  15  16
ENDBRANCH   1  15
TORSDOF 6
