REMARK  3 active torsions:
REMARK  status: ('A' for Active; 'I' for Inactive)
REMARK    1  A    between atoms: N_2  and  C_1 
REMARK    2  A    between atoms: C_4  and  N_2 
REMARK    3  A    between atoms: C_17  and  C_13 
ROOT
ATOM      1  N   UNL d   1       2.250   0.037  -0.022  0.00  0.00    -0.336 N 
ATOM      2  HN  UNL d   1       2.219  -0.597   0.777  1.00  0.00     0.168 HD
ENDROOT
BRANCH   1   3
ATOM      3  C   UNL d   1       1.547  -0.255  -1.068  0.00  0.00     0.141 C 
ATOM      4  N   UNL d   1       0.758  -1.367  -1.131  0.00  0.00    -0.365 N 
ATOM      5  C   UNL d   1       0.115  -1.678  -2.391  0.00  0.00     0.093 C 
ATOM      6  H   UNL d   1       0.661  -1.947  -0.310  0.00  0.00     0.162 HD
ATOM      7  C   UNL d   1       0.951  -0.941  -3.449  0.00  0.00     0.107 C 
ATOM      8  S   UNL d   1       1.453   0.598  -2.607  0.00  0.00    -0.092 SA
BRANCH   5   9
ATOM      9  C   UNL d   1      -1.345  -1.201  -2.415  0.00  0.00     0.021 C 
ATOM     10  C   UNL d   1      -2.213  -1.852  -1.351  0.00  0.00     0.007 C 
ENDBRANCH   5   9
ENDBRANCH   1   3
BRANCH   1  11
ATOM     11  C   UNL d   1       3.056   1.188   0.065  0.00  0.00     0.046 A 
ATOM     12  C   UNL d   1       2.792   2.117   1.096  0.00  0.00    -0.034 A 
ATOM     13  C   UNL d   1       3.550   3.300   1.194  0.00  0.00     0.015 A 
ATOM     14  C   UNL d   1       1.732   1.881   2.140  0.00  0.00     0.050 C 
ATOM     15  C   UNL d   1       4.586   3.567   0.303  0.00  0.00    -0.061 A 
ATOM     16  C   UNL d   1       4.901   2.609  -0.664  0.00  0.00     0.015 A 
ATOM     17  C   UNL d   1       5.379   4.833   0.418  0.00  0.00     0.048 C 
ATOM     18  C   UNL d   1       4.176   1.407  -0.768  0.00  0.00    -0.034 A 
ATOM     19  C   UNL d   1       4.662   0.407  -1.783  0.00  0.00     0.050 C 
ENDBRANCH   1  11
TORSDOF 3
