REMARK  5 active torsions:
REMARK  status: ('A' for Active; 'I' for Inactive)
REMARK       I    between atoms: C_3  and  N_1 
REMARK       I    between atoms: C_2  and  N_7 
REMARK       I    between atoms: N_5  and  C_2 
REMARK    1  A    between atoms: O_18  and  C_3 
REMARK    2  A    between atoms: C_4  and  N_5 
REMARK    3  A    between atoms: N_7  and  C_16 
REMARK    4  A    between atoms: O_21  and  C_8 
REMARK    5  A    between atoms: C_22  and  O_18 
ROOT
ATOM      1  C   UNL d   1      -1.431  -0.349  -2.865  0.00  0.00     0.321 C 
ATOM      2  N   UNL d   1      -2.196  -0.089  -3.957  0.00  0.00    -0.306 N 
ATOM      3  N   UNL d   1      -1.935  -0.038  -1.651  0.00  0.00    -0.338 N 
ATOM      4  O   UNL d   1      -0.330  -0.880  -3.035  0.00  0.00    -0.247 OA
ATOM      5  H   UNL d   1      -1.855  -0.608  -4.753  0.00  0.00     0.171 HD
ATOM      6  H   UNL d   1      -2.939  -0.117  -1.605  0.00  0.00     0.164 HD
ENDROOT
BRANCH   3   7
ATOM      7  C   UNL d   1      -1.237  -0.093  -0.368  0.00  0.00     0.089 C 
ATOM      8  C   UNL d   1      -0.307   1.111  -0.164  0.00  0.00     0.045 C 
ATOM      9  C   UNL d   1       1.120   0.841  -0.602  0.00  0.00     0.130 C 
ATOM     10  N   UNL d   1       1.594  -0.361   0.053  0.00  0.00    -0.328 N 
ATOM     11  C   UNL d   1       2.715  -0.309   0.857  0.00  0.00     0.362 C 
ATOM     12  C   UNL d   1       0.885  -1.583  -0.308  0.00  0.00     0.130 C 
ATOM     13  O   UNL d   1       3.366   0.709   1.060  0.00  0.00    -0.238 OA
ATOM     14  C   UNL d   1      -0.610  -1.456  -0.021  0.00  0.00     0.045 C 
BRANCH  11  15
ATOM     15  O   UNL d   1       3.037  -1.528   1.366  0.00  0.00    -0.304 OA
BRANCH  15  16
ATOM     16  C   UNL d   1       4.355  -1.632   1.915  0.00  0.00     0.176 C 
ATOM     17  C   UNL d   1       5.295  -2.015   0.787  0.00  0.00     0.034 C 
ENDBRANCH  15  16
ENDBRANCH  11  15
ENDBRANCH   3   7
BRANCH   2  18
ATOM     18  C   UNL d   1      -3.333   0.713  -4.179  0.00  0.00     0.071 C 
ATOM     19  C   UNL d   1      -3.852   1.596  -3.226  0.00  0.00     0.056 C 
ATOM     20  C   UNL d   1      -5.080   2.225  -3.439  0.00  0.00     0.036 C 
ATOM     21 CL   UNL d   1      -5.753   3.210  -2.199  0.00  0.00    -0.084 Cl
ATOM     22  C   UNL d   1      -5.777   2.036  -4.628  0.00  0.00     0.026 C 
ATOM     23  C   UNL d   1      -5.219   1.247  -5.632  0.00  0.00     0.041 C 
ATOM     24  C   UNL d   1      -3.989   0.610  -5.422  0.00  0.00     0.095 C 
BRANCH  24  25
ATOM     25  O   UNL d   1      -3.549  -0.197  -6.444  0.00  0.00    -0.354 OA
ATOM     26  C   UNL d   1      -2.299   0.211  -7.010  0.00  0.00     0.210 C 
ENDBRANCH  24  25
ENDBRANCH   2  18
TORSDOF 5
