REMARK  4 active torsions:
REMARK  status: ('A' for Active; 'I' for Inactive)
REMARK    1  A    between atoms: N_6  and  C_1 
REMARK    2  A    between atoms: C_4  and  N_6 
REMARK    3  A    between atoms: N_5  and  C_4 
REMARK       I    between atoms: C_7  and  N_5 
REMARK    4  A    between atoms: C_14  and  C_7 
ROOT
ATOM      1  C   UNL d   1       1.407   3.211   0.201  0.00  0.00     0.193 C 
ATOM      2  S   UNL d   1      -0.039   2.731   0.901  0.00  0.00    -0.040 SA
ENDROOT
BRANCH   1   3
ATOM      3  N   UNL d   1       1.433   4.477  -0.307  0.00  0.00    -0.165 N 
ATOM      4  H   UNL d   1       0.609   5.042  -0.164  0.00  0.00     0.186 HD
BRANCH   3   5
ATOM      5  C   UNL d   1       2.448   5.129  -0.941  0.00  0.00     0.700 A 
ATOM      6  N   UNL d   1       3.634   4.533  -1.280  0.00  0.00    -0.185 N 
ATOM      7  C   UNL d   1       4.295   5.510  -1.859  0.00  0.00     0.215 A 
ATOM      8  HN  UNL d   1       3.930   3.570  -1.121  1.00  0.00     0.185 HD
ATOM      9  N   UNL d   1       3.535   6.637  -1.859  0.00  0.00    -0.281 N 
ATOM     10  N   UNL d   1       2.341   6.410  -1.295  0.00  0.00    -0.131 N 
ATOM     11  H   UNL d   1       3.751   7.563  -2.215  0.00  0.00     0.188 HD
ATOM     12  HN  UNL d   1       1.557   7.049  -1.170  1.00  0.00     0.205 HD
ENDBRANCH   3   5
ENDBRANCH   1   3
BRANCH   1  13
ATOM     13  N   UNL d   1       2.563   2.461   0.091  0.00  0.00    -0.299 N 
ATOM     14  C   UNL d   1       2.865   1.251   0.710  0.00  0.00     0.257 C 
ATOM     15  O   UNL d   1       2.339   0.834   1.736  0.00  0.00    -0.267 OA
ATOM     16  H   UNL d   1       3.263   2.853  -0.530  0.00  0.00     0.171 HD
BRANCH  14  17
ATOM     17  C   UNL d   1       4.004   0.478   0.145  0.00  0.00     0.032 A 
ATOM     18  C   UNL d   1       4.753  -0.323   1.020  0.00  0.00     0.017 A 
ATOM     19  C   UNL d   1       5.782  -1.131   0.535  0.00  0.00     0.001 A 
ATOM     20  C   UNL d   1       6.060  -1.151  -0.830  0.00  0.00     0.000 A 
ATOM     21  C   UNL d   1       5.315  -0.362  -1.708  0.00  0.00     0.001 A 
ATOM     22  C   UNL d   1       4.287   0.456  -1.225  0.00  0.00     0.017 A 
ENDBRANCH  14  17
ENDBRANCH   1  13
TORSDOF 4
