REMARK  3 active torsions:
REMARK  status: ('A' for Active; 'I' for Inactive)
REMARK    1  A    between atoms: N_3  and  S_1 
REMARK    2  A    between atoms: C_12  and  S_1 
REMARK    3  A    between atoms: C_2  and  C_5 
REMARK       I    between atoms: C_5  and  N_3 
ROOT
ATOM      1  N   UNL d   1       0.593   0.763   1.304  0.00  0.00    -0.278 N 
ATOM      2  HN  UNL d   1       0.109   1.661   1.308  1.00  0.00     0.179 HD
ATOM      3  C   UNL d   1       0.905   0.196   2.553  0.00  0.00     0.281 C 
ATOM      4  O   UNL d   1       1.764  -0.676   2.676  0.00  0.00    -0.265 OA
ENDROOT
BRANCH   1   5
ATOM      5  S   UNL d   1       0.916   0.146  -0.061  0.00  0.00     0.055 S 
ATOM      6  O   UNL d   1       0.301   0.621  -1.289  0.00  0.00    -0.245 OA
ATOM      7  C   UNL d   1       2.661   0.250  -0.358  0.00  0.00     0.142 C 
BRANCH   5   8
ATOM      8  C   UNL d   1       0.507  -1.590   0.012  0.00  0.00     0.038 A 
ATOM      9  C   UNL d   1      -0.815  -1.955  -0.267  0.00  0.00     0.022 A 
ATOM     10  C   UNL d   1      -1.179  -3.301  -0.243  0.00  0.00     0.001 A 
ATOM     11  C   UNL d   1      -0.228  -4.277   0.055  0.00  0.00     0.000 A 
ATOM     12  C   UNL d   1       1.089  -3.910   0.334  0.00  0.00     0.001 A 
ATOM     13  C   UNL d   1       1.462  -2.565   0.311  0.00  0.00     0.022 A 
ENDBRANCH   5   8
ENDBRANCH   1   5
BRANCH   3  14
ATOM     14  C   UNL d   1       0.230   0.793   3.732  0.00  0.00     0.125 A 
ATOM     15  N   UNL d   1       0.345   0.282   4.971  0.00  0.00    -0.256 N 
ATOM     16  O   UNL d   1      -0.318   1.158   5.814  0.00  0.00    -0.242 OA
ATOM     17  HN  UNL d   1       0.825  -0.578   5.237  1.00  0.00     0.195 HD
ATOM     18  C   UNL d   1      -0.823   2.191   5.091  0.00  0.00     0.075 A 
ATOM     19  C   UNL d   1      -0.566   1.976   3.761  0.00  0.00     0.071 A 
ATOM     20  C   UNL d   1      -1.462   3.284   5.844  0.00  0.00     0.079 C 
ENDBRANCH   3  14
TORSDOF 3
