REMARK  3 active torsions:
REMARK  status: ('A' for Active; 'I' for Inactive)
REMARK    1  A    between atoms: C_5  and  C_1 
REMARK    2  A    between atoms: C_6  and  C_2 
REMARK       I    between atoms: N_7  and  C_5 
REMARK    3  A    between atoms: C_10  and  C_13 
ROOT
ATOM      1  C   UNL d   1      -0.367  -1.307  -0.037  0.00  0.00     0.092 C 
ATOM      2  C   UNL d   1       0.266  -0.219  -0.740  0.00  0.00     0.086 C 
ATOM      3  N   UNL d   1      -0.612   0.789  -0.893  0.00  0.00    -0.259 N 
ATOM      4  HN  UNL d   1      -0.476   1.631  -1.452  1.00  0.00     0.195 HD
ATOM      5  O   UNL d   1      -1.722   0.470  -0.159  0.00  0.00    -0.241 OA
ATOM      6  C   UNL d   1      -1.565  -0.757   0.394  0.00  0.00     0.090 C 
ATOM      7  C   UNL d   1      -2.667  -1.187   1.280  0.00  0.00     0.080 C 
ENDROOT
BRANCH   1   8
ATOM      8  C   UNL d   1       0.150  -2.628   0.269  0.00  0.00     0.258 C 
ATOM      9  N   UNL d   1      -0.609  -3.765  -0.096  0.00  0.00    -0.348 N 
ATOM     10  C   UNL d   1      -0.119  -5.071   0.338  0.00  0.00     0.127 C 
ATOM     11  C   UNL d   1      -2.003  -3.716  -0.549  0.00  0.00     0.127 C 
ATOM     12  C   UNL d   1      -0.484  -6.182  -0.641  0.00  0.00     0.033 C 
ATOM     13  C   UNL d   1      -1.982  -6.235  -0.953  0.00  0.00     0.096 C 
ATOM     14  C   UNL d   1      -2.418  -4.863  -1.475  0.00  0.00     0.033 C 
ATOM     15  O   UNL d   1       1.269  -2.735   0.779  0.00  0.00    -0.267 OA
BRANCH  13  16
ATOM     16  C   UNL d   1      -2.838  -6.720   0.219  0.00  0.00     0.391 C 
ATOM     17  F   UNL d   1      -2.104  -7.371   1.145  0.00  0.00    -0.171 F 
ATOM     18  F   UNL d   1      -3.486  -5.718   0.848  0.00  0.00    -0.171 F 
ATOM     19  F   UNL d   1      -3.783  -7.584  -0.223  0.00  0.00    -0.171 F 
ENDBRANCH  13  16
ENDBRANCH   1   8
BRANCH   2  20
ATOM     20  C   UNL d   1       1.632  -0.070  -1.274  0.00  0.00     0.037 A 
ATOM     21  C   UNL d   1       2.234  -1.039  -2.101  0.00  0.00     0.048 A 
ATOM     22 CL   UNL d   1       1.393  -2.433  -2.696  0.00  0.00    -0.083 Cl
ATOM     23  C   UNL d   1       3.553  -0.881  -2.564  0.00  0.00     0.025 A 
ATOM     24  C   UNL d   1       4.280   0.267  -2.269  0.00  0.00     0.003 A 
ATOM     25  C   UNL d   1       3.692   1.262  -1.503  0.00  0.00     0.025 A 
ATOM     26  C   UNL d   1       2.393   1.094  -0.995  0.00  0.00     0.048 A 
ATOM     27 CL   UNL d   1       1.823   2.401  -0.001  0.00  0.00    -0.083 Cl
ENDBRANCH   2  20
TORSDOF 3
