REMARK  4 active torsions:
REMARK  status: ('A' for Active; 'I' for Inactive)
REMARK    1  A    between atoms: S_7  and  C_1 
REMARK    2  A    between atoms: S_11  and  C_5 
REMARK    3  A    between atoms: C_12  and  S_7 
REMARK    4  A    between atoms: C_13  and  S_11 
ROOT
ATOM      1  C   UNL d   1      -0.374   1.334   0.130  0.00  0.00     0.097 A 
ATOM      2  N   UNL d   1      -1.734   1.271   0.057  0.00  0.00    -0.344 N 
ATOM      3  HN  UNL d   1      -2.297   2.121   0.029  1.00  0.00     0.167 HD
ATOM      4  C   UNL d   1       0.435   0.192   0.185  0.00  0.00     0.084 A 
ATOM      5  C   UNL d   1      -2.317   0.051   0.022  0.00  0.00     0.076 A 
ATOM      6  C   UNL d   1      -0.182  -1.068   0.060  0.00  0.00    -0.036 A 
ATOM      7  C   UNL d   1       1.854   0.277   0.410  0.00  0.00     0.103 C 
ATOM      8  N   UNL d   1       2.989   0.253   0.641  0.00  0.00    -0.191 NA
ATOM      9  C   UNL d   1      -1.581  -1.125  -0.001  0.00  0.00     0.045 A 
ATOM     10  C   UNL d   1       0.577  -2.366   0.004  0.00  0.00     0.050 C 
ENDROOT
BRANCH   1  11
ATOM     11  S   UNL d   1       0.305   2.976  -0.090  0.00  0.00    -0.071 SA
BRANCH  11  12
ATOM     12  C   UNL d   1       0.398   3.664   1.551  0.00  0.00     0.007 A 
ATOM     13  C   UNL d   1       1.634   4.149   1.997  0.00  0.00     0.019 A 
ATOM     14  C   UNL d   1       1.741   4.840   3.210  0.00  0.00     0.008 A 
ATOM     15  C   UNL d   1       0.607   5.074   3.993  0.00  0.00    -0.062 A 
ATOM     16  C   UNL d   1      -0.627   4.578   3.557  0.00  0.00     0.008 A 
ATOM     17  C   UNL d   1       0.727   5.867   5.264  0.00  0.00     0.048 C 
ATOM     18  C   UNL d   1      -0.733   3.879   2.344  0.00  0.00     0.019 A 
ENDBRANCH  11  12
ENDBRANCH   1  11
BRANCH   5  19
ATOM     19  S   UNL d   1      -4.093  -0.070   0.175  0.00  0.00    -0.073 SA
BRANCH  19  20
ATOM     20  C   UNL d   1      -4.688   0.675  -1.326  0.00  0.00     0.007 A 
ATOM     21  C   UNL d   1      -5.500  -0.061  -2.197  0.00  0.00     0.019 A 
ATOM     22  C   UNL d   1      -6.017   0.530  -3.356  0.00  0.00     0.008 A 
ATOM     23  C   UNL d   1      -5.738   1.869  -3.651  0.00  0.00    -0.062 A 
ATOM     24  C   UNL d   1      -4.939   2.606  -2.772  0.00  0.00     0.008 A 
ATOM     25  C   UNL d   1      -6.302   2.504  -4.888  0.00  0.00     0.048 C 
ATOM     26  C   UNL d   1      -4.426   2.015  -1.615  0.00  0.00     0.019 A 
ENDBRANCH  19  20
ENDBRANCH   5  19
TORSDOF 4
