REMARK  10 active torsions:
REMARK  status: ('A' for Active; 'I' for Inactive)
REMARK    1  A    between atoms: C_24  and  C_7 
REMARK    2  A    between atoms: C_8  and  N_18 
REMARK    3  A    between atoms: N_20  and  C_8 
REMARK    4  A    between atoms: N_14  and  C_19 
REMARK    5  A    between atoms: N_18  and  N_14 
REMARK    6  A    between atoms: C_25  and  N_20 
REMARK    7  A    between atoms: C_35  and  C_24 
REMARK    8  A    between atoms: C_34  and  C_35 
REMARK    9  A    between atoms: C_37  and  C_34 
REMARK   10  A    between atoms: C_38  and  C_37 
ROOT
ATOM      1  C   UNL d   1       2.310   2.065  -1.282  0.00  0.00    -0.036 C 
ATOM      2  C   UNL d   1      -0.104  -1.533  -0.586  0.00  0.00    -0.016 C 
ATOM      3  C   UNL d   1      -1.618  -1.216  -0.763  0.00  0.00    -0.069 C 
ATOM      4  C   UNL d   1       0.910   2.252  -0.693  0.00  0.00    -0.002 C 
ATOM      5  C   UNL d   1       0.760  -0.274  -0.161  0.00  0.00     0.002 C 
ATOM      6  C   UNL d   1       0.097   0.985  -0.767  0.00  0.00    -0.004 C 
ATOM      7  C   UNL d   1       2.801   3.555  -1.298  0.00  0.00    -0.002 C 
ATOM      8  C   UNL d   1      -2.579  -2.151  -0.720  0.00  0.00     0.030 C 
ATOM      9  C   UNL d   1       2.995   1.000  -0.410  0.00  0.00     0.010 C 
ATOM     10  C   UNL d   1       2.285  -0.369  -0.448  0.00  0.00     0.007 C 
ATOM     11  C   UNL d   1       0.320   3.411  -1.493  0.00  0.00     0.006 C 
ATOM     12  C   UNL d   1       0.021  -2.652   0.488  0.00  0.00     0.020 C 
ATOM     13  C   UNL d   1       1.520   4.285  -1.847  0.00  0.00     0.006 C 
ATOM     14  C   UNL d   1      -1.249   1.158  -0.081  0.00  0.00     0.010 C 
ATOM     15  C   UNL d   1      -2.292  -3.342   0.082  0.00  0.00     0.026 C 
ATOM     16  C   UNL d   1      -2.176   0.190  -0.763  0.00  0.00     0.035 C 
ATOM     17  C   UNL d   1      -0.873  -3.849   0.153  0.00  0.00     0.059 C 
ATOM     18  C   UNL d   1       2.296   1.559  -2.766  0.00  0.00     0.016 C 
ATOM     19  C   UNL d   1       0.422  -2.111  -1.931  0.00  0.00     0.020 C 
ENDROOT
BRANCH  15  20
ATOM     20  N   UNL d   1      -3.320  -3.715   0.786  0.00  0.00    -0.303 N 
ATOM     21  HN  UNL d   1      -4.222  -3.260   0.646  1.00  0.00     0.186 HD
BRANCH  20  22
ATOM     22  N   UNL d   1      -3.201  -4.686   1.690  0.00  0.00    -0.276 N 
ATOM     23  H   UNL d   1      -2.372  -5.256   1.734  0.00  0.00     0.189 HD
BRANCH  22  24
ATOM     24  C   UNL d   1      -4.234  -4.963   2.543  0.00  0.00     0.191 C 
ATOM     25  S   UNL d   1      -5.360  -3.861   3.107  0.00  0.00    -0.039 SA
BRANCH  24  26
ATOM     26  N   UNL d   1      -4.294  -6.248   2.994  0.00  0.00    -0.332 N 
ATOM     27  H   UNL d   1      -4.912  -6.361   3.797  0.00  0.00     0.168 HD
BRANCH  26  28
ATOM     28  C   UNL d   1      -3.791  -7.435   2.422  0.00  0.00     0.034 A 
ATOM     29  C   UNL d   1      -3.302  -7.518   1.104  0.00  0.00     0.032 A 
ATOM     30  C   UNL d   1      -2.820  -8.731   0.606  0.00  0.00     0.044 A 
ATOM     31  C   UNL d   1      -2.869  -9.860   1.411  0.00  0.00     0.116 A 
ATOM     32  C   UNL d   1      -3.388  -9.804   2.695  0.00  0.00     0.044 A 
ATOM     33  F   UNL d   1      -2.417 -11.027   0.933  0.00  0.00    -0.206 F 
ATOM     34  C   UNL d   1      -3.852  -8.587   3.198  0.00  0.00     0.032 A 
ENDBRANCH  26  28
ENDBRANCH  24  26
ENDBRANCH  22  24
ENDBRANCH  20  22
ENDBRANCH  15  20
BRANCH   7  35
ATOM     35  C   UNL d   1       3.262   4.274   0.022  0.00  0.00    -0.014 C 
ATOM     36  C   UNL d   1       3.695   5.720  -0.326  0.00  0.00     0.010 C 
BRANCH  35  37
ATOM     37  C   UNL d   1       4.437   3.614   0.779  0.00  0.00     0.005 C 
BRANCH  37  38
ATOM     38  C   UNL d   1       4.763   4.214   2.160  0.00  0.00     0.001 C 
BRANCH  38  39
ATOM     39  C   UNL d   1       3.614   4.261   3.181  0.00  0.00     0.004 C 
BRANCH  39  40
ATOM     40  C   UNL d   1       3.022   2.910   3.631  0.00  0.00    -0.023 C 
ATOM     41  C   UNL d   1       4.066   1.990   4.266  0.00  0.00     0.009 C 
ATOM     42  C   UNL d   1       1.892   3.154   4.641  0.00  0.00     0.009 C 
ENDBRANCH  39  40
ENDBRANCH  38  39
ENDBRANCH  37  38
ENDBRANCH  35  37
ENDBRANCH   7  35
TORSDOF 10
