REMARK  5 active torsions:
REMARK  status: ('A' for Active; 'I' for Inactive)
REMARK    1  A    between atoms: C_2  and  N_1 
REMARK       I    between atoms: C_4  and  N_1 
REMARK    2  A    between atoms: C_21  and  C_4 
REMARK    3  A    between atoms: S_13  and  C_21 
REMARK    4  A    between atoms: C_22  and  S_13 
REMARK    5  A    between atoms: C_16  and  C_22 
ROOT
ATOM      1  N   UNL d   1       3.061   1.220  -0.305  0.00  0.00    -0.324 N 
ATOM      2  C   UNL d   1       2.480   0.057   0.170  0.00  0.00     0.231 C 
ATOM      3  O   UNL d   1       1.298  -0.257   0.060  0.00  0.00    -0.272 OA
ATOM      4  H   UNL d   1       4.074   1.182  -0.376  0.00  0.00     0.169 HD
ENDROOT
BRANCH   2   5
ATOM      5  C   UNL d   1       3.432  -0.874   0.916  0.00  0.00     0.177 C 
BRANCH   5   6
ATOM      6  S   UNL d   1       5.143  -0.810   0.294  0.00  0.00    -0.155 SA
BRANCH   6   7
ATOM      7  C   UNL d   1       5.854  -2.114   1.352  0.00  0.00     0.112 C 
BRANCH   7   8
ATOM      8  C   UNL d   1       7.319  -2.308   1.050  0.00  0.00    -0.047 A 
ATOM      9  C   UNL d   1       8.288  -1.521   1.692  0.00  0.00     0.033 A 
ATOM     10  C   UNL d   1       9.645  -1.655   1.372  0.00  0.00     0.056 A 
ATOM     11 CL   UNL d   1      10.768  -0.635   2.200  0.00  0.00    -0.083 Cl
ATOM     12  C   UNL d   1      10.044  -2.583   0.406  0.00  0.00     0.055 A 
ATOM     13  C   UNL d   1       9.087  -3.379  -0.229  0.00  0.00     0.026 A 
ATOM     14 CL   UNL d   1      11.696  -2.787  -0.057  0.00  0.00    -0.083 Cl
ATOM     15  C   UNL d   1       7.733  -3.242   0.089  0.00  0.00     0.010 A 
ENDBRANCH   7   8
ENDBRANCH   6   7
ENDBRANCH   5   6
ENDBRANCH   2   5
BRANCH   1  16
ATOM     16  C   UNL d   1       2.406   2.291  -0.954  0.00  0.00     0.073 A 
ATOM     17  C   UNL d   1       1.039   2.592  -0.837  0.00  0.00     0.145 A 
ATOM     18  C   UNL d   1       0.464   3.637  -1.555  0.00  0.00     0.086 A 
ATOM     19  F   UNL d   1       0.250   1.950   0.033  0.00  0.00    -0.204 F 
ATOM     20  C   UNL d   1       1.262   4.410  -2.385  0.00  0.00     0.119 A 
ATOM     21  C   UNL d   1       2.626   4.170  -2.486  0.00  0.00     0.044 A 
ATOM     22  F   UNL d   1       0.714   5.413  -3.083  0.00  0.00    -0.206 F 
ATOM     23  C   UNL d   1       3.200   3.118  -1.766  0.00  0.00     0.036 A 
ENDBRANCH   1  16
TORSDOF 5
