REMARK  11 active torsions:
REMARK  status: ('A' for Active; 'I' for Inactive)
REMARK    1  A    between atoms: C_2  and  S_1 
REMARK    2  A    between atoms: O_7  and  S_1 
REMARK    3  A    between atoms: O_11  and  C_6 
REMARK    4  A    between atoms: C_13  and  O_7 
REMARK    5  A    between atoms: O_12  and  C_9 
REMARK    6  A    between atoms: C_16  and  C_13 
REMARK    7  A    between atoms: C_20  and  C_16 
REMARK    8  A    between atoms: C_17  and  C_18 
REMARK    9  A    between atoms: C_18  and  C_19 
REMARK   10  A    between atoms: C_19  and  C_21 
REMARK   11  A    between atoms: C_21  and  C_20 
ROOT
ATOM      1  S   UNL d   1       0.787  -0.473   0.045  0.00  0.00     0.300 S 
ATOM      2  O   UNL d   1       0.268   0.497  -0.893  0.00  0.00    -0.193 OA
ATOM      3  O   UNL d   1       0.390  -1.862   0.011  0.00  0.00    -0.193 OA
ENDROOT
BRANCH   1   4
ATOM      4  C   UNL d   1       0.455   0.126   1.685  0.00  0.00     0.122 A 
ATOM      5  C   UNL d   1       1.591   0.346   2.499  0.00  0.00     0.065 A 
ATOM      6  C   UNL d   1       1.472   0.868   3.784  0.00  0.00     0.069 A 
ATOM      7  C   UNL d   1       0.205   1.162   4.269  0.00  0.00     0.039 A 
ATOM      8  C   UNL d   1      -0.921   0.951   3.469  0.00  0.00     0.041 A 
ATOM      9  C   UNL d   1      -0.822   0.433   2.165  0.00  0.00     0.092 A 
BRANCH   6  10
ATOM     10  O   UNL d   1       2.505   1.138   4.636  0.00  0.00    -0.356 OA
ATOM     11  C   UNL d   1       3.821   0.873   4.161  0.00  0.00     0.210 C 
ENDBRANCH   6  10
BRANCH   9  12
ATOM     12  O   UNL d   1      -2.041   0.409   1.557  0.00  0.00    -0.354 OA
ATOM     13  C   UNL d   1      -2.363  -0.591   0.607  0.00  0.00     0.210 C 
ENDBRANCH   9  12
ENDBRANCH   1   4
BRANCH   1  14
ATOM     14  O   UNL d   1       2.410  -0.429  -0.094  0.00  0.00    -0.272 OA
BRANCH  14  15
ATOM     15  C   UNL d   1       2.999  -0.917  -1.289  0.00  0.00     0.190 C 
BRANCH  15  16
ATOM     16  C   UNL d   1       4.521  -0.826  -1.165  0.00  0.00     0.028 C 
BRANCH  16  17
ATOM     17  C   UNL d   1       5.036  -1.667   0.005  0.00  0.00     0.002 C 
BRANCH  17  18
ATOM     18  C   UNL d   1       6.556  -1.609   0.152  0.00  0.00     0.000 C 
BRANCH  18  19
ATOM     19  C   UNL d   1       6.999  -2.474   1.335  0.00  0.00     0.000 C 
BRANCH  19  20
ATOM     20  C   UNL d   1       8.514  -2.447   1.525  0.00  0.00    -0.000 C 
BRANCH  20  21
ATOM     21  C   UNL d   1       8.934  -3.317   2.709  0.00  0.00    -0.005 C 
ATOM     22  C   UNL d   1      10.441  -3.296   2.905  0.00  0.00     0.005 C 
ENDBRANCH  20  21
ENDBRANCH  19  20
ENDBRANCH  18  19
ENDBRANCH  17  18
ENDBRANCH  16  17
ENDBRANCH  15  16
ENDBRANCH  14  15
ENDBRANCH   1  14
TORSDOF 11
