REMARK  3 active torsions:
REMARK  status: ('A' for Active; 'I' for Inactive)
REMARK    1  A    between atoms: C_2  and  N_1 
REMARK       I    between atoms: C_3  and  N_4 
REMARK    2  A    between atoms: C_9  and  C_3 
REMARK    3  A    between atoms: N_4  and  C_5 
ROOT
ATOM      1  C   UNL d   1       2.785   0.662   1.615  0.00  0.00     0.256 C 
ATOM      2  N   UNL d   1       2.022  -0.056   2.519  0.00  0.00    -0.321 N 
ATOM      3  O   UNL d   1       2.484   0.871   0.442  0.00  0.00    -0.267 OA
ATOM      4  H   UNL d   1       2.170   0.138   3.509  0.00  0.00     0.169 HD
ENDROOT
BRANCH   2   5
ATOM      5  C   UNL d   1       0.802  -0.687   2.149  0.00  0.00     0.068 A 
ATOM      6  C   UNL d   1      -0.329  -0.686   2.980  0.00  0.00     0.129 A 
ATOM      7  C   UNL d   1      -1.541  -1.268   2.574  0.00  0.00     0.038 A 
ATOM      8  C   UNL d   1      -1.619  -1.899   1.330  0.00  0.00     0.003 A 
ATOM      9  C   UNL d   1      -0.498  -1.938   0.505  0.00  0.00     0.002 A 
ATOM     10  C   UNL d   1       0.699  -1.336   0.910  0.00  0.00     0.032 A 
BRANCH   6  11
ATOM     11  N   UNL d   1      -0.312   0.017   4.253  0.00  0.00    -0.113 N 
ATOM     12  O   UNL d   1       0.709  -0.097   4.951  0.00  0.00    -0.532 OA
ATOM     13  O   UNL d   1      -1.309   0.687   4.553  0.00  0.00    -0.532 OA
ENDBRANCH   6  11
ENDBRANCH   2   5
BRANCH   1  14
ATOM     14  C   UNL d   1       4.019   1.292   2.137  0.00  0.00     0.032 A 
ATOM     15  C   UNL d   1       4.901   0.592   2.966  0.00  0.00     0.017 A 
ATOM     16  C   UNL d   1       6.115   1.181   3.329  0.00  0.00     0.001 A 
ATOM     17  C   UNL d   1       6.440   2.463   2.878  0.00  0.00     0.000 A 
ATOM     18  C   UNL d   1       5.553   3.165   2.064  0.00  0.00     0.001 A 
ATOM     19  C   UNL d   1       4.346   2.578   1.688  0.00  0.00     0.017 A 
ENDBRANCH   1  14
TORSDOF 3
