REMARK  3 active torsions:
REMARK  status: ('A' for Active; 'I' for Inactive)
REMARK    1  A    between atoms: C_7  and  C_1 
REMARK    2  A    between atoms: C_2  and  C_3 
REMARK    3  A    between atoms: N_14  and  C_7 
ROOT
ATOM      1  C   UNL d   1      -0.159   1.101  -0.006  0.00  0.00     0.092 A 
ATOM      2  C   UNL d   1      -1.643  -1.237  -0.007  0.00  0.00     0.065 A 
ATOM      3  N   UNL d   1      -1.530   1.175   0.044  0.00  0.00    -0.361 N 
ATOM      4  HN  UNL d   1      -2.006   2.076   0.090  1.00  0.00     0.165 HD
ATOM      5  C   UNL d   1       0.519  -0.119  -0.012  0.00  0.00     0.064 A 
ATOM      6  C   UNL d   1      -0.244  -1.294  -0.020  0.00  0.00     0.043 A 
ATOM      7  C   UNL d   1      -2.229   0.017   0.032  0.00  0.00     0.104 A 
ATOM      8 CL   UNL d   1       2.227  -0.320   0.086  0.00  0.00    -0.082 Cl
ENDROOT
BRANCH   1   9
ATOM      9  C   UNL d   1       0.474   2.463  -0.027  0.00  0.00     0.123 C 
ATOM     10  S   UNL d   1       1.848   2.940  -0.848  0.00  0.00    -0.059 SA
BRANCH   9  11
ATOM     11  N   UNL d   1      -0.236   3.436   0.645  0.00  0.00    -0.388 N 
ATOM     12  H   UNL d   1      -1.175   3.230   0.974  0.00  0.00     0.157 HD
ATOM     13  H   UNL d   1       0.046   4.404   0.560  0.00  0.00     0.157 HD
ENDBRANCH   9  11
ENDBRANCH   1   9
BRANCH   2  14
ATOM     14  C   UNL d   1      -2.501  -2.465  -0.019  0.00  0.00     0.418 C 
ATOM     15  F   UNL d   1      -1.787  -3.623  -0.041  0.00  0.00    -0.166 F 
ATOM     16  F   UNL d   1      -3.308  -2.543   1.073  0.00  0.00    -0.166 F 
ATOM     17  F   UNL d   1      -3.325  -2.511  -1.100  0.00  0.00    -0.166 F 
ENDBRANCH   2  14
TORSDOF 3
