REMARK  6 active torsions:
REMARK  status: ('A' for Active; 'I' for Inactive)
REMARK    1  A    between atoms: C_6  and  C_1 
REMARK    2  A    between atoms: C_5  and  C_2 
REMARK       I    between atoms: N_9  and  C_5 
REMARK    3  A    between atoms: C_16  and  N_9 
REMARK    4  A    between atoms: C_10  and  C_14 
REMARK    5  A    between atoms: O_21  and  C_10 
REMARK    6  A    between atoms: C_28  and  O_21 
ROOT
ATOM      1  C   UNL d   1      -1.507  -0.311  -0.555  0.00  0.00     0.086 A 
ATOM      2  C   UNL d   1      -0.355  -1.027  -0.093  0.00  0.00     0.093 A 
ATOM      3  N   UNL d   1      -1.485   0.937  -0.052  0.00  0.00    -0.259 N 
ATOM      4  HN  UNL d   1      -2.168   1.673  -0.231  1.00  0.00     0.195 HD
ATOM      5  O   UNL d   1      -0.372   1.034   0.745  0.00  0.00    -0.241 OA
ATOM      6  C   UNL d   1       0.309  -0.133   0.714  0.00  0.00     0.090 A 
ATOM      7  C   UNL d   1       1.549  -0.183   1.511  0.00  0.00     0.080 C 
ENDROOT
BRANCH   2   8
ATOM      8  C   UNL d   1       0.144  -2.352  -0.387  0.00  0.00     0.261 C 
ATOM      9  N   UNL d   1      -0.598  -3.360   0.184  0.00  0.00    -0.323 N 
ATOM     10  H   UNL d   1      -1.277  -3.091   0.888  0.00  0.00     0.169 HD
ATOM     11  O   UNL d   1       1.192  -2.497  -1.003  0.00  0.00    -0.267 OA
BRANCH   9  12
ATOM     12  C   UNL d   1      -0.473  -4.739  -0.086  0.00  0.00     0.035 A 
ATOM     13  C   UNL d   1      -1.177  -5.624   0.737  0.00  0.00     0.030 A 
ATOM     14  C   UNL d   1      -1.267  -6.978   0.405  0.00  0.00     0.020 A 
ATOM     15  C   UNL d   1      -0.669  -7.454  -0.768  0.00  0.00     0.039 A 
ATOM     16  C   UNL d   1       0.126  -6.595  -1.531  0.00  0.00     0.020 A 
ATOM     17  C   UNL d   1       0.227  -5.243  -1.187  0.00  0.00     0.030 A 
BRANCH  15  18
ATOM     18  C   UNL d   1      -0.999  -8.788  -1.332  0.00  0.00     0.293 C 
ATOM     19  O   UNL d   1      -0.389  -9.324  -2.241  0.00  0.00    -0.259 OA
BRANCH  18  20
ATOM     20  O   UNL d   1      -2.198  -9.165  -0.825  0.00  0.00    -0.318 OA
BRANCH  20  21
ATOM     21  C   UNL d   1      -3.012 -10.010  -1.648  0.00  0.00     0.174 C 
ATOM     22  C   UNL d   1      -4.194  -9.174  -2.108  0.00  0.00     0.034 C 
ENDBRANCH  20  21
ENDBRANCH  18  20
ENDBRANCH  15  18
ENDBRANCH   9  12
ENDBRANCH   2   8
BRANCH   1  23
ATOM     23  C   UNL d   1      -2.605  -0.680  -1.464  0.00  0.00     0.037 A 
ATOM     24  C   UNL d   1      -3.949  -0.430  -1.097  0.00  0.00     0.048 A 
ATOM     25 CL   UNL d   1      -4.417   0.065   0.501  0.00  0.00    -0.083 Cl
ATOM     26  C   UNL d   1      -5.002  -0.600  -2.009  0.00  0.00     0.025 A 
ATOM     27  C   UNL d   1      -4.750  -1.064  -3.293  0.00  0.00     0.003 A 
ATOM     28  C   UNL d   1      -3.443  -1.365  -3.663  0.00  0.00     0.025 A 
ATOM     29  C   UNL d   1      -2.378  -1.162  -2.768  0.00  0.00     0.048 A 
ATOM     30 CL   UNL d   1      -0.803  -1.477  -3.407  0.00  0.00    -0.083 Cl
ENDBRANCH   1  23
TORSDOF 6
