REMARK  3 active torsions:
REMARK  status: ('A' for Active; 'I' for Inactive)
REMARK    1  A    between atoms: C_13  and  C_1 
REMARK    2  A    between atoms: C_5  and  N_15 
REMARK    3  A    between atoms: N_15  and  N_11 
ROOT
ATOM      1  N   UNL d   1       3.465  -2.746  -0.080  0.00  0.00    -0.327 N 
ATOM      2  HN  UNL d   1       4.159  -2.059  -0.374  1.00  0.00     0.180 HD
ATOM      3  C   UNL d   1       2.208  -2.462   0.068  0.00  0.00     0.116 C 
ENDROOT
BRANCH   1   4
ATOM      4  N   UNL d   1       3.775  -4.044   0.193  0.00  0.00    -0.203 NA
ATOM      5  H   UNL d   1       3.747  -4.644  -0.640  0.00  0.00     0.153 HD
BRANCH   4   6
ATOM      6  C   UNL d   1       5.043  -4.243   0.833  0.00  0.00     0.071 A 
ATOM      7  C   UNL d   1       5.523  -3.448   1.899  0.00  0.00     0.060 A 
ATOM      8  C   UNL d   1       6.760  -3.717   2.500  0.00  0.00     0.049 A 
ATOM      9 CL   UNL d   1       4.623  -2.139   2.599  0.00  0.00    -0.082 Cl
ATOM     10  C   UNL d   1       7.519  -4.802   2.078  0.00  0.00     0.037 A 
ATOM     11  C   UNL d   1       7.055  -5.634   1.067  0.00  0.00     0.049 A 
ATOM     12 CL   UNL d   1       9.031  -5.131   2.829  0.00  0.00    -0.084 Cl
ATOM     13  C   UNL d   1       5.827  -5.359   0.461  0.00  0.00     0.060 A 
ATOM     14 CL   UNL d   1       5.292  -6.432  -0.792  0.00  0.00    -0.082 Cl
ENDBRANCH   4   6
ENDBRANCH   1   4
BRANCH   3  15
ATOM     15  C   UNL d   1       1.774  -1.080  -0.067  0.00  0.00     0.016 A 
ATOM     16  C   UNL d   1       0.572  -0.616   0.426  0.00  0.00     0.064 A 
ATOM     17  S   UNL d   1       0.317   1.037   0.178  0.00  0.00    -0.081 SA
ATOM     18 BR   UNL d   1      -0.704  -1.646   1.353  0.00  0.00    -0.042 Br
ATOM     19  C   UNL d   1       1.833   1.225  -0.606  0.00  0.00     0.017 A 
ATOM     20  C   UNL d   1       2.526   0.010  -0.681  0.00  0.00    -0.004 A 
ATOM     21  C   UNL d   1       2.364   2.423  -1.125  0.00  0.00     0.021 A 
ATOM     22  C   UNL d   1       3.798   0.030  -1.315  0.00  0.00     0.037 A 
ATOM     23  C   UNL d   1       4.326   1.216  -1.830  0.00  0.00     0.035 A 
ATOM     24  C   UNL d   1       3.618   2.403  -1.737  0.00  0.00     0.025 A 
ATOM     25 CL   UNL d   1       5.870   1.199  -2.590  0.00  0.00    -0.084 Cl
ENDBRANCH   3  15
TORSDOF 3
