REMARK  4 active torsions:
REMARK  status: ('A' for Active; 'I' for Inactive)
REMARK    1  A    between atoms: N_2  and  S_1 
REMARK    2  A    between atoms: C_3  and  S_1 
REMARK    3  A    between atoms: N_4  and  N_2 
REMARK    4  A    between atoms: C_8  and  C_10 
ROOT
ATOM      1  N   UNL d   1       0.396   1.627   0.174  0.00  0.00    -0.223 N 
ATOM      2  H   UNL d   1      -0.376   1.927  -0.419  0.00  0.00     0.200 HD
ENDROOT
BRANCH   1   3
ATOM      3  S   UNL d   1       0.950   0.017   0.010  0.00  0.00     0.276 S 
ATOM      4  O   UNL d   1       0.311  -0.789   1.031  0.00  0.00    -0.199 OA
ATOM      5  O   UNL d   1       2.394   0.038  -0.134  0.00  0.00    -0.199 OA
BRANCH   3   6
ATOM      6  C   UNL d   1       0.274  -0.493  -1.555  0.00  0.00     0.081 A 
ATOM      7  C   UNL d   1       1.032  -0.330  -2.717  0.00  0.00     0.026 A 
ATOM      8  C   UNL d   1       0.585  -0.888  -3.917  0.00  0.00     0.008 A 
ATOM      9  C   UNL d   1      -0.612  -1.618  -3.960  0.00  0.00    -0.062 A 
ATOM     10  C   UNL d   1      -1.365  -1.768  -2.789  0.00  0.00     0.008 A 
ATOM     11  C   UNL d   1      -1.051  -2.260  -5.245  0.00  0.00     0.048 C 
ATOM     12  C   UNL d   1      -0.924  -1.212  -1.586  0.00  0.00     0.026 A 
ENDBRANCH   3   6
ENDBRANCH   1   3
BRANCH   1  13
ATOM     13  N   UNL d   1       0.752   2.284   1.397  0.00  0.00    -0.301 N 
ATOM     14  C   UNL d   1       0.286   3.471   1.620  0.00  0.00     0.120 C 
ATOM     15  HN  UNL d   1       1.359   1.827   2.077  1.00  0.00     0.186 HD
BRANCH  14  16
ATOM     16  C   UNL d   1       0.637   4.161   2.888  0.00  0.00     0.002 A 
ATOM     17  C   UNL d   1       0.222   5.465   3.178  0.00  0.00     0.045 A 
ATOM     18 CL   UNL d   1      -0.740   6.405   2.096  0.00  0.00    -0.083 Cl
ATOM     19  C   UNL d   1       0.594   6.061   4.393  0.00  0.00     0.024 A 
ATOM     20  C   UNL d   1       1.373   5.361   5.318  0.00  0.00     0.002 A 
ATOM     21  C   UNL d   1       1.786   4.064   5.035  0.00  0.00     0.001 A 
ATOM     22  C   UNL d   1       1.420   3.467   3.828  0.00  0.00     0.014 A 
ENDBRANCH  14  16
ENDBRANCH   1  13
TORSDOF 4
