REMARK  6 active torsions:
REMARK  status: ('A' for Active; 'I' for Inactive)
REMARK    1  A    between atoms: C_2  and  N_1 
REMARK    2  A    between atoms: C_3  and  N_1 
REMARK    3  A    between atoms: N_5  and  C_2 
REMARK    4  A    between atoms: C_6  and  C_3 
REMARK    5  A    between atoms: C_13  and  N_5 
REMARK    6  A    between atoms: C_14  and  N_5 
ROOT
ATOM      1  N   UNL d   1       1.107  -0.572  -0.150  0.00  0.00    -0.323 N 
ATOM      2  H   UNL d   1       0.660   0.197  -0.634  0.00  0.00     0.169 HD
ENDROOT
BRANCH   1   3
ATOM      3  C   UNL d   1       0.126  -1.391   0.449  0.00  0.00     0.175 C 
ATOM      4  S   UNL d   1       0.282  -2.195   1.908  0.00  0.00    -0.041 SA
BRANCH   3   5
ATOM      5  N   UNL d   1      -1.071  -1.326  -0.308  0.00  0.00    -0.359 N 
BRANCH   5   6
ATOM      6  C   UNL d   1      -2.365  -1.264   0.393  0.00  0.00     0.120 C 
ATOM      7  C   UNL d   1      -3.482  -0.661  -0.445  0.00  0.00     0.026 C 
ENDBRANCH   5   6
BRANCH   5   8
ATOM      8  C   UNL d   1      -1.035  -2.024  -1.605  0.00  0.00     0.120 C 
ATOM      9  C   UNL d   1      -1.373  -3.507  -1.501  0.00  0.00     0.026 C 
ENDBRANCH   5   8
ENDBRANCH   3   5
ENDBRANCH   1   3
BRANCH   1  10
ATOM     10  C   UNL d   1       2.498  -0.450   0.022  0.00  0.00     0.113 C 
ATOM     11  S   UNL d   1       3.527  -1.749   0.306  0.00  0.00    -0.059 SA
BRANCH  10  12
ATOM     12  C   UNL d   1       3.004   0.951  -0.152  0.00  0.00     0.002 A 
ATOM     13  C   UNL d   1       2.312   2.006   0.460  0.00  0.00     0.015 A 
ATOM     14  C   UNL d   1       2.777   3.319   0.345  0.00  0.00     0.007 A 
ATOM     15  C   UNL d   1       3.950   3.597  -0.367  0.00  0.00    -0.062 A 
ATOM     16  C   UNL d   1       4.639   2.544  -0.983  0.00  0.00     0.007 A 
ATOM     17  C   UNL d   1       4.436   5.011  -0.500  0.00  0.00     0.048 C 
ATOM     18  C   UNL d   1       4.171   1.230  -0.873  0.00  0.00     0.015 A 
ENDBRANCH  10  12
ENDBRANCH   1  10
TORSDOF 6
