REMARK  6 active torsions:
REMARK  status: ('A' for Active; 'I' for Inactive)
REMARK    1  A    between atoms: C_8  and  C_1 
REMARK    2  A    between atoms: C_13  and  C_2 
REMARK    3  A    between atoms: C_9  and  N_5 
REMARK    4  A    between atoms: N_7  and  C_8 
REMARK    5  A    between atoms: O_17  and  C_14 
REMARK    6  A    between atoms: C_22  and  O_17 
ROOT
ATOM      1  N   UNL d   1       3.288  -2.009  -0.305  0.00  0.00    -0.375 N 
ATOM      2  N   UNL d   1       3.102   0.933  -0.169  0.00  0.00     0.096 N 
ATOM      3  C   UNL d   1       2.387  -1.307  -1.222  0.00  0.00     0.153 C 
ATOM      4  C   UNL d   1       3.542  -1.335   0.972  0.00  0.00     0.153 C 
ATOM      5  C   UNL d   1       3.961   0.141   0.744  0.00  0.00     0.292 C 
ATOM      6  C   UNL d   1       2.879   0.150  -1.411  0.00  0.00     0.292 C 
ENDROOT
BRANCH   2   7
ATOM      7  C   UNL d   1       1.865   1.360   0.492  0.00  0.00     0.315 C 
BRANCH   7   8
ATOM      8  C   UNL d   1       1.075   2.277  -0.391  0.00  0.00     0.016 A 
ATOM      9  C   UNL d   1       1.441   3.542  -0.968  0.00  0.00     0.067 A 
ATOM     10  N   UNL d   1       0.463   3.998  -1.771  0.00  0.00    -0.300 N 
ATOM     11  N   UNL d   1      -0.504   3.081  -1.687  0.00  0.00    -0.311 N 
ATOM     12  HN  UNL d   1       0.461   4.855  -2.323  1.00  0.00     0.187 HD
ATOM     13  C   UNL d   1      -0.204   2.045  -0.862  0.00  0.00     0.118 A 
ATOM     14  H   UNL d   1      -1.348   3.226  -2.230  0.00  0.00     0.186 HD
BRANCH   9  15
ATOM     15  C   UNL d   1       2.672   4.318  -0.807  0.00  0.00    -0.007 A 
ATOM     16  C   UNL d   1       3.302   4.877  -1.930  0.00  0.00     0.014 A 
ATOM     17  C   UNL d   1       4.458   5.649  -1.789  0.00  0.00     0.001 A 
ATOM     18  C   UNL d   1       4.992   5.878  -0.523  0.00  0.00     0.000 A 
ATOM     19  C   UNL d   1       4.370   5.337   0.602  0.00  0.00     0.001 A 
ATOM     20  C   UNL d   1       3.215   4.562   0.460  0.00  0.00     0.014 A 
ENDBRANCH   9  15
ENDBRANCH   7   8
ENDBRANCH   2   7
BRANCH   1  21
ATOM     21  C   UNL d   1       3.781  -3.273  -0.593  0.00  0.00     0.064 A 
ATOM     22  C   UNL d   1       3.019  -4.309  -1.193  0.00  0.00     0.095 A 
ATOM     23  C   UNL d   1       3.631  -5.529  -1.536  0.00  0.00     0.039 A 
ATOM     24  C   UNL d   1       4.974  -5.765  -1.252  0.00  0.00     0.003 A 
ATOM     25  C   UNL d   1       5.724  -4.780  -0.629  0.00  0.00     0.002 A 
ATOM     26  C   UNL d   1       5.133  -3.554  -0.313  0.00  0.00     0.032 A 
BRANCH  22  27
ATOM     27  O   UNL d   1       1.672  -4.078  -1.398  0.00  0.00    -0.349 OA
BRANCH  27  28
ATOM     28  C   UNL d   1       0.858  -5.235  -1.604  0.00  0.00     0.171 C 
ATOM     29  C   UNL d   1      -0.604  -4.846  -1.486  0.00  0.00     0.034 C 
ENDBRANCH  27  28
ENDBRANCH  22  27
ENDBRANCH   1  21
TORSDOF 6
