REMARK  4 active torsions:
REMARK  status: ('A' for Active; 'I' for Inactive)
REMARK    1  A    between atoms: C_7  and  N_1 
REMARK    2  A    between atoms: C_8  and  C_7 
REMARK    3  A    between atoms: O_13  and  C_8 
REMARK    4  A    between atoms: C_14  and  O_13 
ROOT
ATOM      1  N   UNL d   1      -0.173  -1.130   0.000  0.00  0.00    -0.286 N 
ATOM      2  N   UNL d   1       1.089  -0.643  -0.034  0.00  0.00    -0.301 N 
ATOM      3  HN  UNL d   1       1.961  -1.170  -0.063  1.00  0.00     0.187 HD
ATOM      4  C   UNL d   1      -1.136  -0.150  -0.030  0.00  0.00     0.044 A 
ATOM      5  C   UNL d   1      -0.429   1.034  -0.023  0.00  0.00     0.058 A 
ATOM      6  C   UNL d   1       0.934   0.686  -0.021  0.00  0.00     0.041 A 
ATOM      7 BR   UNL d   1      -1.115   2.773  -0.016  0.00  0.00    -0.047 Br
ATOM      8  C   UNL d   1      -2.599  -0.397  -0.025  0.00  0.00     0.071 C 
ATOM      9  C   UNL d   1       2.118   1.576  -0.017  0.00  0.00     0.071 C 
ENDROOT
BRANCH   1  10
ATOM     10  C   UNL d   1      -0.355  -2.571  -0.041  0.00  0.00     0.259 C 
BRANCH  10  11
ATOM     11  C   UNL d   1      -0.906  -3.118   1.246  0.00  0.00     0.278 C 
ATOM     12  O   UNL d   1      -1.316  -2.472   2.201  0.00  0.00    -0.263 OA
BRANCH  11  13
ATOM     13  O   UNL d   1      -0.874  -4.485   1.194  0.00  0.00    -0.321 OA
BRANCH  13  14
ATOM     14  C   UNL d   1      -1.083  -5.151   2.448  0.00  0.00     0.174 C 
ATOM     15  C   UNL d   1       0.265  -5.303   3.130  0.00  0.00     0.034 C 
ENDBRANCH  13  14
ENDBRANCH  11  13
ENDBRANCH  10  11
ENDBRANCH   1  10
TORSDOF 4
