REMARK  4 active torsions:
REMARK  status: ('A' for Active; 'I' for Inactive)
REMARK    1  A    between atoms: N_2  and  C_1 
REMARK    2  A    between atoms: S_6  and  C_3 
REMARK    3  A    between atoms: C_9  and  C_5 
REMARK    4  A    between atoms: C_13  and  S_6 
ROOT
ATOM      1  C   UNL d   1       1.434  -0.052  -0.114  0.00  0.00     0.120 A 
ATOM      2  C   UNL d   1       0.705  -1.245  -0.067  0.00  0.00     0.034 A 
ATOM      3  C   UNL d   1       0.821   1.212  -0.005  0.00  0.00     0.052 A 
ATOM      4  C   UNL d   1      -0.570   1.315   0.126  0.00  0.00     0.012 A 
ATOM      5  C   UNL d   1      -0.693  -1.111   0.039  0.00  0.00     0.022 A 
ATOM      6  C   UNL d   1      -1.324   0.141   0.134  0.00  0.00     0.016 A 
ENDROOT
BRANCH   2   7
ATOM      7  S   UNL d   1       1.248  -2.946  -0.191  0.00  0.00    -0.123 SA
BRANCH   7   8
ATOM      8  C   UNL d   1       2.857  -3.071   0.695  0.00  0.00     0.044 C 
ATOM      9  C   UNL d   1       2.788  -2.598   2.143  0.00  0.00     0.021 C 
ATOM     10  C   UNL d   1       3.274  -4.545   0.657  0.00  0.00     0.021 C 
ENDBRANCH   7   8
ENDBRANCH   2   7
BRANCH   1  11
ATOM     11  N   UNL d   1       2.863  -0.038  -0.333  0.00  0.00    -0.114 N 
ATOM     12  O   UNL d   1       3.270  -0.423  -1.435  0.00  0.00    -0.532 OA
ATOM     13  O   UNL d   1       3.564   0.389   0.591  0.00  0.00    -0.532 OA
ENDBRANCH   1  11
BRANCH   4  14
ATOM     14  C   UNL d   1      -1.164   2.684   0.240  0.00  0.00     0.155 C 
ATOM     15  O   UNL d   1      -0.411   3.658   0.195  0.00  0.00    -0.293 OA
ATOM     16  C   UNL d   1      -2.644   2.883   0.440  0.00  0.00     0.096 C 
ENDBRANCH   4  14
TORSDOF 4
