REMARK  7 active torsions:
REMARK  status: ('A' for Active; 'I' for Inactive)
REMARK    1  A    between atoms: C_10  and  C_1 
REMARK    2  A    between atoms: O_15  and  C_3 
REMARK    3  A    between atoms: N_11  and  N_5 
REMARK       I    between atoms: C_7  and  N_11 
REMARK    4  A    between atoms: C_14  and  C_7 
REMARK    5  A    between atoms: C_19  and  C_14 
REMARK    6  A    between atoms: O_24  and  C_17 
REMARK    7  A    between atoms: C_18  and  C_19 
ROOT
ATOM      1  C   UNL d   1       1.723   6.486   0.011  0.00  0.00     0.236 C 
ATOM      2  N   UNL d   1       0.613   5.650   0.052  0.00  0.00    -0.270 N 
ATOM      3  O   UNL d   1       2.889   6.098   0.020  0.00  0.00    -0.272 OA
ATOM      4  H   UNL d   1      -0.333   6.013   0.047  0.00  0.00     0.190 HD
ENDROOT
BRANCH   2   5
ATOM      5  N   UNL d   1       0.821   4.303   0.051  0.00  0.00    -0.308 N 
ATOM      6  C   UNL d   1      -0.217   3.534   0.037  0.00  0.00     0.121 C 
ATOM      7  HN  UNL d   1       1.765   3.916   0.062  1.00  0.00     0.186 HD
BRANCH   6   8
ATOM      8  C   UNL d   1      -0.047   2.062   0.038  0.00  0.00     0.017 A 
ATOM      9  C   UNL d   1      -1.152   1.208   0.017  0.00  0.00     0.099 A 
ATOM     10  C   UNL d   1      -0.955  -0.181   0.024  0.00  0.00     0.069 A 
ATOM     11 CL   UNL d   1      -2.308  -1.252   0.001  0.00  0.00    -0.081 Cl
ATOM     12  C   UNL d   1       0.331  -0.718   0.051  0.00  0.00     0.050 A 
ATOM     13  C   UNL d   1       1.428   0.140   0.069  0.00  0.00     0.036 A 
ATOM     14  C   UNL d   1       1.247   1.522   0.062  0.00  0.00     0.039 A 
ATOM     15 CL   UNL d   1       3.018  -0.514   0.100  0.00  0.00    -0.084 Cl
BRANCH   9  16
ATOM     16  O   UNL d   1      -2.420   1.729  -0.011  0.00  0.00    -0.358 OA
ATOM     17  H   UNL d   1      -3.048   0.980  -0.024  0.00  0.00     0.217 HD
ENDBRANCH   9  16
ENDBRANCH   6   8
ENDBRANCH   2   5
BRANCH   1  18
ATOM     18  C   UNL d   1       1.369   7.963  -0.002  0.00  0.00     0.109 C 
BRANCH  18  19
ATOM     19  C   UNL d   1       2.490   8.765  -0.667  0.00  0.00     0.048 C 
BRANCH  19  20
ATOM     20  C   UNL d   1       2.233  10.252  -0.690  0.00  0.00    -0.058 A 
ATOM     21  C   UNL d   1       2.692  11.063   0.357  0.00  0.00     0.010 A 
ATOM     22  C   UNL d   1       2.501  12.446   0.318  0.00  0.00     0.037 A 
ATOM     23  C   UNL d   1       1.846  13.020  -0.764  0.00  0.00     0.065 A 
ATOM     24  C   UNL d   1       1.371  12.232  -1.808  0.00  0.00     0.037 A 
ATOM     25  C   UNL d   1       1.563  10.848  -1.768  0.00  0.00     0.010 A 
BRANCH  23  26
ATOM     26  O   UNL d   1       1.693  14.375  -0.768  0.00  0.00    -0.361 OA
ATOM     27  H   UNL d   1       1.257  14.636  -1.595  0.00  0.00     0.217 HD
ENDBRANCH  23  26
ENDBRANCH  19  20
ENDBRANCH  18  19
ENDBRANCH   1  18
TORSDOF 7
