REMARK  4 active torsions:
REMARK  status: ('A' for Active; 'I' for Inactive)
REMARK    1  A    between atoms: C_4  and  C_1 
REMARK       I    between atoms: N_7  and  C_4 
REMARK    2  A    between atoms: N_10  and  N_7 
REMARK    3  A    between atoms: C_8  and  C_9 
REMARK    4  A    between atoms: C_15  and  N_10 
ROOT
ATOM      1  C   UNL d   1       3.521  -0.356   0.756  0.00  0.00     0.274 C 
ATOM      2  N   UNL d   1       4.554  -1.256   0.495  0.00  0.00    -0.282 N 
ATOM      3  O   UNL d   1       2.377  -0.627   0.380  0.00  0.00    -0.266 OA
ATOM      4  H   UNL d   1       5.515  -0.930   0.503  0.00  0.00     0.184 HD
ENDROOT
BRANCH   2   5
ATOM      5  N   UNL d   1       4.267  -2.261  -0.444  0.00  0.00    -0.203 NA
ATOM      6  H   UNL d   1       3.259  -2.332  -0.637  0.00  0.00     0.153 HD
BRANCH   5   7
ATOM      7  C   UNL d   1       4.862  -3.523  -0.235  0.00  0.00     0.027 A 
ATOM      8  C   UNL d   1       5.915  -3.760   0.650  0.00  0.00     0.026 A 
ATOM      9  C   UNL d   1       6.604  -4.982   0.642  0.00  0.00     0.010 A 
ATOM     10  C   UNL d   1       6.294  -5.999  -0.280  0.00  0.00    -0.051 A 
ATOM     11  C   UNL d   1       5.190  -5.782  -1.115  0.00  0.00     0.010 A 
ATOM     12  C   UNL d   1       4.496  -4.565  -1.096  0.00  0.00     0.026 A 
BRANCH  10  13
ATOM     13  C   UNL d   1       7.199  -7.237  -0.409  0.00  0.00    -0.024 C 
ATOM     14  C   UNL d   1       6.793  -8.186  -1.560  0.00  0.00     0.019 C 
ATOM     15  C   UNL d   1       8.643  -6.771  -0.704  0.00  0.00     0.019 C 
ATOM     16  C   UNL d   1       7.188  -8.059   0.895  0.00  0.00     0.019 C 
ENDBRANCH  10  13
ENDBRANCH   5   7
ENDBRANCH   2   5
BRANCH   1  17
ATOM     17  C   UNL d   1       3.879   0.872   1.454  0.00  0.00     0.097 A 
ATOM     18  S   UNL d   1       2.644   2.052   1.634  0.00  0.00    -0.082 SA
ATOM     19  C   UNL d   1       3.637   3.102   2.551  0.00  0.00     0.017 A 
ATOM     20  C   UNL d   1       3.257   4.338   3.111  0.00  0.00     0.020 A 
ATOM     21  C   UNL d   1       4.925   2.586   2.703  0.00  0.00     0.004 A 
ATOM     22  C   UNL d   1       4.188   5.061   3.857  0.00  0.00     0.001 A 
ATOM     23  C   UNL d   1       5.474   4.574   4.033  0.00  0.00     0.001 A 
ATOM     24  C   UNL d   1       5.851   3.354   3.461  0.00  0.00     0.014 A 
ATOM     25  C   UNL d   1       5.055   1.309   2.036  0.00  0.00     0.068 A 
ATOM     26 CL   UNL d   1       6.555   0.461   2.043  0.00  0.00    -0.082 Cl
ENDBRANCH   1  17
TORSDOF 4
