REMARK  9 active torsions:
REMARK  status: ('A' for Active; 'I' for Inactive)
REMARK    1  A    between atoms: C_2  and  C_1 
REMARK    2  A    between atoms: O_6  and  C_1 
REMARK    3  A    between atoms: O_10  and  C_7 
REMARK    4  A    between atoms: C_11  and  O_10 
REMARK    5  A    between atoms: C_12  and  C_11 
REMARK    6  A    between atoms: C_15  and  C_12 
REMARK    7  A    between atoms: C_13  and  C_14 
REMARK    8  A    between atoms: C_14  and  C_16 
REMARK    9  A    between atoms: C_16  and  C_15 
ROOT
ATOM      1  C   UNL d   1       0.200   1.097  -0.454  0.00  0.00     0.037 A 
ATOM      2  C   UNL d   1       0.200   1.656  -1.739  0.00  0.00     0.021 A 
ATOM      3  C   UNL d   1      -0.462   1.760   0.584  0.00  0.00     0.021 A 
ATOM      4  C   UNL d   1      -1.176   3.493  -0.954  0.00  0.00     0.068 A 
ATOM      5  C   UNL d   1      -1.172   2.933   0.326  0.00  0.00     0.038 A 
ATOM      6  C   UNL d   1      -0.488   2.851  -1.985  0.00  0.00     0.038 A 
ENDROOT
BRANCH   4   7
ATOM      7  O   UNL d   1      -1.921   4.634  -1.086  0.00  0.00    -0.351 OA
BRANCH   7   8
ATOM      8  C   UNL d   1      -1.462   5.555  -2.077  0.00  0.00     0.175 C 
BRANCH   8   9
ATOM      9  C   UNL d   1      -2.376   6.780  -2.070  0.00  0.00     0.027 C 
BRANCH   9  10
ATOM     10  C   UNL d   1      -1.924   7.795  -3.118  0.00  0.00     0.002 C 
BRANCH  10  11
ATOM     11  C   UNL d   1      -2.829   9.025  -3.142  0.00  0.00     0.000 C 
BRANCH  11  12
ATOM     12  C   UNL d   1      -2.360  10.028  -4.197  0.00  0.00    -0.000 C 
BRANCH  12  13
ATOM     13  C   UNL d   1      -3.257  11.263  -4.230  0.00  0.00    -0.005 C 
ATOM     14  C   UNL d   1      -2.786  12.256  -5.280  0.00  0.00     0.005 C 
ENDBRANCH  12  13
ENDBRANCH  11  12
ENDBRANCH  10  11
ENDBRANCH   9  10
ENDBRANCH   8   9
ENDBRANCH   7   8
ENDBRANCH   4   7
BRANCH   1  15
ATOM     15  C   UNL d   1       0.913  -0.189  -0.229  0.00  0.00     0.176 C 
ATOM     16  O   UNL d   1       1.856  -0.557  -0.900  0.00  0.00    -0.646 OA
BRANCH  15  17
ATOM     17  O   UNL d   1       0.382  -0.932   0.770  0.00  0.00    -0.773 OA
ATOM     18  H   UNL d   1      -0.479  -0.624   1.109  0.00  0.00     0.167 HD
ENDBRANCH  15  17
ENDBRANCH   1  15
TORSDOF 9
