REMARK  5 active torsions:
REMARK  status: ('A' for Active; 'I' for Inactive)
REMARK    1  A    between atoms: C_6  and  S_1 
REMARK    2  A    between atoms: C_8  and  S_1 
REMARK    3  A    between atoms: C_10  and  C_4 
REMARK    4  A    between atoms: C_5  and  C_6 
REMARK    5  A    between atoms: C_12  and  C_8 
ROOT
ATOM      1  N   UNL d   1       1.008  -0.229   3.138  0.00  0.00    -0.352 N 
ATOM      2  HN  UNL d   1       0.716  -1.104   2.703  1.00  0.00     0.166 HD
ATOM      3  C   UNL d   1       1.502  -0.112   4.426  0.00  0.00     0.049 A 
ATOM      4  C   UNL d   1       0.970   0.951   2.555  0.00  0.00     0.065 A 
ATOM      5  S   UNL d   1       1.432   2.275   3.551  0.00  0.00    -0.085 SA
ATOM      6  C   UNL d   1       1.765   1.184   4.825  0.00  0.00     0.081 A 
ENDROOT
BRANCH   3   7
ATOM      7  C   UNL d   1       1.714  -1.273   5.281  0.00  0.00    -0.006 A 
ATOM      8  C   UNL d   1       2.711  -1.256   6.268  0.00  0.00     0.053 A 
ATOM      9  C   UNL d   1       2.894  -2.350   7.108  0.00  0.00     0.103 A 
ATOM     10  O   UNL d   1       3.884  -2.237   8.049  0.00  0.00    -0.346 OA
ATOM     11  C   UNL d   1       2.078  -3.476   6.978  0.00  0.00     0.102 A 
ATOM     12  C   UNL d   1       4.194  -3.502   8.641  0.00  0.00     0.202 C 
ATOM     13  C   UNL d   1       2.926  -4.269   8.980  0.00  0.00     0.202 C 
ATOM     14  O   UNL d   1       2.179  -4.571   7.796  0.00  0.00    -0.346 OA
ATOM     15  C   UNL d   1       1.111  -3.524   5.976  0.00  0.00     0.040 A 
ATOM     16  C   UNL d   1       0.929  -2.425   5.128  0.00  0.00     0.017 A 
ENDBRANCH   3   7
BRANCH   4  17
ATOM     17  C   UNL d   1       0.514   1.186   1.160  0.00  0.00     0.205 C 
BRANCH  17  18
ATOM     18  S   UNL d   1       1.900   1.023   0.049  0.00  0.00     0.156 S 
ATOM     19  O   UNL d   1       2.958   1.926   0.502  0.00  0.00    -0.227 OA
ATOM     20  O   UNL d   1       1.406   1.181  -1.308  0.00  0.00    -0.227 OA
BRANCH  18  21
ATOM     21  C   UNL d   1       2.517  -0.644   0.244  0.00  0.00     0.205 C 
BRANCH  21  22
ATOM     22  C   UNL d   1       1.465  -1.613  -0.126  0.00  0.00     0.066 A 
ATOM     23  O   UNL d   1       0.680  -2.071   0.888  0.00  0.00    -0.326 OA
ATOM     24  C   UNL d   1      -0.206  -2.944   0.352  0.00  0.00     0.142 A 
ATOM     25  C   UNL d   1       0.013  -3.076  -0.998  0.00  0.00     0.027 A 
ATOM     26  C   UNL d   1       1.086  -2.207  -1.312  0.00  0.00     0.035 A 
ENDBRANCH  21  22
ENDBRANCH  18  21
ENDBRANCH  17  18
ENDBRANCH   4  17
TORSDOF 5
