REMARK  7 active torsions:
REMARK  status: ('A' for Active; 'I' for Inactive)
REMARK    1  A    between atoms: N_2  and  C_1 
REMARK    2  A    between atoms: N_3  and  C_1 
REMARK    3  A    between atoms: C_7  and  N_2 
REMARK    4  A    between atoms: C_9  and  N_3 
REMARK    5  A    between atoms: O_14  and  C_5 
REMARK    6  A    between atoms: O_15  and  C_8 
REMARK    7  A    between atoms: O_16  and  C_13 
ROOT
ATOM      1  C   UNL d   1       0.955  -0.013  -0.157  0.00  0.00     0.176 C 
ATOM      2  S   UNL d   1       2.452  -0.405  -0.794  0.00  0.00    -0.041 SA
ENDROOT
BRANCH   1   3
ATOM      3  N   UNL d   1       0.386  -0.524   0.991  0.00  0.00    -0.333 N 
ATOM      4  H   UNL d   1      -0.581  -0.800   0.868  0.00  0.00     0.168 HD
BRANCH   3   5
ATOM      5  C   UNL d   1       1.039  -0.998   2.143  0.00  0.00     0.037 A 
ATOM      6  C   UNL d   1       2.209  -0.396   2.609  0.00  0.00     0.069 A 
ATOM      7  C   UNL d   1       2.842  -0.865   3.764  0.00  0.00     0.103 A 
ATOM      8  C   UNL d   1       2.304  -1.974   4.438  0.00  0.00     0.101 A 
ATOM      9  C   UNL d   1       1.091  -2.528   4.010  0.00  0.00     0.042 A 
ATOM     10  C   UNL d   1       0.450  -2.028   2.873  0.00  0.00     0.032 A 
BRANCH   7  11
ATOM     11  O   UNL d   1       3.978  -0.308   4.298  0.00  0.00    -0.353 OA
ATOM     12  C   UNL d   1       4.508   0.839   3.639  0.00  0.00     0.210 C 
ENDBRANCH   7  11
BRANCH   8  13
ATOM     13  O   UNL d   1       2.983  -2.435   5.538  0.00  0.00    -0.353 OA
ATOM     14  C   UNL d   1       2.937  -3.847   5.721  0.00  0.00     0.210 C 
ENDBRANCH   8  13
ENDBRANCH   3   5
ENDBRANCH   1   3
BRANCH   1  15
ATOM     15  N   UNL d   1       0.118   0.770  -0.912  0.00  0.00    -0.333 N 
ATOM     16  H   UNL d   1       0.369   0.840  -1.894  0.00  0.00     0.168 HD
BRANCH  15  17
ATOM     17  C   UNL d   1      -0.913   1.619  -0.462  0.00  0.00     0.036 A 
ATOM     18  C   UNL d   1      -0.936   2.150   0.838  0.00  0.00     0.066 A 
ATOM     19  C   UNL d   1      -1.963   3.013   1.226  0.00  0.00     0.070 A 
ATOM     20  C   UNL d   1      -2.975   3.324   0.316  0.00  0.00     0.037 A 
ATOM     21  C   UNL d   1      -2.943   2.815  -0.982  0.00  0.00     0.005 A 
ATOM     22  C   UNL d   1      -1.898   1.984  -1.379  0.00  0.00     0.029 A 
BRANCH  19  23
ATOM     23  O   UNL d   1      -2.087   3.618   2.447  0.00  0.00    -0.356 OA
ATOM     24  C   UNL d   1      -1.039   3.408   3.386  0.00  0.00     0.210 C 
ENDBRANCH  19  23
ENDBRANCH  15  17
ENDBRANCH   1  15
TORSDOF 7
