REMARK  6 active torsions:
REMARK  status: ('A' for Active; 'I' for Inactive)
REMARK    1  A    between atoms: N_6  and  C_1 
REMARK    2  A    between atoms: N_7  and  C_1 
REMARK       I    between atoms: C_2  and  N_4 
REMARK    3  A    between atoms: C_11  and  C_2 
REMARK    4  A    between atoms: N_4  and  N_6 
REMARK    5  A    between atoms: C_13  and  N_7 
REMARK    6  A    between atoms: C_14  and  C_15 
ROOT
ATOM      1  N   UNL d   1       0.151   1.370  -0.595  0.00  0.00    -0.273 N 
ATOM      2  H   UNL d   1       0.725   0.532  -0.586  0.00  0.00     0.189 HD
ENDROOT
BRANCH   1   3
ATOM      3  N   UNL d   1       0.758   2.486  -1.187  0.00  0.00    -0.264 N 
ATOM      4  C   UNL d   1       0.152   3.267  -2.162  0.00  0.00     0.270 C 
ATOM      5  O   UNL d   1       0.832   4.003  -2.876  0.00  0.00    -0.266 OA
ATOM      6  H   UNL d   1       1.772   2.539  -1.159  0.00  0.00     0.190 HD
BRANCH   4   7
ATOM      7  C   UNL d   1      -1.327   3.318  -2.263  0.00  0.00     0.033 C 
ATOM      8  C   UNL d   1      -1.938   4.566  -2.165  0.00  0.00     0.017 C 
ATOM      9  C   UNL d   1      -3.326   4.654  -2.033  0.00  0.00     0.009 C 
ATOM     10  C   UNL d   1      -4.133   3.501  -1.970  0.00  0.00    -0.051 C 
ATOM     11  C   UNL d   1      -3.506   2.265  -2.198  0.00  0.00     0.009 C 
ATOM     12  C   UNL d   1      -2.120   2.179  -2.372  0.00  0.00     0.017 C 
BRANCH  10  13
ATOM     13  C   UNL d   1      -5.635   3.619  -1.661  0.00  0.00    -0.024 C 
ATOM     14  C   UNL d   1      -6.294   2.273  -1.278  0.00  0.00     0.019 C 
ATOM     15  C   UNL d   1      -5.872   4.571  -0.464  0.00  0.00     0.019 C 
ATOM     16  C   UNL d   1      -6.357   4.173  -2.902  0.00  0.00     0.019 C 
ENDBRANCH  10  13
ENDBRANCH   4   7
ENDBRANCH   1   3
BRANCH   1  17
ATOM     17  C   UNL d   1      -0.745   1.455   0.438  0.00  0.00     0.191 C 
ATOM     18  S   UNL d   1      -0.950   2.785   1.437  0.00  0.00    -0.039 SA
BRANCH  17  19
ATOM     19  N   UNL d   1      -1.568   0.377   0.648  0.00  0.00    -0.332 N 
ATOM     20  H   UNL d   1      -2.202   0.552   1.423  0.00  0.00     0.168 HD
BRANCH  19  21
ATOM     21  C   UNL d   1      -1.860  -0.783  -0.116  0.00  0.00     0.037 A 
ATOM     22  C   UNL d   1      -2.955  -1.549   0.319  0.00  0.00     0.069 A 
ATOM     23  C   UNL d   1      -3.334  -2.652  -0.424  0.00  0.00     0.107 A 
ATOM     24  O   UNL d   1      -4.384  -3.472  -0.158  0.00  0.00    -0.323 OA
ATOM     25  C   UNL d   1      -2.662  -3.023  -1.562  0.00  0.00     0.105 A 
ATOM     26  C   UNL d   1      -4.293  -4.403  -1.259  0.00  0.00     0.352 A 
ATOM     27  O   UNL d   1      -3.198  -4.121  -2.155  0.00  0.00    -0.323 OA
ATOM     28  C   UNL d   1      -1.580  -2.315  -2.016  0.00  0.00     0.042 A 
ATOM     29  C   UNL d   1      -1.182  -1.187  -1.285  0.00  0.00     0.032 A 
ENDBRANCH  19  21
ENDBRANCH  17  19
ENDBRANCH   1  17
TORSDOF 6
