REMARK  3 active torsions:
REMARK  status: ('A' for Active; 'I' for Inactive)
REMARK    1  A    between atoms: C_2  and  C_1 
REMARK       I    between atoms: N_5  and  C_2 
REMARK    2  A    between atoms: N_9  and  N_5 
REMARK    3  A    between atoms: C_13  and  N_9 
ROOT
ATOM      1  C   UNL d   1       0.533   2.229   0.811  0.00  0.00     0.274 C 
ATOM      2  N   UNL d   1       1.178   3.393   0.407  0.00  0.00    -0.282 N 
ATOM      3  O   UNL d   1       1.060   1.131   0.615  0.00  0.00    -0.266 OA
ATOM      4  H   UNL d   1       0.652   4.253   0.288  0.00  0.00     0.184 HD
ENDROOT
BRANCH   2   5
ATOM      5  N   UNL d   1       2.310   3.262  -0.410  0.00  0.00    -0.203 NA
ATOM      6  H   UNL d   1       2.648   2.292  -0.446  0.00  0.00     0.153 HD
BRANCH   5   7
ATOM      7  C   UNL d   1       3.365   4.172  -0.154  0.00  0.00     0.028 A 
ATOM      8  C   UNL d   1       3.257   5.287   0.688  0.00  0.00     0.032 A 
ATOM      9  C   UNL d   1       4.301   6.223   0.821  0.00  0.00    -0.054 A 
ATOM     10  C   UNL d   1       4.131   7.388   1.759  0.00  0.00     0.049 C 
ATOM     11  C   UNL d   1       5.476   6.061   0.063  0.00  0.00    -0.056 A 
ATOM     12  C   UNL d   1       5.588   4.951  -0.784  0.00  0.00     0.009 A 
ATOM     13  C   UNL d   1       6.600   7.057   0.130  0.00  0.00     0.049 C 
ATOM     14  C   UNL d   1       4.548   4.024  -0.890  0.00  0.00     0.026 A 
ENDBRANCH   5   7
ENDBRANCH   2   5
BRANCH   1  15
ATOM     15  C   UNL d   1      -0.766   2.417   1.451  0.00  0.00     0.095 A 
ATOM     16  C   UNL d   1      -1.454   3.558   1.829  0.00  0.00     0.057 A 
ATOM     17  C   UNL d   1      -2.697   3.267   2.467  0.00  0.00     0.032 A 
ATOM     18 CL   UNL d   1      -0.961   5.189   1.625  0.00  0.00    -0.083 Cl
ATOM     19  C   UNL d   1      -2.937   1.916   2.549  0.00  0.00     0.052 A 
ATOM     20  S   UNL d   1      -1.672   1.005   1.857  0.00  0.00    -0.095 SA
ENDBRANCH   1  15
TORSDOF 3
