REMARK  6 active torsions:
REMARK  status: ('A' for Active; 'I' for Inactive)
REMARK    1  A    between atoms: N_5  and  C_1 
REMARK    2  A    between atoms: N_8  and  C_2 
REMARK    3  A    between atoms: O_15  and  C_6 
REMARK    4  A    between atoms: O_14  and  C_7 
REMARK    5  A    between atoms: C_21  and  O_14 
REMARK    6  A    between atoms: C_20  and  O_15 
ROOT
ATOM      1  C   UNL d   1       1.397  -0.206   0.072  0.00  0.00     0.074 A 
ATOM      2  C   UNL d   1      -1.420   0.238  -0.098  0.00  0.00     0.067 A 
ATOM      3  C   UNL d   1      -0.486   1.287  -0.092  0.00  0.00     0.071 A 
ATOM      4  C   UNL d   1       0.484  -1.279   0.009  0.00  0.00     0.072 A 
ATOM      5  C   UNL d   1      -0.904  -1.076  -0.047  0.00  0.00     0.097 A 
ATOM      6  C   UNL d   1       0.902   1.102   0.042  0.00  0.00     0.098 A 
ENDROOT
BRANCH   2   7
ATOM      7  N   UNL d   1      -2.781   0.522  -0.159  0.00  0.00    -0.374 N 
ATOM      8  C   UNL d   1      -3.312   1.736  -0.804  0.00  0.00     0.149 C 
ATOM      9  C   UNL d   1      -3.872   2.723   0.231  0.00  0.00     0.187 C 
ATOM     10  O   UNL d   1      -4.840   2.095   1.085  0.00  0.00    -0.388 OA
ATOM     11  C   UNL d   1      -4.233   1.004   1.795  0.00  0.00     0.187 C 
ATOM     12  C   UNL d   1      -3.680  -0.076   0.846  0.00  0.00     0.149 C 
ENDBRANCH   2   7
BRANCH   5  13
ATOM     13  O   UNL d   1      -1.809  -2.117  -0.077  0.00  0.00    -0.349 OA
BRANCH  13  14
ATOM     14  C   UNL d   1      -1.291  -3.446  -0.001  0.00  0.00     0.171 C 
ATOM     15  C   UNL d   1      -2.447  -4.427  -0.001  0.00  0.00     0.034 C 
ENDBRANCH  13  14
ENDBRANCH   5  13
BRANCH   6  16
ATOM     16  O   UNL d   1       1.760   2.176   0.091  0.00  0.00    -0.349 OA
BRANCH  16  17
ATOM     17  C   UNL d   1       1.169   3.422   0.486  0.00  0.00     0.171 C 
ATOM     18  C   UNL d   1       2.237   4.380   0.967  0.00  0.00     0.034 C 
ENDBRANCH  16  17
ENDBRANCH   6  16
BRANCH   1  19
ATOM     19  N   UNL d   1       2.775  -0.535   0.254  0.00  0.00    -0.330 N 
ATOM     20  C   UNL d   1       3.738   0.202   0.909  0.00  0.00     0.097 A 
ATOM     21  C   UNL d   1       4.878  -0.559   1.058  0.00  0.00     0.019 A 
ATOM     22  C   UNL d   1       4.649  -1.786   0.408  0.00  0.00     0.019 A 
ATOM     23  C   UNL d   1       3.373  -1.739  -0.104  0.00  0.00     0.097 A 
ENDBRANCH   1  19
TORSDOF 6
