REMARK  5 active torsions:
REMARK  status: ('A' for Active; 'I' for Inactive)
REMARK    1  A    between atoms: C_5  and  C_1 
REMARK       I    between atoms: C_2  and  N_9 
REMARK    2  A    between atoms: O_12  and  C_2 
REMARK    3  A    between atoms: C_4  and  C_11 
REMARK    4  A    between atoms: N_7  and  O_12 
REMARK    5  A    between atoms: N_9  and  C_20 
ROOT
ATOM      1  C   UNL d   1      -0.227  -3.822   5.378  0.00  0.00     0.387 C 
ATOM      2  N   UNL d   1      -0.332  -2.496   5.039  0.00  0.00    -0.301 N 
ATOM      3  O   UNL d   1       0.060  -4.760   4.643  0.00  0.00    -0.236 OA
ATOM      4  H   UNL d   1      -0.523  -1.887   5.822  0.00  0.00     0.171 HD
ENDROOT
BRANCH   1   5
ATOM      5  O   UNL d   1      -0.450  -3.968   6.729  0.00  0.00    -0.181 OA
BRANCH   5   6
ATOM      6  N   UNL d   1       0.628  -4.701   7.258  0.00  0.00    -0.267 N 
ATOM      7  C   UNL d   1       0.220  -5.576   8.118  0.00  0.00     0.127 C 
ATOM      8  HN  UNL d   1       1.604  -4.561   6.996  1.00  0.00     0.194 HD
BRANCH   7   9
ATOM      9  C   UNL d   1       1.203  -6.461   8.783  0.00  0.00     0.003 A 
ATOM     10  C   UNL d   1       0.825  -7.425   9.726  0.00  0.00     0.047 A 
ATOM     11  C   UNL d   1       1.800  -8.229  10.330  0.00  0.00     0.048 A 
ATOM     12 CL   UNL d   1      -0.816  -7.682  10.196  0.00  0.00    -0.083 Cl
ATOM     13  C   UNL d   1       3.144  -8.070   9.992  0.00  0.00     0.035 A 
ATOM     14  C   UNL d   1       3.529  -7.121   9.052  0.00  0.00     0.025 A 
ATOM     15 CL   UNL d   1       4.338  -9.055  10.744  0.00  0.00    -0.084 Cl
ATOM     16  C   UNL d   1       2.560  -6.319   8.447  0.00  0.00     0.016 A 
ENDBRANCH   7   9
ENDBRANCH   5   6
ENDBRANCH   1   5
BRANCH   2  17
ATOM     17  C   UNL d   1      -0.010  -1.905   3.804  0.00  0.00     0.036 A 
ATOM     18  C   UNL d   1       0.326  -2.634   2.661  0.00  0.00     0.030 A 
ATOM     19  C   UNL d   1       0.670  -1.979   1.474  0.00  0.00     0.018 A 
ATOM     20  C   UNL d   1       0.684  -0.580   1.406  0.00  0.00     0.048 A 
ATOM     21  C   UNL d   1       0.344   0.150   2.552  0.00  0.00     0.018 A 
ATOM     22  C   UNL d   1      -0.003  -0.507   3.738  0.00  0.00     0.030 A 
BRANCH  20  23
ATOM     23  C   UNL d   1       1.061   0.105   0.115  0.00  0.00     0.417 C 
ATOM     24  F   UNL d   1       1.012   1.464   0.186  0.00  0.00    -0.166 F 
ATOM     25  F   UNL d   1       0.245  -0.244  -0.917  0.00  0.00    -0.166 F 
ATOM     26  F   UNL d   1       2.326  -0.202  -0.287  0.00  0.00    -0.166 F 
ENDBRANCH  20  23
ENDBRANCH   2  17
TORSDOF 5
