REMARK  2 active torsions:
REMARK  status: ('A' for Active; 'I' for Inactive)
REMARK    1  A    between atoms: C_2  and  C_1 
REMARK    2  A    between atoms: O_5  and  C_1 
ROOT
ATOM      1  C   UNL d   1       0.856  -0.065  -0.381  0.00  0.00     0.085 C 
ATOM      2  C   UNL d   1       0.130  -1.283   0.239  0.00  0.00     0.043 C 
ATOM      3  C   UNL d   1       0.179   1.201   0.203  0.00  0.00     0.043 C 
ATOM      4  C   UNL d   1      -1.329   1.248  -0.048  0.00  0.00     0.003 C 
ATOM      5  C   UNL d   1      -1.365  -1.284  -0.071  0.00  0.00     0.003 C 
ATOM      6  C   UNL d   1      -2.031  -0.013   0.448  0.00  0.00     0.000 C 
ENDROOT
BRANCH   1   7
ATOM      7  C   UNL d   1       0.981  -0.110  -1.911  0.00  0.00    -0.021 A 
ATOM      8  C   UNL d   1       1.049   1.064  -2.684  0.00  0.00     0.052 A 
ATOM      9  C   UNL d   1       1.227   1.006  -4.066  0.00  0.00     0.117 A 
ATOM     10  F   UNL d   1       1.286   2.144  -4.769  0.00  0.00    -0.206 F 
ATOM     11  C   UNL d   1       1.358  -0.207  -4.726  0.00  0.00     0.042 A 
ATOM     12  C   UNL d   1       1.311  -1.383  -3.988  0.00  0.00     0.004 A 
ATOM     13  C   UNL d   1       1.131  -1.334  -2.599  0.00  0.00     0.010 A 
ENDBRANCH   1   7
BRANCH   1  14
ATOM     14  O   UNL d   1       2.196  -0.081   0.135  0.00  0.00    -0.385 OA
ATOM     15  H   UNL d   1       2.747  -0.591  -0.482  0.00  0.00     0.211 HD
ENDBRANCH   1  14
TORSDOF 2
