REMARK  6 active torsions:
REMARK  status: ('A' for Active; 'I' for Inactive)
REMARK    1  A    between atoms: C_3  and  N_1 
REMARK    2  A    between atoms: S_4  and  C_2 
REMARK    3  A    between atoms: C_5  and  S_4 
REMARK    4  A    between atoms: C_6  and  C_9 
REMARK    5  A    between atoms: C_9  and  C_17 
REMARK    6  A    between atoms: C_17  and  C_21 
ROOT
ATOM      1  C   UNL d   1      -0.284   2.219   0.974  0.00  0.00     0.151 A 
ATOM      2  N   UNL d   1      -0.767   1.973   2.204  0.00  0.00    -0.337 N 
ATOM      3  HN  UNL d   1      -1.758   1.787   2.362  1.00  0.00     0.168 HD
ATOM      4  N   UNL d   1       1.006   2.487   0.696  0.00  0.00    -0.346 N 
ATOM      5  HN  UNL d   1       1.321   2.689  -0.253  1.00  0.00     0.167 HD
ATOM      6  C   UNL d   1       0.120   1.985   3.220  0.00  0.00     0.035 A 
ATOM      7  C   UNL d   1       1.855   2.475   1.737  0.00  0.00     0.092 A 
ATOM      8  C   UNL d   1       1.466   2.223   3.029  0.00  0.00     0.046 A 
ENDROOT
BRANCH   1   9
ATOM      9  S   UNL d   1      -1.347   1.947  -0.416  0.00  0.00    -0.034 SA
BRANCH   9  10
ATOM     10  C   UNL d   1      -2.183   3.507  -0.538  0.00  0.00     0.110 A 
ATOM     11  C   UNL d   1      -1.834   4.545  -1.394  0.00  0.00     0.136 A 
ATOM     12  C   UNL d   1      -2.629   5.697  -1.481  0.00  0.00     0.040 A 
ATOM     13  C   UNL d   1      -3.780   5.775  -0.711  0.00  0.00     0.020 A 
ATOM     14  C   UNL d   1      -4.078   4.708   0.118  0.00  0.00     0.089 A 
ATOM     15  N   UNL d   1      -3.313   3.595   0.217  0.00  0.00    -0.358 N 
ATOM     16  HN  UNL d   1      -3.578   2.836   0.846  1.00  0.00     0.166 HD
BRANCH  11  17
ATOM     17  N   UNL d   1      -0.683   4.462  -2.256  0.00  0.00    -0.113 N 
ATOM     18  O   UNL d   1      -0.686   3.583  -3.129  0.00  0.00    -0.532 OA
ATOM     19  O   UNL d   1       0.181   5.336  -2.117  0.00  0.00    -0.532 OA
ENDBRANCH  11  17
ENDBRANCH   9  10
ENDBRANCH   1   9
BRANCH   6  20
ATOM     20  C   UNL d   1      -0.378   1.701   4.577  0.00  0.00     0.031 C 
BRANCH  20  21
ATOM     21  C   UNL d   1      -1.661   1.444   4.882  0.00  0.00     0.021 C 
BRANCH  21  22
ATOM     22  C   UNL d   1      -2.109   1.166   6.216  0.00  0.00     0.010 A 
ATOM     23  C   UNL d   1      -3.356   1.431   6.783  0.00  0.00    -0.044 A 
ATOM     24  C   UNL d   1      -3.429   0.988   8.148  0.00  0.00     0.015 A 
ATOM     25  C   UNL d   1      -4.510   2.109   6.113  0.00  0.00     0.049 C 
ATOM     26  C   UNL d   1      -2.273   0.387   8.577  0.00  0.00     0.051 A 
ATOM     27  S   UNL d   1      -1.094   0.345   7.354  0.00  0.00    -0.102 SA
ENDBRANCH  21  22
ENDBRANCH  20  21
ENDBRANCH   6  20
TORSDOF 6
