REMARK  2 active torsions:
REMARK  status: ('A' for Active; 'I' for Inactive)
REMARK    1  A    between atoms: N_8  and  C_7 
REMARK    2  A    between atoms: C_9  and  N_8 
ROOT
ATOM      1  C   UNL d   1       2.025  -0.641   0.808  0.00  0.00     0.111 C 
ATOM      2  N   UNL d   1       0.753  -2.608   1.335  0.00  0.00    -0.275 N 
ATOM      3  N   UNL d   1       2.046  -1.630   2.989  0.00  0.00    -0.275 N 
ATOM      4  C   UNL d   1       1.106  -1.715   0.365  0.00  0.00     0.266 C 
ATOM      5  C   UNL d   1       2.440  -0.565   2.223  0.00  0.00     0.266 C 
ATOM      6  C   UNL d   1       1.163  -2.602   2.631  0.00  0.00     0.329 C 
ATOM      7  C   UNL d   1       2.451   0.227  -0.132  0.00  0.00     0.085 C 
ATOM      8  O   UNL d   1       0.667  -1.816  -0.776  0.00  0.00    -0.267 OA
ATOM      9  O   UNL d   1       3.036   0.386   2.717  0.00  0.00    -0.267 OA
ATOM     10  O   UNL d   1       0.737  -3.417   3.442  0.00  0.00    -0.246 OA
ATOM     11  H   UNL d   1       0.100  -3.330   1.067  0.00  0.00     0.173 HD
ATOM     12  H   UNL d   1       2.301  -1.600   3.966  0.00  0.00     0.173 HD
ENDROOT
BRANCH   7  13
ATOM     13  N   UNL d   1       3.270   1.339  -0.065  0.00  0.00    -0.268 NA
ATOM     14  H   UNL d   1       2.983   1.871   0.751  0.00  0.00     0.133 HD
BRANCH  13  15
ATOM     15  C   UNL d   1       4.703   1.238   0.006  0.00  0.00     0.024 A 
ATOM     16  C   UNL d   1       5.458   0.374  -0.833  0.00  0.00    -0.040 A 
ATOM     17  C   UNL d   1       6.865   0.338  -0.718  0.00  0.00     0.008 A 
ATOM     18  C   UNL d   1       4.888  -0.552  -1.874  0.00  0.00     0.050 C 
ATOM     19  C   UNL d   1       7.543   1.174   0.156  0.00  0.00     0.001 A 
ATOM     20  C   UNL d   1       6.823   2.063   0.938  0.00  0.00     0.008 A 
ATOM     21  C   UNL d   1       5.415   2.117   0.876  0.00  0.00    -0.040 A 
ATOM     22  C   UNL d   1       4.784   3.125   1.808  0.00  0.00     0.050 C 
ENDBRANCH  13  15
ENDBRANCH   7  13
TORSDOF 2
