REMARK  4 active torsions:
REMARK  status: ('A' for Active; 'I' for Inactive)
REMARK    1  A    between atoms: C_5  and  C_1 
REMARK    2  A    between atoms: C_4  and  C_12 
REMARK       I    between atoms: N_14  and  C_5 
REMARK    3  A    between atoms: C_12  and  C_15 
REMARK    4  A    between atoms: C_19  and  N_14 
ROOT
ATOM      1  C   UNL d   1       2.689  -4.988   0.001  0.00  0.00     0.015 C 
ATOM      2  C   UNL d   1       4.131  -2.611  -0.279  0.00  0.00     0.035 C 
ATOM      3  C   UNL d   1       2.470  -4.182  -1.116  0.00  0.00     0.018 C 
ATOM      4  C   UNL d   1       3.782  -4.729   0.835  0.00  0.00     0.018 C 
ATOM      5  C   UNL d   1       3.183  -2.982  -1.237  0.00  0.00     0.030 C 
ATOM      6  C   UNL d   1       4.508  -3.547   0.698  0.00  0.00     0.030 C 
ENDROOT
BRANCH   2   7
ATOM      7  N   UNL d   1       4.668  -1.309  -0.175  0.00  0.00    -0.322 N 
ATOM      8  C   UNL d   1       4.058  -0.154  -0.653  0.00  0.00     0.264 C 
ATOM      9  O   UNL d   1       2.987  -0.167  -1.254  0.00  0.00    -0.267 OA
ATOM     10  H   UNL d   1       5.426  -1.171   0.480  0.00  0.00     0.169 HD
BRANCH   8  11
ATOM     11  C   UNL d   1       4.756   1.104  -0.366  0.00  0.00     0.096 C 
ATOM     12  S   UNL d   1       6.292   1.133   0.390  0.00  0.00    -0.082 SA
ATOM     13  C   UNL d   1       6.483   2.826   0.153  0.00  0.00     0.017 A 
ATOM     14  C   UNL d   1       7.600   3.614   0.496  0.00  0.00     0.020 A 
ATOM     15  C   UNL d   1       5.360   3.381  -0.464  0.00  0.00     0.004 A 
ATOM     16  C   UNL d   1       7.609   4.967   0.148  0.00  0.00     0.001 A 
ATOM     17  C   UNL d   1       6.529   5.533  -0.512  0.00  0.00     0.001 A 
ATOM     18  C   UNL d   1       5.401   4.760  -0.798  0.00  0.00     0.014 A 
ATOM     19  C   UNL d   1       4.332   2.390  -0.649  0.00  0.00     0.068 C 
ATOM     20 CL   UNL d   1       2.774   2.836  -1.236  0.00  0.00    -0.082 Cl
ENDBRANCH   8  11
ENDBRANCH   2   7
BRANCH   1  21
ATOM     21  C   UNL d   1       1.664  -5.954   0.489  0.00  0.00     0.193 C 
ATOM     22  O   UNL d   1       2.043  -6.882   1.204  0.00  0.00    -0.287 OA
BRANCH  21  23
ATOM     23  C   UNL d   1       0.185  -5.749   0.254  0.00  0.00     0.028 A 
ATOM     24  C   UNL d   1      -0.433  -4.478   0.458  0.00  0.00    -0.041 A 
ATOM     25  C   UNL d   1      -1.833  -4.335   0.250  0.00  0.00    -0.049 A 
ATOM     26  C   UNL d   1       0.322  -3.248   0.910  0.00  0.00     0.050 C 
ATOM     27  C   UNL d   1      -2.515  -2.983   0.369  0.00  0.00     0.049 C 
ATOM     28  C   UNL d   1      -2.633  -5.470  -0.028  0.00  0.00    -0.049 A 
ATOM     29  C   UNL d   1      -2.031  -6.743  -0.183  0.00  0.00    -0.049 A 
ATOM     30  C   UNL d   1      -4.137  -5.290  -0.125  0.00  0.00     0.049 C 
ATOM     31  C   UNL d   1      -0.616  -6.881  -0.078  0.00  0.00    -0.041 A 
ATOM     32  C   UNL d   1      -2.921  -7.943  -0.436  0.00  0.00     0.049 C 
ATOM     33  C   UNL d   1      -0.008  -8.251  -0.295  0.00  0.00     0.050 C 
ENDBRANCH  21  23
ENDBRANCH   1  21
TORSDOF 4
