REMARK  1 active torsions:
REMARK  status: ('A' for Active; 'I' for Inactive)
REMARK    1  A    between atoms: N_7  and  C_1 
REMARK       I    between atoms: C_8  and  N_7 
ROOT
ATOM      1  C   UNL d   1       2.400   1.642  -0.034  0.00  0.00     0.112 A 
ATOM      2  C   UNL d   1       2.961   0.252  -0.050  0.00  0.00     0.315 A 
ATOM      3  O   UNL d   1       2.069  -0.812  -0.033  0.00  0.00    -0.273 OA
ATOM      4  C   UNL d   1       1.074   1.826  -0.001  0.00  0.00     0.050 A 
ATOM      5  C   UNL d   1       0.162   0.695   0.008  0.00  0.00     0.002 A 
ATOM      6  C   UNL d   1       0.681  -0.596  -0.011  0.00  0.00     0.089 A 
ATOM      7  O   UNL d   1       4.180   0.081  -0.077  0.00  0.00    -0.257 OA
ATOM      8  C   UNL d   1      -1.224   0.872   0.027  0.00  0.00     0.038 A 
ATOM      9  C   UNL d   1      -0.149  -1.715  -0.011  0.00  0.00     0.040 A 
ATOM     10  C   UNL d   1      -2.063  -0.244   0.024  0.00  0.00     0.035 A 
ATOM     11  C   UNL d   1      -1.533  -1.535   0.005  0.00  0.00     0.026 A 
ATOM     12 CL   UNL d   1      -3.770  -0.023   0.040  0.00  0.00    -0.084 Cl
ENDROOT
BRANCH   1  13
ATOM     13  N   UNL d   1       3.346   2.656  -0.061  0.00  0.00    -0.322 N 
ATOM     14  C   UNL d   1       3.138   4.020  -0.064  0.00  0.00     0.218 C 
ATOM     15  O   UNL d   1       2.047   4.580  -0.028  0.00  0.00    -0.274 OA
ATOM     16  C   UNL d   1       4.408   4.829  -0.122  0.00  0.00     0.117 C 
ATOM     17  H   UNL d   1       4.307   2.317  -0.088  0.00  0.00     0.169 HD
ENDBRANCH   1  13
TORSDOF 1
