REMARK  4 active torsions:
REMARK  status: ('A' for Active; 'I' for Inactive)
REMARK    1  A    between atoms: C_3  and  S_1 
REMARK    2  A    between atoms: N_4  and  S_1 
REMARK    3  A    between atoms: N_5  and  C_2 
REMARK    4  A    between atoms: C_6  and  C_2 
REMARK       I    between atoms: N_18  and  C_6 
ROOT
ATOM      1  C   UNL d   1       0.866   4.239  -1.548  0.00  0.00     0.241 C 
ATOM      2  N   UNL d   1       0.803   1.518  -0.430  0.00  0.00    -0.306 N 
ATOM      3  C   UNL d   1       0.666   3.936  -0.037  0.00  0.00     0.072 C 
ATOM      4  C   UNL d   1       0.387   3.005  -2.360  0.00  0.00     0.072 C 
ATOM      5  C   UNL d   1       1.352   2.631   0.374  0.00  0.00     0.138 C 
ATOM      6  C   UNL d   1       1.003   1.688  -1.887  0.00  0.00     0.138 C 
ENDROOT
BRANCH   1   7
ATOM      7  N   UNL d   1       0.165   5.540  -1.931  0.00  0.00     0.107 N 
ATOM      8  C   UNL d   1      -1.307   5.472  -1.770  0.00  0.00     0.274 C 
ATOM      9  C   UNL d   1      -2.034   6.765  -2.159  0.00  0.00     0.030 C 
ATOM     10  C   UNL d   1      -1.677   7.194  -3.571  0.00  0.00     0.003 C 
ATOM     11  C   UNL d   1      -0.167   7.292  -3.699  0.00  0.00     0.030 C 
ATOM     12  C   UNL d   1       0.502   5.972  -3.307  0.00  0.00     0.274 C 
ENDBRANCH   1   7
BRANCH   1  13
ATOM     13  C   UNL d   1       2.408   4.432  -1.790  0.00  0.00     0.255 C 
ATOM     14  O   UNL d   1       3.072   3.769  -2.584  0.00  0.00    -0.271 OA
ATOM     15  N   UNL d   1       3.023   5.419  -1.072  0.00  0.00    -0.368 N 
ATOM     16  H   UNL d   1       2.460   6.198  -0.753  0.00  0.00     0.159 HD
ATOM     17  H   UNL d   1       3.978   5.617  -1.344  0.00  0.00     0.159 HD
ENDBRANCH   1  13
BRANCH   2  18
ATOM     18  S   UNL d   1       1.102  -0.066   0.151  0.00  0.00     0.267 S 
ATOM     19  O   UNL d   1       1.031  -0.061   1.593  0.00  0.00    -0.200 OA
ATOM     20  O   UNL d   1       0.290  -0.975  -0.638  0.00  0.00    -0.200 OA
BRANCH  18  21
ATOM     21  C   UNL d   1       2.777  -0.541  -0.255  0.00  0.00     0.120 A 
ATOM     22  S   UNL d   1       4.044   0.385   0.423  0.00  0.00    -0.088 SA
ATOM     23  C   UNL d   1       5.238  -0.510  -0.409  0.00  0.00     0.051 A 
ATOM     24  C   UNL d   1       4.692  -1.541  -1.141  0.00  0.00     0.009 A 
ATOM     25  C   UNL d   1       3.272  -1.565  -1.043  0.00  0.00     0.033 A 
ENDBRANCH  18  21
ENDBRANCH   2  18
TORSDOF 4
