REMARK  4 active torsions:
REMARK  status: ('A' for Active; 'I' for Inactive)
REMARK    1  A    between atoms: O_4  and  C_1 
REMARK    2  A    between atoms: C_2  and  O_4 
REMARK    3  A    between atoms: C_5  and  C_2 
REMARK    4  A    between atoms: C_8  and  C_3 
ROOT
ATOM      1  C   UNL d   1      -1.058  -1.133   0.351  0.00  0.00     0.115 A 
ATOM      2  C   UNL d   1      -0.024  -2.032   0.064  0.00  0.00     0.047 A 
ATOM      3  C   UNL d   1      -0.752   0.203   0.659  0.00  0.00     0.070 A 
ATOM      4  C   UNL d   1       0.576   0.633   0.672  0.00  0.00     0.050 A 
ATOM      5  C   UNL d   1       1.304  -1.585   0.042  0.00  0.00     0.042 A 
ATOM      6  C   UNL d   1       1.593  -0.257   0.342  0.00  0.00     0.036 A 
ATOM      7 CL   UNL d   1      -1.964   1.405   0.927  0.00  0.00    -0.081 Cl
ATOM      8 CL   UNL d   1       3.217   0.304   0.263  0.00  0.00    -0.084 Cl
ENDROOT
BRANCH   1   9
ATOM      9  O   UNL d   1      -2.379  -1.504   0.041  0.00  0.00    -0.272 OA
BRANCH   9  10
ATOM     10  C   UNL d   1      -3.329  -1.447   1.045  0.00  0.00     0.300 C 
ATOM     11  O   UNL d   1      -3.124  -1.555   2.240  0.00  0.00    -0.259 OA
BRANCH  10  12
ATOM     12  C   UNL d   1      -4.596  -0.976   0.429  0.00  0.00     0.061 A 
ATOM     13  C   UNL d   1      -5.041  -1.355  -0.845  0.00  0.00     0.050 A 
ATOM     14 CL   UNL d   1      -4.358  -2.668  -1.739  0.00  0.00    -0.083 Cl
ATOM     15  C   UNL d   1      -6.110  -0.673  -1.437  0.00  0.00     0.025 A 
ATOM     16  C   UNL d   1      -6.755   0.359  -0.753  0.00  0.00     0.002 A 
ATOM     17  C   UNL d   1      -6.359   0.692   0.540  0.00  0.00     0.001 A 
ATOM     18  C   UNL d   1      -5.287   0.023   1.133  0.00  0.00     0.019 A 
ENDBRANCH  10  12
ENDBRANCH   9  10
ENDBRANCH   1   9
BRANCH   2  19
ATOM     19  C   UNL d   1      -0.261  -3.446  -0.294  0.00  0.00     0.158 C 
ATOM     20  O   UNL d   1       0.288  -3.902  -1.294  0.00  0.00    -0.293 OA
ATOM     21  C   UNL d   1      -1.052  -4.311   0.650  0.00  0.00     0.097 C 
ENDBRANCH   2  19
TORSDOF 4
