REMARK  8 active torsions:
REMARK  status: ('A' for Active; 'I' for Inactive)
REMARK    1  A    between atoms: C_8  and  C_2 
REMARK    2  A    between atoms: S_12  and  C_5 
REMARK    3  A    between atoms: C_9  and  C_13 
REMARK    4  A    between atoms: C_10  and  C_21 
REMARK    5  A    between atoms: C_29  and  C_11 
REMARK    6  A    between atoms: C_26  and  S_12 
REMARK    7  A    between atoms: C_14  and  C_26 
REMARK       I    between atoms: N_16  and  C_14 
REMARK    8  A    between atoms: C_20  and  N_16 
ROOT
ATOM      1  N   UNL d   1       0.981   0.142   0.186  0.00  0.00    -0.315 N 
ATOM      2  C   UNL d   1       0.062   1.146  -0.061  0.00  0.00     0.135 A 
ATOM      3  N   UNL d   1      -1.148   0.610  -0.007  0.00  0.00    -0.283 N 
ATOM      4  HN  UNL d   1      -2.026   1.109  -0.151  1.00  0.00     0.188 HD
ATOM      5  C   UNL d   1       0.242  -0.975   0.465  0.00  0.00     0.163 A 
ATOM      6  N   UNL d   1      -1.029  -0.725   0.273  0.00  0.00    -0.278 N 
ATOM      7  HN  UNL d   1      -1.791  -1.401   0.324  1.00  0.00     0.189 HD
ATOM      8  C   UNL d   1       2.419   0.217   0.203  0.00  0.00     0.160 C 
ENDROOT
BRANCH   5   9
ATOM      9  S   UNL d   1       0.904  -2.401   1.174  0.00  0.00    -0.083 SA
BRANCH   9  10
ATOM     10  C   UNL d   1      -0.483  -3.547   1.236  0.00  0.00     0.185 C 
BRANCH  10  11
ATOM     11  C   UNL d   1      -1.540  -3.296   2.298  0.00  0.00     0.231 C 
ATOM     12  N   UNL d   1      -2.006  -2.001   2.440  0.00  0.00    -0.327 N 
ATOM     13  H   UNL d   1      -1.727  -1.333   1.725  0.00  0.00     0.169 HD
ATOM     14  O   UNL d   1      -2.008  -4.274   2.886  0.00  0.00    -0.272 OA
BRANCH  12  15
ATOM     15  C   UNL d   1      -3.100  -1.598   3.232  0.00  0.00     0.035 A 
ATOM     16  C   UNL d   1      -3.628  -2.402   4.239  0.00  0.00     0.045 A 
ATOM     17  C   UNL d   1      -4.846  -2.084   4.851  0.00  0.00     0.050 A 
ATOM     18  C   UNL d   1      -5.484  -0.883   4.512  0.00  0.00     0.016 A 
ATOM     19  C   UNL d   1      -4.909  -0.022   3.576  0.00  0.00     0.003 A 
ATOM     20  C   UNL d   1      -3.720  -0.379   2.935  0.00  0.00     0.029 A 
BRANCH  17  21
ATOM     21  C   UNL d   1      -5.486  -3.069   5.794  0.00  0.00     0.417 C 
ATOM     22  F   UNL d   1      -4.759  -4.206   5.983  0.00  0.00    -0.166 F 
ATOM     23  F   UNL d   1      -5.693  -2.551   7.035  0.00  0.00    -0.166 F 
ATOM     24  F   UNL d   1      -6.707  -3.484   5.353  0.00  0.00    -0.166 F 
ENDBRANCH  17  21
ENDBRANCH  12  15
ENDBRANCH  10  11
ENDBRANCH   9  10
ENDBRANCH   5   9
BRANCH   2  25
ATOM     25  C   UNL d   1       0.326   2.569  -0.265  0.00  0.00     0.026 A 
ATOM     26  C   UNL d   1      -0.530   3.531   0.288  0.00  0.00     0.038 A 
ATOM     27  C   UNL d   1      -0.258   4.888   0.110  0.00  0.00     0.034 A 
ATOM     28  C   UNL d   1       0.876   5.241  -0.609  0.00  0.00     0.108 A 
ATOM     29  N   UNL d   1       1.712   4.346  -1.179  0.00  0.00    -0.373 N 
ATOM     30  C   UNL d   1       1.398   3.041  -1.016  0.00  0.00     0.102 A 
ATOM     31  HN  UNL d   1       2.535   4.640  -1.705  1.00  0.00     0.164 HD
BRANCH  27  32
ATOM     32  C   UNL d   1      -1.121   5.896   0.628  0.00  0.00    -0.060 C 
ATOM     33  C   UNL d   1      -1.822   6.793   1.021  0.00  0.00    -0.061 C 
BRANCH  33  34
ATOM     34  C   UNL d   1      -2.618   7.898   1.449  0.00  0.00     0.018 A 
ATOM     35  C   UNL d   1      -2.790   9.000   0.605  0.00  0.00     0.020 A 
ATOM     36  C   UNL d   1      -3.544  10.094   1.030  0.00  0.00     0.001 A 
ATOM     37  C   UNL d   1      -4.127  10.089   2.296  0.00  0.00     0.000 A 
ATOM     38  C   UNL d   1      -3.962   8.988   3.137  0.00  0.00     0.001 A 
ATOM     39  C   UNL d   1      -3.209   7.892   2.714  0.00  0.00     0.020 A 
ENDBRANCH  33  34
ENDBRANCH  27  32
ENDBRANCH   2  25
TORSDOF 8
