REMARK  8 active torsions:
REMARK  status: ('A' for Active; 'I' for Inactive)
REMARK    1  A    between atoms: S_7  and  C_1 
REMARK    2  A    between atoms: C_17  and  S_7 
REMARK    3  A    between atoms: C_8  and  C_17 
REMARK       I    between atoms: N_18  and  C_8 
REMARK    4  A    between atoms: C_9  and  C_22 
REMARK    5  A    between atoms: C_23  and  N_18 
REMARK    6  A    between atoms: S_21  and  C_24 
REMARK    7  A    between atoms: C_22  and  S_21 
REMARK    8  A    between atoms: C_24  and  C_23 
ROOT
ATOM      1  C   UNL d   1      -4.621   2.585   0.014  0.00  0.00     0.185 C 
ENDROOT
BRANCH   1   2
ATOM      2  C   UNL d   1      -6.122   2.799   0.069  0.00  0.00     0.227 C 
ATOM      3  O   UNL d   1      -6.921   1.864   0.067  0.00  0.00    -0.273 OA
ATOM      4  N   UNL d   1      -6.513   4.120   0.107  0.00  0.00    -0.360 N 
ATOM      5  H   UNL d   1      -5.835   4.811  -0.215  0.00  0.00     0.162 HD
BRANCH   4   6
ATOM      6  C   UNL d   1      -7.916   4.480   0.025  0.00  0.00     0.132 C 
BRANCH   6   7
ATOM      7  C   UNL d   1      -8.220   5.832   0.663  0.00  0.00     0.094 C 
BRANCH   7   8
ATOM      8  S   UNL d   1      -7.272   7.219  -0.047  0.00  0.00    -0.161 SA
BRANCH   8   9
ATOM      9  C   UNL d   1      -7.995   7.267  -1.723  0.00  0.00     0.139 C 
BRANCH   9  10
ATOM     10  C   UNL d   1      -7.705   8.553  -2.413  0.00  0.00     0.061 A 
ATOM     11  O   UNL d   1      -8.548   8.885  -3.437  0.00  0.00    -0.326 OA
ATOM     12  C   UNL d   1      -8.115  10.069  -3.942  0.00  0.00     0.142 A 
ATOM     13  C   UNL d   1      -7.009  10.510  -3.259  0.00  0.00     0.027 A 
ATOM     14  C   UNL d   1      -6.739   9.530  -2.277  0.00  0.00     0.035 A 
ENDBRANCH   9  10
ENDBRANCH   8   9
ENDBRANCH   7   8
ENDBRANCH   6   7
ENDBRANCH   4   6
ENDBRANCH   1   2
BRANCH   1  15
ATOM     15  S   UNL d   1      -4.130   2.187  -1.683  0.00  0.00    -0.085 SA
BRANCH  15  16
ATOM     16  C   UNL d   1      -4.332   3.715  -2.447  0.00  0.00     0.145 A 
ATOM     17  N   UNL d   1      -4.152   4.905  -1.932  0.00  0.00    -0.335 N 
ATOM     18  C   UNL d   1      -4.299   5.768  -2.999  0.00  0.00     0.061 A 
ATOM     19  HN  UNL d   1      -3.949   5.141  -0.961  1.00  0.00     0.168 HD
ATOM     20  C   UNL d   1      -4.106   7.156  -3.074  0.00  0.00     0.038 A 
ATOM     21  C   UNL d   1      -4.673   5.076  -4.148  0.00  0.00     0.061 A 
ATOM     22  C   UNL d   1      -4.302   7.808  -4.307  0.00  0.00    -0.060 A 
ATOM     23  C   UNL d   1      -3.998   9.271  -4.455  0.00  0.00     0.048 C 
ATOM     24  C   UNL d   1      -4.719   7.076  -5.429  0.00  0.00     0.009 A 
ATOM     25  C   UNL d   1      -4.915   5.693  -5.374  0.00  0.00     0.032 A 
ATOM     26  N   UNL d   1      -4.686   3.763  -3.761  0.00  0.00    -0.335 N 
ATOM     27  H   UNL d   1      -4.870   2.961  -4.343  0.00  0.00     0.168 HD
ENDBRANCH  15  16
ENDBRANCH   1  15
TORSDOF 8
