REMARK  3 active torsions:
REMARK  status: ('A' for Active; 'I' for Inactive)
REMARK    1  A    between atoms: C_5  and  N_1 
REMARK    2  A    between atoms: C_7  and  C_5 
REMARK       I    between atoms: N_10  and  C_7 
REMARK    3  A    between atoms: C_9  and  N_10 
ROOT
ATOM      1  C   UNL d   1       3.473  -2.123  -0.015  0.00  0.00     0.237 C 
ATOM      2  N   UNL d   1       4.233  -1.111   0.535  0.00  0.00    -0.354 N 
ATOM      3  O   UNL d   1       2.427  -1.892  -0.632  0.00  0.00    -0.272 OA
ATOM      4  H   UNL d   1       5.214  -1.343   0.690  0.00  0.00     0.162 HD
ENDROOT
BRANCH   1   5
ATOM      5  C   UNL d   1       3.880  -3.564   0.185  0.00  0.00     0.249 C 
BRANCH   5   6
ATOM      6  N   UNL d   1       5.212  -3.846   0.674  0.00  0.00    -0.265 N 
ATOM      7  N   UNL d   1       6.276  -3.143   0.234  0.00  0.00    -0.019 NA
ATOM      8  N   UNL d   1       7.369  -3.807   0.592  0.00  0.00    -0.282 N 
ATOM      9  C   UNL d   1       6.984  -4.944   1.254  0.00  0.00     0.074 A 
ATOM     10  HN  UNL d   1       8.330  -3.521   0.407  1.00  0.00     0.184 HD
ATOM     11  C   UNL d   1       5.599  -4.971   1.359  0.00  0.00     0.077 A 
ATOM     12  C   UNL d   1       7.737  -6.005   1.775  0.00  0.00     0.033 A 
ATOM     13  C   UNL d   1       4.904  -6.007   1.997  0.00  0.00     0.033 A 
ATOM     14  C   UNL d   1       5.671  -7.051   2.524  0.00  0.00     0.002 A 
ATOM     15  C   UNL d   1       7.063  -7.059   2.407  0.00  0.00     0.002 A 
ENDBRANCH   5   6
ENDBRANCH   1   5
BRANCH   2  16
ATOM     16  C   UNL d   1       3.960   0.270   0.144  0.00  0.00     0.092 C 
ATOM     17  C   UNL d   1       2.535   0.785   0.469  0.00  0.00     0.064 C 
ATOM     18  C   UNL d   1       2.759   2.264   0.382  0.00  0.00    -0.050 A 
ATOM     19  C   UNL d   1       1.827   3.254   0.123  0.00  0.00     0.007 A 
ATOM     20  C   UNL d   1       4.110   2.568   0.590  0.00  0.00    -0.050 A 
ATOM     21  C   UNL d   1       2.269   4.576   0.071  0.00  0.00     0.001 A 
ATOM     22  C   UNL d   1       3.619   4.888   0.304  0.00  0.00     0.001 A 
ATOM     23  C   UNL d   1       4.550   3.880   0.575  0.00  0.00     0.007 A 
ATOM     24  C   UNL d   1       4.904   1.311   0.794  0.00  0.00     0.064 C 
ENDBRANCH   2  16
TORSDOF 3
