REMARK  6 active torsions:
REMARK  status: ('A' for Active; 'I' for Inactive)
REMARK    1  A    between atoms: C_7  and  C_6 
REMARK    2  A    between atoms: O_11  and  C_7 
REMARK    3  A    between atoms: C_17  and  O_11 
REMARK    4  A    between atoms: O_16  and  C_18 
REMARK    5  A    between atoms: C_19  and  O_16 
REMARK    6  A    between atoms: C_18  and  C_17 
ROOT
ATOM      1  C   UNL d   1      -0.676   0.829  -0.029  0.00  0.00     0.006 A 
ATOM      2  C   UNL d   1      -1.144  -0.506  -0.102  0.00  0.00     0.027 A 
ATOM      3  C   UNL d   1       0.015  -1.414  -0.100  0.00  0.00     0.194 A 
ATOM      4  C   UNL d   1       0.786   0.784  -0.024  0.00  0.00    -0.010 A 
ATOM      5  C   UNL d   1       1.210  -0.561  -0.053  0.00  0.00     0.026 A 
ATOM      6  C   UNL d   1      -1.635   1.838   0.028  0.00  0.00     0.051 A 
ATOM      7  O   UNL d   1      -0.016  -2.626  -0.136  0.00  0.00    -0.287 OA
ATOM      8  C   UNL d   1      -2.476  -0.883  -0.147  0.00  0.00     0.016 A 
ATOM      9  C   UNL d   1       1.763   1.765  -0.032  0.00  0.00     0.013 A 
ATOM     10  C   UNL d   1       2.532  -0.969  -0.064  0.00  0.00     0.016 A 
ATOM     11  C   UNL d   1      -3.005   1.468  -0.029  0.00  0.00     0.018 A 
ATOM     12  C   UNL d   1      -3.418   0.130  -0.122  0.00  0.00     0.002 A 
ATOM     13  C   UNL d   1       3.116   1.383  -0.042  0.00  0.00     0.001 A 
ATOM     14  C   UNL d   1       3.499   0.031  -0.054  0.00  0.00     0.001 A 
ENDROOT
BRANCH   6  15
ATOM     15  C   UNL d   1      -1.323   3.266   0.313  0.00  0.00     0.294 C 
ATOM     16  O   UNL d   1      -0.412   3.655   1.021  0.00  0.00    -0.259 OA
BRANCH  15  17
ATOM     17  O   UNL d   1      -2.314   4.048  -0.193  0.00  0.00    -0.315 OA
BRANCH  17  18
ATOM     18  C   UNL d   1      -2.728   5.111   0.675  0.00  0.00     0.205 C 
BRANCH  18  19
ATOM     19  C   UNL d   1      -2.333   6.490   0.172  0.00  0.00     0.194 C 
BRANCH  19  20
ATOM     20  O   UNL d   1      -2.913   7.436   1.071  0.00  0.00    -0.389 OA
BRANCH  20  21
ATOM     21  C   UNL d   1      -2.637   8.785   0.717  0.00  0.00     0.163 C 
ATOM     22  C   UNL d   1      -3.282   9.675   1.764  0.00  0.00     0.033 C 
ENDBRANCH  20  21
ENDBRANCH  19  20
ENDBRANCH  18  19
ENDBRANCH  17  18
ENDBRANCH  15  17
ENDBRANCH   6  15
TORSDOF 6
