REMARK  3 active torsions:
REMARK  status: ('A' for Active; 'I' for Inactive)
REMARK    1  A    between atoms: C_7  and  C_3 
REMARK    2  A    between atoms: N_12  and  N_15 
REMARK    3  A    between atoms: C_22  and  C_20 
ROOT
ATOM      1  N   UNL d   1       5.389  -9.065   3.418  0.00  0.00    -0.191 NA
ATOM      2  C   UNL d   1       4.649  -8.330   2.907  0.00  0.00     0.099 C 
ATOM      3  C   UNL d   1       3.731  -7.425   2.282  0.00  0.00     0.044 A 
ATOM      4  C   UNL d   1       1.923  -5.654   1.094  0.00  0.00    -0.019 A 
ATOM      5  C   UNL d   1       4.016  -6.056   2.244  0.00  0.00     0.023 A 
ATOM      6  C   UNL d   1       2.542  -7.904   1.716  0.00  0.00     0.023 A 
ATOM      7  C   UNL d   1       3.115  -5.172   1.649  0.00  0.00     0.014 A 
ATOM      8  C   UNL d   1       1.635  -7.020   1.121  0.00  0.00     0.014 A 
ENDROOT
BRANCH   4   9
ATOM      9  C   UNL d   1       0.948  -4.711   0.506  0.00  0.00     0.118 C 
ATOM     10  N   UNL d   1       1.209  -3.447   0.473  0.00  0.00    -0.309 N 
ATOM     11  HN  UNL d   1       2.103  -3.077   0.797  1.00  0.00     0.186 HD
BRANCH  10  12
ATOM     12  N   UNL d   1       0.233  -2.634  -0.015  0.00  0.00    -0.280 N 
ATOM     13  C   UNL d   1       0.384  -1.282  -0.026  0.00  0.00     0.163 A 
ATOM     14  N   UNL d   1       1.528  -0.633   0.037  0.00  0.00    -0.334 N 
ATOM     15  S   UNL d   1      -1.008  -0.266  -0.109  0.00  0.00    -0.062 SA
ATOM     16  C   UNL d   1       1.327   0.734  -0.014  0.00  0.00     0.051 A 
ATOM     17  HN  UNL d   1       2.441  -1.080   0.114  1.00  0.00     0.168 HD
ATOM     18  C   UNL d   1       0.001   1.117  -0.036  0.00  0.00     0.083 A 
ATOM     19  H   UNL d   1      -0.720  -2.980  -0.075  0.00  0.00     0.189 HD
BRANCH  16  20
ATOM     20  C   UNL d   1       2.457   1.659  -0.042  0.00  0.00    -0.006 A 
ATOM     21  C   UNL d   1       2.341   2.940  -0.600  0.00  0.00     0.053 A 
ATOM     22  C   UNL d   1       3.448   3.787  -0.659  0.00  0.00     0.103 A 
ATOM     23  O   UNL d   1       3.248   5.010  -1.248  0.00  0.00    -0.346 OA
ATOM     24  C   UNL d   1       4.678   3.378  -0.138  0.00  0.00     0.102 A 
ATOM     25  C   UNL d   1       4.492   5.639  -1.576  0.00  0.00     0.202 C 
ATOM     26  C   UNL d   1       5.468   5.538  -0.416  0.00  0.00     0.202 C 
ATOM     27  O   UNL d   1       5.797   4.171  -0.145  0.00  0.00    -0.346 OA
ATOM     28  C   UNL d   1       4.811   2.104   0.407  0.00  0.00     0.040 A 
ATOM     29  C   UNL d   1       3.705   1.248   0.452  0.00  0.00     0.017 A 
ENDBRANCH  16  20
ENDBRANCH  10  12
ENDBRANCH   4   9
TORSDOF 3
