REMARK  4 active torsions:
REMARK  status: ('A' for Active; 'I' for Inactive)
REMARK    1  A    between atoms: C_8  and  N_1 
REMARK    2  A    between atoms: C_10  and  C_2 
REMARK    3  A    between atoms: S_13  and  C_5 
REMARK    4  A    between atoms: O_22  and  C_18 
ROOT
ATOM      1  N   UNL d   1      -0.177  -1.311  -0.025  0.00  0.00    -0.275 N 
ATOM      2  C   UNL d   1       1.055  -0.657  -0.166  0.00  0.00     0.139 A 
ATOM      3  N   UNL d   1       0.847   0.649  -0.184  0.00  0.00    -0.282 N 
ATOM      4  HN  UNL d   1       1.573   1.364  -0.233  1.00  0.00     0.188 HD
ATOM      5  C   UNL d   1      -1.101  -0.270  -0.034  0.00  0.00     0.165 A 
ATOM      6  N   UNL d   1      -0.494   0.884  -0.126  0.00  0.00    -0.278 N 
ATOM      7  HN  UNL d   1      -0.945   1.799  -0.151  1.00  0.00     0.189 HD
ENDROOT
BRANCH   1   8
ATOM      8  C   UNL d   1      -0.434  -2.720   0.035  0.00  0.00     0.049 A 
ATOM      9  C   UNL d   1       0.289  -3.606   0.866  0.00  0.00    -0.033 A 
ATOM     10  C   UNL d   1       0.029  -4.989   0.764  0.00  0.00     0.032 A 
ATOM     11  C   UNL d   1       1.303  -3.213   1.909  0.00  0.00     0.050 C 
ATOM     12  C   UNL d   1      -0.965  -5.478  -0.082  0.00  0.00     0.034 A 
ATOM     13  C   UNL d   1      -1.709  -4.602  -0.859  0.00  0.00     0.026 A 
ATOM     14 CL   UNL d   1      -1.271  -7.168  -0.160  0.00  0.00    -0.084 Cl
ATOM     15  C   UNL d   1      -1.433  -3.234  -0.816  0.00  0.00     0.032 A 
ENDBRANCH   1   8
BRANCH   2  16
ATOM     16  C   UNL d   1       2.389  -1.250  -0.295  0.00  0.00     0.010 A 
ATOM     17  C   UNL d   1       2.644  -2.380  -1.079  0.00  0.00     0.018 A 
ATOM     18  C   UNL d   1       3.911  -2.979  -1.076  0.00  0.00     0.037 A 
ATOM     19  C   UNL d   1       4.944  -2.434  -0.316  0.00  0.00     0.068 A 
ATOM     20  C   UNL d   1       4.725  -1.250   0.389  0.00  0.00     0.037 A 
ATOM     21  C   UNL d   1       3.456  -0.666   0.405  0.00  0.00     0.018 A 
BRANCH  19  22
ATOM     22  O   UNL d   1       6.208  -2.946  -0.230  0.00  0.00    -0.356 OA
ATOM     23  C   UNL d   1       6.284  -4.367  -0.275  0.00  0.00     0.210 C 
ENDBRANCH  19  22
ENDBRANCH   2  16
BRANCH   5  24
ATOM     24  S   UNL d   1      -2.819  -0.394   0.205  0.00  0.00    -0.105 SA
ATOM     25  H   UNL d   1      -2.909  -1.657   0.637  0.00  0.00     0.110 HD
ENDBRANCH   5  24
TORSDOF 4
