REMARK  8 active torsions:
REMARK  status: ('A' for Active; 'I' for Inactive)
REMARK    1  A    between atoms: N_4  and  C_1 
REMARK    2  A    between atoms: O_11  and  C_3 
REMARK    3  A    between atoms: C_6  and  N_4 
REMARK    4  A    between atoms: O_12  and  C_7 
REMARK    5  A    between atoms: C_15  and  N_8 
REMARK    6  A    between atoms: C_13  and  C_15 
REMARK    7  A    between atoms: C_16  and  C_13 
REMARK    8  A    between atoms: O_14  and  C_16 
ROOT
ATOM      1  N   UNL d   1       0.433   0.949   0.657  0.00  0.00    -0.333 N 
ATOM      2  H   UNL d   1      -0.573   0.798   0.627  0.00  0.00     0.168 HD
ENDROOT
BRANCH   1   3
ATOM      3  C   UNL d   1       1.165   0.020  -0.047  0.00  0.00     0.172 C 
ATOM      4  S   UNL d   1       2.598  -0.713   0.412  0.00  0.00    -0.041 SA
ATOM      5  N   UNL d   1       0.622  -0.382  -1.235  0.00  0.00    -0.367 N 
ATOM      6  H   UNL d   1       1.195  -1.074  -1.709  0.00  0.00     0.161 HD
BRANCH   5   7
ATOM      7  C   UNL d   1      -0.264   0.402  -2.077  0.00  0.00     0.124 C 
BRANCH   7   8
ATOM      8  C   UNL d   1      -1.545  -0.349  -2.419  0.00  0.00     0.046 C 
BRANCH   8   9
ATOM      9  C   UNL d   1      -2.427  -0.603  -1.201  0.00  0.00     0.168 C 
BRANCH   9  10
ATOM     10  O   UNL d   1      -2.663   0.632  -0.522  0.00  0.00    -0.396 OA
ATOM     11  C   UNL d   1      -3.490   0.455   0.619  0.00  0.00     0.201 C 
ENDBRANCH   9  10
ENDBRANCH   8   9
ENDBRANCH   7   8
ENDBRANCH   5   7
ENDBRANCH   1   3
BRANCH   1  12
ATOM     12  C   UNL d   1       0.927   1.785   1.681  0.00  0.00     0.037 A 
ATOM     13  C   UNL d   1       2.147   2.445   1.523  0.00  0.00     0.069 A 
ATOM     14  C   UNL d   1       2.668   3.249   2.539  0.00  0.00     0.103 A 
ATOM     15  C   UNL d   1       1.948   3.393   3.740  0.00  0.00     0.101 A 
ATOM     16  C   UNL d   1       0.693   2.787   3.868  0.00  0.00     0.042 A 
ATOM     17  C   UNL d   1       0.170   2.004   2.830  0.00  0.00     0.032 A 
BRANCH  14  18
ATOM     18  O   UNL d   1       3.864   3.920   2.454  0.00  0.00    -0.353 OA
ATOM     19  C   UNL d   1       4.596   3.782   1.242  0.00  0.00     0.210 C 
ENDBRANCH  14  18
BRANCH  15  20
ATOM     20  O   UNL d   1       2.548   4.153   4.713  0.00  0.00    -0.353 OA
ATOM     21  C   UNL d   1       2.041   4.041   6.036  0.00  0.00     0.210 C 
ENDBRANCH  15  20
ENDBRANCH   1  12
TORSDOF 8
