REMARK  6 active torsions:
REMARK  status: ('A' for Active; 'I' for Inactive)
REMARK    1  A    between atoms: O_21  and  C_1 
REMARK    2  A    between atoms: C_2  and  N_14 
REMARK    3  A    between atoms: N_4  and  C_2 
REMARK    4  A    between atoms: C_3  and  N_4 
REMARK    5  A    between atoms: N_14  and  N_8 
REMARK    6  A    between atoms: C_16  and  C_15 
ROOT
ATOM      1  N   UNL d   1      -1.131  -5.996   0.435  0.00  0.00    -0.276 N 
ATOM      2  H   UNL d   1      -0.247  -6.440   0.213  0.00  0.00     0.189 HD
ENDROOT
BRANCH   1   3
ATOM      3  C   UNL d   1      -2.280  -6.752   0.342  0.00  0.00     0.191 C 
ATOM      4  S   UNL d   1      -3.737  -6.408   1.087  0.00  0.00    -0.039 SA
BRANCH   3   5
ATOM      5  N   UNL d   1      -2.144  -7.935  -0.345  0.00  0.00    -0.331 N 
ATOM      6  H   UNL d   1      -2.806  -8.663  -0.090  0.00  0.00     0.168 HD
BRANCH   5   7
ATOM      7  C   UNL d   1      -1.363  -8.184  -1.501  0.00  0.00     0.057 A 
ATOM      8  C   UNL d   1      -0.918  -7.139  -2.321  0.00  0.00     0.055 A 
ATOM      9  C   UNL d   1      -0.187  -7.414  -3.478  0.00  0.00     0.036 A 
ATOM     10 CL   UNL d   1       0.328  -6.121  -4.489  0.00  0.00    -0.084 Cl
ATOM     11  C   UNL d   1       0.115  -8.727  -3.829  0.00  0.00     0.026 A 
ATOM     12  C   UNL d   1      -0.342  -9.778  -3.032  0.00  0.00     0.028 A 
ATOM     13  C   UNL d   1      -1.095  -9.509  -1.884  0.00  0.00     0.060 A 
ATOM     14 CL   UNL d   1      -1.647 -10.845  -0.937  0.00  0.00    -0.082 Cl
ENDBRANCH   5   7
ENDBRANCH   3   5
ENDBRANCH   1   3
BRANCH   1  15
ATOM     15  N   UNL d   1      -1.144  -4.665   0.714  0.00  0.00    -0.309 N 
ATOM     16  C   UNL d   1      -0.003  -4.167   1.064  0.00  0.00     0.118 C 
ATOM     17  HN  UNL d   1      -1.992  -4.102   0.651  1.00  0.00     0.186 HD
BRANCH  16  18
ATOM     18  C   UNL d   1       0.188  -2.714   1.221  0.00  0.00    -0.017 A 
ATOM     19  C   UNL d   1      -0.742  -1.825   0.673  0.00  0.00     0.034 A 
ATOM     20  C   UNL d   1      -0.501  -0.451   0.730  0.00  0.00     0.046 A 
ATOM     21  C   UNL d   1       0.657   0.033   1.346  0.00  0.00     0.100 A 
ATOM     22 BR   UNL d   1      -1.760   0.716  -0.075  0.00  0.00    -0.048 Br
ATOM     23  C   UNL d   1       1.569  -0.866   1.912  0.00  0.00     0.046 A 
ATOM     24  C   UNL d   1       1.345  -2.244   1.846  0.00  0.00     0.034 A 
ATOM     25 BR   UNL d   1       3.143  -0.240   2.764  0.00  0.00    -0.048 Br
BRANCH  21  26
ATOM     26  O   UNL d   1       0.888   1.383   1.376  0.00  0.00    -0.358 OA
ATOM     27  H   UNL d   1       1.739   1.537   1.824  0.00  0.00     0.217 HD
ENDBRANCH  21  26
ENDBRANCH  16  18
ENDBRANCH   1  15
TORSDOF 6
