REMARK  4 active torsions:
REMARK  status: ('A' for Active; 'I' for Inactive)
REMARK    1  A    between atoms: C_3  and  S_1 
REMARK    2  A    between atoms: N_5  and  S_1 
REMARK    3  A    between atoms: N_2  and  C_6 
REMARK    4  A    between atoms: C_14  and  N_5 
ROOT
ATOM      1  S   UNL d   1       0.979  -0.020  -0.098  0.00  0.00     0.263 S 
ATOM      2  O   UNL d   1       1.514  -0.110   1.246  0.00  0.00    -0.200 OA
ATOM      3  O   UNL d   1      -0.132   0.861  -0.384  0.00  0.00    -0.200 OA
ENDROOT
BRANCH   1   4
ATOM      4  C   UNL d   1       0.541  -1.670  -0.640  0.00  0.00     0.088 A 
ATOM      5  C   UNL d   1      -0.567  -1.773  -1.499  0.00  0.00     0.061 A 
ATOM      6  C   UNL d   1      -0.984  -3.030  -1.947  0.00  0.00     0.104 A 
ATOM      7  C   UNL d   1      -0.329  -4.187  -1.520  0.00  0.00     0.037 A 
ATOM      8  C   UNL d   1       0.769  -4.079  -0.664  0.00  0.00     0.011 A 
ATOM      9  C   UNL d   1       1.241  -2.824  -0.230  0.00  0.00    -0.039 A 
ATOM     10  C   UNL d   1       2.445  -2.833   0.672  0.00  0.00     0.050 C 
BRANCH   6  11
ATOM     11  N   UNL d   1      -2.112  -3.135  -2.882  0.00  0.00    -0.116 N 
ATOM     12  O   UNL d   1      -2.643  -2.084  -3.264  0.00  0.00    -0.532 OA
ATOM     13  O   UNL d   1      -2.454  -4.269  -3.244  0.00  0.00    -0.532 OA
ENDBRANCH   6  11
ENDBRANCH   1   4
BRANCH   1  14
ATOM     14  N   UNL d   1       2.251   0.360  -1.113  0.00  0.00    -0.281 N 
ATOM     15  H   UNL d   1       3.179   0.436  -0.704  0.00  0.00     0.179 HD
BRANCH  14  16
ATOM     16  C   UNL d   1       2.054   0.557  -2.498  0.00  0.00     0.042 A 
ATOM     17  C   UNL d   1       1.599   1.789  -2.974  0.00  0.00     0.033 A 
ATOM     18  C   UNL d   1       1.482   2.001  -4.350  0.00  0.00     0.044 A 
ATOM     19  C   UNL d   1       1.816   0.978  -5.231  0.00  0.00     0.116 A 
ATOM     20  C   UNL d   1       2.260  -0.255  -4.763  0.00  0.00     0.044 A 
ATOM     21  F   UNL d   1       1.719   1.184  -6.551  0.00  0.00    -0.206 F 
ATOM     22  C   UNL d   1       2.388  -0.464  -3.388  0.00  0.00     0.033 A 
ENDBRANCH  14  16
ENDBRANCH   1  14
TORSDOF 4
