REMARK  4 active torsions:
REMARK  status: ('A' for Active; 'I' for Inactive)
REMARK    1  A    between atoms: C_2  and  C_1 
REMARK    2  A    between atoms: C_18  and  C_7 
REMARK    3  A    between atoms: C_16  and  O_17 
REMARK    4  A    between atoms: O_17  and  C_18 
ROOT
ATOM      1  C   UNL d   1      -0.203  -0.840  -0.782  0.00  0.00     0.200 A 
ATOM      2  N   UNL d   1       0.235   0.341  -1.178  0.00  0.00    -0.320 N 
ATOM      3  HN  UNL d   1       0.439   0.659  -2.126  1.00  0.00     0.169 HD
ATOM      4  C   UNL d   1       0.347   1.036   0.005  0.00  0.00     0.128 A 
ATOM      5  N   UNL d   1       0.002   0.342   1.097  0.00  0.00    -0.244 N 
ATOM      6  HN  UNL d   1      -0.001   0.649   2.069  1.00  0.00     0.196 HD
ATOM      7  O   UNL d   1      -0.354  -0.907   0.580  0.00  0.00    -0.216 OA
ENDROOT
BRANCH   4   8
ATOM      8  C   UNL d   1       0.654   2.495   0.036  0.00  0.00     0.254 C 
BRANCH   8   9
ATOM      9  O   UNL d   1       2.051   2.772   0.220  0.00  0.00    -0.342 OA
BRANCH   9  10
ATOM     10  C   UNL d   1       2.407   4.098   0.147  0.00  0.00     0.091 A 
ATOM     11  C   UNL d   1       3.506   4.531   0.912  0.00  0.00     0.069 A 
ATOM     12  C   UNL d   1       3.938   5.861   0.853  0.00  0.00     0.050 A 
ATOM     13 CL   UNL d   1       4.356   3.453   1.961  0.00  0.00    -0.081 Cl
ATOM     14  C   UNL d   1       3.283   6.760   0.016  0.00  0.00     0.035 A 
ATOM     15  C   UNL d   1       2.206   6.342  -0.758  0.00  0.00     0.026 A 
ATOM     16 CL   UNL d   1       3.811   8.394  -0.077  0.00  0.00    -0.084 Cl
ATOM     17  C   UNL d   1       1.775   5.014  -0.696  0.00  0.00     0.040 A 
ENDBRANCH   9  10
ENDBRANCH   8   9
ENDBRANCH   4   8
BRANCH   1  18
ATOM     18  C   UNL d   1      -0.538  -1.961  -1.709  0.00  0.00     0.110 A 
ATOM     19  N   UNL d   1      -1.048  -3.123  -1.281  0.00  0.00    -0.257 N 
ATOM     20  O   UNL d   1      -1.238  -3.889  -2.417  0.00  0.00    -0.242 OA
ATOM     21  HN  UNL d   1      -1.253  -3.388  -0.317  1.00  0.00     0.195 HD
ATOM     22  C   UNL d   1      -0.837  -3.188  -3.511  0.00  0.00     0.075 A 
ATOM     23  C   UNL d   1      -0.389  -1.951  -3.115  0.00  0.00     0.070 A 
ATOM     24  C   UNL d   1      -0.969  -3.873  -4.809  0.00  0.00     0.079 C 
ENDBRANCH   1  18
TORSDOF 4
