REMARK  8 active torsions:
REMARK  status: ('A' for Active; 'I' for Inactive)
REMARK    1  A    between atoms: C_2  and  N_1 
REMARK    2  A    between atoms: C_3  and  N_11 
REMARK    3  A    between atoms: N_4  and  C_3 
REMARK    4  A    between atoms: C_5  and  N_4 
REMARK    5  A    between atoms: C_6  and  C_21 
REMARK       I    between atoms: N_13  and  C_6 
REMARK    6  A    between atoms: S_14  and  C_10 
REMARK    7  A    between atoms: N_11  and  N_13 
REMARK    8  A    between atoms: C_21  and  S_14 
ROOT
ATOM      1  C   UNL d   1       3.619   2.195  -1.441  0.00  0.00     0.245 C 
ATOM      2  N   UNL d   1       4.489   3.016  -0.728  0.00  0.00    -0.267 N 
ATOM      3  O   UNL d   1       2.410   2.426  -1.471  0.00  0.00    -0.271 OA
ATOM      4  H   UNL d   1       5.485   3.010  -0.947  0.00  0.00     0.190 HD
ENDROOT
BRANCH   2   5
ATOM      5  N   UNL d   1       3.992   4.287  -0.286  0.00  0.00    -0.274 N 
ATOM      6  H   UNL d   1       2.980   4.360  -0.333  0.00  0.00     0.189 HD
BRANCH   5   7
ATOM      7  C   UNL d   1       4.727   5.403  -0.552  0.00  0.00     0.186 C 
ATOM      8  S   UNL d   1       6.325   5.366  -1.077  0.00  0.00    -0.040 SA
BRANCH   7   9
ATOM      9  N   UNL d   1       4.186   6.629  -0.393  0.00  0.00    -0.361 N 
ATOM     10  H   UNL d   1       4.882   7.322  -0.649  0.00  0.00     0.162 HD
BRANCH   9  11
ATOM     11  C   UNL d   1       3.082   7.229   0.351  0.00  0.00     0.092 C 
ATOM     12  C   UNL d   1       1.600   6.782   0.227  0.00  0.00     0.031 C 
ATOM     13  C   UNL d   1       1.310   5.496   0.965  0.00  0.00    -0.024 C 
ATOM     14  C   UNL d   1       1.004   7.743   1.285  0.00  0.00     0.019 C 
ATOM     15  C   UNL d   1       1.480   5.725   2.275  0.00  0.00    -0.026 C 
ATOM     16  C   UNL d   1       1.858   7.176   2.428  0.00  0.00     0.010 C 
ATOM     17  C   UNL d   1       3.296   7.344   1.885  0.00  0.00     0.034 C 
ENDBRANCH   9  11
ENDBRANCH   7   9
ENDBRANCH   5   7
ENDBRANCH   2   5
BRANCH   1  18
ATOM     18  C   UNL d   1       4.323   1.040  -2.166  0.00  0.00     0.184 C 
BRANCH  18  19
ATOM     19  S   UNL d   1       3.119  -0.204  -2.770  0.00  0.00    -0.118 SA
BRANCH  19  20
ATOM     20  C   UNL d   1       4.191  -1.466  -3.458  0.00  0.00     0.034 A 
ATOM     21  C   UNL d   1       4.548  -1.573  -4.812  0.00  0.00     0.119 A 
ATOM     22  C   UNL d   1       5.242  -2.687  -5.320  0.00  0.00     0.037 A 
ATOM     23  C   UNL d   1       5.590  -3.724  -4.461  0.00  0.00     0.003 A 
ATOM     24  C   UNL d   1       5.252  -3.643  -3.111  0.00  0.00     0.002 A 
ATOM     25  C   UNL d   1       4.557  -2.529  -2.616  0.00  0.00     0.021 A 
BRANCH  21  26
ATOM     26  N   UNL d   1       4.207  -0.530  -5.759  0.00  0.00    -0.114 N 
ATOM     27  O   UNL d   1       4.700   0.592  -5.563  0.00  0.00    -0.532 OA
ATOM     28  O   UNL d   1       3.515  -0.854  -6.732  0.00  0.00    -0.532 OA
ENDBRANCH  21  26
ENDBRANCH  19  20
ENDBRANCH  18  19
ENDBRANCH   1  18
TORSDOF 8
