REMARK  1 active torsions:
REMARK  status: ('A' for Active; 'I' for Inactive)
REMARK    1  A    between atoms: C_9  and  N_8 
ROOT
ATOM      1  N   UNL d   1       4.303  -0.755   1.232  0.00  0.00    -0.266 N 
ATOM      2  HN  UNL d   1       4.634  -1.697   1.440  1.00  0.00     0.190 HD
ATOM      3  C   UNL d   1       3.215  -0.499   0.530  0.00  0.00     0.178 A 
ATOM      4  N   UNL d   1       4.948   0.398   1.659  0.00  0.00    -0.233 N 
ATOM      5  HN  UNL d   1       5.803   0.376   2.214  1.00  0.00     0.204 HD
ATOM      6  N   UNL d   1       4.366   1.529   1.288  0.00  0.00    -0.043 NA
ATOM      7  S   UNL d   1       2.989   1.220   0.386  0.00  0.00     0.039 SA
ATOM      8  N   UNL d   1       2.358  -1.369  -0.062  0.00  0.00    -0.335 N 
ATOM      9  H   UNL d   1       1.633  -0.991  -0.657  0.00  0.00     0.168 HD
ENDROOT
BRANCH   8  10
ATOM     10  C   UNL d   1       2.356  -2.773   0.032  0.00  0.00     0.034 A 
ATOM     11  C   UNL d   1       3.020  -3.483   1.038  0.00  0.00     0.030 A 
ATOM     12  C   UNL d   1       3.041  -4.883   1.046  0.00  0.00     0.009 A 
ATOM     13  C   UNL d   1       2.410  -5.609   0.033  0.00  0.00    -0.062 A 
ATOM     14  C   UNL d   1       1.743  -4.913  -0.977  0.00  0.00     0.009 A 
ATOM     15  C   UNL d   1       2.458  -7.107   0.047  0.00  0.00     0.048 C 
ATOM     16  C   UNL d   1       1.719  -3.514  -0.976  0.00  0.00     0.030 A 
ENDBRANCH   8  10
TORSDOF 1
