REMARK  8 active torsions:
REMARK  status: ('A' for Active; 'I' for Inactive)
REMARK    1  A    between atoms: N_2  and  C_1 
REMARK    2  A    between atoms: C_3  and  C_1 
REMARK    3  A    between atoms: N_4  and  C_1 
REMARK    4  A    between atoms: C_9  and  C_1 
REMARK       I    between atoms: C_6  and  N_2 
REMARK    5  A    between atoms: C_8  and  N_4 
REMARK    6  A    between atoms: C_10  and  C_6 
REMARK    7  A    between atoms: O_23  and  C_9 
REMARK    8  A    between atoms: C_29  and  O_23 
ROOT
ATOM      1  C   UNL d   1       0.976   0.029   0.187  0.00  0.00     0.297 C 
ENDROOT
BRANCH   1   2
ATOM      2  N   UNL d   1       0.530  -1.371   0.117  0.00  0.00    -0.315 N 
ATOM      3  C   UNL d   1       0.105  -2.210   1.102  0.00  0.00     0.254 C 
ATOM      4  O   UNL d   1       0.024  -1.911   2.281  0.00  0.00    -0.268 OA
ATOM      5  H   UNL d   1       0.876  -1.827  -0.712  0.00  0.00     0.166 HD
BRANCH   3   6
ATOM      6  C   UNL d   1      -0.242  -3.600   0.661  0.00  0.00     0.033 A 
ATOM      7  C   UNL d   1      -0.241  -4.612   1.627  0.00  0.00     0.041 A 
ATOM      8  C   UNL d   1      -0.529  -5.927   1.263  0.00  0.00     0.035 A 
ATOM      9 CL   UNL d   1      -0.513  -7.164   2.457  0.00  0.00    -0.084 Cl
ATOM     10  C   UNL d   1      -0.828  -6.246  -0.060  0.00  0.00     0.024 A 
ATOM     11  C   UNL d   1      -0.862  -5.241  -1.025  0.00  0.00     0.003 A 
ATOM     12  C   UNL d   1      -0.578  -3.919  -0.668  0.00  0.00     0.017 A 
ENDBRANCH   3   6
ENDBRANCH   1   2
BRANCH   1  13
ATOM     13  C   UNL d   1       0.511   0.970   1.393  0.00  0.00     0.442 C 
ATOM     14  F   UNL d   1      -0.285   0.414   2.322  0.00  0.00    -0.166 F 
ATOM     15  F   UNL d   1       1.546   1.539   2.065  0.00  0.00    -0.166 F 
ATOM     16  F   UNL d   1      -0.208   2.021   0.887  0.00  0.00    -0.166 F 
ENDBRANCH   1  13
BRANCH   1  17
ATOM     17  N   UNL d   1       0.434   0.557  -1.132  0.00  0.00    -0.345 N 
ATOM     18  H   UNL d   1       0.225   1.554  -1.040  0.00  0.00     0.163 HD
BRANCH  17  19
ATOM     19  C   UNL d   1       0.891   0.239  -2.415  0.00  0.00     0.073 A 
ATOM     20  C   UNL d   1       1.785  -0.796  -2.739  0.00  0.00     0.184 A 
ATOM     21  C   UNL d   1       2.128  -1.103  -4.057  0.00  0.00     0.195 A 
ATOM     22  F   UNL d   1       2.325  -1.556  -1.772  0.00  0.00    -0.200 F 
ATOM     23  F   UNL d   1       2.985  -2.094  -4.308  0.00  0.00    -0.199 F 
ATOM     24  C   UNL d   1       1.540  -0.398  -5.095  0.00  0.00     0.158 A 
ATOM     25  C   UNL d   1       0.624   0.602  -4.828  0.00  0.00     0.048 A 
ATOM     26  F   UNL d   1       1.842  -0.701  -6.364  0.00  0.00    -0.203 F 
ATOM     27  C   UNL d   1       0.295   0.915  -3.496  0.00  0.00     0.036 A 
ENDBRANCH  17  19
ENDBRANCH   1  17
BRANCH   1  28
ATOM     28  C   UNL d   1       2.510   0.244   0.239  0.00  0.00     0.318 C 
ATOM     29  O   UNL d   1       3.076   1.236  -0.216  0.00  0.00    -0.260 OA
BRANCH  28  30
ATOM     30  O   UNL d   1       3.144  -0.754   0.921  0.00  0.00    -0.318 OA
BRANCH  30  31
ATOM     31  C   UNL d   1       4.554  -0.557   1.118  0.00  0.00     0.174 C 
ATOM     32  C   UNL d   1       5.325  -1.042  -0.095  0.00  0.00     0.034 C 
ENDBRANCH  30  31
ENDBRANCH  28  30
ENDBRANCH   1  28
TORSDOF 8
