REMARK  6 active torsions:
REMARK  status: ('A' for Active; 'I' for Inactive)
REMARK    1  A    between atoms: C_12  and  C_3 
REMARK    2  A    between atoms: S_13  and  C_6 
REMARK    3  A    between atoms: C_11  and  C_7 
REMARK    4  A    between atoms: O_19  and  C_12 
REMARK    5  A    between atoms: C_18  and  S_13 
REMARK    6  A    between atoms: C_20  and  C_18 
ROOT
ATOM      1  C   UNL d   1      -0.298  -0.745  -0.053  0.00  0.00     0.068 A 
ATOM      2  C   UNL d   1      -0.261   0.701  -0.003  0.00  0.00     0.015 A 
ATOM      3  C   UNL d   1      -1.576  -1.264  -0.048  0.00  0.00     0.107 A 
ATOM      4  N   UNL d   1       0.836  -1.491  -0.080  0.00  0.00    -0.350 N 
ATOM      5  HN  UNL d   1       0.832  -2.510  -0.124  1.00  0.00     0.166 HD
ATOM      6  C   UNL d   1       0.908   1.482   0.032  0.00  0.00     0.016 A 
ATOM      7  C   UNL d   1       1.990  -0.746  -0.043  0.00  0.00     0.118 A 
ATOM      8  S   UNL d   1      -2.736   0.014  -0.020  0.00  0.00    -0.093 SA
ATOM      9  C   UNL d   1       2.055   0.677   0.009  0.00  0.00     0.053 A 
ATOM     10  C   UNL d   1      -1.533   1.228   0.014  0.00  0.00     0.065 A 
ENDROOT
BRANCH   6  11
ATOM     11  S   UNL d   1       0.865   3.232   0.219  0.00  0.00    -0.124 SA
BRANCH  11  12
ATOM     12  C   UNL d   1       2.289   3.806  -0.772  0.00  0.00     0.117 C 
BRANCH  12  13
ATOM     13  C   UNL d   1       2.333   5.316  -0.793  0.00  0.00    -0.049 A 
ATOM     14  C   UNL d   1       2.954   6.024   0.248  0.00  0.00     0.008 A 
ATOM     15  C   UNL d   1       2.948   7.421   0.261  0.00  0.00     0.001 A 
ATOM     16  C   UNL d   1       2.321   8.126  -0.763  0.00  0.00     0.000 A 
ATOM     17  C   UNL d   1       1.700   7.435  -1.803  0.00  0.00     0.001 A 
ATOM     18  C   UNL d   1       1.704   6.038  -1.818  0.00  0.00     0.008 A 
ENDBRANCH  12  13
ENDBRANCH  11  12
ENDBRANCH   6  11
BRANCH   7  19
ATOM     19  C   UNL d   1       3.325  -1.494  -0.032  0.00  0.00     0.432 C 
ATOM     20  F   UNL d   1       3.217  -2.851  -0.056  0.00  0.00    -0.165 F 
ATOM     21  F   UNL d   1       4.109  -1.162  -1.099  0.00  0.00    -0.165 F 
ATOM     22  F   UNL d   1       4.072  -1.197   1.072  0.00  0.00    -0.165 F 
ENDBRANCH   7  19
BRANCH   3  23
ATOM     23  C   UNL d   1      -2.083  -2.623  -0.054  0.00  0.00     0.302 C 
ATOM     24  O   UNL d   1      -3.268  -2.941  -0.065  0.00  0.00    -0.259 OA
BRANCH  23  25
ATOM     25  O   UNL d   1      -1.070  -3.536  -0.036  0.00  0.00    -0.322 OA
ATOM     26  C   UNL d   1      -1.512  -4.894  -0.023  0.00  0.00     0.213 C 
ENDBRANCH  23  25
ENDBRANCH   3  23
TORSDOF 6
