REMARK  4 active torsions:
REMARK  status: ('A' for Active; 'I' for Inactive)
REMARK    1  A    between atoms: N_2  and  S_1 
REMARK    2  A    between atoms: C_8  and  S_1 
REMARK    3  A    between atoms: C_3  and  N_2 
REMARK    4  A    between atoms: N_4  and  C_5 
ROOT
ATOM      1  C   UNL d   1       0.638  -0.161  -2.942  0.00  0.00     0.049 A 
ATOM      2  C   UNL d   1       2.033  -0.262  -3.206  0.00  0.00     0.052 A 
ATOM      3  C   UNL d   1      -0.269   0.235  -3.938  0.00  0.00     0.027 A 
ATOM      4  C   UNL d   1       2.441   0.161  -4.489  0.00  0.00     0.031 A 
ATOM      5  C   UNL d   1       0.177   0.625  -5.194  0.00  0.00     0.002 A 
ATOM      6  C   UNL d   1       1.537   0.610  -5.461  0.00  0.00     0.002 A 
ENDROOT
BRANCH   1   7
ATOM      7  N   UNL d   1       0.094  -0.310  -1.619  0.00  0.00    -0.179 NA
ATOM      8  H   UNL d   1       0.606  -0.940  -1.012  0.00  0.00     0.146 HD
BRANCH   7   9
ATOM      9  S   UNL d   1      -0.147   1.103  -0.709  0.00  0.00     0.245 S 
ATOM     10  O   UNL d   1       0.950   2.023  -0.929  0.00  0.00    -0.206 OA
ATOM     11  O   UNL d   1      -0.469   0.648   0.632  0.00  0.00    -0.206 OA
BRANCH   9  12
ATOM     12  C   UNL d   1      -1.631   1.824  -1.375  0.00  0.00     0.074 A 
ATOM     13  C   UNL d   1      -2.880   1.289  -1.043  0.00  0.00     0.025 A 
ATOM     14  C   UNL d   1      -4.041   1.915  -1.507  0.00  0.00     0.002 A 
ATOM     15  C   UNL d   1      -3.953   3.069  -2.289  0.00  0.00     0.000 A 
ATOM     16  C   UNL d   1      -2.704   3.599  -2.616  0.00  0.00     0.002 A 
ATOM     17  C   UNL d   1      -1.542   2.982  -2.155  0.00  0.00     0.025 A 
ENDBRANCH   9  12
ENDBRANCH   7   9
ENDBRANCH   1   7
BRANCH   2  18
ATOM     18  N   UNL d   1       2.964  -0.708  -2.263  0.00  0.00    -0.375 N 
ATOM     19  C   UNL d   1       2.763  -1.993  -1.557  0.00  0.00     0.149 C 
ATOM     20  C   UNL d   1       3.708  -3.098  -2.062  0.00  0.00     0.187 C 
ATOM     21  O   UNL d   1       5.079  -2.684  -2.108  0.00  0.00    -0.388 OA
ATOM     22  C   UNL d   1       5.211  -1.529  -2.949  0.00  0.00     0.187 C 
ATOM     23  C   UNL d   1       4.400  -0.354  -2.380  0.00  0.00     0.149 C 
ENDBRANCH   2  18
TORSDOF 4
