REMARK  7 active torsions:
REMARK  status: ('A' for Active; 'I' for Inactive)
REMARK    1  A    between atoms: C_7  and  S_1 
REMARK    2  A    between atoms: N_14  and  S_1 
REMARK    3  A    between atoms: C_2  and  C_4 
REMARK    4  A    between atoms: C_5  and  CA_3 
REMARK       I    between atoms: C_4  and  N_6 
REMARK    5  A    between atoms: OXT_21  and  C_5 
REMARK    6  A    between atoms: N_6  and  N_15 
REMARK    7  A    between atoms: N_15  and  C_20 
ROOT
ATOM      1  C   UNL d   1      -1.720  -2.922   7.012  0.00  0.00     0.285 C 
ATOM      2  N   UNL d   1      -0.881  -2.835   5.909  0.00  0.00    -0.281 N 
ATOM      3  O   UNL d   1      -1.976  -1.966   7.738  0.00  0.00    -0.265 OA
ATOM      4  H   UNL d   1      -0.373  -3.670   5.628  0.00  0.00     0.184 HD
ENDROOT
BRANCH   2   5
ATOM      5  N   UNL d   1      -0.241  -1.589   5.722  0.00  0.00    -0.203 NA
ATOM      6  H   UNL d   1      -0.754  -0.863   6.240  0.00  0.00     0.153 HD
BRANCH   5   7
ATOM      7  C   UNL d   1      -0.072  -1.226   4.362  0.00  0.00     0.027 A 
ATOM      8  C   UNL d   1      -0.174   0.127   3.991  0.00  0.00     0.026 A 
ATOM      9  C   UNL d   1       0.101   0.543   2.680  0.00  0.00     0.026 A 
ATOM     10  C   UNL d   1       0.501  -0.400   1.734  0.00  0.00     0.074 A 
ATOM     11  C   UNL d   1       0.638  -1.742   2.087  0.00  0.00     0.026 A 
ATOM     12  C   UNL d   1       0.359  -2.147   3.396  0.00  0.00     0.026 A 
BRANCH  10  13
ATOM     13  S   UNL d   1       0.871   0.108   0.083  0.00  0.00     0.239 S 
ATOM     14  O   UNL d   1       1.141  -1.054  -0.729  0.00  0.00    -0.206 OA
ATOM     15  O   UNL d   1       1.765   1.242   0.133  0.00  0.00    -0.206 OA
BRANCH  13  16
ATOM     16  N   UNL d   1      -0.606   0.692  -0.460  0.00  0.00    -0.225 NA
ATOM     17  H   UNL d   1      -0.997   0.055  -1.151  0.00  0.00     0.136 HD
ATOM     18  H   UNL d   1      -0.487   1.647  -0.803  0.00  0.00     0.136 HD
ENDBRANCH  13  16
ENDBRANCH  10  13
ENDBRANCH   5   7
ENDBRANCH   2   5
BRANCH   1  19
ATOM     19  C   UNL d   1      -2.218  -4.286   7.316  0.00  0.00     0.135 A 
ATOM     20  CA  UNL d   1      -3.400  -4.505   8.006  0.00  0.00     0.139 A 
ATOM     21  N   UNL d   1      -3.762  -5.749   8.474  0.00  0.00    -0.357 N 
ATOM     22  C   UNL d   1      -2.919  -6.756   8.145  0.00  0.00     0.105 A 
ATOM     23  HN  UNL d   1      -4.605  -5.900   9.028  1.00  0.00     0.165 HD
ATOM     24  C   UNL d   1      -1.762  -6.548   7.409  0.00  0.00     0.105 A 
ATOM     25  N   UNL d   1      -1.375  -5.319   6.985  0.00  0.00    -0.358 N 
ATOM     26  HN  UNL d   1      -0.516  -5.172   6.455  1.00  0.00     0.165 HD
BRANCH  20  27
ATOM     27  C   UNL d   1      -4.442  -3.463   8.195  0.00  0.00     0.196 C 
ATOM     28  O   UNL d   1      -4.637  -2.515   7.458  0.00  0.00    -0.645 OA
BRANCH  27  29
ATOM     29  OXT UNL d   1      -5.242  -3.779   9.244  0.00  0.00    -0.772 OA
ATOM     30  HXT UNL d   1      -5.008  -4.668   9.595  0.00  0.00     0.167 HD
ENDBRANCH  27  29
ENDBRANCH  20  27
ENDBRANCH   1  19
TORSDOF 7
