REMARK  6 active torsions:
REMARK  status: ('A' for Active; 'I' for Inactive)
REMARK    1  A    between atoms: N_7  and  C_1 
REMARK    2  A    between atoms: C_9  and  C_6 
REMARK       I    between atoms: C_8  and  N_7 
REMARK       I    between atoms: N_10  and  C_8 
REMARK    3  A    between atoms: C_12  and  N_10 
REMARK    4  A    between atoms: C_22  and  C_14 
REMARK    5  A    between atoms: C_23  and  C_22 
REMARK    6  A    between atoms: C_24  and  C_23 
ROOT
ATOM      1  N   UNL d   1      -0.477  -2.301  -0.155  0.00  0.00    -0.293 N 
ATOM      2  C   UNL d   1      -1.822  -2.769  -0.177  0.00  0.00     0.326 C 
ATOM      3  N   UNL d   1      -2.813  -1.838  -0.269  0.00  0.00    -0.309 N 
ATOM      4  O   UNL d   1      -1.911  -3.983  -0.103  0.00  0.00    -0.247 OA
ATOM      5  H   UNL d   1       0.153  -3.067   0.048  0.00  0.00     0.172 HD
ATOM      6  H   UNL d   1      -2.563  -0.868  -0.255  0.00  0.00     0.170 HD
ENDROOT
BRANCH   1   7
ATOM      7  C   UNL d   1       0.080  -1.051  -0.366  0.00  0.00     0.127 C 
ATOM      8  C   UNL d   1      -0.460   0.098  -0.901  0.00  0.00     0.077 C 
ATOM      9  C   UNL d   1       0.518   1.110  -0.699  0.00  0.00     0.037 C 
ATOM     10  N   UNL d   1       1.650   0.584  -0.219  0.00  0.00    -0.301 N 
ATOM     11  N   UNL d   1       1.391  -0.724  -0.100  0.00  0.00    -0.281 N 
ATOM     12  HN  UNL d   1       2.517   1.071   0.006  1.00  0.00     0.187 HD
ATOM     13  C   UNL d   1       2.455  -1.606   0.315  0.00  0.00     0.179 C 
BRANCH   9  14
ATOM     14  C   UNL d   1       0.416   2.614  -0.897  0.00  0.00    -0.007 C 
ATOM     15  C   UNL d   1      -0.940   3.027  -1.504  0.00  0.00     0.021 C 
ATOM     16  C   UNL d   1       0.552   3.312   0.475  0.00  0.00     0.021 C 
ATOM     17  C   UNL d   1       1.534   3.116  -1.831  0.00  0.00     0.021 C 
ENDBRANCH   9  14
ENDBRANCH   1   7
BRANCH   3  18
ATOM     18  C   UNL d   1      -4.162  -2.119  -0.588  0.00  0.00     0.036 C 
ATOM     19  C   UNL d   1      -4.724  -3.393  -0.495  0.00  0.00     0.030 C 
ATOM     20  C   UNL d   1      -5.970  -3.658  -1.063  0.00  0.00     0.009 C 
ATOM     21  C   UNL d   1      -6.665  -2.655  -1.744  0.00  0.00    -0.058 C 
ATOM     22  C   UNL d   1      -6.175  -1.345  -1.697  0.00  0.00     0.009 C 
ATOM     23  C   UNL d   1      -4.934  -1.075  -1.111  0.00  0.00     0.030 C 
BRANCH  21  24
ATOM     24  C   UNL d   1      -7.856  -3.011  -2.601  0.00  0.00     0.038 C 
BRANCH  24  25
ATOM     25  C   UNL d   1      -7.599  -2.780  -4.102  0.00  0.00     0.004 C 
BRANCH  25  26
ATOM     26  C   UNL d   1      -6.396  -3.525  -4.699  0.00  0.00    -0.004 C 
ATOM     27  C   UNL d   1      -6.523  -5.039  -4.651  0.00  0.00     0.005 C 
ENDBRANCH  25  26
ENDBRANCH  24  25
ENDBRANCH  21  24
ENDBRANCH   3  18
TORSDOF 6
