REMARK  6 active torsions:
REMARK  status: ('A' for Active; 'I' for Inactive)
REMARK    1  A    between atoms: N_7  and  S_1 
REMARK    2  A    between atoms: C_15  and  S_1 
REMARK    3  A    between atoms: C_2  and  C_6 
REMARK    4  A    between atoms: C_9  and  C_3 
REMARK       I    between atoms: C_6  and  N_14 
REMARK    5  A    between atoms: C_8  and  N_7 
REMARK    6  A    between atoms: N_14  and  C_25 
ROOT
ATOM      1  C   UNL d   1      -1.942   5.052  -3.402  0.00  0.00     0.261 C 
ATOM      2  N   UNL d   1      -0.797   5.006  -2.616  0.00  0.00    -0.323 N 
ATOM      3  O   UNL d   1      -2.634   4.081  -3.680  0.00  0.00    -0.267 OA
ATOM      4  H   UNL d   1      -0.087   5.660  -2.927  0.00  0.00     0.169 HD
ENDROOT
BRANCH   2   5
ATOM      5  C   UNL d   1      -0.289   3.787  -2.132  0.00  0.00     0.035 A 
ATOM      6  C   UNL d   1       0.784   3.180  -2.791  0.00  0.00     0.031 A 
ATOM      7  C   UNL d   1       1.411   2.068  -2.226  0.00  0.00     0.027 A 
ATOM      8  C   UNL d   1       0.984   1.595  -0.983  0.00  0.00     0.075 A 
ATOM      9  C   UNL d   1      -0.082   2.211  -0.314  0.00  0.00     0.027 A 
ATOM     10  C   UNL d   1      -0.736   3.296  -0.904  0.00  0.00     0.031 A 
BRANCH   8  11
ATOM     11  S   UNL d   1       1.912   0.323  -0.151  0.00  0.00     0.247 S 
ATOM     12  O   UNL d   1       3.214   0.267  -0.780  0.00  0.00    -0.205 OA
ATOM     13  O   UNL d   1       1.785   0.553   1.270  0.00  0.00    -0.205 OA
BRANCH  11  14
ATOM     14  N   UNL d   1       1.111  -1.083  -0.634  0.00  0.00    -0.160 NA
ATOM     15  H   UNL d   1       1.814  -1.691  -1.046  0.00  0.00     0.148 HD
BRANCH  14  16
ATOM     16  C   UNL d   1       0.505  -1.754   0.452  0.00  0.00     0.136 A 
ATOM     17  N   UNL d   1       1.047  -2.865   0.882  0.00  0.00    -0.350 N 
ATOM     18  C   UNL d   1       0.294  -3.344   1.939  0.00  0.00     0.097 A 
ATOM     19  HN  UNL d   1       1.885  -3.304   0.501  1.00  0.00     0.166 HD
ATOM     20  C   UNL d   1      -0.861  -2.642   2.215  0.00  0.00     0.069 A 
ATOM     21  S   UNL d   1      -0.986  -1.302   1.151  0.00  0.00    -0.070 SA
ENDBRANCH  14  16
ENDBRANCH  11  14
ENDBRANCH   8  11
ENDBRANCH   2   5
BRANCH   1  22
ATOM     22  C   UNL d   1      -2.197   6.377  -3.949  0.00  0.00     0.093 A 
ATOM     23  C   UNL d   1      -2.718   6.773  -5.229  0.00  0.00     0.085 A 
ATOM     24  N   UNL d   1      -2.737   8.113  -5.313  0.00  0.00    -0.259 N 
ATOM     25  O   UNL d   1      -2.322   8.602  -4.104  0.00  0.00    -0.241 OA
ATOM     26  HN  UNL d   1      -3.010   8.664  -6.127  1.00  0.00     0.195 HD
ATOM     27  C   UNL d   1      -1.997   7.574  -3.287  0.00  0.00     0.090 A 
ATOM     28  C   UNL d   1      -1.535   7.957  -1.937  0.00  0.00     0.080 C 
BRANCH  23  29
ATOM     29  C   UNL d   1      -3.097   5.961  -6.396  0.00  0.00     0.015 A 
ATOM     30  C   UNL d   1      -4.192   6.270  -7.232  0.00  0.00     0.046 A 
ATOM     31 CL   UNL d   1      -5.291   7.576  -6.931  0.00  0.00    -0.083 Cl
ATOM     32  C   UNL d   1      -4.470   5.489  -8.365  0.00  0.00     0.025 A 
ATOM     33  C   UNL d   1      -3.678   4.387  -8.676  0.00  0.00     0.002 A 
ATOM     34  C   UNL d   1      -2.598   4.066  -7.863  0.00  0.00     0.001 A 
ATOM     35  C   UNL d   1      -2.304   4.851  -6.743  0.00  0.00     0.015 A 
ENDBRANCH  23  29
ENDBRANCH   1  22
TORSDOF 6
