REMARK  4 active torsions:
REMARK  status: ('A' for Active; 'I' for Inactive)
REMARK    1  A    between atoms: C_5  and  C_1 
REMARK    2  A    between atoms: C_10  and  C_5 
REMARK    3  A    between atoms: O_11  and  C_6 
REMARK    4  A    between atoms: O_12  and  C_7 
ROOT
ATOM      1  N   UNL d   1       3.470  -2.478   1.929  0.00  0.00    -0.197 NA
ATOM      2  C   UNL d   1       3.188  -1.624   1.192  0.00  0.00     0.069 C 
ATOM      3  C   UNL d   1       2.833  -0.550   0.234  0.00  0.00     0.129 C 
ENDROOT
BRANCH   3   4
ATOM      4  C   UNL d   1       1.327  -0.309   0.147  0.00  0.00    -0.037 A 
ATOM      5  C   UNL d   1       0.404  -1.370   0.232  0.00  0.00     0.048 A 
ATOM      6  C   UNL d   1      -0.983  -1.164   0.134  0.00  0.00     0.102 A 
ATOM      7  C   UNL d   1      -1.469   0.141  -0.027  0.00  0.00     0.101 A 
ATOM      8  C   UNL d   1      -0.553   1.200  -0.114  0.00  0.00     0.040 A 
ATOM      9  C   UNL d   1       0.826   0.983  -0.037  0.00  0.00     0.011 A 
BRANCH   6  10
ATOM     10  O   UNL d   1      -1.867  -2.204   0.248  0.00  0.00    -0.353 OA
ATOM     11  C   UNL d   1      -1.417  -3.475  -0.214  0.00  0.00     0.210 C 
ENDBRANCH   6  10
BRANCH   7  12
ATOM     12  O   UNL d   1      -2.768   0.565  -0.133  0.00  0.00    -0.353 OA
ATOM     13  C   UNL d   1      -3.808  -0.400  -0.082  0.00  0.00     0.210 C 
ENDBRANCH   7  12
ENDBRANCH   3   4
BRANCH   3  14
ATOM     14  C   UNL d   1       3.483  -0.774  -1.165  0.00  0.00    -0.001 C 
ATOM     15  C   UNL d   1       5.010  -0.913  -1.064  0.00  0.00     0.011 C 
ATOM     16  C   UNL d   1       2.923  -1.974  -1.939  0.00  0.00     0.011 C 
ENDBRANCH   3  14
TORSDOF 4
