REMARK  4 active torsions:
REMARK  status: ('A' for Active; 'I' for Inactive)
REMARK    1  A    between atoms: O_2  and  S_1 
REMARK    2  A    between atoms: C_6  and  S_1 
REMARK    3  A    between atoms: C_10  and  O_2 
REMARK    4  A    between atoms: C_7  and  C_10 
ROOT
ATOM      1  O   UNL d   1       0.659  -2.885  -2.752  0.00  0.00    -0.271 OA
ENDROOT
BRANCH   1   2
ATOM      2  S   UNL d   1       0.192  -4.343  -2.198  0.00  0.00     0.298 S 
ATOM      3  O   UNL d   1      -0.303  -5.113  -3.324  0.00  0.00    -0.193 OA
ATOM      4  O   UNL d   1      -0.622  -4.137  -1.017  0.00  0.00    -0.193 OA
BRANCH   2   5
ATOM      5  C   UNL d   1       1.712  -5.087  -1.660  0.00  0.00     0.086 A 
ATOM      6  C   UNL d   1       2.471  -4.440  -0.680  0.00  0.00     0.026 A 
ATOM      7  C   UNL d   1       3.652  -5.029  -0.230  0.00  0.00     0.002 A 
ATOM      8  C   UNL d   1       4.069  -6.253  -0.759  0.00  0.00     0.000 A 
ATOM      9  C   UNL d   1       3.311  -6.888  -1.745  0.00  0.00     0.002 A 
ATOM     10  C   UNL d   1       2.129  -6.306  -2.201  0.00  0.00     0.026 A 
ENDBRANCH   2   5
ENDBRANCH   1   2
BRANCH   1  11
ATOM     11  C   UNL d   1      -0.307  -2.115  -3.456  0.00  0.00     0.195 C 
BRANCH  11  12
ATOM     12  C   UNL d   1       0.346  -0.811  -3.930  0.00  0.00     0.019 C 
ATOM     13  C   UNL d   1      -0.658   0.110  -4.681  0.00  0.00     0.014 C 
ATOM     14  C   UNL d   1      -1.006  -0.555  -5.999  0.00  0.00    -0.025 C 
ATOM     15  C   UNL d   1       0.076   1.429  -5.022  0.00  0.00     0.009 C 
ATOM     16  C   UNL d   1       0.053  -0.823  -6.781  0.00  0.00    -0.026 C 
ATOM     17  C   UNL d   1       1.386  -0.378  -6.212  0.00  0.00     0.008 C 
ATOM     18  C   UNL d   1       1.574  -1.089  -4.853  0.00  0.00     0.016 C 
ATOM     19  C   UNL d   1       1.284   1.139  -5.945  0.00  0.00     0.009 C 
ENDBRANCH  11  12
ENDBRANCH   1  11
TORSDOF 4
