REMARK  9 active torsions:
REMARK  status: ('A' for Active; 'I' for Inactive)
REMARK    1  A    between atoms: S_15  and  C_2 
REMARK    2  A    between atoms: C_18  and  C_3 
REMARK    3  A    between atoms: C_14  and  C_10 
REMARK    4  A    between atoms: C_13  and  C_11 
REMARK    5  A    between atoms: C_12  and  S_15 
REMARK    6  A    between atoms: O_22  and  C_13 
REMARK    7  A    between atoms: O_21  and  C_14 
REMARK    8  A    between atoms: C_26  and  O_21 
REMARK    9  A    between atoms: C_25  and  O_22 
ROOT
ATOM      1  N   UNL d   1      -5.473   2.870  -0.028  0.00  0.00    -0.346 N 
ATOM      2  HN  UNL d   1      -6.492   2.918  -0.021  1.00  0.00     0.166 HD
ATOM      3  C   UNL d   1      -4.793   2.299   0.993  0.00  0.00     0.110 A 
ATOM      4  C   UNL d   1      -4.756   3.374  -1.056  0.00  0.00     0.110 A 
ATOM      5  C   UNL d   1      -2.686   2.746  -0.041  0.00  0.00     0.013 A 
ATOM      6  C   UNL d   1      -3.408   2.221   1.032  0.00  0.00     0.055 A 
ATOM      7  C   UNL d   1      -3.370   3.334  -1.107  0.00  0.00     0.055 A 
ENDROOT
BRANCH   5   8
ATOM      8  S   UNL d   1      -0.899   2.777  -0.000  0.00  0.00    -0.053 SA
BRANCH   8   9
ATOM      9  C   UNL d   1      -0.545   1.268  -0.750  0.00  0.00     0.165 A 
ATOM     10  N   UNL d   1       0.746   0.887  -0.965  0.00  0.00    -0.320 N 
ATOM     11  C   UNL d   1       0.695  -0.357  -1.548  0.00  0.00     0.132 A 
ATOM     12  H   UNL d   1       1.566   1.416  -0.723  0.00  0.00     0.169 HD
ATOM     13  N   UNL d   1      -0.583  -0.680  -1.683  0.00  0.00    -0.283 N 
ATOM     14  N   UNL d   1      -1.360   0.341  -1.181  0.00  0.00    -0.278 N 
ATOM     15  HN  UNL d   1      -0.935  -1.546  -2.092  1.00  0.00     0.188 HD
ATOM     16  HN  UNL d   1      -2.379   0.368  -1.150  1.00  0.00     0.189 HD
BRANCH  11  17
ATOM     17  C   UNL d   1       1.848  -1.179  -1.932  0.00  0.00     0.009 A 
ATOM     18  C   UNL d   1       3.178  -0.753  -1.778  0.00  0.00     0.015 A 
ATOM     19  C   UNL d   1       4.243  -1.586  -2.147  0.00  0.00     0.001 A 
ATOM     20  C   UNL d   1       3.996  -2.852  -2.675  0.00  0.00     0.000 A 
ATOM     21  C   UNL d   1       2.684  -3.285  -2.841  0.00  0.00     0.001 A 
ATOM     22  C   UNL d   1       1.623  -2.455  -2.471  0.00  0.00     0.015 A 
ENDBRANCH  11  17
ENDBRANCH   8   9
ENDBRANCH   5   8
BRANCH   3  23
ATOM     23  C   UNL d   1      -5.606   1.700   2.092  0.00  0.00     0.310 C 
ATOM     24  O   UNL d   1      -5.134   1.094   3.043  0.00  0.00    -0.258 OA
BRANCH  23  25
ATOM     25  O   UNL d   1      -6.925   1.857   1.810  0.00  0.00    -0.317 OA
BRANCH  25  26
ATOM     26  C   UNL d   1      -7.825   0.950   2.453  0.00  0.00     0.175 C 
ATOM     27  C   UNL d   1      -7.916  -0.303   1.599  0.00  0.00     0.034 C 
ENDBRANCH  25  26
ENDBRANCH  23  25
ENDBRANCH   3  23
BRANCH   4  28
ATOM     28  C   UNL d   1      -5.513   4.114  -2.110  0.00  0.00     0.310 C 
ATOM     29  O   UNL d   1      -4.987   4.718  -3.027  0.00  0.00    -0.258 OA
BRANCH  28  30
ATOM     30  O   UNL d   1      -6.838   4.108  -1.803  0.00  0.00    -0.317 OA
BRANCH  30  31
ATOM     31  C   UNL d   1      -7.628   5.142  -2.399  0.00  0.00     0.175 C 
ATOM     32  C   UNL d   1      -7.557   6.367  -1.503  0.00  0.00     0.034 C 
ENDBRANCH  30  31
ENDBRANCH  28  30
ENDBRANCH   4  28
TORSDOF 9
