REMARK  7 active torsions:
REMARK  status: ('A' for Active; 'I' for Inactive)
REMARK    1  A    between atoms: C_2  and  S_1 
REMARK    2  A    between atoms: C_6  and  S_1 
REMARK    3  A    between atoms: C_7  and  C_2 
REMARK    4  A    between atoms: N_10  and  C_3 
REMARK       I    between atoms: C_5  and  N_4 
REMARK    5  A    between atoms: O_20  and  C_5 
REMARK    6  A    between atoms: C_19  and  N_10 
REMARK    7  A    between atoms: C_26  and  O_20 
ROOT
ATOM      1  C   UNL d   1      -0.239   1.244  -0.099  0.00  0.00     0.124 C 
ATOM      2  C   UNL d   1      -0.887   1.391  -1.272  0.00  0.00     0.111 C 
ENDROOT
BRANCH   1   3
ATOM      3  S   UNL d   1      -0.756   2.102   1.319  0.00  0.00     0.211 S 
ATOM      4  O   UNL d   1       0.258   3.089   1.633  0.00  0.00    -0.217 OA
ATOM      5  O   UNL d   1      -1.151   1.132   2.328  0.00  0.00    -0.217 OA
BRANCH   3   6
ATOM      6  C   UNL d   1      -2.251   3.010   0.965  0.00  0.00     0.064 A 
ATOM      7  C   UNL d   1      -3.421   2.319   0.622  0.00  0.00     0.025 A 
ATOM      8  C   UNL d   1      -4.609   3.028   0.433  0.00  0.00     0.025 A 
ATOM      9  C   UNL d   1      -4.635   4.409   0.632  0.00  0.00     0.034 A 
ATOM     10  C   UNL d   1      -3.475   5.094   0.998  0.00  0.00     0.025 A 
ATOM     11 CL   UNL d   1      -6.112   5.270   0.449  0.00  0.00    -0.084 Cl
ATOM     12  C   UNL d   1      -2.276   4.396   1.158  0.00  0.00     0.025 A 
ENDBRANCH   3   6
ENDBRANCH   1   3
BRANCH   1  13
ATOM     13  C   UNL d   1       0.954   0.339   0.006  0.00  0.00     0.168 C 
ATOM     14  O   UNL d   1       1.340  -0.303  -0.980  0.00  0.00    -0.292 OA
ATOM     15  C   UNL d   1       1.735   0.207   1.297  0.00  0.00     0.097 C 
ENDBRANCH   1  13
BRANCH   2  16
ATOM     16  N   UNL d   1      -0.665   0.758  -2.481  0.00  0.00    -0.393 N 
ATOM     17  H   UNL d   1       0.037   0.007  -2.444  0.00  0.00     0.159 HD
BRANCH  16  18
ATOM     18  C   UNL d   1      -1.497   0.860  -3.680  0.00  0.00     0.084 C 
ATOM     19  C   UNL d   1      -1.065  -0.169  -4.735  0.00  0.00     0.045 C 
ATOM     20  C   UNL d   1       0.266   0.195  -5.383  0.00  0.00     0.130 C 
ATOM     21  N   UNL d   1       0.228   1.564  -5.872  0.00  0.00    -0.328 N 
ATOM     22  C   UNL d   1      -0.087   2.578  -4.873  0.00  0.00     0.130 C 
ATOM     23  C   UNL d   1       0.647   1.858  -7.153  0.00  0.00     0.362 C 
ATOM     24  C   UNL d   1      -1.446   2.283  -4.254  0.00  0.00     0.045 C 
ATOM     25  O   UNL d   1       1.041   1.023  -7.957  0.00  0.00    -0.238 OA
BRANCH  23  26
ATOM     26  O   UNL d   1       0.604   3.193  -7.406  0.00  0.00    -0.304 OA
BRANCH  26  27
ATOM     27  C   UNL d   1       1.372   3.639  -8.528  0.00  0.00     0.176 C 
ATOM     28  C   UNL d   1       2.789   3.894  -8.046  0.00  0.00     0.034 C 
ENDBRANCH  26  27
ENDBRANCH  23  26
ENDBRANCH  16  18
ENDBRANCH   2  16
TORSDOF 7
