REMARK  6 active torsions:
REMARK  status: ('A' for Active; 'I' for Inactive)
REMARK    1  A    between atoms: S_2  and  N_1 
REMARK    2  A    between atoms: C_10  and  S_2 
REMARK    3  A    between atoms: S_13  and  C_6 
REMARK    4  A    between atoms: C_8  and  S_13 
REMARK    5  A    between atoms: C_9  and  C_15 
REMARK    6  A    between atoms: C_21  and  C_14 
ROOT
ATOM      1  N   UNL d   1      -0.113  -1.227   0.253  0.00  0.00    -0.180 N 
ATOM      2  C   UNL d   1       1.231  -0.862   0.167  0.00  0.00     0.061 A 
ATOM      3  N   UNL d   1      -0.940  -0.149   0.106  0.00  0.00    -0.287 N 
ATOM      4  HN  UNL d   1      -1.960  -0.149   0.096  1.00  0.00     0.188 HD
ATOM      5  C   UNL d   1       1.226   0.503  -0.066  0.00  0.00     0.057 A 
ATOM      6  C   UNL d   1      -0.133   0.897  -0.020  0.00  0.00     0.042 A 
ATOM      7  C   UNL d   1       2.402  -1.779   0.256  0.00  0.00     0.072 C 
ATOM      8  C   UNL d   1      -0.712   2.266  -0.066  0.00  0.00     0.071 C 
ENDROOT
BRANCH   5   9
ATOM      9  S   UNL d   1       2.633   1.531  -0.205  0.00  0.00    -0.050 SA
BRANCH   9  10
ATOM     10  C   UNL d   1       2.663   2.082  -1.902  0.00  0.00     0.149 A 
ATOM     11  N   UNL d   1       2.817   1.181  -2.890  0.00  0.00    -0.336 N 
ATOM     12  C   UNL d   1       2.969   1.663  -4.149  0.00  0.00     0.047 A 
ATOM     13  HN  UNL d   1       2.821   0.178  -2.700  1.00  0.00     0.168 HD
ATOM     14  C   UNL d   1       3.001   3.016  -4.421  0.00  0.00     0.047 A 
ATOM     15  C   UNL d   1       2.859   3.851  -3.343  0.00  0.00     0.092 A 
ATOM     16  N   UNL d   1       2.682   3.414  -2.083  0.00  0.00    -0.346 N 
ATOM     17  HN  UNL d   1       2.568   4.062  -1.303  1.00  0.00     0.167 HD
BRANCH  12  18
ATOM     18  C   UNL d   1       3.089   0.681  -5.233  0.00  0.00     0.006 A 
ATOM     19  C   UNL d   1       4.101  -0.277  -5.251  0.00  0.00     0.101 A 
ATOM     20  N   UNL d   1       4.240  -1.238  -6.202  0.00  0.00    -0.374 N 
ATOM     21  C   UNL d   1       3.312  -1.267  -7.181  0.00  0.00     0.087 A 
ATOM     22  HN  UNL d   1       5.010  -1.906  -6.177  1.00  0.00     0.164 HD
ATOM     23  C   UNL d   1       2.274  -0.357  -7.275  0.00  0.00     0.018 A 
ATOM     24  C   UNL d   1       2.171   0.631  -6.294  0.00  0.00     0.016 A 
ENDBRANCH  12  18
ENDBRANCH   9  10
ENDBRANCH   5   9
BRANCH   1  25
ATOM     25  S   UNL d   1      -0.702  -2.886   0.304  0.00  0.00     0.282 S 
ATOM     26  O   UNL d   1       0.016  -3.514   1.399  0.00  0.00    -0.198 OA
ATOM     27  O   UNL d   1      -2.151  -2.813   0.267  0.00  0.00    -0.198 OA
BRANCH  25  28
ATOM     28  C   UNL d   1      -0.167  -3.635  -1.214  0.00  0.00     0.082 C 
ATOM     29  C   UNL d   1       0.372  -2.854  -2.224  0.00  0.00     0.041 C 
ATOM     30  C   UNL d   1       1.086  -3.460  -3.263  0.00  0.00     0.049 C 
ATOM     31  C   UNL d   1       1.094  -4.848  -3.391  0.00  0.00     0.016 C 
ATOM     32  C   UNL d   1       0.443  -5.633  -2.437  0.00  0.00     0.002 C 
ATOM     33  C   UNL d   1      -0.157  -5.029  -1.329  0.00  0.00     0.025 C 
BRANCH  30  34
ATOM     34  C   UNL d   1       1.910  -2.605  -4.171  0.00  0.00     0.417 C 
ATOM     35  F   UNL d   1       2.079  -1.366  -3.644  0.00  0.00    -0.166 F 
ATOM     36  F   UNL d   1       3.153  -3.115  -4.359  0.00  0.00    -0.166 F 
ATOM     37  F   UNL d   1       1.339  -2.446  -5.388  0.00  0.00    -0.166 F 
ENDBRANCH  30  34
ENDBRANCH  25  28
ENDBRANCH   1  25
TORSDOF 6
