REMARK  8 active torsions:
REMARK  status: ('A' for Active; 'I' for Inactive)
REMARK    1  A    between atoms: C_1  and  N_7 
REMARK    2  A    between atoms: C_2  and  O_11 
REMARK    3  A    between atoms: C_3  and  O_9 
REMARK    4  A    between atoms: C_5  and  O_12 
REMARK    5  A    between atoms: C_6  and  C_14 
REMARK       I    between atoms: C_8  and  N_7 
REMARK    6  A    between atoms: C_13  and  O_9 
REMARK    7  A    between atoms: C_15  and  C_13 
REMARK    8  A    between atoms: O_16  and  C_14 
ROOT
ATOM      1  C   UNL d   1      -0.536  -1.525  -0.059  0.00  0.00     0.170 C 
ATOM      2  C   UNL d   1       0.708  -0.681   0.287  0.00  0.00     0.177 C 
ATOM      3  C   UNL d   1      -1.799  -0.760   0.392  0.00  0.00     0.285 C 
ATOM      4  O   UNL d   1      -1.877   0.485  -0.301  0.00  0.00    -0.349 OA
ATOM      5  C   UNL d   1       0.585   0.729  -0.324  0.00  0.00     0.180 C 
ATOM      6  C   UNL d   1      -0.776   1.364  -0.005  0.00  0.00     0.179 C 
ENDROOT
BRANCH   3   7
ATOM      7  O   UNL d   1      -1.759  -0.593   1.810  0.00  0.00    -0.355 OA
BRANCH   7   8
ATOM      8  C   UNL d   1      -2.921   0.065   2.313  0.00  0.00     0.209 C 
BRANCH   8   9
ATOM      9  C   UNL d   1      -2.769   0.323   3.793  0.00  0.00    -0.035 A 
ATOM     10  C   UNL d   1      -1.509   0.455   4.397  0.00  0.00     0.009 A 
ATOM     11  C   UNL d   1      -1.399   0.751   5.757  0.00  0.00     0.001 A 
ATOM     12  C   UNL d   1      -2.546   0.935   6.525  0.00  0.00     0.000 A 
ATOM     13  C   UNL d   1      -3.803   0.822   5.935  0.00  0.00     0.001 A 
ATOM     14  C   UNL d   1      -3.914   0.522   4.576  0.00  0.00     0.009 A 
ENDBRANCH   8   9
ENDBRANCH   7   8
ENDBRANCH   3   7
BRANCH   1  15
ATOM     15  N   UNL d   1      -0.466  -2.869   0.526  0.00  0.00    -0.349 N 
ATOM     16  C   UNL d   1       0.155  -3.900  -0.140  0.00  0.00     0.214 C 
ATOM     17  O   UNL d   1       0.623  -3.775  -1.264  0.00  0.00    -0.274 OA
ATOM     18  C   UNL d   1       0.192  -5.206   0.611  0.00  0.00     0.117 C 
ATOM     19  H   UNL d   1      -0.609  -2.947   1.528  0.00  0.00     0.163 HD
ENDBRANCH   1  15
BRANCH   2  20
ATOM     20  O   UNL d   1       1.923  -1.293  -0.170  0.00  0.00    -0.391 OA
ATOM     21  H   UNL d   1       1.727  -1.813  -0.975  0.00  0.00     0.210 HD
ENDBRANCH   2  20
BRANCH   6  22
ATOM     22  C   UNL d   1      -0.993   2.648  -0.817  0.00  0.00     0.198 C 
BRANCH  22  23
ATOM     23  O   UNL d   1      -2.236   3.248  -0.441  0.00  0.00    -0.398 OA
ATOM     24  H   UNL d   1      -2.904   2.542  -0.520  0.00  0.00     0.209 HD
ENDBRANCH  22  23
ENDBRANCH   6  22
BRANCH   5  25
ATOM     25  O   UNL d   1       1.629   1.591   0.144  0.00  0.00    -0.390 OA
ATOM     26  H   UNL d   1       1.805   1.384   1.079  0.00  0.00     0.210 HD
ENDBRANCH   5  25
TORSDOF 8
