REMARK  9 active torsions:
REMARK  status: ('A' for Active; 'I' for Inactive)
REMARK    1  A    between atoms: N_2  and  C_1 
REMARK    2  A    between atoms: C_3  and  C_1 
REMARK    3  A    between atoms: C_5  and  C_1 
REMARK    4  A    between atoms: O_6  and  C_1 
REMARK       I    between atoms: C_4  and  N_2 
REMARK    5  A    between atoms: C_7  and  C_4 
REMARK    6  A    between atoms: O_16  and  C_5 
REMARK    7  A    between atoms: C_14  and  O_6 
REMARK    8  A    between atoms: C_18  and  C_14 
REMARK    9  A    between atoms: C_28  and  O_16 
ROOT
ATOM      1  C   UNL d   1       0.998   0.055  -0.047  0.00  0.00     0.327 C 
ENDROOT
BRANCH   1   2
ATOM      2  N   UNL d   1       0.644   1.489   0.056  0.00  0.00    -0.309 N 
ATOM      3  C   UNL d   1       0.770   2.350  -1.009  0.00  0.00     0.254 C 
ATOM      4  O   UNL d   1       1.298   2.037  -2.068  0.00  0.00    -0.268 OA
ATOM      5  H   UNL d   1       0.119   1.757   0.881  0.00  0.00     0.166 HD
BRANCH   3   6
ATOM      6  C   UNL d   1       0.177   3.704  -0.836  0.00  0.00     0.033 A 
ATOM      7  C   UNL d   1       0.088   4.320   0.418  0.00  0.00     0.041 A 
ATOM      8  C   UNL d   1      -0.511   5.573   0.526  0.00  0.00     0.035 A 
ATOM      9 CL   UNL d   1      -0.641   6.320   2.073  0.00  0.00    -0.084 Cl
ATOM     10  C   UNL d   1      -1.009   6.229  -0.600  0.00  0.00     0.024 A 
ATOM     11  C   UNL d   1      -0.899   5.626  -1.855  0.00  0.00     0.003 A 
ATOM     12  C   UNL d   1      -0.306   4.369  -1.972  0.00  0.00     0.017 A 
ENDBRANCH   3   6
ENDBRANCH   1   2
BRANCH   1  13
ATOM     13  C   UNL d   1       0.214  -0.725  -1.173  0.00  0.00     0.448 C 
ATOM     14  F   UNL d   1      -0.512   0.100  -1.975  0.00  0.00    -0.166 F 
ATOM     15  F   UNL d   1       1.040  -1.435  -1.980  0.00  0.00    -0.166 F 
ATOM     16  F   UNL d   1      -0.701  -1.605  -0.690  0.00  0.00    -0.166 F 
ENDBRANCH   1  13
BRANCH   1  17
ATOM     17  C   UNL d   1       0.595  -0.586   1.305  0.00  0.00     0.325 C 
ATOM     18  O   UNL d   1       0.369   0.074   2.314  0.00  0.00    -0.259 OA
BRANCH  17  19
ATOM     19  O   UNL d   1       0.669  -1.940   1.266  0.00  0.00    -0.318 OA
BRANCH  19  20
ATOM     20  C   UNL d   1       0.631  -2.659   2.504  0.00  0.00     0.174 C 
ATOM     21  C   UNL d   1       2.051  -3.126   2.745  0.00  0.00     0.034 C 
ENDBRANCH  19  20
ENDBRANCH  17  19
ENDBRANCH   1  17
BRANCH   1  22
ATOM     22  O   UNL d   1       2.425  -0.062  -0.227  0.00  0.00    -0.341 OA
BRANCH  22  23
ATOM     23  C   UNL d   1       3.241   0.575   0.751  0.00  0.00     0.210 C 
BRANCH  23  24
ATOM     24  C   UNL d   1       4.691   0.331   0.399  0.00  0.00    -0.034 A 
ATOM     25  C   UNL d   1       5.198   0.774  -0.835  0.00  0.00     0.012 A 
ATOM     26  C   UNL d   1       6.538   0.567  -1.163  0.00  0.00     0.043 A 
ATOM     27  C   UNL d   1       7.372  -0.076  -0.261  0.00  0.00     0.116 A 
ATOM     28  C   UNL d   1       6.895  -0.526   0.963  0.00  0.00     0.043 A 
ATOM     29  F   UNL d   1       8.662  -0.271  -0.579  0.00  0.00    -0.206 F 
ATOM     30  C   UNL d   1       5.553  -0.321   1.297  0.00  0.00     0.012 A 
ENDBRANCH  23  24
ENDBRANCH  22  23
ENDBRANCH   1  22
TORSDOF 9
