REMARK  12 active torsions:
REMARK  status: ('A' for Active; 'I' for Inactive)
REMARK    1  A    between atoms: C_11  and  N_1 
REMARK    2  A    between atoms: N_3  and  C_12 
REMARK    3  A    between atoms: C_7  and  C_5 
REMARK    4  A    between atoms: C_8  and  C_6 
REMARK    5  A    between atoms: O_15  and  C_9 
REMARK    6  A    between atoms: O_16  and  C_10 
REMARK    7  A    between atoms: C_13  and  O_26 
REMARK    8  A    between atoms: O_27  and  C_14 
REMARK    9  A    between atoms: C_25  and  C_31 
REMARK   10  A    between atoms: C_30  and  C_25 
REMARK   11  A    between atoms: O_26  and  C_30 
REMARK   12  A    between atoms: C_31  and  O_27 
ROOT
ATOM      1  C   UNL d   1       8.768   1.435  -0.149  0.00  0.00     0.053 C 
ENDROOT
BRANCH   1   2
ATOM      2  C   UNL d   1       7.264   1.693  -0.093  0.00  0.00     0.178 C 
BRANCH   2   3
ATOM      3  O   UNL d   1       6.608   0.416  -0.133  0.00  0.00    -0.351 OA
BRANCH   3   4
ATOM      4  C   UNL d   1       5.244   0.413  -0.032  0.00  0.00     0.068 A 
ATOM      5  C   UNL d   1       4.480   1.426   0.538  0.00  0.00     0.039 A 
ATOM      6  C   UNL d   1       3.087   1.309   0.596  0.00  0.00     0.032 A 
ATOM      7  C   UNL d   1       2.430   0.165   0.125  0.00  0.00     0.032 A 
ATOM      8  C   UNL d   1       3.202  -0.847  -0.447  0.00  0.00     0.032 A 
ATOM      9  C   UNL d   1       4.598  -0.728  -0.518  0.00  0.00     0.039 A 
BRANCH   7  10
ATOM     10  N   UNL d   1       1.026   0.029   0.161  0.00  0.00    -0.365 N 
ATOM     11  C   UNL d   1       0.414   0.436   1.231  0.00  0.00     0.102 C 
ATOM     12  HN  UNL d   1       0.512  -0.373  -0.623  1.00  0.00     0.165 HD
BRANCH  11  13
ATOM     13  C   UNL d   1      -1.054   0.407   1.365  0.00  0.00     0.012 A 
ATOM     14  C   UNL d   1      -1.883  -0.206   0.422  0.00  0.00     0.077 A 
ATOM     15  C   UNL d   1      -3.263  -0.214   0.610  0.00  0.00     0.037 A 
ATOM     16  C   UNL d   1      -3.819   0.403   1.733  0.00  0.00     0.003 A 
ATOM     17  C   UNL d   1      -2.996   1.032   2.668  0.00  0.00     0.001 A 
ATOM     18  C   UNL d   1      -1.612   1.033   2.487  0.00  0.00     0.015 A 
BRANCH  14  19
ATOM     19  O   UNL d   1      -1.402  -0.819  -0.702  0.00  0.00    -0.360 OA
ATOM     20  H   UNL d   1      -0.428  -0.674  -0.714  0.00  0.00     0.217 HD
ENDBRANCH  14  19
ENDBRANCH  11  13
ENDBRANCH   7  10
ENDBRANCH   3   4
ENDBRANCH   2   3
ENDBRANCH   1   2
BRANCH   1  21
ATOM     21  C   UNL d   1       9.620   2.705  -0.088  0.00  0.00     0.178 C 
BRANCH  21  22
ATOM     22  O   UNL d   1       9.393   3.499  -1.252  0.00  0.00    -0.351 OA
BRANCH  22  23
ATOM     23  C   UNL d   1      10.236   4.558  -1.467  0.00  0.00     0.068 A 
ATOM     24  C   UNL d   1      11.261   4.991  -0.625  0.00  0.00     0.039 A 
ATOM     25  C   UNL d   1      12.049   6.102  -0.979  0.00  0.00     0.032 A 
ATOM     26  C   UNL d   1      11.826   6.802  -2.169  0.00  0.00     0.032 A 
ATOM     27  C   UNL d   1      10.815   6.340  -3.017  0.00  0.00     0.032 A 
ATOM     28  C   UNL d   1      10.021   5.243  -2.664  0.00  0.00     0.039 A 
BRANCH  26  29
ATOM     29  N   UNL d   1      12.662   7.897  -2.482  0.00  0.00    -0.365 N 
ATOM     30  C   UNL d   1      12.118   8.944  -3.023  0.00  0.00     0.102 C 
ATOM     31  HN  UNL d   1      13.663   7.866  -2.287  1.00  0.00     0.165 HD
BRANCH  30  32
ATOM     32  C   UNL d   1      12.909  10.132  -3.414  0.00  0.00     0.012 A 
ATOM     33  C   UNL d   1      14.269  10.263  -3.116  0.00  0.00     0.077 A 
ATOM     34  C   UNL d   1      14.963  11.409  -3.498  0.00  0.00     0.037 A 
ATOM     35  C   UNL d   1      14.304  12.427  -4.189  0.00  0.00     0.003 A 
ATOM     36  C   UNL d   1      12.949  12.299  -4.497  0.00  0.00     0.001 A 
ATOM     37  C   UNL d   1      12.250  11.153  -4.110  0.00  0.00     0.015 A 
BRANCH  33  38
ATOM     38  O   UNL d   1      14.977   9.301  -2.447  0.00  0.00    -0.360 OA
ATOM     39  H   UNL d   1      14.366   8.547  -2.296  0.00  0.00     0.217 HD
ENDBRANCH  33  38
ENDBRANCH  30  32
ENDBRANCH  26  29
ENDBRANCH  22  23
ENDBRANCH  21  22
ENDBRANCH   1  21
TORSDOF 12
