REMARK  1 active torsions:
REMARK  status: ('A' for Active; 'I' for Inactive)
REMARK    1  A    between atoms: C_8  and  C_7 
ROOT
ATOM      1  C   UNL d   1      -1.239   0.106  -0.096  0.00  0.00     0.117 C 
ATOM      2  C   UNL d   1      -0.632  -1.194   0.221  0.00  0.00     0.302 C 
ATOM      3  C   UNL d   1      -0.502   1.326   0.260  0.00  0.00     0.302 C 
ATOM      4  O   UNL d   1       0.711  -1.178   0.334  0.00  0.00    -0.280 OA
ATOM      5  O   UNL d   1       0.840   1.202   0.244  0.00  0.00    -0.280 OA
ATOM      6  C   UNL d   1       1.420  -0.037  -0.158  0.00  0.00     0.175 C 
ATOM      7  C   UNL d   1      -2.438   0.083  -0.710  0.00  0.00     0.061 C 
ATOM      8  O   UNL d   1      -1.038   2.364   0.622  0.00  0.00    -0.259 OA
ATOM      9  O   UNL d   1      -1.283  -2.223   0.358  0.00  0.00    -0.259 OA
ATOM     10  C   UNL d   1       1.555  -0.098  -1.683  0.00  0.00     0.080 C 
ATOM     11  C   UNL d   1       2.811  -0.073   0.475  0.00  0.00     0.080 C 
ENDROOT
BRANCH   7  12
ATOM     12  C   UNL d   1      -3.066   1.240  -1.245  0.00  0.00     0.078 A 
ATOM     13  O   UNL d   1      -2.370   2.289  -1.800  0.00  0.00    -0.303 OA
ATOM     14  C   UNL d   1      -3.257   3.223  -2.218  0.00  0.00     0.122 A 
ATOM     15 BR   UNL d   1      -2.779   4.848  -2.996  0.00  0.00    -0.023 Br
ATOM     16  C   UNL d   1      -4.541   2.791  -1.999  0.00  0.00     0.048 A 
ATOM     17  C   UNL d   1      -4.421   1.517  -1.388  0.00  0.00     0.040 A 
ENDBRANCH   7  12
TORSDOF 1
