REMARK  6 active torsions:
REMARK  status: ('A' for Active; 'I' for Inactive)
REMARK    1  A    between atoms: N_2  and  C_1 
REMARK    2  A    between atoms: N_10  and  C_1 
REMARK    3  A    between atoms: C_3  and  N_2 
REMARK    4  A    between atoms: C_4  and  C_14 
REMARK    5  A    between atoms: N_6  and  N_10 
REMARK    6  A    between atoms: O_22  and  C_9 
ROOT
ATOM      1  N   UNL d   1       0.679   1.299   0.322  0.00  0.00    -0.277 N 
ATOM      2  H   UNL d   1       1.267   2.114   0.481  0.00  0.00     0.189 HD
ENDROOT
BRANCH   1   3
ATOM      3  N   UNL d   1      -0.648   1.366   0.619  0.00  0.00    -0.309 N 
ATOM      4  C   UNL d   1      -0.968   2.439   1.290  0.00  0.00     0.121 C 
ATOM      5  HN  UNL d   1      -1.322   0.651   0.347  1.00  0.00     0.186 HD
BRANCH   4   6
ATOM      6  C   UNL d   1      -2.372   2.834   1.513  0.00  0.00     0.015 A 
ATOM      7  C   UNL d   1      -3.439   2.053   1.063  0.00  0.00     0.077 A 
ATOM      8  C   UNL d   1      -4.744   2.525   1.150  0.00  0.00     0.039 A 
ATOM      9  C   UNL d   1      -4.993   3.789   1.688  0.00  0.00     0.022 A 
ATOM     10  C   UNL d   1      -3.931   4.559   2.164  0.00  0.00     0.011 A 
ATOM     11  C   UNL d   1      -2.619   4.086   2.092  0.00  0.00     0.034 A 
ATOM     12 BR   UNL d   1      -4.270   6.279   2.872  0.00  0.00    -0.051 Br
BRANCH   7  13
ATOM     13  O   UNL d   1      -3.268   0.817   0.498  0.00  0.00    -0.360 OA
ATOM     14  H   UNL d   1      -2.303   0.669   0.412  0.00  0.00     0.217 HD
ENDBRANCH   7  13
ENDBRANCH   4   6
ENDBRANCH   1   3
BRANCH   1  15
ATOM     15  C   UNL d   1       1.255   0.320  -0.452  0.00  0.00     0.186 C 
ATOM     16  S   UNL d   1       2.805   0.599  -1.013  0.00  0.00    -0.040 SA
BRANCH  15  17
ATOM     17  N   UNL d   1       0.499  -0.806  -0.656  0.00  0.00    -0.361 N 
ATOM     18  H   UNL d   1      -0.400  -0.779  -0.188  0.00  0.00     0.162 HD
BRANCH  17  19
ATOM     19  C   UNL d   1       1.035  -2.098  -1.071  0.00  0.00     0.088 C 
ATOM     20  C   UNL d   1       1.973  -2.738  -0.015  0.00  0.00     0.009 C 
ATOM     21  C   UNL d   1       2.023  -4.188  -0.494  0.00  0.00     0.011 C 
ATOM     22  C   UNL d   1       1.238  -2.871   1.334  0.00  0.00     0.007 C 
ATOM     23  C   UNL d   1       0.509  -4.365  -0.397  0.00  0.00    -0.012 C 
ATOM     24  C   UNL d   1      -0.018  -3.209  -1.278  0.00  0.00     0.030 C 
ATOM     25  C   UNL d   1       0.261  -4.026   1.081  0.00  0.00     0.005 C 
ENDBRANCH  17  19
ENDBRANCH  15  17
ENDBRANCH   1  15
TORSDOF 6
