REMARK  1 active torsions:
REMARK  status: ('A' for Active; 'I' for Inactive)
REMARK    1  A    between atoms: C_7  and  C_3 
ROOT
ATOM      1  N   UNL d   1       2.178  -0.290   0.254  0.00  0.00    -0.335 N 
ATOM      2  C   UNL d   1       1.331   0.767   0.065  0.00  0.00     0.255 C 
ATOM      3  C   UNL d   1       1.815  -1.628  -0.109  0.00  0.00     0.203 C 
ATOM      4  N   UNL d   1       0.459  -1.898   0.332  0.00  0.00    -0.266 NA
ATOM      5  C   UNL d   1      -0.108   0.445  -0.021  0.00  0.00     0.053 A 
ATOM      6  C   UNL d   1      -0.485  -0.899   0.083  0.00  0.00     0.026 A 
ATOM      7  O   UNL d   1       1.747   1.916  -0.003  0.00  0.00    -0.268 OA
ATOM      8  C   UNL d   1      -1.060   1.461  -0.152  0.00  0.00     0.019 A 
ATOM      9  C   UNL d   1      -1.850  -1.204   0.109  0.00  0.00     0.024 A 
ATOM     10  C   UNL d   1      -2.414   1.136  -0.158  0.00  0.00     0.001 A 
ATOM     11  C   UNL d   1      -2.808  -0.195  -0.025  0.00  0.00     0.002 A 
ATOM     12  H   UNL d   1       3.155  -0.039   0.209  0.00  0.00     0.164 HD
ATOM     13  H   UNL d   1       0.148  -2.825   0.060  0.00  0.00     0.130 HD
ENDROOT
BRANCH   3  14
ATOM     14  C   UNL d   1       2.804  -2.561   0.538  0.00  0.00     0.019 A 
ATOM     15  S   UNL d   1       3.816  -3.569  -0.408  0.00  0.00    -0.103 SA
ATOM     16  C   UNL d   1       4.511  -4.285   0.982  0.00  0.00     0.050 A 
ATOM     17  C   UNL d   1       3.995  -3.764   2.147  0.00  0.00     0.008 A 
ATOM     18  C   UNL d   1       3.013  -2.767   1.891  0.00  0.00     0.018 A 
ENDBRANCH   3  14
TORSDOF 1
