REMARK  4 active torsions:
REMARK  status: ('A' for Active; 'I' for Inactive)
REMARK       I    between atoms: N_2  and  C_1 
REMARK       I    between atoms: N_3  and  C_1 
REMARK    1  A    between atoms: C_5  and  N_2 
REMARK    2  A    between atoms: C_12  and  N_3 
REMARK    3  A    between atoms: C_13  and  N_3 
REMARK    4  A    between atoms: O_11  and  C_6 
ROOT
ATOM      1  C   UNL d   1       1.149  -0.021   0.006  0.00  0.00     0.322 C 
ATOM      2  N   UNL d   1       0.474   1.046   0.565  0.00  0.00    -0.309 N 
ATOM      3  N   UNL d   1       0.351  -1.016  -0.554  0.00  0.00    -0.335 N 
ATOM      4  O   UNL d   1       2.376  -0.136   0.002  0.00  0.00    -0.247 OA
ATOM      5  H   UNL d   1      -0.490   0.891   0.808  0.00  0.00     0.170 HD
ENDROOT
BRANCH   2   6
ATOM      6  C   UNL d   1       1.081   2.192   1.134  0.00  0.00     0.036 A 
ATOM      7  C   UNL d   1       2.408   2.545   0.883  0.00  0.00     0.032 A 
ATOM      8  C   UNL d   1       3.001   3.634   1.528  0.00  0.00     0.039 A 
ATOM      9  C   UNL d   1       2.267   4.400   2.426  0.00  0.00     0.068 A 
ATOM     10  C   UNL d   1       0.917   4.106   2.623  0.00  0.00     0.039 A 
ATOM     11  C   UNL d   1       0.324   3.006   1.983  0.00  0.00     0.032 A 
BRANCH   9  12
ATOM     12  O   UNL d   1       2.763   5.467   3.124  0.00  0.00    -0.356 OA
ATOM     13  C   UNL d   1       4.159   5.406   3.409  0.00  0.00     0.210 C 
ENDBRANCH   9  12
ENDBRANCH   2   6
BRANCH   3  14
ATOM     14  C   UNL d   1       1.033  -2.220  -1.038  0.00  0.00     0.123 C 
ATOM     15  C   UNL d   1       1.464  -2.102  -2.493  0.00  0.00     0.026 C 
ENDBRANCH   3  14
BRANCH   3  16
ATOM     16  C   UNL d   1      -1.096  -0.949  -0.752  0.00  0.00     0.123 C 
ATOM     17  C   UNL d   1      -1.852  -1.542   0.428  0.00  0.00     0.026 C 
ENDBRANCH   3  16
TORSDOF 4
