REMARK  4 active torsions:
REMARK  status: ('A' for Active; 'I' for Inactive)
REMARK    1  A    between atoms: C_2  and  S_1 
REMARK    2  A    between atoms: C_4  and  S_1 
REMARK    3  A    between atoms: C_8  and  C_4 
REMARK       I    between atoms: N_15  and  C_8 
REMARK    4  A    between atoms: C_9  and  N_15 
ROOT
ATOM      1  C   UNL d   1       1.228  -1.639   0.901  0.00  0.00     0.232 C 
ATOM      2  N   UNL d   1       2.376  -1.710   0.122  0.00  0.00    -0.356 N 
ATOM      3  O   UNL d   1       0.198  -1.100   0.512  0.00  0.00    -0.273 OA
ATOM      4  H   UNL d   1       3.131  -2.313   0.445  0.00  0.00     0.162 HD
ENDROOT
BRANCH   1   5
ATOM      5  C   UNL d   1       1.310  -2.458   2.152  0.00  0.00     0.248 C 
BRANCH   5   6
ATOM      6  S   UNL d   1       0.330  -1.816   3.458  0.00  0.00     0.186 S 
ATOM      7  O   UNL d   1       0.344  -2.795   4.533  0.00  0.00    -0.222 OA
ATOM      8  O   UNL d   1       0.798  -0.470   3.732  0.00  0.00    -0.222 OA
BRANCH   6   9
ATOM      9  C   UNL d   1      -1.354  -1.702   2.937  0.00  0.00     0.098 A 
ATOM     10  C   UNL d   1      -2.006  -2.837   2.470  0.00  0.00     0.140 A 
ATOM     11  C   UNL d   1      -3.362  -2.790   2.157  0.00  0.00     0.086 A 
ATOM     12  F   UNL d   1      -1.351  -3.996   2.318  0.00  0.00    -0.204 F 
ATOM     13  C   UNL d   1      -4.053  -1.593   2.312  0.00  0.00     0.119 A 
ATOM     14  C   UNL d   1      -3.409  -0.444   2.764  0.00  0.00     0.044 A 
ATOM     15  F   UNL d   1      -5.362  -1.545   2.034  0.00  0.00    -0.206 F 
ATOM     16  C   UNL d   1      -2.050  -0.496   3.082  0.00  0.00     0.029 A 
ENDBRANCH   6   9
ENDBRANCH   5   6
ENDBRANCH   1   5
BRANCH   2  17
ATOM     17  C   UNL d   1       2.252  -1.748  -1.341  0.00  0.00     0.088 C 
ATOM     18  C   UNL d   1       3.631  -1.568  -2.022  0.00  0.00     0.061 C 
ATOM     19  C   UNL d   1       4.406  -2.901  -2.154  0.00  0.00     0.225 C 
ATOM     20  C   UNL d   1       4.020  -3.704  -3.421  0.00  0.00     0.038 C 
ATOM     21  N   UNL d   1       3.948  -3.733  -1.022  0.00  0.00     0.093 N 
ATOM     22  C   UNL d   1       3.067  -4.792  -2.929  0.00  0.00     0.038 C 
ATOM     23  C   UNL d   1       2.675  -4.277  -1.553  0.00  0.00     0.225 C 
ATOM     24  C   UNL d   1       1.644  -3.116  -1.719  0.00  0.00     0.061 C 
ATOM     25  C   UNL d   1       4.939  -4.736  -0.642  0.00  0.00     0.310 C 
ENDBRANCH   2  17
TORSDOF 4
