REMARK  5 active torsions:
REMARK  status: ('A' for Active; 'I' for Inactive)
REMARK    1  A    between atoms: C_8  and  C_1 
REMARK    2  A    between atoms: C_12  and  N_4 
REMARK    3  A    between atoms: C_7  and  C_9 
REMARK    4  A    between atoms: O_20  and  C_8 
REMARK    5  A    between atoms: C_19  and  C_12 
ROOT
ATOM      1  C   UNL d   1      -0.666   0.045   1.480  0.00  0.00     0.108 A 
ATOM      2  C   UNL d   1      -1.517   0.134   0.259  0.00  0.00     0.229 A 
ATOM      3  C   UNL d   1      -0.800   0.072  -1.042  0.00  0.00     0.182 A 
ATOM      4  N   UNL d   1       1.329   0.043   0.076  0.00  0.00    -0.358 N 
ATOM      5  C   UNL d   1       0.672   0.021   1.308  0.00  0.00     0.112 A 
ATOM      6  C   UNL d   1       0.537   0.036  -1.066  0.00  0.00     0.137 A 
ATOM      7  O   UNL d   1      -2.734   0.286   0.294  0.00  0.00    -0.284 OA
ATOM      8  F   UNL d   1      -1.540   0.080  -2.165  0.00  0.00    -0.200 F 
ENDROOT
BRANCH   4   9
ATOM      9  C   UNL d   1       2.805   0.012  -0.014  0.00  0.00     0.166 C 
BRANCH   9  10
ATOM     10  C   UNL d   1       3.314  -1.412  -0.053  0.00  0.00    -0.040 A 
ATOM     11  C   UNL d   1       3.512  -2.066  -1.278  0.00  0.00     0.009 A 
ATOM     12  C   UNL d   1       3.874  -3.416  -1.312  0.00  0.00     0.017 A 
ATOM     13  C   UNL d   1       4.040  -4.139  -0.122  0.00  0.00     0.047 A 
ATOM     14  C   UNL d   1       3.895  -3.470   1.102  0.00  0.00     0.017 A 
ATOM     15  C   UNL d   1       3.535  -2.121   1.136  0.00  0.00     0.009 A 
BRANCH  13  16
ATOM     16  C   UNL d   1       4.329  -5.620  -0.140  0.00  0.00     0.417 C 
ATOM     17  F   UNL d   1       4.389  -6.149  -1.394  0.00  0.00    -0.166 F 
ATOM     18  F   UNL d   1       5.511  -5.933   0.456  0.00  0.00    -0.166 F 
ATOM     19  F   UNL d   1       3.375  -6.338   0.518  0.00  0.00    -0.166 F 
ENDBRANCH  13  16
ENDBRANCH   9  10
ENDBRANCH   4   9
BRANCH   1  20
ATOM     20  C   UNL d   1      -1.182  -0.016   2.861  0.00  0.00     0.298 C 
ATOM     21  O   UNL d   1      -0.501   0.220   3.850  0.00  0.00    -0.259 OA
BRANCH  20  22
ATOM     22  O   UNL d   1      -2.473  -0.422   2.886  0.00  0.00    -0.322 OA
ATOM     23  C   UNL d   1      -3.059  -0.493   4.185  0.00  0.00     0.213 C 
ENDBRANCH  20  22
ENDBRANCH   1  20
TORSDOF 5
