REMARK  4 active torsions:
REMARK  status: ('A' for Active; 'I' for Inactive)
REMARK    1  A    between atoms: C_7  and  N_1 
REMARK    2  A    between atoms: N_3  and  C_2 
REMARK    3  A    between atoms: C_5  and  C_4 
REMARK    4  A    between atoms: N_14  and  C_7 
ROOT
ATOM      1  N   UNL d   1       1.146  -0.542  -0.157  0.00  0.00    -0.325 N 
ATOM      2  C   UNL d   1      -0.123  -1.146   0.219  0.00  0.00     0.266 C 
ATOM      3  O   UNL d   1      -1.100  -0.090   0.197  0.00  0.00    -0.360 OA
ATOM      4  C   UNL d   1       1.033   0.888  -0.006  0.00  0.00     0.154 C 
ATOM      5  C   UNL d   1      -0.447   1.135  -0.147  0.00  0.00     0.191 C 
ENDROOT
BRANCH   2   6
ATOM      6  C   UNL d   1      -0.087  -1.625   1.655  0.00  0.00     0.033 A 
ATOM      7  S   UNL d   1      -1.453  -2.454   2.306  0.00  0.00    -0.066 SA
ATOM      8  C   UNL d   1      -0.755  -2.526   3.851  0.00  0.00     0.144 A 
ATOM      9  C   UNL d   1       0.513  -1.994   3.891  0.00  0.00     0.045 A 
ATOM     10  C   UNL d   1       0.902  -1.484   2.617  0.00  0.00     0.022 A 
BRANCH   8  11
ATOM     11  N   UNL d   1      -1.475  -3.091   4.960  0.00  0.00    -0.108 N 
ATOM     12  O   UNL d   1      -0.895  -3.072   6.058  0.00  0.00    -0.531 OA
ATOM     13  O   UNL d   1      -2.605  -3.552   4.760  0.00  0.00    -0.531 OA
ENDBRANCH   8  11
ENDBRANCH   2   6
BRANCH   1  14
ATOM     14  C   UNL d   1       2.283  -1.246  -0.522  0.00  0.00     0.171 C 
ATOM     15  S   UNL d   1       2.256  -2.852  -1.009  0.00  0.00    -0.041 SA
BRANCH  14  16
ATOM     16  N   UNL d   1       3.439  -0.494  -0.446  0.00  0.00    -0.371 N 
ATOM     17  C   UNL d   1       4.802  -0.949  -0.668  0.00  0.00     0.148 C 
ATOM     18  H   UNL d   1       3.377   0.364   0.080  0.00  0.00     0.161 HD
ENDBRANCH  14  16
ENDBRANCH   1  14
TORSDOF 4
