REMARK  6 active torsions:
REMARK  status: ('A' for Active; 'I' for Inactive)
REMARK    1  A    between atoms: S_12  and  C_3 
REMARK    2  A    between atoms: C_11  and  C_6 
REMARK    3  A    between atoms: O_13  and  C_8 
REMARK    4  A    between atoms: O_14  and  C_11 
REMARK    5  A    between atoms: O_15  and  C_11 
REMARK    6  A    between atoms: C_16  and  S_12 
ROOT
ATOM      1  C   UNL d   1       1.738  -4.909  -1.590  0.00  0.00    -0.107 C 
ATOM      2  C   UNL d   1       2.160  -6.023  -1.751  0.00  0.00     0.013 C 
ATOM      3  C   UNL d   1       1.221  -3.549  -1.387  0.00  0.00     0.175 C 
ENDROOT
BRANCH   3   4
ATOM      4  S   UNL d   1       1.820  -2.849   0.172  0.00  0.00    -0.082 SA
BRANCH   4   5
ATOM      5  C   UNL d   1       1.025  -1.276   0.041  0.00  0.00     0.147 A 
ATOM      6  N   UNL d   1      -0.311  -1.244  -0.007  0.00  0.00    -0.318 N 
ATOM      7  C   UNL d   1      -0.863  -0.028  -0.035  0.00  0.00     0.143 A 
ATOM      8  HN  UNL d   1      -0.873  -2.095  -0.022  1.00  0.00     0.170 HD
ATOM      9  C   UNL d   1      -0.155   1.148  -0.036  0.00  0.00     0.086 A 
ATOM     10  C   UNL d   1       1.222   1.019  -0.018  0.00  0.00     0.070 A 
ATOM     11  N   UNL d   1       1.818  -0.196   0.035  0.00  0.00    -0.336 N 
ATOM     12  HN  UNL d   1       2.833  -0.286   0.069  1.00  0.00     0.168 HD
BRANCH   7  13
ATOM     13  O   UNL d   1      -2.228  -0.030  -0.060  0.00  0.00    -0.346 OA
ATOM     14  H   UNL d   1      -2.546   0.883  -0.020  0.00  0.00     0.219 HD
ENDBRANCH   7  13
BRANCH  10  15
ATOM     15  C   UNL d   1       2.104   2.269   0.034  0.00  0.00     0.309 C 
BRANCH  15  16
ATOM     16  O   UNL d   1       2.167   2.802   1.363  0.00  0.00    -0.360 OA
ATOM     17  C   UNL d   1       2.927   1.996   2.258  0.00  0.00     0.205 C 
ENDBRANCH  15  16
BRANCH  15  18
ATOM     18  O   UNL d   1       3.388   2.021  -0.543  0.00  0.00    -0.360 OA
ATOM     19  C   UNL d   1       4.143   3.208  -0.732  0.00  0.00     0.205 C 
ENDBRANCH  15  18
ENDBRANCH  10  15
ENDBRANCH   4   5
ENDBRANCH   3   4
TORSDOF 6
