REMARK  5 active torsions:
REMARK  status: ('A' for Active; 'I' for Inactive)
REMARK    1  A    between atoms: C_2  and  S_1 
REMARK    2  A    between atoms: N_3  and  S_1 
REMARK    3  A    between atoms: C_8  and  N_3 
REMARK    4  A    between atoms: O_14  and  C_7 
REMARK    5  A    between atoms: O_19  and  C_10 
ROOT
ATOM      1  S   UNL d   1       0.883   0.087  -0.065  0.00  0.00     0.266 S 
ATOM      2  O   UNL d   1      -0.169   0.726  -0.825  0.00  0.00    -0.200 OA
ATOM      3  O   UNL d   1       1.320  -1.248  -0.431  0.00  0.00    -0.200 OA
ENDROOT
BRANCH   1   4
ATOM      4  C   UNL d   1       0.386   0.072   1.635  0.00  0.00     0.115 A 
ATOM      5  C   UNL d   1       0.201  -1.189   2.235  0.00  0.00     0.065 A 
ATOM      6  C   UNL d   1      -0.119  -1.290   3.587  0.00  0.00     0.069 A 
ATOM      7  C   UNL d   1      -0.263  -0.124   4.339  0.00  0.00     0.039 A 
ATOM      8  C   UNL d   1      -0.081   1.130   3.749  0.00  0.00     0.041 A 
ATOM      9  C   UNL d   1       0.234   1.238   2.391  0.00  0.00     0.091 A 
BRANCH   6  10
ATOM     10  O   UNL d   1      -0.294  -2.451   4.287  0.00  0.00    -0.356 OA
ATOM     11  C   UNL d   1      -0.146  -3.669   3.565  0.00  0.00     0.210 C 
ENDBRANCH   6  10
BRANCH   9  12
ATOM     12  O   UNL d   1       0.533   2.500   1.963  0.00  0.00    -0.354 OA
ATOM     13  C   UNL d   1      -0.409   3.037   1.036  0.00  0.00     0.210 C 
ENDBRANCH   9  12
ENDBRANCH   1   4
BRANCH   1  14
ATOM     14  N   UNL d   1       2.231   1.108  -0.131  0.00  0.00    -0.281 N 
ATOM     15  H   UNL d   1       2.307   1.543  -1.048  0.00  0.00     0.179 HD
BRANCH  14  16
ATOM     16  C   UNL d   1       3.435   0.639   0.466  0.00  0.00     0.042 A 
ATOM     17  C   UNL d   1       4.258  -0.257  -0.211  0.00  0.00     0.031 A 
ATOM     18  C   UNL d   1       5.393  -0.767   0.423  0.00  0.00     0.021 A 
ATOM     19  C   UNL d   1       5.693  -0.374   1.728  0.00  0.00     0.011 A 
ATOM     20  C   UNL d   1       4.876   0.533   2.400  0.00  0.00     0.021 A 
ATOM     21 BR   UNL d   1       7.213  -1.085   2.596  0.00  0.00    -0.051 Br
ATOM     22  C   UNL d   1       3.743   1.042   1.765  0.00  0.00     0.031 A 
ENDBRANCH  14  16
ENDBRANCH   1  14
TORSDOF 5
