REMARK  4 active torsions:
REMARK  status: ('A' for Active; 'I' for Inactive)
REMARK    1  A    between atoms: C_2  and  S_1 
REMARK    2  A    between atoms: N_3  and  S_1 
REMARK    3  A    between atoms: C_4  and  N_3 
REMARK       I    between atoms: C_10  and  N_11 
REMARK    4  A    between atoms: N_11  and  C_12 
ROOT
ATOM      1  N   UNL d   1       0.635  -1.206   1.005  0.00  0.00    -0.280 N 
ATOM      2  H   UNL d   1       0.062  -1.086   1.843  0.00  0.00     0.179 HD
ENDROOT
BRANCH   1   3
ATOM      3  S   UNL d   1       0.374   0.032  -0.112  0.00  0.00     0.265 S 
ATOM      4  O   UNL d   1       0.119   1.241   0.640  0.00  0.00    -0.200 OA
ATOM      5  O   UNL d   1       1.446  -0.006  -1.088  0.00  0.00    -0.200 OA
BRANCH   3   6
ATOM      6  C   UNL d   1      -1.131  -0.374  -0.960  0.00  0.00     0.103 A 
ATOM      7  C   UNL d   1      -1.095  -0.471  -2.361  0.00  0.00     0.050 A 
ATOM      8  C   UNL d   1      -2.271  -0.701  -3.073  0.00  0.00     0.035 A 
ATOM      9 CL   UNL d   1      -2.230  -0.782  -4.790  0.00  0.00    -0.084 Cl
ATOM     10  C   UNL d   1      -3.482  -0.846  -2.404  0.00  0.00     0.025 A 
ATOM     11  C   UNL d   1      -3.519  -0.751  -1.010  0.00  0.00     0.027 A 
ATOM     12  C   UNL d   1      -2.349  -0.499  -0.282  0.00  0.00     0.057 A 
ATOM     13 CL   UNL d   1      -2.513  -0.370   1.433  0.00  0.00    -0.083 Cl
ENDBRANCH   3   6
ENDBRANCH   1   3
BRANCH   1  14
ATOM     14  C   UNL d   1       0.841  -2.542   0.553  0.00  0.00     0.050 A 
ATOM     15  C   UNL d   1      -0.267  -3.392   0.471  0.00  0.00     0.060 A 
ATOM     16  C   UNL d   1      -0.136  -4.709   0.034  0.00  0.00     0.036 A 
ATOM     17  C   UNL d   1       1.132  -5.174  -0.326  0.00  0.00     0.030 A 
ATOM     18  C   UNL d   1       2.247  -4.333  -0.236  0.00  0.00     0.011 A 
ATOM     19  C   UNL d   1       2.118  -3.013   0.220  0.00  0.00    -0.035 A 
ATOM     20  C   UNL d   1       3.356  -2.167   0.333  0.00  0.00     0.050 C 
BRANCH  16  21
ATOM     21  N   UNL d   1      -1.215  -5.615  -0.057  0.00  0.00    -0.327 N 
ATOM     22  C   UNL d   1      -2.544  -5.360   0.231  0.00  0.00     0.218 C 
ATOM     23  O   UNL d   1      -3.025  -4.291   0.595  0.00  0.00    -0.274 OA
ATOM     24  C   UNL d   1      -3.434  -6.565   0.054  0.00  0.00     0.117 C 
ATOM     25  H   UNL d   1      -0.981  -6.549  -0.369  0.00  0.00     0.169 HD
ENDBRANCH  16  21
ENDBRANCH   1  14
TORSDOF 4
