REMARK  1 active torsions:
REMARK  status: ('A' for Active; 'I' for Inactive)
REMARK    1  A    between atoms: C_7  and  N_2 
ROOT
ATOM      1  C   UNL d   1       0.761  -1.205  -0.028  0.00  0.00     0.333 A 
ATOM      2  N   UNL d   1      -0.643  -1.218  -0.083  0.00  0.00    -0.274 N 
ATOM      3  N   UNL d   1       1.334   0.044   0.060  0.00  0.00    -0.275 N 
ATOM      4  C   UNL d   1      -1.364  -0.035  -0.109  0.00  0.00     0.107 A 
ATOM      5  C   UNL d   1      -0.784   1.164  -0.027  0.00  0.00     0.092 A 
ATOM      6  C   UNL d   1       0.680   1.239   0.072  0.00  0.00     0.250 A 
ATOM      7  O   UNL d   1       1.495  -2.190  -0.073  0.00  0.00    -0.246 OA
ATOM      8  O   UNL d   1       1.252   2.319   0.158  0.00  0.00    -0.268 OA
ATOM      9  H   UNL d   1       2.341   0.068   0.098  0.00  0.00     0.173 HD
ENDROOT
BRANCH   2  10
ATOM     10  C   UNL d   1      -1.322  -2.475  -0.164  0.00  0.00     0.049 A 
ATOM     11  C   UNL d   1      -1.175  -3.476   0.817  0.00  0.00    -0.035 A 
ATOM     12  C   UNL d   1      -0.365  -3.307   2.074  0.00  0.00     0.050 C 
ATOM     13  C   UNL d   1      -1.858  -4.696   0.651  0.00  0.00     0.009 A 
ATOM     14  C   UNL d   1      -2.691  -4.912  -0.446  0.00  0.00     0.001 A 
ATOM     15  C   UNL d   1      -2.861  -3.910  -1.395  0.00  0.00     0.002 A 
ATOM     16  C   UNL d   1      -2.188  -2.697  -1.251  0.00  0.00     0.031 A 
ENDBRANCH   2  10
TORSDOF 1
