REMARK  4 active torsions:
REMARK  status: ('A' for Active; 'I' for Inactive)
REMARK    1  A    between atoms: N_10  and  C_2 
REMARK    2  A    between atoms: C_8  and  C_6 
REMARK    3  A    between atoms: O_21  and  C_7 
REMARK       I    between atoms: C_9  and  N_10 
REMARK       I    between atoms: N_12  and  C_9 
REMARK    4  A    between atoms: C_20  and  N_12 
ROOT
ATOM      1  C   UNL d   1      -0.174  -0.946  -0.091  0.00  0.00     0.051 A 
ATOM      2  C   UNL d   1       1.217  -1.291  -0.322  0.00  0.00     0.057 C 
ATOM      3  N   UNL d   1      -1.733   0.941  -0.240  0.00  0.00    -0.351 N 
ATOM      4  HN  UNL d   1      -1.877   1.932  -0.431  1.00  0.00     0.166 HD
ATOM      5  C   UNL d   1      -0.517   0.400  -0.380  0.00  0.00     0.048 A 
ATOM      6  C   UNL d   1      -2.768   0.171   0.152  0.00  0.00     0.119 A 
ATOM      7  C   UNL d   1      -1.296  -1.739   0.340  0.00  0.00     0.085 A 
ATOM      8  C   UNL d   1      -2.577  -1.166   0.453  0.00  0.00     0.072 A 
ATOM      9  C   UNL d   1       2.057  -0.453  -1.097  0.00  0.00    -0.034 C 
ATOM     10  C   UNL d   1       0.406   1.279  -0.898  0.00  0.00     0.031 C 
ATOM     11  C   UNL d   1       1.653   0.854  -1.325  0.00  0.00     0.011 C 
ATOM     12  C   UNL d   1       3.325  -0.911  -1.768  0.00  0.00     0.050 C 
ENDROOT
BRANCH   2  13
ATOM     13  N   UNL d   1       1.850  -2.437   0.257  0.00  0.00    -0.307 N 
ATOM     14  C   UNL d   1       1.817  -2.631   1.636  0.00  0.00     0.325 C 
ATOM     15  N   UNL d   1       2.644  -3.689   1.990  0.00  0.00    -0.309 N 
ATOM     16  O   UNL d   1       1.176  -1.948   2.417  0.00  0.00    -0.247 OA
ATOM     17  H   UNL d   1       3.179  -4.117   1.248  0.00  0.00     0.170 HD
ATOM     18  H   UNL d   1       2.742  -2.683  -0.133  0.00  0.00     0.170 HD
BRANCH  15  19
ATOM     19  C   UNL d   1       2.781  -4.288   3.271  0.00  0.00     0.036 A 
ATOM     20  C   UNL d   1       2.016  -3.922   4.378  0.00  0.00     0.031 A 
ATOM     21  C   UNL d   1       2.151  -4.604   5.590  0.00  0.00     0.026 A 
ATOM     22  C   UNL d   1       3.059  -5.651   5.701  0.00  0.00     0.034 A 
ATOM     23  C   UNL d   1       3.849  -6.009   4.614  0.00  0.00     0.026 A 
ATOM     24 CL   UNL d   1       3.196  -6.515   7.184  0.00  0.00    -0.084 Cl
ATOM     25  C   UNL d   1       3.710  -5.330   3.399  0.00  0.00     0.031 A 
ENDBRANCH  15  19
ENDBRANCH   2  13
BRANCH   7  26
ATOM     26  O   UNL d   1      -1.355  -3.066   0.676  0.00  0.00    -0.355 OA
ATOM     27  C   UNL d   1      -0.578  -4.024  -0.018  0.00  0.00     0.210 C 
ENDBRANCH   7  26
BRANCH   6  28
ATOM     28  C   UNL d   1      -4.165   0.767   0.169  0.00  0.00     0.432 C 
ATOM     29  F   UNL d   1      -4.207   2.120  -0.013  0.00  0.00    -0.165 F 
ATOM     30  F   UNL d   1      -4.964   0.241  -0.813  0.00  0.00    -0.165 F 
ATOM     31  F   UNL d   1      -4.830   0.536   1.335  0.00  0.00    -0.165 F 
ENDBRANCH   6  28
TORSDOF 4
