REMARK  2 active torsions:
REMARK  status: ('A' for Active; 'I' for Inactive)
REMARK    1  A    between atoms: C_3  and  C_1 
REMARK    2  A    between atoms: N_12  and  C_9 
ROOT
ATOM      1  C   UNL d   1      -2.387  -0.555   0.018  0.00  0.00     0.241 A 
ATOM      2  N   UNL d   1      -2.789   0.785  -0.451  0.00  0.00    -0.260 NA
ATOM      3  O   UNL d   1      -2.511  -1.547  -1.048  0.00  0.00    -0.324 OA
ATOM      4  C   UNL d   1      -3.245   0.492  -1.748  0.00  0.00     0.046 A 
ATOM      5  C   UNL d   1      -3.037  -0.833  -2.086  0.00  0.00     0.092 A 
ATOM      6  C   UNL d   1      -3.820   1.368  -2.647  0.00  0.00     0.050 A 
ATOM      7  C   UNL d   1      -3.387  -1.349  -3.317  0.00  0.00     0.040 A 
ATOM      8  C   UNL d   1      -4.193   0.868  -3.897  0.00  0.00     0.035 A 
ATOM      9  C   UNL d   1      -3.977  -0.480  -4.237  0.00  0.00     0.026 A 
ATOM     10 CL   UNL d   1      -4.940   1.916  -5.041  0.00  0.00    -0.084 Cl
ATOM     11  H   UNL d   1      -3.523   1.206   0.110  0.00  0.00     0.130 HD
ENDROOT
BRANCH   1  12
ATOM     12  C   UNL d   1      -3.210  -0.969   1.228  0.00  0.00     0.007 A 
ATOM     13  C   UNL d   1      -2.805  -0.688   2.538  0.00  0.00     0.046 A 
ATOM     14  C   UNL d   1      -3.583  -1.097   3.637  0.00  0.00     0.053 A 
ATOM     15 CL   UNL d   1      -1.344   0.168   2.884  0.00  0.00    -0.084 Cl
ATOM     16  C   UNL d   1      -4.802  -1.782   3.495  0.00  0.00     0.031 A 
ATOM     17  C   UNL d   1      -5.210  -2.015   2.173  0.00  0.00     0.030 A 
ATOM     18  C   UNL d   1      -4.438  -1.622   1.067  0.00  0.00     0.015 A 
BRANCH  16  19
ATOM     19  N   UNL d   1      -5.520  -2.234   4.589  0.00  0.00    -0.390 N 
ATOM     20  C   UNL d   1      -5.491  -1.543   5.878  0.00  0.00     0.149 C 
ATOM     21  C   UNL d   1      -6.574  -3.239   4.470  0.00  0.00     0.149 C 
ENDBRANCH  16  19
ENDBRANCH   1  12
TORSDOF 2
