REMARK  8 active torsions:
REMARK  status: ('A' for Active; 'I' for Inactive)
REMARK    1  A    between atoms: C_12  and  N_1 
REMARK    2  A    between atoms: N_2  and  C_11 
REMARK    3  A    between atoms: N_3  and  C_24 
REMARK    4  A    between atoms: C_23  and  N_5 
REMARK    5  A    between atoms: C_25  and  N_7 
REMARK    6  A    between atoms: N_9  and  C_22 
REMARK    7  A    between atoms: N_17  and  C_26 
REMARK    8  A    between atoms: C_27  and  N_17 
ROOT
ATOM      1  N   UNL d   1      -4.138   3.174 -10.399  0.00  0.00    -0.356 N 
ATOM      2  H   UNL d   1      -4.752   2.492 -10.838  0.00  0.00     0.166 HD
ENDROOT
BRANCH   1   3
ATOM      3  C   UNL d   1      -3.542   2.681  -9.216  0.00  0.00     0.032 A 
ATOM      4  C   UNL d   1      -3.728   1.347  -8.832  0.00  0.00     0.032 A 
ATOM      5  C   UNL d   1      -3.099   0.835  -7.686  0.00  0.00     0.033 A 
ATOM      6  C   UNL d   1      -2.258   1.635  -6.906  0.00  0.00     0.048 A 
ATOM      7  C   UNL d   1      -2.054   2.961  -7.308  0.00  0.00     0.033 A 
ATOM      8  C   UNL d   1      -2.686   3.475  -8.446  0.00  0.00     0.032 A 
BRANCH   6   9
ATOM      9  N   UNL d   1      -1.585   1.050  -5.809  0.00  0.00    -0.300 N 
ATOM     10  N   UNL d   1      -1.423   1.861  -4.871  0.00  0.00    -0.300 N 
ATOM     11  HN  UNL d   1      -1.823   2.799  -4.858  1.00  0.00     0.187 HD
ATOM     12  HN  UNL d   1      -1.269   0.081  -5.786  1.00  0.00     0.187 HD
BRANCH  10  13
ATOM     13  C   UNL d   1      -0.625   1.336  -3.834  0.00  0.00     0.048 A 
ATOM     14  C   UNL d   1       0.254   2.209  -3.176  0.00  0.00     0.033 A 
ATOM     15  C   UNL d   1       1.061   1.770  -2.120  0.00  0.00     0.038 A 
ATOM     16  C   UNL d   1       0.984   0.434  -1.709  0.00  0.00     0.103 A 
ATOM     17  C   UNL d   1       0.108  -0.453  -2.344  0.00  0.00     0.038 A 
ATOM     18  C   UNL d   1      -0.694   0.003  -3.398  0.00  0.00     0.033 A 
BRANCH  16  19
ATOM     19  N   UNL d   1       1.825  -0.036  -0.600  0.00  0.00    -0.116 N 
ATOM     20  O   UNL d   1       1.726  -1.226  -0.267  0.00  0.00    -0.532 OA
ATOM     21  O   UNL d   1       2.582   0.784  -0.062  0.00  0.00    -0.532 OA
ENDBRANCH  16  19
ENDBRANCH  10  13
ENDBRANCH   6   9
ENDBRANCH   1   3
BRANCH   1  22
ATOM     22  C   UNL d   1      -4.627   4.480 -10.635  0.00  0.00     0.032 A 
ATOM     23  C   UNL d   1      -4.664   4.968 -11.945  0.00  0.00     0.032 A 
ATOM     24  C   UNL d   1      -5.194   6.237 -12.224  0.00  0.00     0.033 A 
ATOM     25  C   UNL d   1      -5.715   7.039 -11.204  0.00  0.00     0.048 A 
ATOM     26  C   UNL d   1      -5.700   6.535  -9.897  0.00  0.00     0.033 A 
ATOM     27  C   UNL d   1      -5.163   5.274  -9.615  0.00  0.00     0.032 A 
BRANCH  25  28
ATOM     28  N   UNL d   1      -6.311   8.274 -11.545  0.00  0.00    -0.300 N 
ATOM     29  N   UNL d   1      -6.113   9.149 -10.675  0.00  0.00    -0.300 N 
ATOM     30  HN  UNL d   1      -5.512   9.015  -9.862  1.00  0.00     0.187 HD
ATOM     31  HN  UNL d   1      -6.841   8.432 -12.402  1.00  0.00     0.187 HD
BRANCH  29  32
ATOM     32  C   UNL d   1      -6.813  10.345 -10.944  0.00  0.00     0.048 A 
ATOM     33  C   UNL d   1      -7.322  11.068  -9.856  0.00  0.00     0.033 A 
ATOM     34  C   UNL d   1      -8.014  12.271 -10.043  0.00  0.00     0.038 A 
ATOM     35  C   UNL d   1      -8.193  12.765 -11.341  0.00  0.00     0.103 A 
ATOM     36  C   UNL d   1      -7.682  12.067 -12.441  0.00  0.00     0.038 A 
ATOM     37  C   UNL d   1      -6.991  10.865 -12.236  0.00  0.00     0.033 A 
BRANCH  35  38
ATOM     38  N   UNL d   1      -8.920  14.025 -11.548  0.00  0.00    -0.116 N 
ATOM     39  O   UNL d   1      -9.059  14.425 -12.713  0.00  0.00    -0.532 OA
ATOM     40  O   UNL d   1      -9.350  14.613 -10.547  0.00  0.00    -0.532 OA
ENDBRANCH  35  38
ENDBRANCH  29  32
ENDBRANCH  25  28
ENDBRANCH   1  22
TORSDOF 8
