REMARK  4 active torsions:
REMARK  status: ('A' for Active; 'I' for Inactive)
REMARK    1  A    between atoms: C_14  and  C_2 
REMARK    2  A    between atoms: C_6  and  C_15 
REMARK    3  A    between atoms: O_16  and  C_6 
REMARK    4  A    between atoms: C_15  and  C_14 
ROOT
ATOM      1  C   UNL d   1       0.778   0.737   1.117  0.00  0.00     0.019 C 
ATOM      2  C   UNL d   1      -1.503   0.321   0.096  0.00  0.00    -0.038 C 
ATOM      3  C   UNL d   1       0.567   0.468  -1.373  0.00  0.00    -0.012 C 
ATOM      4  C   UNL d   1       0.265  -1.517   0.146  0.00  0.00    -0.012 C 
ATOM      5  C   UNL d   1      -0.723   1.041   1.225  0.00  0.00     0.030 C 
ATOM      6  C   UNL d   1       1.011  -0.772   1.266  0.00  0.00     0.025 C 
ATOM      7  C   UNL d   1       1.298   1.220  -0.246  0.00  0.00     0.025 C 
ATOM      8  C   UNL d   1      -0.937   0.765  -1.278  0.00  0.00     0.014 C 
ATOM      9  C   UNL d   1      -1.243  -1.206   0.241  0.00  0.00     0.014 C 
ATOM     10  C   UNL d   1       0.796  -1.042  -1.217  0.00  0.00     0.009 C 
ATOM     11 BR   UNL d   1       1.722   1.685   2.539  0.00  0.00    -0.085 Br
ENDROOT
BRANCH   2  12
ATOM     12  C   UNL d   1      -3.020   0.617   0.194  0.00  0.00     0.020 C 
BRANCH  12  13
ATOM     13  C   UNL d   1      -3.390   2.104   0.082  0.00  0.00     0.110 C 
BRANCH  13  14
ATOM     14  C   UNL d   1      -4.877   2.339   0.186  0.00  0.00     0.139 C 
ATOM     15  O   UNL d   1      -5.721   1.471   0.341  0.00  0.00    -0.650 OA
BRANCH  14  16
ATOM     16  O   UNL d   1      -5.195   3.651   0.086  0.00  0.00    -0.776 OA
ATOM     17  H   UNL d   1      -4.424   4.239  -0.033  0.00  0.00     0.167 HD
ENDBRANCH  14  16
ENDBRANCH  13  14
ENDBRANCH  12  13
ENDBRANCH   2  12
TORSDOF 4
