REMARK  4 active torsions:
REMARK  status: ('A' for Active; 'I' for Inactive)
REMARK    1  A    between atoms: C_10  and  N_3 
REMARK    2  A    between atoms: C_7  and  C_4 
REMARK    3  A    between atoms: C_9  and  C_5 
REMARK    4  A    between atoms: O_20  and  C_17 
ROOT
ATOM      1  N   UNL d   1       1.116  -0.198   0.112  0.00  0.00    -0.301 N 
ATOM      2  HN  UNL d   1       2.111  -0.388   0.232  1.00  0.00     0.187 HD
ATOM      3  N   UNL d   1       0.117  -1.127   0.059  0.00  0.00    -0.283 N 
ATOM      4  C   UNL d   1       0.569   0.971  -0.019  0.00  0.00     0.039 A 
ATOM      5  C   UNL d   1      -1.218  -0.535  -0.045  0.00  0.00     0.147 A 
ATOM      6  C   UNL d   1      -0.931   0.961  -0.155  0.00  0.00     0.091 A 
ENDROOT
BRANCH   4   7
ATOM      7  C   UNL d   1       1.331   2.247  -0.068  0.00  0.00    -0.006 A 
ATOM      8  C   UNL d   1       2.628   2.336  -0.611  0.00  0.00    -0.049 A 
ATOM      9  C   UNL d   1       3.285   3.583  -0.599  0.00  0.00     0.014 A 
ATOM     10  C   UNL d   1       3.392   1.181  -1.204  0.00  0.00     0.049 C 
ATOM     11  C   UNL d   1       2.668   4.736  -0.097  0.00  0.00    -0.061 A 
ATOM     12  C   UNL d   1       1.373   4.639   0.407  0.00  0.00     0.007 A 
ATOM     13  C   UNL d   1       3.396   6.045  -0.122  0.00  0.00     0.048 C 
ATOM     14  C   UNL d   1       0.714   3.409   0.426  0.00  0.00     0.014 A 
ENDBRANCH   4   7
BRANCH   3  15
ATOM     15  C   UNL d   1       0.400  -2.494   0.038  0.00  0.00     0.051 A 
ATOM     16  C   UNL d   1       1.720  -2.962   0.145  0.00  0.00     0.031 A 
ATOM     17  C   UNL d   1       2.022  -4.329   0.163  0.00  0.00     0.002 A 
ATOM     18  C   UNL d   1       0.999  -5.269   0.078  0.00  0.00     0.000 A 
ATOM     19  C   UNL d   1      -0.316  -4.839  -0.035  0.00  0.00     0.002 A 
ATOM     20  C   UNL d   1      -0.607  -3.470  -0.063  0.00  0.00     0.031 A 
ENDBRANCH   3  15
BRANCH   5  21
ATOM     21  C   UNL d   1      -2.100  -0.831   1.158  0.00  0.00    -0.033 A 
ATOM     22  C   UNL d   1      -1.557  -0.993   2.443  0.00  0.00     0.012 A 
ATOM     23  C   UNL d   1      -2.374  -1.303   3.534  0.00  0.00     0.037 A 
ATOM     24  C   UNL d   1      -3.749  -1.439   3.362  0.00  0.00     0.068 A 
ATOM     25  C   UNL d   1      -4.300  -1.260   2.090  0.00  0.00     0.037 A 
ATOM     26  C   UNL d   1      -3.486  -0.955   0.996  0.00  0.00     0.012 A 
BRANCH  24  27
ATOM     27  O   UNL d   1      -4.652  -1.745   4.343  0.00  0.00    -0.356 OA
ATOM     28  C   UNL d   1      -4.128  -1.907   5.655  0.00  0.00     0.210 C 
ENDBRANCH  24  27
ENDBRANCH   5  21
TORSDOF 4
