REMARK  1 active torsions:
REMARK  status: ('A' for Active; 'I' for Inactive)
REMARK    1  A    between atoms: C_11  and  C_5 
ROOT
ATOM      1  C   UNL d   1       2.459  -1.289   0.272  0.00  0.00    -0.015 C 
ATOM      2  C   UNL d   1       2.482  -0.360   1.300  0.00  0.00     0.021 C 
ATOM      3  N   UNL d   1       1.431   0.358   1.714  0.00  0.00    -0.358 N 
ATOM      4  HN  UNL d   1       1.519   1.077   2.432  1.00  0.00     0.166 HD
ATOM      5  C   UNL d   1       1.219  -1.829  -0.052  0.00  0.00    -0.004 C 
ATOM      6  C   UNL d   1       3.881  -1.551  -0.174  0.00  0.00    -0.017 C 
ATOM      7  C   UNL d   1       0.067  -1.054   0.294  0.00  0.00     0.002 A 
ATOM      8  C   UNL d   1       0.258   0.077   1.131  0.00  0.00     0.043 A 
ATOM      9  C   UNL d   1       3.827  -0.370   1.996  0.00  0.00     0.033 C 
ATOM     10  C   UNL d   1       4.579  -1.469   1.199  0.00  0.00     0.024 C 
ATOM     11  C   UNL d   1       4.203  -2.835  -0.932  0.00  0.00     0.020 C 
ATOM     12  C   UNL d   1       4.346  -0.367  -1.066  0.00  0.00     0.020 C 
ATOM     13  C   UNL d   1      -1.253  -1.339  -0.137  0.00  0.00     0.014 A 
ATOM     14  C   UNL d   1       3.680  -0.777   3.461  0.00  0.00     0.016 C 
ATOM     15  C   UNL d   1      -0.817   0.910   1.408  0.00  0.00     0.030 A 
ATOM     16  C   UNL d   1      -2.317  -0.484   0.153  0.00  0.00     0.001 A 
ATOM     17  C   UNL d   1      -2.095   0.655   0.911  0.00  0.00     0.002 A 
ENDROOT
BRANCH   5  18
ATOM     18  C   UNL d   1       1.112  -3.265  -0.386  0.00  0.00    -0.024 A 
ATOM     19  C   UNL d   1       1.530  -4.199   0.591  0.00  0.00     0.012 A 
ATOM     20  C   UNL d   1       1.449  -5.571   0.376  0.00  0.00     0.001 A 
ATOM     21  C   UNL d   1       0.910  -6.046  -0.814  0.00  0.00     0.000 A 
ATOM     22  C   UNL d   1       0.470  -5.144  -1.784  0.00  0.00     0.001 A 
ATOM     23  C   UNL d   1       0.581  -3.760  -1.582  0.00  0.00     0.012 A 
ENDBRANCH   5  18
TORSDOF 1
