REMARK  2 active torsions:
REMARK  status: ('A' for Active; 'I' for Inactive)
REMARK    1  A    between atoms: C_4  and  C_1 
REMARK    2  A    between atoms: C_11  and  C_5 
ROOT
ATOM      1  N   UNL d   1       0.444  -3.881  -0.990  0.00  0.00    -0.349 N 
ATOM      2  HN  UNL d   1      -0.008  -3.456  -1.800  1.00  0.00     0.166 HD
ATOM      3  C   UNL d   1       1.036  -3.176   0.038  0.00  0.00     0.051 A 
ATOM      4  C   UNL d   1       0.542  -5.179  -0.782  0.00  0.00     0.085 A 
ATOM      5  S   UNL d   1       1.411  -5.614   0.640  0.00  0.00    -0.081 SA
ATOM      6  C   UNL d   1       1.633  -3.954   1.007  0.00  0.00     0.082 A 
ENDROOT
BRANCH   4   7
ATOM      7  C   UNL d   1      -0.012  -6.190  -1.695  0.00  0.00     0.001 A 
ATOM      8  C   UNL d   1      -0.081  -5.895  -3.067  0.00  0.00     0.054 A 
ATOM      9  C   UNL d   1      -0.658  -6.795  -3.962  0.00  0.00     0.103 A 
ATOM     10  O   UNL d   1      -0.700  -6.413  -5.278  0.00  0.00    -0.346 OA
ATOM     11  C   UNL d   1      -1.160  -8.014  -3.503  0.00  0.00     0.102 A 
ATOM     12  C   UNL d   1      -1.643  -7.198  -6.015  0.00  0.00     0.202 C 
ATOM     13  C   UNL d   1      -1.474  -8.676  -5.704  0.00  0.00     0.202 C 
ATOM     14  O   UNL d   1      -1.741  -8.947  -4.323  0.00  0.00    -0.346 OA
ATOM     15  C   UNL d   1      -1.105  -8.321  -2.146  0.00  0.00     0.040 A 
ATOM     16  C   UNL d   1      -0.533  -7.414  -1.246  0.00  0.00     0.017 A 
ENDBRANCH   4   7
BRANCH   3  17
ATOM     17  C   UNL d   1       0.992  -1.704   0.008  0.00  0.00     0.009 A 
ATOM     18  C   UNL d   1       1.976  -0.895   0.534  0.00  0.00     0.065 A 
ATOM     19  S   UNL d   1       1.621   0.760   0.354  0.00  0.00    -0.100 SA
ATOM     20  C   UNL d   1       0.123   0.430  -0.429  0.00  0.00     0.016 A 
ATOM     21  C   UNL d   1      -0.099  -0.946  -0.564  0.00  0.00    -0.006 A 
ATOM     22  C   UNL d   1      -0.806   1.384  -0.894  0.00  0.00     0.019 A 
ATOM     23  C   UNL d   1      -1.310  -1.348  -1.192  0.00  0.00     0.014 A 
ATOM     24  C   UNL d   1      -2.234  -0.406  -1.655  0.00  0.00     0.001 A 
ATOM     25  C   UNL d   1      -1.983   0.948  -1.505  0.00  0.00     0.001 A 
ENDBRANCH   3  17
TORSDOF 2
