REMARK  7 active torsions:
REMARK  status: ('A' for Active; 'I' for Inactive)
REMARK    1  A    between atoms: O_5  and  C_1 
REMARK    2  A    between atoms: O_6  and  C_2 
REMARK    3  A    between atoms: C_3  and  O_7 
REMARK    4  A    between atoms: O_8  and  C_4 
REMARK    5  A    between atoms: O_7  and  C_14 
REMARK    6  A    between atoms: C_13  and  O_8 
REMARK    7  A    between atoms: C_14  and  C_13 
ROOT
ATOM      1  C   UNL d   1       2.282  -3.054  -0.005  0.00  0.00     0.202 C 
ENDROOT
BRANCH   1   2
ATOM      2  O   UNL d   1       3.214  -2.085   0.498  0.00  0.00    -0.346 OA
BRANCH   2   3
ATOM      3  C   UNL d   1       3.116  -0.828  -0.045  0.00  0.00     0.102 A 
ATOM      4  C   UNL d   1       4.235   0.022  -0.029  0.00  0.00     0.101 A 
ATOM      5  C   UNL d   1       4.151   1.271  -0.664  0.00  0.00     0.039 A 
ATOM      6  C   UNL d   1       2.974   1.697  -1.274  0.00  0.00     0.003 A 
ATOM      7  C   UNL d   1       1.851   0.887  -1.240  0.00  0.00     0.003 A 
ATOM      8  C   UNL d   1       1.920  -0.364  -0.620  0.00  0.00     0.039 A 
BRANCH   4   9
ATOM      9  O   UNL d   1       5.475  -0.193   0.508  0.00  0.00    -0.353 OA
ATOM     10  C   UNL d   1       5.664  -1.255   1.427  0.00  0.00     0.210 C 
ENDBRANCH   4   9
ENDBRANCH   2   3
ENDBRANCH   1   2
BRANCH   1  11
ATOM     11  C   UNL d   1       2.743  -4.452   0.391  0.00  0.00     0.202 C 
BRANCH  11  12
ATOM     12  O   UNL d   1       3.954  -4.745  -0.309  0.00  0.00    -0.346 OA
BRANCH  12  13
ATOM     13  C   UNL d   1       4.449  -6.017  -0.193  0.00  0.00     0.102 A 
ATOM     14  C   UNL d   1       5.287  -6.510  -1.208  0.00  0.00     0.101 A 
ATOM     15  C   UNL d   1       5.790  -7.817  -1.099  0.00  0.00     0.039 A 
ATOM     16  C   UNL d   1       5.500  -8.616   0.003  0.00  0.00     0.003 A 
ATOM     17  C   UNL d   1       4.696  -8.117   1.020  0.00  0.00     0.003 A 
ATOM     18  C   UNL d   1       4.176  -6.825   0.923  0.00  0.00     0.039 A 
BRANCH  14  19
ATOM     19  O   UNL d   1       5.686  -5.896  -2.364  0.00  0.00    -0.353 OA
ATOM     20  C   UNL d   1       5.462  -4.502  -2.512  0.00  0.00     0.210 C 
ENDBRANCH  14  19
ENDBRANCH  12  13
ENDBRANCH  11  12
ENDBRANCH   1  11
TORSDOF 7
