REMARK  3 active torsions:
REMARK  status: ('A' for Active; 'I' for Inactive)
REMARK    1  A    between atoms: N_13  and  C_7 
REMARK    2  A    between atoms: C_8  and  C_9 
REMARK    3  A    between atoms: C_20  and  N_13 
ROOT
ATOM      1  N   UNL d   1      -1.248   0.459   0.042  0.00  0.00    -0.270 N 
ATOM      2  N   UNL d   1       1.050   1.007  -0.026  0.00  0.00    -0.270 N 
ATOM      3  C   UNL d   1      -0.267   1.440   0.019  0.00  0.00     0.333 A 
ATOM      4  C   UNL d   1       0.390  -1.311   0.082  0.00  0.00     0.116 A 
ATOM      5  C   UNL d   1       1.466  -0.310   0.018  0.00  0.00     0.268 A 
ATOM      6  C   UNL d   1      -1.027  -0.909   0.017  0.00  0.00     0.268 A 
ATOM      7  C   UNL d   1       0.684  -2.616   0.242  0.00  0.00     0.111 C 
ATOM      8  O   UNL d   1      -0.551   2.640   0.038  0.00  0.00    -0.246 OA
ATOM      9  O   UNL d   1      -1.932  -1.738  -0.040  0.00  0.00    -0.267 OA
ATOM     10  O   UNL d   1       2.654  -0.639   0.019  0.00  0.00    -0.267 OA
ATOM     11  C   UNL d   1      -2.643   0.874   0.073  0.00  0.00     0.164 C 
ATOM     12  C   UNL d   1       2.112   1.999  -0.067  0.00  0.00     0.164 C 
ENDROOT
BRANCH   7  13
ATOM     13  N   UNL d   1       1.928  -3.188   0.372  0.00  0.00    -0.365 N 
ATOM     14  H   UNL d   1       2.709  -2.526   0.327  0.00  0.00     0.165 HD
BRANCH  13  15
ATOM     15  C   UNL d   1       2.276  -4.523   0.614  0.00  0.00     0.032 A 
ATOM     16  C   UNL d   1       1.348  -5.570   0.610  0.00  0.00     0.045 A 
ATOM     17  C   UNL d   1       1.729  -6.892   0.895  0.00  0.00     0.050 A 
ATOM     18  C   UNL d   1       3.072  -7.167   1.185  0.00  0.00     0.016 A 
ATOM     19  C   UNL d   1       4.011  -6.138   1.191  0.00  0.00     0.003 A 
ATOM     20  C   UNL d   1       3.612  -4.830   0.910  0.00  0.00     0.029 A 
BRANCH  17  21
ATOM     21  C   UNL d   1       0.704  -7.997   0.895  0.00  0.00     0.417 C 
ATOM     22  F   UNL d   1      -0.561  -7.569   0.623  0.00  0.00    -0.166 F 
ATOM     23  F   UNL d   1       0.976  -8.961  -0.027  0.00  0.00    -0.166 F 
ATOM     24  F   UNL d   1       0.628  -8.637   2.095  0.00  0.00    -0.166 F 
ENDBRANCH  17  21
ENDBRANCH  13  15
ENDBRANCH   7  13
TORSDOF 3
