REMARK  4 active torsions:
REMARK  status: ('A' for Active; 'I' for Inactive)
REMARK    1  A    between atoms: C_6  and  C_1 
REMARK    2  A    between atoms: C_9  and  C_3 
REMARK       I    between atoms: N_8  and  C_6 
REMARK    3  A    between atoms: C_20  and  N_8 
REMARK    4  A    between atoms: C_19  and  C_20 
ROOT
ATOM      1  C   UNL d   1       0.166  -2.646  -0.073  0.00  0.00     0.254 C 
ATOM      2  N   UNL d   1      -0.875  -3.550  -0.079  0.00  0.00    -0.353 N 
ATOM      3  O   UNL d   1       1.338  -3.004  -0.081  0.00  0.00    -0.268 OA
ATOM      4  H   UNL d   1      -1.830  -3.228  -0.084  0.00  0.00     0.163 HD
ENDROOT
BRANCH   1   5
ATOM      5  C   UNL d   1      -0.227  -1.238  -0.050  0.00  0.00     0.064 A 
ATOM      6  C   UNL d   1      -1.531  -0.647  -0.018  0.00  0.00     0.057 A 
ATOM      7  C   UNL d   1      -1.368   0.722   0.030  0.00  0.00     0.087 A 
ATOM      8  O   UNL d   1      -0.040   1.018   0.005  0.00  0.00    -0.314 OA
ATOM      9  C   UNL d   1       0.648  -0.159  -0.024  0.00  0.00     0.065 A 
ATOM     10  C   UNL d   1       2.122  -0.008  -0.002  0.00  0.00     0.077 C 
BRANCH   7  11
ATOM     11  C   UNL d   1      -2.281   1.854   0.149  0.00  0.00    -0.002 A 
ATOM     12  C   UNL d   1      -3.545   1.679   0.735  0.00  0.00     0.016 A 
ATOM     13  C   UNL d   1      -4.417   2.761   0.896  0.00  0.00     0.024 A 
ATOM     14  C   UNL d   1      -4.035   4.028   0.464  0.00  0.00     0.034 A 
ATOM     15  C   UNL d   1      -2.793   4.220  -0.135  0.00  0.00     0.024 A 
ATOM     16 CL   UNL d   1      -5.101   5.360   0.682  0.00  0.00    -0.084 Cl
ATOM     17  C   UNL d   1      -1.919   3.137  -0.290  0.00  0.00     0.016 A 
ENDBRANCH   7  11
ENDBRANCH   1   5
BRANCH   2  18
ATOM     18  C   UNL d   1      -0.650  -4.978  -0.022  0.00  0.00     0.161 C 
BRANCH  18  19
ATOM     19  C   UNL d   1      -1.245  -5.690  -1.212  0.00  0.00    -0.038 A 
ATOM     20  C   UNL d   1      -2.215  -6.692  -1.036  0.00  0.00     0.048 A 
ATOM     21  C   UNL d   1      -2.692  -7.342  -2.157  0.00  0.00     0.105 A 
ATOM     22  O   UNL d   1      -3.624  -8.333  -2.163  0.00  0.00    -0.323 OA
ATOM     23  C   UNL d   1      -2.241  -7.039  -3.419  0.00  0.00     0.105 A 
ATOM     24  C   UNL d   1      -3.732  -8.594  -3.579  0.00  0.00     0.352 A 
ATOM     25  O   UNL d   1      -2.834  -7.799  -4.379  0.00  0.00    -0.323 OA
ATOM     26  C   UNL d   1      -1.289  -6.069  -3.634  0.00  0.00     0.040 A 
ATOM     27  C   UNL d   1      -0.787  -5.391  -2.517  0.00  0.00     0.012 A 
ENDBRANCH  18  19
ENDBRANCH   2  18
TORSDOF 4
