REMARK  2 active torsions:
REMARK  status: ('A' for Active; 'I' for Inactive)
REMARK    1  A    between atoms: C_4  and  C_3 
REMARK    2  A    between atoms: C_13  and  C_5 
ROOT
ATOM      1  N   UNL d   1       1.403  -0.590  -0.186  0.00  0.00    -0.347 N 
ATOM      2  HN  UNL d   1       2.265  -1.099  -0.382  1.00  0.00     0.167 HD
ATOM      3  C   UNL d   1       1.315   0.778  -0.006  0.00  0.00     0.074 A 
ATOM      4  C   UNL d   1       0.208  -1.142  -0.067  0.00  0.00     0.084 A 
ATOM      5  S   UNL d   1      -1.075  -0.022   0.229  0.00  0.00    -0.081 SA
ATOM      6  C   UNL d   1       0.049   1.266   0.233  0.00  0.00     0.084 A 
ENDROOT
BRANCH   3   7
ATOM      7  C   UNL d   1       2.511   1.663  -0.043  0.00  0.00     0.104 A 
ATOM      8  O   UNL d   1       2.498   2.999   0.251  0.00  0.00    -0.308 OA
ATOM      9  C   UNL d   1       3.775   3.451   0.139  0.00  0.00     0.086 A 
ATOM     10  C   UNL d   1       4.192   4.757   0.384  0.00  0.00     0.040 A 
ATOM     11  C   UNL d   1       4.620   2.421  -0.258  0.00  0.00     0.002 A 
ATOM     12  C   UNL d   1       5.554   5.021   0.201  0.00  0.00     0.026 A 
ATOM     13  C   UNL d   1       6.430   4.014  -0.214  0.00  0.00     0.035 A 
ATOM     14  C   UNL d   1       5.984   2.706  -0.448  0.00  0.00     0.038 A 
ATOM     15 CL   UNL d   1       8.096   4.387  -0.442  0.00  0.00    -0.084 Cl
ATOM     16  C   UNL d   1       3.797   1.270  -0.362  0.00  0.00     0.054 A 
ENDBRANCH   3   7
BRANCH   4  17
ATOM     17  C   UNL d   1      -0.042  -2.594  -0.089  0.00  0.00    -0.002 A 
ATOM     18  C   UNL d   1       0.978  -3.467   0.324  0.00  0.00     0.014 A 
ATOM     19  C   UNL d   1       0.772  -4.848   0.365  0.00  0.00     0.001 A 
ATOM     20  C   UNL d   1      -0.455  -5.381  -0.018  0.00  0.00     0.000 A 
ATOM     21  C   UNL d   1      -1.472  -4.534  -0.454  0.00  0.00     0.001 A 
ATOM     22  C   UNL d   1      -1.266  -3.151  -0.493  0.00  0.00     0.014 A 
ENDBRANCH   4  17
TORSDOF 2
