REMARK  2 active torsions:
REMARK  status: ('A' for Active; 'I' for Inactive)
REMARK       I    between atoms: N_2  and  C_1 
REMARK       I    between atoms: N_4  and  C_1 
REMARK    1  A    between atoms: C_3  and  N_2 
REMARK    2  A    between atoms: C_5  and  N_4 
ROOT
ATOM      1  C   UNL d   1       1.107   0.210  -0.042  0.00  0.00     0.321 C 
ATOM      2  N   UNL d   1       0.538  -0.275   1.116  0.00  0.00    -0.308 N 
ATOM      3  N   UNL d   1       0.216   0.153  -1.087  0.00  0.00    -0.338 N 
ATOM      4  O   UNL d   1       2.260   0.604  -0.172  0.00  0.00    -0.247 OA
ATOM      5  H   UNL d   1      -0.199  -0.942   0.962  0.00  0.00     0.170 HD
ATOM      6  H   UNL d   1      -0.731  -0.138  -0.901  0.00  0.00     0.164 HD
ENDROOT
BRANCH   2   7
ATOM      7  C   UNL d   1       1.209  -0.344   2.361  0.00  0.00     0.047 A 
ATOM      8  C   UNL d   1       1.029  -1.478   3.208  0.00  0.00     0.001 A 
ATOM      9  C   UNL d   1       1.719  -1.505   4.447  0.00  0.00    -0.024 A 
ATOM     10  C   UNL d   1       0.247  -2.614   2.875  0.00  0.00     0.014 A 
ATOM     11  C   UNL d   1       1.617  -2.627   5.286  0.00  0.00     0.012 A 
ATOM     12  C   UNL d   1       2.521  -0.419   4.829  0.00  0.00     0.012 A 
ATOM     13  C   UNL d   1       0.850  -3.732   4.922  0.00  0.00     0.001 A 
ATOM     14  C   UNL d   1       0.161  -3.724   3.718  0.00  0.00     0.001 A 
ATOM     15  C   UNL d   1       2.672   0.687   3.996  0.00  0.00     0.003 A 
ATOM     16  C   UNL d   1       2.028   0.718   2.764  0.00  0.00     0.030 A 
ENDBRANCH   2   7
BRANCH   3  17
ATOM     17  C   UNL d   1       0.629   0.331  -2.472  0.00  0.00     0.094 C 
ATOM     18  C   UNL d   1      -0.469   1.018  -3.311  0.00  0.00     0.064 C 
ATOM     19  C   UNL d   1      -0.349   0.332  -4.632  0.00  0.00    -0.050 A 
ATOM     20  C   UNL d   1      -0.955   0.693  -5.824  0.00  0.00     0.007 A 
ATOM     21  C   UNL d   1       0.439  -0.818  -4.542  0.00  0.00    -0.050 A 
ATOM     22  C   UNL d   1      -0.757  -0.119  -6.942  0.00  0.00     0.001 A 
ATOM     23  C   UNL d   1       0.031  -1.276  -6.852  0.00  0.00     0.001 A 
ATOM     24  C   UNL d   1       0.634  -1.635  -5.645  0.00  0.00     0.007 A 
ATOM     25  C   UNL d   1       0.945  -1.025  -3.150  0.00  0.00     0.064 C 
ENDBRANCH   3  17
TORSDOF 2
