REMARK  6 active torsions:
REMARK  status: ('A' for Active; 'I' for Inactive)
REMARK    1  A    between atoms: O_12  and  C_3 
REMARK    2  A    between atoms: C_9  and  C_14 
REMARK       I    between atoms: N_10  and  C_9 
REMARK    3  A    between atoms: C_11  and  N_10 
REMARK    4  A    between atoms: C_18  and  C_11 
REMARK    5  A    between atoms: C_19  and  C_11 
REMARK    6  A    between atoms: C_14  and  O_12 
ROOT
ATOM      1  C   UNL d   1       2.211   6.322   0.024  0.00  0.00    -0.086 C 
ATOM      2  C   UNL d   1       2.042   7.512   0.105  0.00  0.00     0.015 C 
ATOM      3  C   UNL d   1       2.435   4.853  -0.010  0.00  0.00     0.095 C 
ENDROOT
BRANCH   3   4
ATOM      4  N   UNL d   1       3.891   4.645  -0.059  0.00  0.00    -0.339 N 
ATOM      5  C   UNL d   1       4.519   3.425  -0.124  0.00  0.00     0.243 C 
ATOM      6  O   UNL d   1       3.911   2.357  -0.149  0.00  0.00    -0.271 OA
ATOM      7  H   UNL d   1       4.488   5.460   0.029  0.00  0.00     0.164 HD
BRANCH   5   8
ATOM      8  C   UNL d   1       6.061   3.451  -0.167  0.00  0.00     0.278 C 
BRANCH   8   9
ATOM      9  O   UNL d   1       6.644   4.742  -0.102  0.00  0.00    -0.340 OA
BRANCH   9  10
ATOM     10  C   UNL d   1       8.010   4.893  -0.107  0.00  0.00     0.092 A 
ATOM     11  C   UNL d   1       8.370   6.249   0.001  0.00  0.00     0.064 A 
ATOM     12  C   UNL d   1       9.707   6.664   0.023  0.00  0.00     0.058 A 
ATOM     13  C   UNL d   1      10.724   5.716  -0.064  0.00  0.00     0.057 A 
ATOM     14 CL   UNL d   1      10.024   8.356   0.159  0.00  0.00    -0.082 Cl
ATOM     15  C   UNL d   1      10.392   4.367  -0.176  0.00  0.00     0.052 A 
ATOM     16 CL   UNL d   1      12.398   6.142  -0.037  0.00  0.00    -0.082 Cl
ATOM     17  C   UNL d   1       9.047   3.948  -0.201  0.00  0.00     0.069 A 
ATOM     18 CL   UNL d   1       8.835   2.240  -0.356  0.00  0.00    -0.081 Cl
ENDBRANCH   9  10
ENDBRANCH   8   9
ENDBRANCH   5   8
ENDBRANCH   3   4
BRANCH   3  19
ATOM     19  C   UNL d   1       1.692   4.231  -1.232  0.00  0.00     0.040 C 
ATOM     20  C   UNL d   1       2.109   4.721  -2.611  0.00  0.00     0.009 C 
ENDBRANCH   3  19
BRANCH   3  21
ATOM     21  C   UNL d   1       1.780   4.224   1.258  0.00  0.00     0.040 C 
ATOM     22  C   UNL d   1       2.355   4.661   2.599  0.00  0.00     0.009 C 
ENDBRANCH   3  21
TORSDOF 6
