REMARK  6 active torsions:
REMARK  status: ('A' for Active; 'I' for Inactive)
REMARK    1  A    between atoms: C_2  and  C_1 
REMARK    2  A    between atoms: C_3  and  C_1 
REMARK    3  A    between atoms: CA_4  and  C_1 
REMARK    4  A    between atoms: C_5  and  CA_4 
REMARK    5  A    between atoms: N_13  and  CA_4 
REMARK    6  A    between atoms: OXT_14  and  C_5 
ROOT
ATOM      1  C   UNL d   1       1.073   0.100   0.001  0.00  0.00     0.243 C 
ENDROOT
BRANCH   1   2
ATOM      2  C   UNL d   1       0.358   1.416   0.168  0.00  0.00     0.402 C 
ATOM      3  F   UNL d   1      -0.557   1.701  -0.771  0.00  0.00    -0.170 F 
ATOM      4  F   UNL d   1      -0.311   1.411   1.353  0.00  0.00    -0.170 F 
ATOM      5  F   UNL d   1       1.215   2.462   0.243  0.00  0.00    -0.170 F 
ENDBRANCH   1   2
BRANCH   1   6
ATOM      6  C   UNL d   1       0.593  -0.595  -1.243  0.00  0.00     0.402 C 
ATOM      7  F   UNL d   1       0.297   0.195  -2.284  0.00  0.00    -0.170 F 
ATOM      8  F   UNL d   1       1.525  -1.483  -1.673  0.00  0.00    -0.170 F 
ATOM      9  F   UNL d   1      -0.513  -1.326  -0.958  0.00  0.00    -0.170 F 
ENDBRANCH   1   6
BRANCH   1  10
ATOM     10  CA  UNL d   1       2.604   0.173   0.088  0.00  0.00     0.335 C 
BRANCH  10  11
ATOM     11  C   UNL d   1       3.234   0.947  -1.073  0.00  0.00     0.174 C 
ATOM     12  O   UNL d   1       2.589   1.536  -1.932  0.00  0.00    -0.648 OA
BRANCH  11  13
ATOM     13  OXT UNL d   1       4.585   0.917  -1.071  0.00  0.00    -0.775 OA
ATOM     14  HXT UNL d   1       4.971   0.352  -0.376  0.00  0.00     0.167 HD
ENDBRANCH  11  13
ENDBRANCH  10  11
BRANCH  10  15
ATOM     15  N   UNL d   1       3.061   0.709   1.390  0.00  0.00     0.094 N 
ATOM     16  H1  UNL d   1       2.800   1.700   1.468  0.00  0.00     0.314 HD
ATOM     17  H2  UNL d   1       4.074   0.695   1.486  0.00  0.00     0.314 HD
ENDBRANCH  10  15
ENDBRANCH   1  10
TORSDOF 6
