REMARK  3 active torsions:
REMARK  status: ('A' for Active; 'I' for Inactive)
REMARK    1  A    between atoms: C_8  and  C_3 
REMARK    2  A    between atoms: C_4  and  C_9 
REMARK    3  A    between atoms: O_15  and  C_4 
ROOT
ATOM      1  C   UNL d   1       1.490  -2.183  -0.019  0.00  0.00    -0.001 A 
ATOM      2  C   UNL d   1       3.250  -4.390  -0.126  0.00  0.00     0.037 A 
ATOM      3  C   UNL d   1       2.297  -4.202  -1.132  0.00  0.00     0.019 A 
ATOM      4  C   UNL d   1       3.341  -3.464   0.918  0.00  0.00     0.019 A 
ATOM      5  C   UNL d   1       1.419  -3.111  -1.070  0.00  0.00     0.015 A 
ATOM      6  C   UNL d   1       2.466  -2.373   0.971  0.00  0.00     0.015 A 
ENDROOT
BRANCH   1   7
ATOM      7  C   UNL d   1       0.577  -1.048   0.025  0.00  0.00     0.102 A 
ATOM      8  C   UNL d   1      -0.494  -0.610  -0.726  0.00  0.00     0.127 A 
ATOM      9  N   UNL d   1      -0.992   0.563  -0.215  0.00  0.00    -0.354 N 
ATOM     10  C   UNL d   1      -0.213   0.797   0.816  0.00  0.00     0.233 A 
ATOM     11  HN  UNL d   1      -1.777   1.119  -0.555  1.00  0.00     0.166 HD
ATOM     12  O   UNL d   1       0.758  -0.131   1.031  0.00  0.00    -0.304 OA
ENDBRANCH   1   7
BRANCH   2  13
ATOM     13  C   UNL d   1       4.216  -5.518  -0.150  0.00  0.00     0.176 C 
ATOM     14  O   UNL d   1       5.338  -5.437   0.315  0.00  0.00    -0.646 OA
BRANCH  13  15
ATOM     15  O   UNL d   1       3.722  -6.649  -0.695  0.00  0.00    -0.773 OA
ATOM     16  H   UNL d   1       2.761  -6.650  -0.854  0.00  0.00     0.167 HD
ENDBRANCH  13  15
ENDBRANCH   2  13
TORSDOF 3
