REMARK  3 active torsions:
REMARK  status: ('A' for Active; 'I' for Inactive)
REMARK    1  A    between atoms: C_2  and  C_1 
REMARK    2  A    between atoms: O_6  and  C_1 
REMARK    3  A    between atoms: N_3  and  O_6 
ROOT
ATOM      1  N   UNL d   1      -1.119   0.770  -1.046  0.00  0.00    -0.266 N 
ATOM      2  HN  UNL d   1      -1.597   0.097  -0.447  1.00  0.00     0.194 HD
ATOM      3  C   UNL d   1      -1.748   1.672  -1.736  0.00  0.00     0.010 C 
ATOM      4  C   UNL d   1      -3.273   1.654  -1.673  0.00  0.00     0.054 C 
ATOM      5  C   UNL d   1      -1.085   2.691  -2.652  0.00  0.00     0.054 C 
ATOM      6  C   UNL d   1      -3.811   1.772  -0.241  0.00  0.00     0.006 C 
ATOM      7  C   UNL d   1      -0.243   3.714  -1.882  0.00  0.00     0.006 C 
ATOM      8  C   UNL d   1      -4.819   2.921  -0.062  0.00  0.00     0.000 C 
ATOM      9  C   UNL d   1      -0.754   5.158  -2.019  0.00  0.00     0.000 C 
ATOM     10  C   UNL d   1      -4.427   3.900   1.056  0.00  0.00     0.000 C 
ATOM     11  C   UNL d   1      -0.851   5.897  -0.674  0.00  0.00     0.000 C 
ATOM     12  C   UNL d   1      -4.307   5.355   0.573  0.00  0.00     0.000 C 
ATOM     13  C   UNL d   1      -2.238   6.513  -0.423  0.00  0.00     0.000 C 
ATOM     14  C   UNL d   1      -2.923   5.969   0.842  0.00  0.00     0.000 C 
ENDROOT
BRANCH   1  15
ATOM     15  O   UNL d   1       0.292   0.804  -1.196  0.00  0.00    -0.195 OA
BRANCH  15  16
ATOM     16  C   UNL d   1       0.848  -0.134  -0.347  0.00  0.00     0.322 C 
ATOM     17  O   UNL d   1       0.214  -0.840   0.439  0.00  0.00    -0.257 OA
BRANCH  16  18
ATOM     18  C   UNL d   1       2.298  -0.217  -0.466  0.00  0.00     0.082 A 
ATOM     19  S   UNL d   1       3.222   0.708  -1.570  0.00  0.00    -0.096 SA
ATOM     20  C   UNL d   1       4.690  -0.017  -1.063  0.00  0.00     0.050 A 
ATOM     21  C   UNL d   1       4.490  -0.940  -0.060  0.00  0.00     0.009 A 
ATOM     22  C   UNL d   1       3.117  -1.051   0.280  0.00  0.00     0.026 A 
ENDBRANCH  16  18
ENDBRANCH  15  16
ENDBRANCH   1  15
TORSDOF 3
