REMARK  6 active torsions:
REMARK  status: ('A' for Active; 'I' for Inactive)
REMARK    1  A    between atoms: C_9  and  C_1 
REMARK    2  A    between atoms: C_5  and  C_3 
REMARK    3  A    between atoms: C_6  and  O_13 
REMARK    4  A    between atoms: C_11  and  C_6 
REMARK    5  A    between atoms: C_14  and  C_7 
REMARK    6  A    between atoms: O_13  and  C_14 
ROOT
ATOM      1  C   UNL d   1       2.244   1.628   0.030  0.00  0.00    -0.057 C 
ATOM      2  C   UNL d   1       3.226   2.321   0.053  0.00  0.00    -0.074 C 
ENDROOT
BRANCH   2   3
ATOM      3  C   UNL d   1       4.455   3.109   0.119  0.00  0.00     0.273 C 
BRANCH   3   4
ATOM      4  O   UNL d   1       5.358   2.533   1.073  0.00  0.00    -0.305 OA
BRANCH   4   5
ATOM      5  C   UNL d   1       5.188   2.970   2.343  0.00  0.00     0.294 C 
ATOM      6  O   UNL d   1       4.363   3.784   2.726  0.00  0.00    -0.259 OA
BRANCH   5   7
ATOM      7  C   UNL d   1       6.225   2.385   3.229  0.00  0.00     0.039 A 
ATOM      8  C   UNL d   1       6.842   1.158   2.955  0.00  0.00     0.017 A 
ATOM      9  C   UNL d   1       7.824   0.667   3.820  0.00  0.00     0.001 A 
ATOM     10  C   UNL d   1       8.191   1.397   4.951  0.00  0.00     0.000 A 
ATOM     11  C   UNL d   1       7.570   2.614   5.231  0.00  0.00     0.001 A 
ATOM     12  C   UNL d   1       6.584   3.105   4.376  0.00  0.00     0.017 A 
ENDBRANCH   5   7
ENDBRANCH   4   5
ENDBRANCH   3   4
ENDBRANCH   2   3
BRANCH   1  13
ATOM     13  C   UNL d   1       1.134   0.738   0.023  0.00  0.00     0.059 A 
ATOM     14  S   UNL d   1       1.326  -0.955   0.027  0.00  0.00    -0.078 SA
ATOM     15  C   UNL d   1      -0.370  -1.232   0.012  0.00  0.00     0.051 A 
ATOM     16  C   UNL d   1      -1.060  -0.033   0.010  0.00  0.00     0.025 A 
ATOM     17  C   UNL d   1      -0.191   1.104   0.018  0.00  0.00     0.029 A 
BRANCH  15  18
ATOM     18  C   UNL d   1      -0.841  -2.615   0.004  0.00  0.00     0.162 C 
ATOM     19  O   UNL d   1      -0.087  -3.592   0.002  0.00  0.00    -0.292 OA
ATOM     20  C   UNL d   1      -2.328  -2.875  -0.002  0.00  0.00     0.097 C 
ENDBRANCH  15  18
ENDBRANCH   1  13
TORSDOF 6
