REMARK  5 active torsions:
REMARK  status: ('A' for Active; 'I' for Inactive)
REMARK    1  A    between atoms: C_13  and  C_4 
REMARK       I    between atoms: C_6  and  N_10 
REMARK    2  A    between atoms: C_7  and  C_6 
REMARK    3  A    between atoms: O_12  and  C_8 
REMARK    4  A    between atoms: N_10  and  C_19 
REMARK    5  A    between atoms: C_21  and  O_12 
ROOT
ATOM      1  C   UNL d   1       8.396  -2.139   1.307  0.00  0.00     0.260 C 
ATOM      2  N   UNL d   1       7.660  -2.086   0.141  0.00  0.00    -0.323 N 
ATOM      3  O   UNL d   1       9.390  -2.858   1.321  0.00  0.00    -0.267 OA
ATOM      4  H   UNL d   1       8.184  -2.452  -0.647  0.00  0.00     0.169 HD
ENDROOT
BRANCH   2   5
ATOM      5  C   UNL d   1       6.376  -1.598  -0.144  0.00  0.00     0.035 A 
ATOM      6  C   UNL d   1       6.216  -0.909  -1.347  0.00  0.00     0.030 A 
ATOM      7  C   UNL d   1       4.964  -0.414  -1.718  0.00  0.00     0.016 A 
ATOM      8  C   UNL d   1       3.834  -0.665  -0.930  0.00  0.00    -0.008 A 
ATOM      9  C   UNL d   1       4.004  -1.352   0.282  0.00  0.00     0.016 A 
ATOM     10  C   UNL d   1       5.272  -1.807   0.684  0.00  0.00     0.030 A 
BRANCH   8  11
ATOM     11  C   UNL d   1       2.511  -0.258  -1.374  0.00  0.00     0.060 A 
ATOM     12  N   UNL d   1       1.426  -0.089  -0.524  0.00  0.00    -0.335 N 
ATOM     13  C   UNL d   1       0.454   0.251  -1.325  0.00  0.00     0.147 A 
ATOM     14  HN  UNL d   1       1.396  -0.205   0.489  1.00  0.00     0.168 HD
ATOM     15  N   UNL d   1       0.836   0.295  -2.622  0.00  0.00    -0.335 N 
ATOM     16  S   UNL d   1      -1.212   0.609  -1.110  0.00  0.00    -0.092 SA
ATOM     17  C   UNL d   1       2.144  -0.026  -2.698  0.00  0.00     0.123 A 
ATOM     18  C   UNL d   1      -0.151   0.680  -3.605  0.00  0.00     0.141 C 
ATOM     19  C   UNL d   1      -1.517   0.541  -2.926  0.00  0.00     0.102 C 
ENDBRANCH   8  11
ENDBRANCH   2   5
BRANCH   1  20
ATOM     20  C   UNL d   1       8.134  -1.206   2.438  0.00  0.00     0.083 A 
ATOM     21  C   UNL d   1       8.624  -1.456   3.723  0.00  0.00     0.163 A 
ATOM     22  N   UNL d   1       8.489  -0.568   4.753  0.00  0.00    -0.346 N 
ATOM     23  C   UNL d   1       7.803   0.565   4.533  0.00  0.00     0.090 A 
ATOM     24  HN  UNL d   1       8.899  -0.761   5.667  1.00  0.00     0.167 HD
ATOM     25  C   UNL d   1       7.284   0.904   3.304  0.00  0.00     0.018 A 
ATOM     26  C   UNL d   1       7.494   0.026   2.242  0.00  0.00     0.023 A 
BRANCH  21  27
ATOM     27  O   UNL d   1       9.287  -2.649   3.998  0.00  0.00    -0.293 OA
BRANCH  27  28
ATOM     28  C   UNL d   1       9.276  -3.086   5.306  0.00  0.00     0.077 A 
ATOM     29  C   UNL d   1       8.113  -3.075   6.085  0.00  0.00     0.037 A 
ATOM     30  C   UNL d   1       8.155  -3.472   7.419  0.00  0.00     0.003 A 
ATOM     31  C   UNL d   1       9.349  -3.933   7.968  0.00  0.00     0.000 A 
ATOM     32  C   UNL d   1      10.498  -4.006   7.178  0.00  0.00     0.003 A 
ATOM     33  C   UNL d   1      10.463  -3.586   5.844  0.00  0.00     0.037 A 
ENDBRANCH  27  28
ENDBRANCH  21  27
ENDBRANCH   1  20
TORSDOF 5
