REMARK  6 active torsions:
REMARK  status: ('A' for Active; 'I' for Inactive)
REMARK    1  A    between atoms: C_4  and  S_1 
REMARK    2  A    between atoms: N_6  and  S_1 
REMARK    3  A    between atoms: S_2  and  C_11 
REMARK    4  A    between atoms: N_3  and  S_2 
REMARK    5  A    between atoms: C_5  and  N_3 
REMARK    6  A    between atoms: C_25  and  N_6 
ROOT
ATOM      1  C   UNL d   1       1.478  -4.930   2.067  0.00  0.00     0.075 A 
ATOM      2  C   UNL d   1       2.475  -4.055   1.629  0.00  0.00     0.026 A 
ATOM      3  C   UNL d   1       0.156  -4.488   2.199  0.00  0.00     0.026 A 
ATOM      4  C   UNL d   1       0.834  -2.292   1.441  0.00  0.00     0.022 A 
ATOM      5  C   UNL d   1      -0.164  -3.160   1.894  0.00  0.00     0.026 A 
ATOM      6  C   UNL d   1       2.153  -2.730   1.330  0.00  0.00     0.026 A 
ENDROOT
BRANCH   1   7
ATOM      7  S   UNL d   1       1.871  -6.656   2.274  0.00  0.00     0.248 S 
ATOM      8  O   UNL d   1       0.628  -7.386   2.115  0.00  0.00    -0.205 OA
ATOM      9  O   UNL d   1       3.005  -6.961   1.426  0.00  0.00    -0.205 OA
BRANCH   7  10
ATOM     10  N   UNL d   1       2.276  -6.800   3.887  0.00  0.00    -0.151 NA
ATOM     11  H   UNL d   1       1.980  -7.708   4.231  0.00  0.00     0.149 HD
BRANCH  10  12
ATOM     12  C   UNL d   1       3.619  -6.570   4.167  0.00  0.00     0.171 A 
ATOM     13  N   UNL d   1       4.012  -5.304   4.311  0.00  0.00    -0.336 N 
ATOM     14  C   UNL d   1       5.305  -5.134   4.655  0.00  0.00     0.009 A 
ATOM     15  HN  UNL d   1       3.377  -4.517   4.172  1.00  0.00     0.168 HD
ATOM     16  C   UNL d   1       5.774  -3.736   4.919  0.00  0.00     0.068 C 
ATOM     17  C   UNL d   1       6.182  -6.197   4.789  0.00  0.00     0.049 A 
ATOM     18  C   UNL d   1       5.664  -7.463   4.586  0.00  0.00     0.009 A 
ATOM     19  N   UNL d   1       4.364  -7.670   4.301  0.00  0.00    -0.336 N 
ATOM     20  C   UNL d   1       6.554  -8.666   4.686  0.00  0.00     0.068 C 
ATOM     21  HN  UNL d   1       3.973  -8.606   4.195  1.00  0.00     0.168 HD
ENDBRANCH  10  12
ENDBRANCH   7  10
ENDBRANCH   1   7
BRANCH   4  22
ATOM     22  N   UNL d   1       0.532  -0.952   1.059  0.00  0.00    -0.181 NA
ATOM     23  H   UNL d   1      -0.280  -0.862   0.449  0.00  0.00     0.146 HD
BRANCH  22  24
ATOM     24  S   UNL d   1       0.430   0.204   2.288  0.00  0.00     0.246 S 
ATOM     25  O   UNL d   1       0.074   1.453   1.653  0.00  0.00    -0.206 OA
ATOM     26  O   UNL d   1      -0.337  -0.326   3.395  0.00  0.00    -0.206 OA
BRANCH  24  27
ATOM     27  C   UNL d   1       2.022   0.473   2.916  0.00  0.00     0.081 A 
ATOM     28  C   UNL d   1       2.959   1.385   2.339  0.00  0.00     0.032 A 
ATOM     29  C   UNL d   1       4.162   1.377   3.011  0.00  0.00     0.051 A 
ATOM     30  S   UNL d   1       4.159   0.277   4.323  0.00  0.00    -0.112 SA
ATOM     31  C   UNL d   1       2.544  -0.193   4.004  0.00  0.00     0.074 A 
ENDBRANCH  24  27
ENDBRANCH  22  24
ENDBRANCH   4  22
TORSDOF 6
