REMARK  4 active torsions:
REMARK  status: ('A' for Active; 'I' for Inactive)
REMARK    1  A    between atoms: C_3  and  C_1 
REMARK    2  A    between atoms: C_6  and  C_3 
REMARK    3  A    between atoms: C_8  and  C_7 
REMARK    4  A    between atoms: N_12  and  C_10 
ROOT
ATOM      1  C   UNL d   1      -0.241   2.537  -0.021  0.00  0.00     0.189 C 
ATOM      2  O   UNL d   1      -0.162   1.306  -0.007  0.00  0.00    -0.287 OA
ENDROOT
BRANCH   1   3
ATOM      3  C   UNL d   1       0.967   3.364  -0.030  0.00  0.00     0.054 A 
ATOM      4  S   UNL d   1       0.959   5.077  -0.059  0.00  0.00    -0.098 SA
ATOM      5  C   UNL d   1       2.667   5.168  -0.052  0.00  0.00     0.050 A 
ATOM      6  C   UNL d   1       3.246   3.920  -0.029  0.00  0.00     0.009 A 
ATOM      7  C   UNL d   1       2.268   2.886  -0.017  0.00  0.00     0.023 A 
ENDBRANCH   1   3
BRANCH   1   8
ATOM      8  C   UNL d   1      -1.606   3.163  -0.028  0.00  0.00     0.056 C 
ATOM      9  C   UNL d   1      -2.705   2.389  -0.016  0.00  0.00     0.005 C 
BRANCH   9  10
ATOM     10  C   UNL d   1      -4.056   2.913  -0.022  0.00  0.00     0.017 C 
ATOM     11  C   UNL d   1      -5.145   2.130  -0.010  0.00  0.00     0.084 C 
BRANCH  11  12
ATOM     12  N   UNL d   1      -6.492   2.462  -0.013  0.00  0.00    -0.398 N 
ATOM     13  C   UNL d   1      -7.011   3.828  -0.033  0.00  0.00     0.148 C 
ATOM     14  C   UNL d   1      -7.537   1.436   0.003  0.00  0.00     0.148 C 
ENDBRANCH  11  12
ENDBRANCH   9  10
ENDBRANCH   1   8
TORSDOF 4
