REMARK  3 active torsions:
REMARK  status: ('A' for Active; 'I' for Inactive)
REMARK    1  A    between atoms: C_8  and  C_6 
REMARK    2  A    between atoms: N_7  and  C_9 
REMARK    3  A    between atoms: C_14  and  C_8 
ROOT
ATOM      1  N   UNL d   1       1.163   0.501  -0.078  0.00  0.00    -0.273 N 
ATOM      2  N   UNL d   1      -1.193   0.435  -0.004  0.00  0.00    -0.273 N 
ATOM      3  C   UNL d   1      -0.036   1.193  -0.113  0.00  0.00     0.333 C 
ATOM      4  C   UNL d   1      -1.242  -0.945   0.019  0.00  0.00     0.248 C 
ATOM      5  C   UNL d   1       1.282  -0.859   0.116  0.00  0.00     0.248 C 
ATOM      6  C   UNL d   1       0.050  -1.685  -0.009  0.00  0.00     0.245 C 
ATOM      7  O   UNL d   1      -0.073   2.421  -0.202  0.00  0.00    -0.246 OA
ATOM      8  O   UNL d   1       2.355  -1.407   0.383  0.00  0.00    -0.271 OA
ATOM      9  O   UNL d   1      -2.301  -1.576   0.082  0.00  0.00    -0.271 OA
ATOM     10  C   UNL d   1      -2.470   1.131   0.045  0.00  0.00     0.164 C 
ATOM     11  C   UNL d   1       2.405   1.257  -0.113  0.00  0.00     0.164 C 
ENDROOT
BRANCH   6  12
ATOM     12  C   UNL d   1       0.149  -2.563  -1.240  0.00  0.00     0.181 C 
ATOM     13  O   UNL d   1       0.186  -2.073  -2.370  0.00  0.00    -0.291 OA
BRANCH  12  14
ATOM     14  C   UNL d   1       0.278  -4.041  -1.081  0.00  0.00     0.011 A 
ATOM     15  C   UNL d   1      -0.273  -4.718   0.016  0.00  0.00     0.017 A 
ATOM     16  C   UNL d   1      -0.100  -6.099   0.153  0.00  0.00     0.037 A 
ATOM     17  C   UNL d   1       0.607  -6.812  -0.825  0.00  0.00     0.102 A 
ATOM     18  C   UNL d   1       1.138  -6.152  -1.940  0.00  0.00     0.037 A 
ATOM     19  C   UNL d   1       0.969  -4.768  -2.065  0.00  0.00     0.017 A 
BRANCH  17  20
ATOM     20  N   UNL d   1       0.781  -8.263  -0.678  0.00  0.00    -0.116 N 
ATOM     21  O   UNL d   1       1.397  -8.863  -1.571  0.00  0.00    -0.532 OA
ATOM     22  O   UNL d   1       0.303  -8.800   0.331  0.00  0.00    -0.532 OA
ENDBRANCH  17  20
ENDBRANCH  12  14
ENDBRANCH   6  12
TORSDOF 3
