REMARK  2 active torsions:
REMARK  status: ('A' for Active; 'I' for Inactive)
REMARK    1  A    between atoms: C_4  and  C_3 
REMARK    2  A    between atoms: C_8  and  C_4 
ROOT
ATOM      1  N   UNL d   1      -1.171   1.343   0.021  0.00  0.00    -0.352 N 
ATOM      2  HN  UNL d   1      -1.176   2.363   0.035  1.00  0.00     0.166 HD
ATOM      3  C   UNL d   1      -2.331   0.639   0.026  0.00  0.00     0.084 A 
ATOM      4  C   UNL d   1      -0.018   0.659  -0.004  0.00  0.00     0.043 A 
ATOM      5  C   UNL d   1      -2.392  -0.744  -0.018  0.00  0.00     0.034 A 
ATOM      6  C   UNL d   1       0.025  -0.751  -0.018  0.00  0.00    -0.009 A 
ATOM      7  C   UNL d   1      -1.193  -1.448  -0.030  0.00  0.00     0.016 A 
ATOM      8  C   UNL d   1       1.181   1.358  -0.002  0.00  0.00     0.030 A 
ATOM      9  C   UNL d   1       1.263  -1.417  -0.017  0.00  0.00     0.013 A 
ATOM     10  C   UNL d   1       2.413   0.699  -0.004  0.00  0.00     0.002 A 
ATOM     11  C   UNL d   1       2.453  -0.691  -0.008  0.00  0.00     0.001 A 
ENDROOT
BRANCH   3  12
ATOM     12  C   UNL d   1      -3.592   1.428   0.106  0.00  0.00     0.208 C 
ATOM     13  O   UNL d   1      -4.630   0.979  -0.375  0.00  0.00    -0.285 OA
BRANCH  12  14
ATOM     14  C   UNL d   1      -3.606   2.749   0.792  0.00  0.00     0.016 A 
ATOM     15  C   UNL d   1      -2.783   3.009   1.895  0.00  0.00     0.015 A 
ATOM     16  C   UNL d   1      -2.825   4.254   2.525  0.00  0.00     0.001 A 
ATOM     17  C   UNL d   1      -3.699   5.237   2.065  0.00  0.00     0.000 A 
ATOM     18  C   UNL d   1      -4.539   4.975   0.983  0.00  0.00     0.001 A 
ATOM     19  C   UNL d   1      -4.500   3.731   0.349  0.00  0.00     0.015 A 
ENDBRANCH  12  14
ENDBRANCH   3  12
TORSDOF 2
