REMARK  7 active torsions:
REMARK  status: ('A' for Active; 'I' for Inactive)
REMARK    1  A    between atoms: C_2  and  C_1 
REMARK    2  A    between atoms: O_4  and  C_2 
REMARK    3  A    between atoms: O_13  and  C_3 
REMARK    4  A    between atoms: C_9  and  O_4 
REMARK    5  A    between atoms: C_5  and  C_9 
REMARK    6  A    between atoms: C_6  and  C_5 
REMARK    7  A    between atoms: O_19  and  C_7 
ROOT
ATOM      1  C   UNL d   1      -0.861  -2.680   0.023  0.00  0.00     0.296 C 
ATOM      2  O   UNL d   1      -1.054  -1.471   0.100  0.00  0.00    -0.259 OA
ENDROOT
BRANCH   1   3
ATOM      3  C   UNL d   1       0.514  -3.243  -0.051  0.00  0.00     0.075 A 
ATOM      4  C   UNL d   1       1.610  -2.370   0.004  0.00  0.00     0.115 A 
ATOM      5  C   UNL d   1       2.912  -2.867  -0.090  0.00  0.00     0.099 A 
ATOM      6  C   UNL d   1       3.151  -4.224  -0.244  0.00  0.00     0.039 A 
ATOM      7  C   UNL d   1       2.070  -5.103  -0.304  0.00  0.00     0.004 A 
ATOM      8  C   UNL d   1       0.756  -4.618  -0.208  0.00  0.00     0.021 A 
BRANCH   4   9
ATOM      9  O   UNL d   1       1.502  -1.006   0.140  0.00  0.00    -0.357 OA
ATOM     10  H   UNL d   1       0.546  -0.780   0.191  0.00  0.00     0.217 HD
ENDBRANCH   4   9
BRANCH   5  11
ATOM     11  O   UNL d   1       3.972  -2.008  -0.035  0.00  0.00    -0.358 OA
ATOM     12  H   UNL d   1       3.566  -1.124   0.081  0.00  0.00     0.217 HD
ENDBRANCH   5  11
ENDBRANCH   1   3
BRANCH   1  13
ATOM     13  O   UNL d   1      -1.829  -3.623  -0.066  0.00  0.00    -0.310 OA
BRANCH  13  14
ATOM     14  C   UNL d   1      -3.163  -3.095  -0.093  0.00  0.00     0.263 C 
BRANCH  14  15
ATOM     15  C   UNL d   1      -3.748  -2.786   1.286  0.00  0.00     0.183 C 
ATOM     16  O   UNL d   1      -3.156  -3.056   2.332  0.00  0.00    -0.290 OA
BRANCH  15  17
ATOM     17  C   UNL d   1      -5.126  -2.205   1.363  0.00  0.00     0.012 A 
ATOM     18  C   UNL d   1      -5.882  -2.434   2.525  0.00  0.00     0.017 A 
ATOM     19  C   UNL d   1      -7.178  -1.921   2.646  0.00  0.00     0.025 A 
ATOM     20  C   UNL d   1      -7.721  -1.165   1.610  0.00  0.00     0.034 A 
ATOM     21  C   UNL d   1      -6.977  -0.921   0.456  0.00  0.00     0.025 A 
ATOM     22 CL   UNL d   1      -9.310  -0.524   1.757  0.00  0.00    -0.084 Cl
ATOM     23  C   UNL d   1      -5.682  -1.442   0.329  0.00  0.00     0.017 A 
ENDBRANCH  15  17
ENDBRANCH  14  15
ENDBRANCH  13  14
ENDBRANCH   1  13
TORSDOF 7
