REMARK  3 active torsions:
REMARK  status: ('A' for Active; 'I' for Inactive)
REMARK    1  A    between atoms: N_2  and  C_1 
REMARK    2  A    between atoms: N_5  and  C_3 
REMARK    3  A    between atoms: C_8  and  N_5 
ROOT
ATOM      1  C   UNL d   1       1.514  -0.764   0.410  0.00  0.00     0.131 A 
ATOM      2  C   UNL d   1       2.430   0.190  -0.067  0.00  0.00     0.066 A 
ATOM      3  C   UNL d   1       0.141  -0.699   0.130  0.00  0.00     0.062 A 
ATOM      4  C   UNL d   1       1.917   1.230  -0.857  0.00  0.00     0.034 A 
ATOM      5  C   UNL d   1      -0.328   0.341  -0.662  0.00  0.00     0.036 A 
ATOM      6  C   UNL d   1       0.551   1.305  -1.154  0.00  0.00     0.026 A 
ATOM      7 CL   UNL d   1      -2.000   0.432  -1.051  0.00  0.00    -0.084 Cl
ENDROOT
BRANCH   2   8
ATOM      8  N   UNL d   1       3.816   0.090   0.174  0.00  0.00    -0.354 N 
ATOM      9  H   UNL d   1       4.225  -0.746  -0.243  0.00  0.00     0.166 HD
BRANCH   8  10
ATOM     10  C   UNL d   1       4.747   1.119   0.414  0.00  0.00     0.033 A 
ATOM     11  C   UNL d   1       6.070   0.985  -0.034  0.00  0.00     0.036 A 
ATOM     12  C   UNL d   1       7.030   1.975   0.231  0.00  0.00    -0.060 A 
ATOM     13  C   UNL d   1       8.450   1.819  -0.229  0.00  0.00     0.048 C 
ATOM     14  C   UNL d   1       6.658   3.106   0.964  0.00  0.00     0.007 A 
ATOM     15  C   UNL d   1       5.347   3.253   1.411  0.00  0.00     0.003 A 
ATOM     16  C   UNL d   1       4.398   2.268   1.133  0.00  0.00     0.029 A 
ENDBRANCH   8  10
ENDBRANCH   2   8
BRANCH   1  17
ATOM     17  N   UNL d   1       1.971  -1.851   1.256  0.00  0.00    -0.113 N 
ATOM     18  O   UNL d   1       2.877  -2.572   0.808  0.00  0.00    -0.532 OA
ATOM     19  O   UNL d   1       1.388  -2.008   2.337  0.00  0.00    -0.532 OA
ENDBRANCH   1  17
TORSDOF 3
