REMARK  3 active torsions:
REMARK  status: ('A' for Active; 'I' for Inactive)
REMARK    1  A    between atoms: C_8  and  N_1 
REMARK    2  A    between atoms: C_7  and  C_2 
REMARK    3  A    between atoms: N_3  and  C_7 
ROOT
ATOM      1  N   UNL d   1       1.115   2.181   2.035  0.00  0.00    -0.272 N 
ATOM      2  C   UNL d   1       1.691   2.424   0.825  0.00  0.00     0.123 C 
ATOM      3  C   UNL d   1       0.960   3.444   2.595  0.00  0.00     0.199 C 
ATOM      4  N   UNL d   1       1.732   3.692   0.499  0.00  0.00    -0.285 N 
ATOM      5  HN  UNL d   1       2.063   4.099  -0.376  1.00  0.00     0.188 HD
ATOM      6  N   UNL d   1       1.237   4.346   1.580  0.00  0.00    -0.274 N 
ATOM      7  S   UNL d   1       0.688   3.939   4.160  0.00  0.00    -0.039 SA
ATOM      8  H   UNL d   1       1.308   5.352   1.681  0.00  0.00     0.189 HD
ENDROOT
BRANCH   2   9
ATOM      9  C   UNL d   1       2.228   1.378  -0.142  0.00  0.00     0.208 C 
BRANCH   9  10
ATOM     10  N   UNL d   1       3.712   1.093  -0.116  0.00  0.00    -0.337 N 
ATOM     11  C   UNL d   1       4.487   1.398   1.031  0.00  0.00     0.052 C 
ATOM     12  C   UNL d   1       5.339   0.451   1.639  0.00  0.00     0.032 C 
ATOM     13  C   UNL d   1       4.509   2.690   1.576  0.00  0.00     0.031 C 
ATOM     14  C   UNL d   1       6.027   0.754   2.827  0.00  0.00     0.021 C 
ATOM     15  S   UNL d   1       5.595  -1.176   0.968  0.00  0.00    -0.086 SA
ATOM     16  C   UNL d   1       5.927   2.014   3.404  0.00  0.00     0.002 C 
ATOM     17  C   UNL d   1       5.186   2.993   2.762  0.00  0.00     0.002 C 
ATOM     18  C   UNL d   1       5.013  -0.945  -0.700  0.00  0.00     0.032 A 
ATOM     19  C   UNL d   1       4.083   0.060  -1.042  0.00  0.00     0.052 A 
ATOM     20  C   UNL d   1       5.466  -1.867  -1.660  0.00  0.00     0.021 A 
ATOM     21  C   UNL d   1       3.602   0.062  -2.367  0.00  0.00     0.031 A 
ATOM     22  C   UNL d   1       4.038  -0.874  -3.312  0.00  0.00     0.002 A 
ATOM     23  C   UNL d   1       4.984  -1.827  -2.964  0.00  0.00     0.002 A 
ENDBRANCH   9  10
ENDBRANCH   2   9
BRANCH   1  24
ATOM     24  C   UNL d   1       0.747   0.947   2.634  0.00  0.00     0.065 A 
ATOM     25  C   UNL d   1      -0.508   0.749   3.250  0.00  0.00     0.062 A 
ATOM     26  C   UNL d   1      -0.804  -0.441   3.934  0.00  0.00     0.050 A 
ATOM     27 CL   UNL d   1      -1.844   1.836   3.037  0.00  0.00    -0.082 Cl
ATOM     28  C   UNL d   1       0.124  -1.473   3.955  0.00  0.00     0.035 A 
ATOM     29  C   UNL d   1       1.332  -1.334   3.287  0.00  0.00     0.026 A 
ATOM     30 CL   UNL d   1      -0.239  -2.937   4.775  0.00  0.00    -0.084 Cl
ATOM     31  C   UNL d   1       1.640  -0.132   2.638  0.00  0.00     0.033 A 
ENDBRANCH   1  24
TORSDOF 3
