REMARK  2 active torsions:
REMARK  status: ('A' for Active; 'I' for Inactive)
REMARK    1  A    between atoms: C_8  and  C_3 
REMARK    2  A    between atoms: O_9  and  C_4 
ROOT
ATOM      1  N   UNL d   1       0.017  -0.573  -0.867  0.00  0.00    -0.305 N 
ATOM      2  HN  UNL d   1      -0.013  -1.208  -1.665  1.00  0.00     0.171 HD
ATOM      3  C   UNL d   1       1.018  -0.420   0.078  0.00  0.00     0.133 A 
ATOM      4  C   UNL d   1      -0.878   0.294  -0.483  0.00  0.00     0.239 A 
ATOM      5  N   UNL d   1       0.742   0.501   1.021  0.00  0.00    -0.280 N 
ATOM      6  HN  UNL d   1       1.304   0.787   1.823  1.00  0.00     0.189 HD
ATOM      7  N   UNL d   1      -0.465   0.946   0.633  0.00  0.00    -0.259 N 
ATOM      8  C   UNL d   1      -1.118   2.004   1.351  0.00  0.00     0.181 C 
ENDROOT
BRANCH   3   9
ATOM      9  C   UNL d   1       2.274  -1.163   0.021  0.00  0.00     0.009 A 
ATOM     10  C   UNL d   1       2.526  -2.069  -1.020  0.00  0.00     0.015 A 
ATOM     11  C   UNL d   1       3.749  -2.741  -1.096  0.00  0.00     0.001 A 
ATOM     12  C   UNL d   1       4.731  -2.518  -0.132  0.00  0.00     0.000 A 
ATOM     13  C   UNL d   1       4.489  -1.632   0.915  0.00  0.00     0.001 A 
ATOM     14  C   UNL d   1       3.267  -0.960   0.992  0.00  0.00     0.015 A 
ENDBRANCH   3   9
BRANCH   4  15
ATOM     15  O   UNL d   1      -2.011   0.502  -1.125  0.00  0.00    -0.331 OA
ATOM     16  H   UNL d   1      -1.941  -0.128  -1.865  0.00  0.00     0.221 HD
ENDBRANCH   4  15
TORSDOF 2
