REMARK  6 active torsions:
REMARK  status: ('A' for Active; 'I' for Inactive)
REMARK    1  A    between atoms: C_6  and  C_1 
REMARK    2  A    between atoms: C_7  and  C_3 
REMARK       I    between atoms: N_8  and  C_6 
REMARK    3  A    between atoms: C_15  and  N_8 
REMARK    4  A    between atoms: O_17  and  C_9 
REMARK    5  A    between atoms: O_19  and  C_10 
REMARK    6  A    between atoms: C_14  and  C_15 
ROOT
ATOM      1  C   UNL d   1      -2.764  -1.395   0.071  0.00  0.00     0.254 C 
ATOM      2  N   UNL d   1      -3.989  -0.774   0.154  0.00  0.00    -0.353 N 
ATOM      3  O   UNL d   1      -2.687  -2.620  -0.031  0.00  0.00    -0.268 OA
ATOM      4  H   UNL d   1      -4.055   0.221   0.252  0.00  0.00     0.163 HD
ENDROOT
BRANCH   2   5
ATOM      5  C   UNL d   1      -5.214  -1.524  -0.068  0.00  0.00     0.161 C 
BRANCH   5   6
ATOM      6  C   UNL d   1      -5.938  -2.031   1.162  0.00  0.00    -0.038 A 
ATOM      7  C   UNL d   1      -7.093  -2.825   0.975  0.00  0.00     0.048 A 
ATOM      8  C   UNL d   1      -7.845  -3.321   2.055  0.00  0.00     0.102 A 
ATOM      9  C   UNL d   1      -7.417  -3.034   3.361  0.00  0.00     0.101 A 
ATOM     10  C   UNL d   1      -6.279  -2.235   3.551  0.00  0.00     0.040 A 
ATOM     11  C   UNL d   1      -5.545  -1.742   2.469  0.00  0.00     0.012 A 
BRANCH   8  12
ATOM     12  O   UNL d   1      -9.001  -4.041   1.910  0.00  0.00    -0.353 OA
ATOM     13  C   UNL d   1      -9.462  -4.333   0.599  0.00  0.00     0.210 C 
ENDBRANCH   8  12
BRANCH   9  14
ATOM     14  O   UNL d   1      -8.022  -3.404   4.534  0.00  0.00    -0.353 OA
ATOM     15  C   UNL d   1      -8.712  -4.649   4.541  0.00  0.00     0.210 C 
ENDBRANCH   9  14
ENDBRANCH   5   6
ENDBRANCH   2   5
BRANCH   1  16
ATOM     16  C   UNL d   1      -1.544  -0.589   0.082  0.00  0.00     0.063 A 
ATOM     17  C   UNL d   1      -0.236  -1.190   0.076  0.00  0.00     0.053 A 
ATOM     18  C   UNL d   1       0.701  -0.184   0.051  0.00  0.00     0.062 A 
ATOM     19  O   UNL d   1       0.054   1.011   0.047  0.00  0.00    -0.318 OA
ATOM     20  C   UNL d   1      -1.296   0.780   0.059  0.00  0.00     0.065 A 
ATOM     21  C   UNL d   1      -2.071   2.038   0.021  0.00  0.00     0.077 C 
BRANCH  18  22
ATOM     22  C   UNL d   1       2.207  -0.146   0.024  0.00  0.00    -0.002 C 
ATOM     23  C   UNL d   1       2.796  -1.570   0.034  0.00  0.00     0.021 C 
ATOM     24  C   UNL d   1       2.691   0.570  -1.249  0.00  0.00     0.021 C 
ATOM     25  C   UNL d   1       2.728   0.605   1.262  0.00  0.00     0.021 C 
ENDBRANCH  18  22
ENDBRANCH   1  16
TORSDOF 6
