REMARK  3 active torsions:
REMARK  status: ('A' for Active; 'I' for Inactive)
REMARK    1  A    between atoms: S_4  and  C_1 
REMARK    2  A    between atoms: N_3  and  C_2 
REMARK       I    between atoms: C_5  and  N_3 
REMARK    3  A    between atoms: C_10  and  S_4 
ROOT
ATOM      1  C   UNL d   1       0.144   1.248  -0.317  0.00  0.00     0.049 A 
ATOM      2  C   UNL d   1       1.546   1.373  -0.127  0.00  0.00     0.053 A 
ATOM      3  C   UNL d   1      -0.392  -0.059  -0.302  0.00  0.00     0.053 A 
ATOM      4 CL   UNL d   1      -2.029  -0.435  -0.731  0.00  0.00    -0.083 Cl
ATOM      5  C   UNL d   1       2.351   0.243   0.092  0.00  0.00     0.031 A 
ATOM      6  C   UNL d   1       1.787  -1.022   0.170  0.00  0.00     0.004 A 
ATOM      7  C   UNL d   1       0.419  -1.172  -0.030  0.00  0.00     0.025 A 
ENDROOT
BRANCH   2   8
ATOM      8  N   UNL d   1       2.238   2.606  -0.229  0.00  0.00    -0.326 N 
ATOM      9  C   UNL d   1       2.165   3.534   0.797  0.00  0.00     0.218 C 
ATOM     10  O   UNL d   1       1.468   3.433   1.804  0.00  0.00    -0.274 OA
ATOM     11  C   UNL d   1       3.099   4.703   0.608  0.00  0.00     0.117 C 
ATOM     12  H   UNL d   1       3.164   2.543  -0.633  0.00  0.00     0.169 HD
ENDBRANCH   2   8
BRANCH   1  13
ATOM     13  S   UNL d   1      -0.809   2.700  -0.823  0.00  0.00    -0.122 SA
BRANCH  13  14
ATOM     14  C   UNL d   1      -2.176   2.772   0.411  0.00  0.00     0.044 C 
ATOM     15  C   UNL d   1      -1.672   3.085   1.813  0.00  0.00     0.021 C 
ATOM     16  C   UNL d   1      -3.162   3.847  -0.053  0.00  0.00     0.021 C 
ENDBRANCH  13  14
ENDBRANCH   1  13
TORSDOF 3
