REMARK  1 active torsions:
REMARK  status: ('A' for Active; 'I' for Inactive)
REMARK    1  A    between atoms: C_8  and  C_1 
ROOT
ATOM      1  C   UNL d   1      -0.388   1.117   0.184  0.00  0.00     0.197 A 
ATOM      2  N   UNL d   1      -1.407   2.004  -1.664  0.00  0.00    -0.245 N 
ATOM      3  HN  UNL d   1      -2.104   2.248  -2.368  1.00  0.00     0.208 HD
ATOM      4  C   UNL d   1       0.598   1.905  -0.618  0.00  0.00     0.122 A 
ATOM      5  N   UNL d   1      -1.614   1.280  -0.656  0.00  0.00    -0.306 N 
ATOM      6  HN  UNL d   1      -2.514   0.853  -0.437  1.00  0.00     0.183 HD
ATOM      7  N   UNL d   1      -0.124   2.405  -1.668  0.00  0.00    -0.278 N 
ATOM      8  S   UNL d   1       2.223   2.100  -0.385  0.00  0.00    -0.061 SA
ATOM      9  H   UNL d   1       0.235   2.970  -2.426  0.00  0.00     0.189 HD
ENDROOT
BRANCH   1  10
ATOM     10  C   UNL d   1      -0.601   1.618   1.604  0.00  0.00    -0.021 A 
ATOM     11  C   UNL d   1      -0.304   0.844   2.747  0.00  0.00    -0.053 A 
ATOM     12  C   UNL d   1      -0.603   1.361   4.022  0.00  0.00     0.014 A 
ATOM     13  C   UNL d   1       0.263  -0.550   2.695  0.00  0.00     0.049 C 
ATOM     14  C   UNL d   1      -1.153   2.639   4.191  0.00  0.00    -0.061 A 
ATOM     15  C   UNL d   1      -1.400   3.417   3.063  0.00  0.00     0.007 A 
ATOM     16  C   UNL d   1      -1.481   3.140   5.565  0.00  0.00     0.048 C 
ATOM     17  C   UNL d   1      -1.131   2.910   1.791  0.00  0.00     0.011 A 
ENDBRANCH   1  10
TORSDOF 1
