REMARK  3 active torsions:
REMARK  status: ('A' for Active; 'I' for Inactive)
REMARK    1  A    between atoms: C_3  and  N_1 
REMARK    2  A    between atoms: N_4  and  C_5 
REMARK       I    between atoms: C_6  and  N_4 
REMARK    3  A    between atoms: C_15  and  C_7 
ROOT
ATOM      1  C   UNL d   1       0.511   1.008  -0.996  0.00  0.00     0.059 A 
ATOM      2  C   UNL d   1      -0.492   1.524  -0.150  0.00  0.00     0.061 A 
ATOM      3  C   UNL d   1       0.706   1.626  -2.254  0.00  0.00     0.038 A 
ATOM      4  C   UNL d   1      -1.245   2.632  -0.591  0.00  0.00     0.032 A 
ATOM      5  C   UNL d   1      -0.075   2.694  -2.701  0.00  0.00    -0.060 A 
ATOM      6  C   UNL d   1      -1.052   3.201  -1.852  0.00  0.00     0.009 A 
ATOM      7  C   UNL d   1       0.156   3.298  -4.053  0.00  0.00     0.048 C 
ENDROOT
BRANCH   1   8
ATOM      8  N   UNL d   1       1.452   0.032  -0.607  0.00  0.00    -0.363 N 
ATOM      9  C   UNL d   1       1.632  -0.961  -1.422  0.00  0.00     0.100 C 
ATOM     10  HN  UNL d   1       1.965   0.103   0.272  1.00  0.00     0.165 HD
BRANCH   9  11
ATOM     11  C   UNL d   1       2.703  -1.953  -1.224  0.00  0.00    -0.018 A 
ATOM     12  C   UNL d   1       3.281  -2.136   0.024  0.00  0.00     0.030 A 
ATOM     13  C   UNL d   1       4.328  -3.032   0.115  0.00  0.00     0.088 A 
ATOM     14  N   UNL d   1       4.824  -3.724  -0.937  0.00  0.00    -0.375 N 
ATOM     15  C   UNL d   1       4.237  -3.519  -2.136  0.00  0.00     0.088 A 
ATOM     16  HN  UNL d   1       5.605  -4.370  -0.830  1.00  0.00     0.164 HD
ATOM     17  C   UNL d   1       3.174  -2.657  -2.332  0.00  0.00     0.030 A 
ENDBRANCH   9  11
ENDBRANCH   1   8
BRANCH   2  18
ATOM     18  N   UNL d   1      -0.818   1.087   1.157  0.00  0.00    -0.326 N 
ATOM     19  C   UNL d   1      -0.608  -0.143   1.746  0.00  0.00     0.218 C 
ATOM     20  O   UNL d   1      -0.186  -1.171   1.225  0.00  0.00    -0.274 OA
ATOM     21  C   UNL d   1      -1.038  -0.153   3.199  0.00  0.00     0.117 C 
ATOM     22  H   UNL d   1      -1.418   1.714   1.674  0.00  0.00     0.169 HD
ENDBRANCH   2  18
TORSDOF 3
