REMARK  4 active torsions:
REMARK  status: ('A' for Active; 'I' for Inactive)
REMARK       I    between atoms: C_2  and  N_1 
REMARK       I    between atoms: N_7  and  C_2 
REMARK    1  A    between atoms: C_16  and  N_7 
REMARK    2  A    between atoms: O_19  and  C_9 
REMARK    3  A    between atoms: O_22  and  C_11 
REMARK    4  A    between atoms: C_13  and  C_15 
ROOT
ATOM      1  N   UNL d   1      -2.538   0.669  -0.165  0.00  0.00    -0.325 N 
ATOM      2  C   UNL d   1      -3.435   1.024  -1.169  0.00  0.00     0.323 C 
ATOM      3  C   UNL d   1      -0.087   0.643   0.208  0.00  0.00    -0.026 A 
ATOM      4  C   UNL d   1      -1.384   1.436   0.332  0.00  0.00     0.118 C 
ATOM      5  C   UNL d   1      -0.088  -0.749   0.016  0.00  0.00    -0.045 A 
ATOM      6  C   UNL d   1       1.142   1.319   0.280  0.00  0.00     0.049 A 
ATOM      7  N   UNL d   1      -3.310   2.292  -1.690  0.00  0.00    -0.309 N 
ATOM      8  C   UNL d   1      -2.595  -0.709   0.333  0.00  0.00     0.133 C 
ATOM      9  C   UNL d   1       2.355   0.635   0.145  0.00  0.00     0.102 A 
ATOM     10  C   UNL d   1       1.133  -1.438  -0.099  0.00  0.00     0.047 A 
ATOM     11  C   UNL d   1       2.355  -0.759  -0.024  0.00  0.00     0.102 A 
ATOM     12  O   UNL d   1      -4.274   0.207  -1.558  0.00  0.00    -0.247 OA
ATOM     13  C   UNL d   1      -1.384  -1.507  -0.151  0.00  0.00     0.059 C 
ATOM     14  C   UNL d   1      -1.619   1.889   1.778  0.00  0.00     0.037 C 
ATOM     15  H   UNL d   1      -2.620   2.902  -1.293  0.00  0.00     0.170 HD
ENDROOT
BRANCH   7  16
ATOM     16  C   UNL d   1      -3.950   2.806  -2.846  0.00  0.00     0.036 A 
ATOM     17  C   UNL d   1      -4.954   2.142  -3.545  0.00  0.00     0.030 A 
ATOM     18  C   UNL d   1      -5.405   2.622  -4.781  0.00  0.00     0.010 A 
ATOM     19  C   UNL d   1      -4.858   3.776  -5.366  0.00  0.00    -0.051 A 
ATOM     20  C   UNL d   1      -3.943   4.505  -4.593  0.00  0.00     0.010 A 
ATOM     21  C   UNL d   1      -3.496   4.027  -3.350  0.00  0.00     0.030 A 
BRANCH  19  22
ATOM     22  C   UNL d   1      -5.187   4.125  -6.828  0.00  0.00    -0.024 C 
ATOM     23  C   UNL d   1      -4.440   5.372  -7.350  0.00  0.00     0.019 C 
ATOM     24  C   UNL d   1      -4.756   2.937  -7.722  0.00  0.00     0.019 C 
ATOM     25  C   UNL d   1      -6.697   4.371  -7.018  0.00  0.00     0.019 C 
ENDBRANCH  19  22
ENDBRANCH   7  16
BRANCH   9  26
ATOM     26  O   UNL d   1       3.576   1.262   0.213  0.00  0.00    -0.353 OA
ATOM     27  C   UNL d   1       3.608   2.600  -0.273  0.00  0.00     0.210 C 
ENDBRANCH   9  26
BRANCH  11  28
ATOM     28  O   UNL d   1       3.585  -1.359  -0.131  0.00  0.00    -0.353 OA
ATOM     29  C   UNL d   1       3.616  -2.769  -0.305  0.00  0.00     0.210 C 
ENDBRANCH  11  28
TORSDOF 4
