REMARK  5 active torsions:
REMARK  status: ('A' for Active; 'I' for Inactive)
REMARK    1  A    between atoms: C_2  and  S_1 
REMARK    2  A    between atoms: N_7  and  S_1 
REMARK       I    between atoms: C_3  and  N_4 
REMARK    3  A    between atoms: C_10  and  C_3 
REMARK    4  A    between atoms: N_4  and  C_5 
REMARK    5  A    between atoms: C_11  and  C_12 
ROOT
ATOM      1  C   UNL d   1      -2.935  -4.612   2.308  0.00  0.00     0.256 C 
ATOM      2  N   UNL d   1      -2.437  -3.491   1.639  0.00  0.00    -0.322 N 
ATOM      3  O   UNL d   1      -2.337  -5.654   2.525  0.00  0.00    -0.267 OA
ATOM      4  H   UNL d   1      -3.071  -2.724   1.475  0.00  0.00     0.169 HD
ENDROOT
BRANCH   2   5
ATOM      5  C   UNL d   1      -1.128  -3.365   1.091  0.00  0.00     0.042 C 
ATOM      6  C   UNL d   1      -0.099  -4.233   1.480  0.00  0.00     0.055 C 
ATOM      7  C   UNL d   1       1.159  -4.194   0.872  0.00  0.00     0.081 C 
ATOM      8  C   UNL d   1       1.414  -3.275  -0.144  0.00  0.00     0.026 C 
ATOM      9  C   UNL d   1       0.424  -2.357  -0.489  0.00  0.00     0.010 C 
ATOM     10  C   UNL d   1      -0.830  -2.347   0.158  0.00  0.00    -0.035 C 
ATOM     11  C   UNL d   1      -1.767  -1.232  -0.219  0.00  0.00     0.050 C 
BRANCH   7  12
ATOM     12  S   UNL d   1       2.503  -5.177   1.515  0.00  0.00     0.260 S 
ATOM     13  O   UNL d   1       2.580  -4.883   2.930  0.00  0.00    -0.200 OA
ATOM     14  O   UNL d   1       3.643  -4.953   0.651  0.00  0.00    -0.200 OA
BRANCH  12  15
ATOM     15  N   UNL d   1       2.036  -6.792   1.325  0.00  0.00    -0.315 N 
ATOM     16  C   UNL d   1       0.964  -7.329   2.176  0.00  0.00     0.162 C 
ATOM     17  C   UNL d   1       2.093  -7.372  -0.019  0.00  0.00     0.162 C 
ENDBRANCH  12  15
ENDBRANCH   7  12
ENDBRANCH   2   5
BRANCH   1  18
ATOM     18  C   UNL d   1      -4.344  -4.507   2.803  0.00  0.00     0.032 A 
ATOM     19  C   UNL d   1      -5.337  -3.796   2.127  0.00  0.00     0.017 A 
ATOM     20  C   UNL d   1      -6.627  -3.677   2.675  0.00  0.00     0.009 A 
ATOM     21  C   UNL d   1      -6.963  -4.283   3.901  0.00  0.00    -0.051 A 
ATOM     22  C   UNL d   1      -5.964  -5.053   4.524  0.00  0.00     0.009 A 
ATOM     23  C   UNL d   1      -4.676  -5.169   3.986  0.00  0.00     0.017 A 
BRANCH  21  24
ATOM     24  C   UNL d   1      -8.362  -4.098   4.528  0.00  0.00    -0.024 C 
ATOM     25  C   UNL d   1      -8.508  -4.873   5.859  0.00  0.00     0.019 C 
ATOM     26  C   UNL d   1      -8.627  -2.605   4.825  0.00  0.00     0.019 C 
ATOM     27  C   UNL d   1      -9.477  -4.596   3.584  0.00  0.00     0.019 C 
ENDBRANCH  21  24
ENDBRANCH   1  18
TORSDOF 5
