REMARK  3 active torsions:
REMARK  status: ('A' for Active; 'I' for Inactive)
REMARK    1  A    between atoms: C_6  and  S_1 
REMARK    2  A    between atoms: C_11  and  S_1 
REMARK    3  A    between atoms: C_5  and  C_6 
ROOT
ATOM      1  N   UNL d   1       0.090  -0.643  -3.267  0.00  0.00    -0.321 N 
ATOM      2  HN  UNL d   1      -0.785  -0.128  -3.166  1.00  0.00     0.169 HD
ATOM      3  C   UNL d   1       0.801  -0.850  -4.361  0.00  0.00     0.189 A 
ATOM      4  C   UNL d   1       0.816  -1.290  -2.301  0.00  0.00     0.118 A 
ATOM      5  N   UNL d   1       1.908  -1.916  -2.750  0.00  0.00    -0.246 N 
ATOM      6  HN  UNL d   1       2.576  -2.478  -2.223  1.00  0.00     0.196 HD
ATOM      7  O   UNL d   1       1.914  -1.615  -4.113  0.00  0.00    -0.217 OA
ATOM      8  C   UNL d   1       0.435  -0.334  -5.648  0.00  0.00     0.058 A 
ATOM      9  S   UNL d   1       1.382  -0.621  -7.045  0.00  0.00    -0.098 SA
ATOM     10  C   UNL d   1      -0.677   0.432  -5.943  0.00  0.00     0.024 A 
ATOM     11  C   UNL d   1       0.299   0.254  -8.041  0.00  0.00     0.050 A 
ATOM     12  C   UNL d   1      -0.759   0.766  -7.325  0.00  0.00     0.009 A 
ENDROOT
BRANCH   4  13
ATOM     13  C   UNL d   1       0.374  -1.345  -0.900  0.00  0.00     0.224 C 
BRANCH  13  14
ATOM     14  S   UNL d   1       0.981   0.021   0.055  0.00  0.00     0.182 S 
ATOM     15  O   UNL d   1       2.431   0.051   0.000  0.00  0.00    -0.222 OA
ATOM     16  O   UNL d   1       0.313  -0.021   1.346  0.00  0.00    -0.222 OA
BRANCH  14  17
ATOM     17  C   UNL d   1       0.392   1.489  -0.769  0.00  0.00     0.059 A 
ATOM     18  C   UNL d   1      -0.832   2.052  -0.389  0.00  0.00     0.026 A 
ATOM     19  C   UNL d   1      -1.265   3.229  -1.002  0.00  0.00     0.044 A 
ATOM     20  C   UNL d   1      -0.472   3.830  -1.976  0.00  0.00     0.116 A 
ATOM     21  C   UNL d   1       0.753   3.282  -2.346  0.00  0.00     0.044 A 
ATOM     22  F   UNL d   1      -0.890   4.961  -2.558  0.00  0.00    -0.206 F 
ATOM     23  C   UNL d   1       1.197   2.110  -1.733  0.00  0.00     0.026 A 
ENDBRANCH  14  17
ENDBRANCH  13  14
ENDBRANCH   4  13
TORSDOF 3
