REMARK  2 active torsions:
REMARK  status: ('A' for Active; 'I' for Inactive)
REMARK    1  A    between atoms: N_11  and  C_3 
REMARK    2  A    between atoms: S_12  and  C_4 
ROOT
ATOM      1  N   UNL d   1       1.484   1.025   0.039  0.00  0.00    -0.326 N 
ATOM      2  HN  UNL d   1       1.904   1.954   0.057  1.00  0.00     0.169 HD
ATOM      3  C   UNL d   1       0.150   0.865   0.077  0.00  0.00     0.102 A 
ATOM      4  C   UNL d   1       2.245  -0.082  -0.022  0.00  0.00     0.144 A 
ATOM      5  C   UNL d   1      -0.443  -0.382   0.065  0.00  0.00     0.098 A 
ATOM      6  N   UNL d   1       1.761  -1.334  -0.052  0.00  0.00    -0.345 N 
ATOM      7  HN  UNL d   1       2.373  -2.148  -0.107  1.00  0.00     0.167 HD
ATOM      8  C   UNL d   1      -1.853  -0.580   0.110  0.00  0.00     0.104 C 
ATOM      9  N   UNL d   1      -2.998  -0.761   0.115  0.00  0.00    -0.191 NA
ATOM     10  C   UNL d   1       0.418  -1.454  -0.004  0.00  0.00     0.116 A 
ENDROOT
BRANCH   3  11
ATOM     11  N   UNL d   1      -0.580   2.046   0.209  0.00  0.00    -0.287 NA
ATOM     12  H   UNL d   1       0.066   2.831   0.143  0.00  0.00     0.125 HD
ATOM     13  H   UNL d   1      -1.357   2.136  -0.437  0.00  0.00     0.125 HD
ENDBRANCH   3  11
BRANCH   4  14
ATOM     14  S   UNL d   1       4.001   0.177  -0.063  0.00  0.00    -0.098 SA
ATOM     15  C   UNL d   1       4.593  -1.533  -0.095  0.00  0.00     0.099 C 
ENDBRANCH   4  14
TORSDOF 2
