REMARK  7 active torsions:
REMARK  status: ('A' for Active; 'I' for Inactive)
REMARK    1  A    between atoms: C_2  and  N_1 
REMARK       I    between atoms: C_3  and  N_1 
REMARK    2  A    between atoms: N_5  and  C_2 
REMARK    3  A    between atoms: C_7  and  C_3 
REMARK    4  A    between atoms: C_12  and  N_5 
REMARK    5  A    between atoms: C_13  and  N_5 
REMARK    6  A    between atoms: C_8  and  C_12 
REMARK    7  A    between atoms: C_9  and  C_13 
ROOT
ATOM      1  N   UNL d   1       0.584  -0.807  -1.449  0.00  0.00    -0.300 N 
ATOM      2  C   UNL d   1       1.841  -1.405  -1.496  0.00  0.00     0.257 C 
ATOM      3  O   UNL d   1       2.837  -0.982  -0.911  0.00  0.00    -0.267 OA
ATOM      4  H   UNL d   1      -0.176  -1.302  -1.890  0.00  0.00     0.171 HD
ENDROOT
BRANCH   1   5
ATOM      5  C   UNL d   1       0.228   0.525  -1.240  0.00  0.00     0.177 C 
ATOM      6  S   UNL d   1       1.263   1.836  -1.202  0.00  0.00    -0.041 SA
BRANCH   5   7
ATOM      7  N   UNL d   1      -1.160   0.644  -1.079  0.00  0.00    -0.351 N 
BRANCH   7   8
ATOM      8  C   UNL d   1      -1.796   0.021   0.085  0.00  0.00     0.152 C 
BRANCH   8   9
ATOM      9  C   UNL d   1      -2.411  -1.297  -0.280  0.00  0.00    -0.017 C 
ATOM     10  C   UNL d   1      -2.102  -2.459   0.314  0.00  0.00     0.008 C 
ENDBRANCH   8   9
ENDBRANCH   7   8
BRANCH   7  11
ATOM     11  C   UNL d   1      -1.971   1.397  -2.033  0.00  0.00     0.152 C 
BRANCH  11  12
ATOM     12  C   UNL d   1      -2.601   2.641  -1.479  0.00  0.00    -0.017 C 
ATOM     13  C   UNL d   1      -2.186   3.399  -0.456  0.00  0.00     0.008 C 
ENDBRANCH  11  12
ENDBRANCH   7  11
ENDBRANCH   5   7
ENDBRANCH   1   5
BRANCH   2  14
ATOM     14  C   UNL d   1       1.940  -2.698  -2.239  0.00  0.00     0.032 A 
ATOM     15  C   UNL d   1       3.209  -3.101  -2.680  0.00  0.00     0.017 A 
ATOM     16  C   UNL d   1       3.365  -4.282  -3.410  0.00  0.00     0.001 A 
ATOM     17  C   UNL d   1       2.256  -5.071  -3.700  0.00  0.00     0.000 A 
ATOM     18  C   UNL d   1       0.995  -4.694  -3.246  0.00  0.00     0.001 A 
ATOM     19  C   UNL d   1       0.834  -3.516  -2.510  0.00  0.00     0.017 A 
ENDBRANCH   2  14
TORSDOF 7
