REMARK  2 active torsions:
REMARK  status: ('A' for Active; 'I' for Inactive)
REMARK    1  A    between atoms: O_10  and  C_5 
REMARK    2  A    between atoms: O_9  and  C_6 
ROOT
ATOM      1  C   UNL d   1      -0.532  -1.124  -0.004  0.00  0.00     0.059 A 
ATOM      2  C   UNL d   1       0.733   1.326  -0.004  0.00  0.00     0.059 A 
ATOM      3  C   UNL d   1      -1.293   0.049  -0.004  0.00  0.00     0.042 A 
ATOM      4  C   UNL d   1       1.510   0.144  -0.004  0.00  0.00     0.042 A 
ATOM      5  C   UNL d   1      -0.664   1.295  -0.004  0.00  0.00     0.086 A 
ATOM      6  C   UNL d   1       0.876  -1.103  -0.004  0.00  0.00     0.086 A 
ATOM      7  I   UNL d   1       3.584   0.539  -0.001  0.00  0.00    -0.042 I 
ATOM      8  I   UNL d   1      -3.383  -0.147  -0.002  0.00  0.00    -0.042 I 
ENDROOT
BRANCH   5   9
ATOM      9  O   UNL d   1      -1.461   2.408  -0.003  0.00  0.00    -0.355 OA
ATOM     10  C   UNL d   1      -0.828   3.680  -0.006  0.00  0.00     0.210 C 
ENDBRANCH   5   9
BRANCH   6  11
ATOM     11  O   UNL d   1       1.355  -2.380  -0.004  0.00  0.00    -0.355 OA
ATOM     12  C   UNL d   1       2.736  -2.671  -0.007  0.00  0.00     0.210 C 
ENDBRANCH   6  11
TORSDOF 2
