REMARK  3 active torsions:
REMARK  status: ('A' for Active; 'I' for Inactive)
REMARK    1  A    between atoms: N_2  and  C_1 
REMARK    2  A    between atoms: N_12  and  C_3 
REMARK    3  A    between atoms: N_11  and  C_4 
ROOT
ATOM      1  C   UNL d   1      -0.104  -1.635   0.077  0.00  0.00     0.190 A 
ATOM      2  C   UNL d   1       1.160  -1.034   0.116  0.00  0.00     0.141 A 
ATOM      3  C   UNL d   1      -1.257  -0.856  -0.040  0.00  0.00     0.141 A 
ATOM      4  N   UNL d   1      -1.124   0.480  -0.166  0.00  0.00    -0.337 N 
ATOM      5  HN  UNL d   1      -1.942   1.081  -0.271  1.00  0.00     0.168 HD
ATOM      6  N   UNL d   1       1.249   0.304  -0.020  0.00  0.00    -0.337 N 
ATOM      7  HN  UNL d   1       2.155   0.774  -0.026  1.00  0.00     0.168 HD
ATOM      8  C   UNL d   1       0.110   0.996  -0.148  0.00  0.00     0.183 A 
ENDROOT
BRANCH   1   9
ATOM      9  N   UNL d   1      -0.225  -3.032   0.341  0.00  0.00    -0.108 N 
ATOM     10  O   UNL d   1      -0.230  -3.401   1.527  0.00  0.00    -0.532 OA
ATOM     11  O   UNL d   1      -0.326  -3.796  -0.636  0.00  0.00    -0.532 OA
ENDBRANCH   1   9
BRANCH   2  12
ATOM     12  N   UNL d   1       2.343  -1.724   0.433  0.00  0.00    -0.374 N 
ATOM     13  C   UNL d   1       3.434  -0.877   0.930  0.00  0.00     0.150 C 
ATOM     14  C   UNL d   1       2.808  -2.747  -0.507  0.00  0.00     0.150 C 
ENDBRANCH   2  12
BRANCH   3  15
ATOM     15  N   UNL d   1      -2.562  -1.341   0.062  0.00  0.00    -0.374 N 
ATOM     16  C   UNL d   1      -3.613  -0.392   0.419  0.00  0.00     0.150 C 
ATOM     17  C   UNL d   1      -2.993  -2.465  -0.767  0.00  0.00     0.150 C 
ENDBRANCH   3  15
TORSDOF 3
