REMARK  7 active torsions:
REMARK  status: ('A' for Active; 'I' for Inactive)
REMARK       I    between atoms: N_2  and  C_1 
REMARK    1  A    between atoms: C_4  and  C_1 
REMARK    2  A    between atoms: C_3  and  N_2 
REMARK    3  A    between atoms: S_5  and  C_4 
REMARK    4  A    between atoms: C_12  and  C_4 
REMARK    5  A    between atoms: C_6  and  S_5 
REMARK    6  A    between atoms: C_19  and  C_10 
REMARK    7  A    between atoms: C_18  and  C_11 
ROOT
ATOM      1  C   UNL d   1       0.262  -1.122  -0.843  0.00  0.00     0.179 C 
ENDROOT
BRANCH   1   2
ATOM      2  C   UNL d   1       1.022  -0.678   0.426  0.00  0.00     0.240 C 
ATOM      3  N   UNL d   1       0.468   0.469   0.998  0.00  0.00    -0.325 N 
ATOM      4  H   UNL d   1      -0.535   0.545   0.902  0.00  0.00     0.169 HD
ATOM      5  O   UNL d   1       2.009  -1.254   0.879  0.00  0.00    -0.272 OA
BRANCH   3   6
ATOM      6  C   UNL d   1       1.058   1.230   2.038  0.00  0.00     0.047 A 
ATOM      7  C   UNL d   1       2.401   1.680   1.983  0.00  0.00    -0.031 A 
ATOM      8  C   UNL d   1       2.873   2.528   3.007  0.00  0.00     0.009 A 
ATOM      9  C   UNL d   1       2.050   2.945   4.045  0.00  0.00     0.001 A 
ATOM     10  C   UNL d   1       0.733   2.509   4.094  0.00  0.00     0.009 A 
ATOM     11  C   UNL d   1       0.224   1.642   3.110  0.00  0.00    -0.031 A 
BRANCH   7  12
ATOM     12  C   UNL d   1       3.362   1.426   0.837  0.00  0.00     0.036 C 
ATOM     13  C   UNL d   1       4.599   0.634   1.251  0.00  0.00     0.010 C 
ENDBRANCH   7  12
BRANCH  11  14
ATOM     14  C   UNL d   1      -1.188   1.131   3.315  0.00  0.00     0.036 C 
ATOM     15  C   UNL d   1      -2.252   2.042   2.726  0.00  0.00     0.010 C 
ENDBRANCH  11  14
ENDBRANCH   3   6
ENDBRANCH   1   2
BRANCH   1  16
ATOM     16  S   UNL d   1       1.353  -2.022  -2.010  0.00  0.00    -0.093 SA
BRANCH  16  17
ATOM     17  C   UNL d   1       1.714  -3.503  -1.097  0.00  0.00     0.070 A 
ATOM     18  N   UNL d   1       0.674  -4.278  -0.725  0.00  0.00    -0.361 N 
ATOM     19  C   UNL d   1       0.964  -5.446  -0.112  0.00  0.00     0.089 A 
ATOM     20  HN  UNL d   1      -0.290  -3.994  -0.898  1.00  0.00     0.165 HD
ATOM     21  C   UNL d   1       2.252  -5.890   0.137  0.00  0.00     0.017 A 
ATOM     22  C   UNL d   1       3.310  -5.085  -0.266  0.00  0.00     0.004 A 
ATOM     23  C   UNL d   1       3.039  -3.875  -0.898  0.00  0.00     0.037 A 
ENDBRANCH  16  17
ENDBRANCH   1  16
BRANCH   1  24
ATOM     24  C   UNL d   1      -1.125  -1.718  -0.634  0.00  0.00    -0.035 A 
ATOM     25  C   UNL d   1      -1.637  -2.020   0.639  0.00  0.00     0.009 A 
ATOM     26  C   UNL d   1      -2.957  -2.453   0.798  0.00  0.00     0.001 A 
ATOM     27  C   UNL d   1      -3.777  -2.629  -0.313  0.00  0.00     0.000 A 
ATOM     28  C   UNL d   1      -3.276  -2.380  -1.587  0.00  0.00     0.001 A 
ATOM     29  C   UNL d   1      -1.967  -1.920  -1.745  0.00  0.00     0.009 A 
ENDBRANCH   1  24
TORSDOF 7
