REMARK  2 active torsions:
REMARK  status: ('A' for Active; 'I' for Inactive)
REMARK    1  A    between atoms: C_5  and  C_1 
REMARK    2  A    between atoms: C_6  and  C_2 
ROOT
ATOM      1  C   UNL d   1       2.525   0.045  -0.034  0.00  0.00     0.055 C 
ATOM      2  C   UNL d   1       3.235  -1.104  -0.011  0.00  0.00     0.034 C 
ATOM      3  C   UNL d   1       3.195   1.315  -0.048  0.00  0.00     0.100 C 
ATOM      4  N   UNL d   1       3.720   2.349  -0.042  0.00  0.00    -0.191 NA
ENDROOT
BRANCH   1   5
ATOM      5  C   UNL d   1       1.034   0.015  -0.006  0.00  0.00    -0.015 A 
ATOM      6  C   UNL d   1       0.310   1.037   0.632  0.00  0.00     0.013 A 
ATOM      7  C   UNL d   1      -1.089   1.042   0.638  0.00  0.00     0.007 A 
ATOM      8  C   UNL d   1      -1.808   0.024   0.008  0.00  0.00    -0.062 A 
ATOM      9  C   UNL d   1      -1.103  -1.000  -0.629  0.00  0.00     0.007 A 
ATOM     10  C   UNL d   1      -3.308   0.051   0.010  0.00  0.00     0.048 C 
ATOM     11  C   UNL d   1       0.298  -1.000  -0.642  0.00  0.00     0.013 A 
ENDBRANCH   1   5
BRANCH   2  12
ATOM     12  C   UNL d   1       4.701  -1.187  -0.014  0.00  0.00    -0.035 A 
ATOM     13  C   UNL d   1       5.399  -1.237   1.198  0.00  0.00     0.013 A 
ATOM     14  C   UNL d   1       6.794  -1.318   1.203  0.00  0.00     0.024 A 
ATOM     15  C   UNL d   1       7.491  -1.349  -0.004  0.00  0.00     0.034 A 
ATOM     16  C   UNL d   1       6.805  -1.297  -1.216  0.00  0.00     0.024 A 
ATOM     17 CL   UNL d   1       9.208  -1.455   0.003  0.00  0.00    -0.084 Cl
ATOM     18  C   UNL d   1       5.409  -1.215  -1.222  0.00  0.00     0.013 A 
ENDBRANCH   2  12
TORSDOF 2
