REMARK  5 active torsions:
REMARK  status: ('A' for Active; 'I' for Inactive)
REMARK       I    between atoms: N_2  and  C_1 
REMARK    1  A    between atoms: C_3  and  C_1 
REMARK    2  A    between atoms: C_6  and  N_2 
REMARK    3  A    between atoms: O_14  and  C_4 
REMARK    4  A    between atoms: O_16  and  C_7 
REMARK    5  A    between atoms: O_15  and  C_8 
ROOT
ATOM      1  C   UNL d   1       0.148   0.745  -1.159  0.00  0.00     0.037 A 
ATOM      2  C   UNL d   1      -1.241   2.225  -3.099  0.00  0.00     0.135 A 
ATOM      3  C   UNL d   1      -0.143   1.415  -3.474  0.00  0.00     0.105 A 
ATOM      4  C   UNL d   1      -1.648   2.249  -1.745  0.00  0.00     0.105 A 
ATOM      5  C   UNL d   1       0.548   0.688  -2.494  0.00  0.00     0.057 A 
ATOM      6  C   UNL d   1      -0.945   1.512  -0.780  0.00  0.00     0.057 A 
ENDROOT
BRANCH   1   7
ATOM      7  C   UNL d   1       0.869  -0.060  -0.138  0.00  0.00     0.256 C 
ATOM      8  N   UNL d   1       2.247   0.042  -0.200  0.00  0.00    -0.321 N 
ATOM      9  H   UNL d   1       2.620   0.888  -0.622  0.00  0.00     0.169 HD
ATOM     10  O   UNL d   1       0.228  -0.693   0.690  0.00  0.00    -0.267 OA
BRANCH   8  11
ATOM     11  C   UNL d   1       3.131  -0.662   0.653  0.00  0.00     0.058 A 
ATOM     12  C   UNL d   1       4.307  -0.035   1.103  0.00  0.00     0.082 A 
ATOM     13  C   UNL d   1       5.168  -0.717   1.974  0.00  0.00     0.058 A 
ATOM     14 CL   UNL d   1       4.632   1.602   0.614  0.00  0.00    -0.080 Cl
ATOM     15 CL   UNL d   1       6.584   0.017   2.642  0.00  0.00    -0.082 Cl
ATOM     16  C   UNL d   1       4.888  -2.035   2.348  0.00  0.00     0.026 A 
ATOM     17  C   UNL d   1       3.745  -2.671   1.865  0.00  0.00     0.004 A 
ATOM     18  C   UNL d   1       2.863  -1.983   1.032  0.00  0.00     0.031 A 
ENDBRANCH   8  11
ENDBRANCH   1   7
BRANCH   3  19
ATOM     19  O   UNL d   1       0.210   1.353  -4.796  0.00  0.00    -0.353 OA
ATOM     20  C   UNL d   1       1.312   0.538  -5.180  0.00  0.00     0.210 C 
ENDBRANCH   3  19
BRANCH   4  21
ATOM     21  O   UNL d   1      -2.671   2.985  -1.198  0.00  0.00    -0.353 OA
ATOM     22  C   UNL d   1      -3.819   3.209  -2.010  0.00  0.00     0.210 C 
ENDBRANCH   4  21
BRANCH   2  23
ATOM     23  O   UNL d   1      -1.962   3.038  -3.937  0.00  0.00    -0.351 OA
ATOM     24  C   UNL d   1      -1.609   3.179  -5.301  0.00  0.00     0.210 C 
ENDBRANCH   2  23
TORSDOF 5
