REMARK  2 active torsions:
REMARK  status: ('A' for Active; 'I' for Inactive)
REMARK       I    between atoms: N_3  and  C_1 
REMARK       I    between atoms: N_5  and  C_1 
REMARK    1  A    between atoms: C_2  and  N_4 
REMARK    2  A    between atoms: C_9  and  N_5 
ROOT
ATOM      1  C   UNL d   1      -0.895   2.548   4.682  0.00  0.00     0.124 A 
ATOM      2  C   UNL d   1      -1.155   3.926   4.595  0.00  0.00     0.088 A 
ATOM      3  C   UNL d   1      -0.964   4.670   3.388  0.00  0.00     0.103 C 
ATOM      4  N   UNL d   1      -0.798   5.295   2.420  0.00  0.00    -0.191 NA
ATOM      5  N   UNL d   1      -1.216   1.860   5.803  0.00  0.00    -0.351 N 
ATOM      6  HN  UNL d   1      -1.055   0.854   5.858  1.00  0.00     0.166 HD
ATOM      7  C   UNL d   1      -1.705   4.596   5.695  0.00  0.00     0.028 A 
ATOM      8  C   UNL d   1      -1.754   2.531   6.851  0.00  0.00     0.090 A 
ATOM      9  C   UNL d   1      -2.008   3.888   6.846  0.00  0.00     0.019 A 
ENDROOT
BRANCH   1  10
ATOM     10  N   UNL d   1      -0.391   1.831   3.617  0.00  0.00    -0.363 N 
ATOM     11  C   UNL d   1      -0.678   0.396   3.489  0.00  0.00     0.144 C 
ATOM     12  C   UNL d   1      -0.809   0.075   1.979  0.00  0.00     0.147 C 
ATOM     13  N   UNL d   1       0.343   0.576   1.196  0.00  0.00    -0.331 N 
ATOM     14  C   UNL d   1       0.792   0.032   0.006  0.00  0.00     0.323 C 
ATOM     15  C   UNL d   1       0.720   1.973   1.467  0.00  0.00     0.147 C 
ATOM     16  N   UNL d   1       0.539  -1.313  -0.144  0.00  0.00    -0.306 N 
ATOM     17  O   UNL d   1       1.448   0.697  -0.797  0.00  0.00    -0.247 OA
ATOM     18  H   UNL d   1       0.531  -1.821   0.731  0.00  0.00     0.171 HD
ATOM     19  C   UNL d   1       0.873   2.219   2.974  0.00  0.00     0.144 C 
BRANCH  16  20
ATOM     20  C   UNL d   1       1.086  -2.043  -1.224  0.00  0.00     0.075 A 
ATOM     21  C   UNL d   1       1.680  -3.277  -0.951  0.00  0.00     0.143 A 
ATOM     22  F   UNL d   1       1.661  -3.759   0.302  0.00  0.00    -0.204 F 
ATOM     23  C   UNL d   1       2.362  -3.978  -1.939  0.00  0.00     0.044 A 
ATOM     24  C   UNL d   1       2.414  -3.463  -3.234  0.00  0.00     0.003 A 
ATOM     25  C   UNL d   1       1.770  -2.261  -3.534  0.00  0.00     0.002 A 
ATOM     26  C   UNL d   1       1.107  -1.550  -2.531  0.00  0.00     0.033 A 
ENDBRANCH  16  20
ENDBRANCH   1  10
TORSDOF 2
