REMARK  5 active torsions:
REMARK  status: ('A' for Active; 'I' for Inactive)
REMARK    1  A    between atoms: N_17  and  C_21 
REMARK    2  A    between atoms: C_22  and  N_18 
REMARK    3  A    between atoms: C_21  and  C_27 
REMARK    4  A    between atoms: C_27  and  C_22 
REMARK    5  A    between atoms: O_32  and  C_27 
ROOT
ATOM      1  C   UNL d   1       3.609   2.445  -0.023  0.00  0.00     0.154 C 
ENDROOT
BRANCH   1   2
ATOM      2  C   UNL d   1       3.961   1.840  -1.392  0.00  0.00     0.163 C 
BRANCH   2   3
ATOM      3  N   UNL d   1       5.384   1.747  -1.696  0.00  0.00    -0.333 N 
ATOM      4  C   UNL d   1       5.921   1.149  -2.810  0.00  0.00     0.149 A 
ATOM      5  C   UNL d   1       7.268   1.159  -2.607  0.00  0.00     0.145 A 
ATOM      6  C   UNL d   1       5.316   0.562  -3.957  0.00  0.00     0.282 A 
ATOM      7  N   UNL d   1       8.140   0.580  -3.496  0.00  0.00    -0.287 N 
ATOM      8  N   UNL d   1       7.599   1.778  -1.444  0.00  0.00    -0.336 N 
ATOM      9  C   UNL d   1       9.563   0.523  -3.229  0.00  0.00     0.163 C 
ATOM     10  C   UNL d   1       7.634  -0.091  -4.609  0.00  0.00     0.332 A 
ATOM     11  N   UNL d   1       6.235  -0.106  -4.771  0.00  0.00    -0.269 N 
ATOM     12  O   UNL d   1       8.379  -0.660  -5.414  0.00  0.00    -0.246 OA
ATOM     13  C   UNL d   1       5.723  -0.862  -5.897  0.00  0.00     0.164 C 
ATOM     14  C   UNL d   1       6.445   2.134  -0.917  0.00  0.00     0.185 A 
ATOM     15  HN  UNL d   1       8.533   1.932  -1.063  1.00  0.00     0.168 HD
ATOM     16  O   UNL d   1       4.114   0.645  -4.190  0.00  0.00    -0.265 OA
ENDBRANCH   2   3
ENDBRANCH   1   2
BRANCH   1  17
ATOM     17  C   UNL d   1       2.133   2.308   0.378  0.00  0.00     0.163 C 
BRANCH  17  18
ATOM     18  N   UNL d   1       1.181   3.041  -0.434  0.00  0.00    -0.333 N 
ATOM     19  C   UNL d   1       0.387   2.553  -1.435  0.00  0.00     0.149 A 
ATOM     20  C   UNL d   1      -0.532   3.533  -1.673  0.00  0.00     0.145 A 
ATOM     21  C   UNL d   1       0.363   1.300  -2.102  0.00  0.00     0.282 A 
ATOM     22  N   UNL d   1      -1.572   3.347  -2.551  0.00  0.00    -0.287 N 
ATOM     23  N   UNL d   1      -0.301   4.635  -0.909  0.00  0.00    -0.336 N 
ATOM     24  C   UNL d   1      -1.661   2.152  -3.272  0.00  0.00     0.332 A 
ATOM     25  C   UNL d   1      -2.652   4.306  -2.670  0.00  0.00     0.163 C 
ATOM     26  N   UNL d   1      -0.664   1.188  -3.040  0.00  0.00    -0.269 N 
ATOM     27  O   UNL d   1      -2.589   1.952  -4.060  0.00  0.00    -0.246 OA
ATOM     28  C   UNL d   1      -0.737  -0.070  -3.756  0.00  0.00     0.164 C 
ATOM     29  C   UNL d   1       0.741   4.316  -0.169  0.00  0.00     0.185 A 
ATOM     30  HN  UNL d   1      -0.819   5.514  -0.910  1.00  0.00     0.168 HD
ATOM     31  O   UNL d   1       1.169   0.405  -1.853  0.00  0.00    -0.265 OA
ENDBRANCH  17  18
ENDBRANCH   1  17
BRANCH   1  32
ATOM     32  O   UNL d   1       4.004   3.819   0.066  0.00  0.00    -0.392 OA
ATOM     33  H   UNL d   1       3.714   4.292  -0.737  0.00  0.00     0.210 HD
ENDBRANCH   1  32
TORSDOF 5
