REMARK  6 active torsions:
REMARK  status: ('A' for Active; 'I' for Inactive)
REMARK    1  A    between atoms: N_3  and  C_1 
REMARK    2  A    between atoms: S_7  and  C_4 
REMARK    3  A    between atoms: C_8  and  S_7 
REMARK    4  A    between atoms: C_10  and  C_13 
REMARK    5  A    between atoms: C_13  and  C_19 
REMARK    6  A    between atoms: C_19  and  C_23 
ROOT
ATOM      1  C   UNL d   1       1.567  -3.615  -0.114  0.00  0.00     0.151 A 
ATOM      2  N   UNL d   1       1.897  -4.485  -1.085  0.00  0.00    -0.337 N 
ATOM      3  HN  UNL d   1       1.277  -4.666  -1.874  1.00  0.00     0.168 HD
ATOM      4  N   UNL d   1       2.313  -3.359   0.976  0.00  0.00    -0.346 N 
ATOM      5  HN  UNL d   1       2.002  -2.715   1.703  1.00  0.00     0.167 HD
ATOM      6  C   UNL d   1       3.087  -5.105  -0.964  0.00  0.00     0.035 A 
ATOM      7  C   UNL d   1       3.491  -4.000   1.054  0.00  0.00     0.092 A 
ATOM      8  C   UNL d   1       3.932  -4.891   0.105  0.00  0.00     0.046 A 
ENDROOT
BRANCH   1   9
ATOM      9  S   UNL d   1      -0.070  -2.945  -0.143  0.00  0.00    -0.029 SA
BRANCH   9  10
ATOM     10  C   UNL d   1       0.186  -1.552  -1.166  0.00  0.00     0.121 A 
ATOM     11  S   UNL d   1      -1.141  -0.531  -1.578  0.00  0.00    -0.039 SA
ATOM     12  C   UNL d   1      -0.089   0.439  -2.488  0.00  0.00     0.161 A 
ATOM     13  C   UNL d   1       1.195  -0.045  -2.434  0.00  0.00     0.133 A 
ATOM     14  N   UNL d   1       1.350  -1.191  -1.668  0.00  0.00    -0.352 N 
ATOM     15  HN  UNL d   1       2.232  -1.680  -1.515  1.00  0.00     0.166 HD
BRANCH  12  16
ATOM     16  N   UNL d   1      -0.550   1.594  -3.193  0.00  0.00    -0.107 N 
ATOM     17  O   UNL d   1       0.302   2.218  -3.837  0.00  0.00    -0.531 OA
ATOM     18  O   UNL d   1      -1.748   1.887  -3.114  0.00  0.00    -0.531 OA
ENDBRANCH  12  16
ENDBRANCH   9  10
ENDBRANCH   1   9
BRANCH   6  19
ATOM     19  C   UNL d   1       3.458  -6.072  -2.010  0.00  0.00     0.031 C 
BRANCH  19  20
ATOM     20  C   UNL d   1       2.716  -6.319  -3.105  0.00  0.00     0.021 C 
BRANCH  20  21
ATOM     21  C   UNL d   1       3.078  -7.282  -4.102  0.00  0.00     0.010 A 
ATOM     22  C   UNL d   1       2.239  -8.027  -4.933  0.00  0.00    -0.044 A 
ATOM     23  C   UNL d   1       2.982  -8.879  -5.819  0.00  0.00     0.015 A 
ATOM     24  C   UNL d   1       0.741  -8.005  -4.941  0.00  0.00     0.049 C 
ATOM     25  C   UNL d   1       4.339  -8.751  -5.668  0.00  0.00     0.051 A 
ATOM     26  S   UNL d   1       4.737  -7.620  -4.465  0.00  0.00    -0.102 SA
ENDBRANCH  20  21
ENDBRANCH  19  20
ENDBRANCH   6  19
TORSDOF 6
