REMARK  4 active torsions:
REMARK  status: ('A' for Active; 'I' for Inactive)
REMARK    1  A    between atoms: C_7  and  N_1 
REMARK    2  A    between atoms: C_8  and  C_7 
REMARK       I    between atoms: N_14  and  C_8 
REMARK    3  A    between atoms: C_9  and  C_13 
REMARK    4  A    between atoms: N_10  and  N_14 
ROOT
ATOM      1  N   UNL d   1       0.203  -1.368   0.619  0.00  0.00    -0.239 NA
ATOM      2  S   UNL d   1       0.198   1.753   0.605  0.00  0.00    -0.087 SA
ATOM      3  C   UNL d   1       1.421  -0.736   0.247  0.00  0.00     0.033 A 
ATOM      4  C   UNL d   1      -1.049  -0.739   0.361  0.00  0.00     0.033 A 
ATOM      5  C   UNL d   1       1.568   0.665   0.247  0.00  0.00     0.027 A 
ATOM      6  C   UNL d   1      -1.178   0.660   0.269  0.00  0.00     0.027 A 
ATOM      7  C   UNL d   1       2.500  -1.536  -0.162  0.00  0.00     0.025 A 
ATOM      8  C   UNL d   1      -2.163  -1.546   0.073  0.00  0.00     0.025 A 
ATOM      9  C   UNL d   1      -2.407   1.223  -0.096  0.00  0.00     0.021 A 
ATOM     10  C   UNL d   1       2.814   1.230  -0.041  0.00  0.00     0.021 A 
ATOM     11  C   UNL d   1      -3.376  -0.977  -0.315  0.00  0.00     0.002 A 
ATOM     12  C   UNL d   1       3.721  -0.959  -0.508  0.00  0.00     0.002 A 
ATOM     13  C   UNL d   1       3.887   0.421  -0.418  0.00  0.00     0.001 A 
ATOM     14  C   UNL d   1      -3.498   0.407  -0.400  0.00  0.00     0.001 A 
ENDROOT
BRANCH   1  15
ATOM     15  C   UNL d   1       0.266  -1.900   2.015  0.00  0.00     0.206 C 
BRANCH  15  16
ATOM     16  C   UNL d   1       0.496  -0.826   3.101  0.00  0.00     0.249 C 
ATOM     17  N   UNL d   1       1.848  -0.644   3.404  0.00  0.00    -0.269 N 
ATOM     18  H   UNL d   1       2.548  -1.103   2.830  0.00  0.00     0.190 HD
ATOM     19  O   UNL d   1      -0.432  -0.242   3.650  0.00  0.00    -0.270 OA
BRANCH  17  20
ATOM     20  N   UNL d   1       2.257   0.416   4.181  0.00  0.00    -0.308 N 
ATOM     21  C   UNL d   1       3.519   0.403   4.491  0.00  0.00     0.126 C 
ATOM     22  HN  UNL d   1       1.621   1.152   4.488  1.00  0.00     0.186 HD
BRANCH  21  23
ATOM     23  C   UNL d   1       4.159   1.489   5.186  0.00  0.00     0.021 A 
ATOM     24  S   UNL d   1       5.765   1.268   5.750  0.00  0.00    -0.101 SA
ATOM     25  C   UNL d   1       5.849   2.866   6.351  0.00  0.00     0.050 A 
ATOM     26  C   UNL d   1       4.681   3.560   6.129  0.00  0.00     0.008 A 
ATOM     27  C   UNL d   1       3.697   2.759   5.472  0.00  0.00     0.021 A 
ENDBRANCH  21  23
ENDBRANCH  17  20
ENDBRANCH  15  16
ENDBRANCH   1  15
TORSDOF 4
