REMARK  5 active torsions:
REMARK  status: ('A' for Active; 'I' for Inactive)
REMARK    1  A    between atoms: C_3  and  C_1 
REMARK    2  A    between atoms: C_10  and  N_2 
REMARK    3  A    between atoms: C_8  and  C_9 
REMARK       I    between atoms: N_11  and  C_8 
REMARK    4  A    between atoms: C_9  and  C_10 
REMARK    5  A    between atoms: C_17  and  N_11 
ROOT
ATOM      1  C   UNL d   1      -3.516   1.166  -0.323  0.00  0.00     0.123 C 
ENDROOT
BRANCH   1   2
ATOM      2  C   UNL d   1      -4.961   0.902  -0.694  0.00  0.00     0.223 C 
ATOM      3  N   UNL d   1      -5.583  -0.147  -0.045  0.00  0.00    -0.327 N 
ATOM      4  H   UNL d   1      -5.026  -0.733   0.567  0.00  0.00     0.169 HD
ATOM      5  O   UNL d   1      -5.511   1.711  -1.446  0.00  0.00    -0.273 OA
BRANCH   3   6
ATOM      6  C   UNL d   1      -6.979  -0.402  -0.034  0.00  0.00     0.034 A 
ATOM      7  C   UNL d   1      -7.888   0.257  -0.865  0.00  0.00     0.030 A 
ATOM      8  C   UNL d   1      -9.267   0.089  -0.699  0.00  0.00     0.009 A 
ATOM      9  C   UNL d   1      -9.765  -0.757   0.292  0.00  0.00    -0.062 A 
ATOM     10  C   UNL d   1      -8.859  -1.476   1.079  0.00  0.00     0.009 A 
ATOM     11  C   UNL d   1     -11.239  -0.801   0.561  0.00  0.00     0.048 C 
ATOM     12  C   UNL d   1      -7.476  -1.312   0.906  0.00  0.00     0.030 A 
ENDBRANCH   3   6
ENDBRANCH   1   2
BRANCH   1  13
ATOM     13  C   UNL d   1      -2.576  -0.021  -0.236  0.00  0.00     0.140 C 
BRANCH  13  14
ATOM     14  N   UNL d   1      -2.550  -0.927  -1.382  0.00  0.00    -0.323 N 
ATOM     15  C   UNL d   1      -2.245  -0.445  -2.651  0.00  0.00     0.110 A 
ATOM     16  C   UNL d   1      -2.082  -1.267  -3.704  0.00  0.00     0.063 A 
ATOM     17  C   UNL d   1      -2.167  -2.700  -3.485  0.00  0.00     0.023 A 
ATOM     18  C   UNL d   1      -2.468  -3.199  -2.281  0.00  0.00     0.075 A 
ATOM     19  C   UNL d   1      -2.715  -2.291  -1.132  0.00  0.00     0.247 A 
ATOM     20  O   UNL d   1      -3.029  -2.766  -0.044  0.00  0.00    -0.268 OA
BRANCH  16  21
ATOM     21  C   UNL d   1      -1.791  -0.750  -5.087  0.00  0.00     0.418 C 
ATOM     22  F   UNL d   1      -1.603  -1.741  -5.997  0.00  0.00    -0.166 F 
ATOM     23  F   UNL d   1      -2.803   0.023  -5.555  0.00  0.00    -0.166 F 
ATOM     24  F   UNL d   1      -0.669   0.016  -5.109  0.00  0.00    -0.166 F 
ENDBRANCH  16  21
ENDBRANCH  13  14
ENDBRANCH   1  13
TORSDOF 5
