REMARK  6 active torsions:
REMARK  status: ('A' for Active; 'I' for Inactive)
REMARK    1  A    between atoms: S_8  and  C_1 
REMARK       I    between atoms: C_4  and  N_9 
REMARK       I    between atoms: N_14  and  C_4 
REMARK    2  A    between atoms: C_10  and  C_5 
REMARK    3  A    between atoms: C_13  and  S_8 
REMARK    4  A    between atoms: N_9  and  C_12 
REMARK    5  A    between atoms: O_19  and  C_10 
REMARK    6  A    between atoms: C_18  and  N_14 
ROOT
ATOM      1  C   UNL d   1       4.621   1.445  -2.188  0.00  0.00     0.034 C 
ATOM      2  C   UNL d   1       3.642   2.334  -1.715  0.00  0.00     0.030 C 
ATOM      3  C   UNL d   1       5.972   1.824  -2.241  0.00  0.00     0.025 C 
ATOM      4  C   UNL d   1       4.087   3.532  -1.128  0.00  0.00     0.021 C 
ATOM      5  C   UNL d   1       6.388   3.017  -1.661  0.00  0.00     0.002 C 
ATOM      6  C   UNL d   1       5.449   3.857  -1.074  0.00  0.00     0.001 C 
ENDROOT
BRANCH   2   7
ATOM      7  S   UNL d   1       1.910   1.948  -1.524  0.00  0.00    -0.052 SA
BRANCH   7   8
ATOM      8  C   UNL d   1       1.242   1.466  -3.102  0.00  0.00     0.150 A 
ATOM      9  N   UNL d   1       2.006   0.880  -4.039  0.00  0.00    -0.332 N 
ATOM     10  C   UNL d   1       1.336   0.408  -5.126  0.00  0.00     0.112 A 
ATOM     11  HN  UNL d   1       3.018   0.795  -3.942  1.00  0.00     0.168 HD
ATOM     12  C   UNL d   1      -0.033   0.486  -5.288  0.00  0.00     0.060 A 
ATOM     13  C   UNL d   1      -0.722   1.094  -4.273  0.00  0.00     0.009 A 
ATOM     14  N   UNL d   1      -0.097   1.599  -3.193  0.00  0.00    -0.340 N 
ATOM     15  C   UNL d   1      -2.214   1.238  -4.338  0.00  0.00     0.068 C 
ATOM     16  HN  UNL d   1      -0.624   2.073  -2.459  1.00  0.00     0.167 HD
BRANCH  10  17
ATOM     17  C   UNL d   1       2.089  -0.263  -6.230  0.00  0.00     0.309 C 
ATOM     18  O   UNL d   1       1.532  -0.823  -7.161  0.00  0.00    -0.258 OA
BRANCH  17  19
ATOM     19  O   UNL d   1       3.432  -0.145  -6.077  0.00  0.00    -0.321 OA
ATOM     20  C   UNL d   1       4.170  -0.748  -7.144  0.00  0.00     0.213 C 
ENDBRANCH  17  19
ENDBRANCH  10  17
ENDBRANCH   7   8
ENDBRANCH   2   7
BRANCH   1  21
ATOM     21  N   UNL d   1       4.290   0.097  -2.481  0.00  0.00    -0.209 NA
ATOM     22  C   UNL d   1       4.365  -0.856  -1.471  0.00  0.00     0.303 C 
ATOM     23  N   UNL d   1       5.490  -0.767  -0.687  0.00  0.00    -0.313 N 
ATOM     24  O   UNL d   1       3.474  -1.693  -1.368  0.00  0.00    -0.253 OA
ATOM     25  H   UNL d   1       6.242  -0.239  -1.096  0.00  0.00     0.170 HD
ATOM     26  H   UNL d   1       3.362   0.002  -2.891  0.00  0.00     0.138 HD
BRANCH  23  27
ATOM     27  C   UNL d   1       5.822  -1.525   0.444  0.00  0.00     0.035 A 
ATOM     28  C   UNL d   1       7.173  -1.540   0.819  0.00  0.00     0.031 A 
ATOM     29  C   UNL d   1       7.602  -2.334   1.883  0.00  0.00     0.026 A 
ATOM     30  C   UNL d   1       6.673  -3.086   2.596  0.00  0.00     0.034 A 
ATOM     31  C   UNL d   1       5.320  -3.029   2.270  0.00  0.00     0.026 A 
ATOM     32 CL   UNL d   1       7.207  -4.105   3.875  0.00  0.00    -0.084 Cl
ATOM     33  C   UNL d   1       4.893  -2.247   1.191  0.00  0.00     0.031 A 
ENDBRANCH  23  27
ENDBRANCH   1  21
TORSDOF 6
