REMARK  1 active torsions:
REMARK  status: ('A' for Active; 'I' for Inactive)
REMARK    1  A    between atoms: N_13  and  C_5 
ROOT
ATOM      1  C   UNL d   1       1.847  -0.360  -0.015  0.00  0.00     0.173 A 
ATOM      2  C   UNL d   1       0.805   0.530   0.021  0.00  0.00     0.032 A 
ATOM      3  C   UNL d   1      -0.593  -1.515   0.325  0.00  0.00     0.081 C 
ATOM      4  C   UNL d   1      -0.634   0.040   0.094  0.00  0.00     0.034 C 
ATOM      5  C   UNL d   1       0.552  -2.255   0.256  0.00  0.00     0.140 C 
ATOM      6  O   UNL d   1       1.806  -1.681   0.039  0.00  0.00    -0.279 OA
ATOM      7  N   UNL d   1       2.992   0.355  -0.120  0.00  0.00    -0.279 N 
ATOM      8  N   UNL d   1       2.775   1.682  -0.148  0.00  0.00    -0.303 N 
ATOM      9  HN  UNL d   1       3.469   2.428  -0.210  1.00  0.00     0.186 HD
ATOM     10  C   UNL d   1       1.439   1.804  -0.074  0.00  0.00     0.033 A 
ATOM     11  C   UNL d   1      -1.801  -2.215   0.626  0.00  0.00     0.100 C 
ATOM     12  N   UNL d   1      -2.759  -2.810   0.902  0.00  0.00    -0.191 NA
ATOM     13  C   UNL d   1      -1.376   0.781   1.244  0.00  0.00     0.020 C 
ATOM     14  C   UNL d   1      -1.310   0.351  -1.273  0.00  0.00     0.020 C 
ATOM     15  C   UNL d   1       0.855   3.168  -0.100  0.00  0.00     0.070 C 
ATOM     16  C   UNL d   1      -2.827   0.187  -1.288  0.00  0.00     0.001 C 
ATOM     17  C   UNL d   1      -2.906   0.726   1.202  0.00  0.00     0.001 C 
ATOM     18  C   UNL d   1      -3.495   0.987  -0.180  0.00  0.00     0.000 C 
ATOM     19  H   UNL d   1       3.944   0.012  -0.173  0.00  0.00     0.189 HD
ENDROOT
BRANCH   5  20
ATOM     20  N   UNL d   1       0.628  -3.624   0.397  0.00  0.00    -0.282 NA
ATOM     21  H   UNL d   1      -0.129  -4.064   0.914  0.00  0.00     0.126 HD
ATOM     22  H   UNL d   1       1.550  -3.930   0.694  0.00  0.00     0.126 HD
ENDBRANCH   5  20
TORSDOF 1
