REMARK  2 active torsions:
REMARK  status: ('A' for Active; 'I' for Inactive)
REMARK    1  A    between atoms: N_5  and  C_2 
REMARK    2  A    between atoms: N_8  and  N_5 
ROOT
ATOM      1  N   UNL d   1      -0.537  -1.066   0.085  0.00  0.00    -0.305 N 
ATOM      2  C   UNL d   1       0.811  -1.109   0.137  0.00  0.00     0.162 C 
ATOM      3  C   UNL d   1      -1.136   0.153  -0.030  0.00  0.00     0.237 C 
ATOM      4  S   UNL d   1       1.502   0.480   0.068  0.00  0.00    -0.078 SA
ATOM      5  C   UNL d   1      -0.118   1.256  -0.256  0.00  0.00     0.143 C 
ATOM      6  O   UNL d   1      -2.348   0.324   0.005  0.00  0.00    -0.272 OA
ATOM      7  C   UNL d   1      -0.173   1.740  -1.696  0.00  0.00     0.031 C 
ATOM      8  H   UNL d   1      -1.058  -1.923   0.191  0.00  0.00     0.171 HD
ENDROOT
BRANCH   2   9
ATOM      9  N   UNL d   1       1.529  -2.175   0.228  0.00  0.00    -0.280 N 
ATOM     10  HN  UNL d   1       2.546  -2.159   0.293  1.00  0.00     0.189 HD
BRANCH   9  11
ATOM     11  N   UNL d   1       0.783  -3.355   0.228  0.00  0.00    -0.308 N 
ATOM     12  C   UNL d   1       1.520  -4.425   0.291  0.00  0.00    -0.004 C 
ATOM     13  C   UNL d   1       3.030  -4.449   0.390  0.00  0.00     0.064 C 
ATOM     14  C   UNL d   1       0.831  -5.767   0.256  0.00  0.00     0.064 C 
ATOM     15  HN  UNL d   1      -0.236  -3.376   0.184  1.00  0.00     0.186 HD
ENDBRANCH   9  11
ENDBRANCH   2   9
TORSDOF 2
