REMARK  5 active torsions:
REMARK  status: ('A' for Active; 'I' for Inactive)
REMARK    1  A    between atoms: C_6  and  N_1 
REMARK    2  A    between atoms: S_10  and  C_2 
REMARK    3  A    between atoms: C_17  and  S_10 
REMARK    4  A    between atoms: C_12  and  C_17 
REMARK    5  A    between atoms: C_15  and  C_12 
ROOT
ATOM      1  N   UNL d   1       0.958  -0.685  -0.014  0.00  0.00    -0.241 N 
ATOM      2  C   UNL d   1       0.907   0.683  -0.118  0.00  0.00     0.170 A 
ATOM      3  C   UNL d   1      -0.374  -1.059   0.072  0.00  0.00     0.347 A 
ATOM      4  N   UNL d   1      -0.289   1.201  -0.069  0.00  0.00    -0.275 N 
ATOM      5  HN  UNL d   1      -0.551   2.186  -0.116  1.00  0.00     0.189 HD
ATOM      6  N   UNL d   1      -1.105   0.125   0.061  0.00  0.00    -0.249 N 
ATOM      7  O   UNL d   1      -0.890  -2.160   0.165  0.00  0.00    -0.245 OA
ATOM      8  H   UNL d   1      -2.115   0.188   0.088  0.00  0.00     0.192 HD
ENDROOT
BRANCH   2   9
ATOM      9  S   UNL d   1       2.292   1.675  -0.418  0.00  0.00    -0.084 SA
BRANCH   9  10
ATOM     10  C   UNL d   1       1.606   3.351  -0.326  0.00  0.00     0.166 C 
BRANCH  10  11
ATOM     11  C   UNL d   1       2.712   4.394  -0.461  0.00  0.00     0.169 C 
ATOM     12  O   UNL d   1       3.913   4.128  -0.466  0.00  0.00    -0.291 OA
BRANCH  11  13
ATOM     13  C   UNL d   1       2.329   5.835  -0.539  0.00  0.00     0.011 A 
ATOM     14  C   UNL d   1       3.279   6.791  -0.140  0.00  0.00     0.018 A 
ATOM     15  C   UNL d   1       2.994   8.154  -0.231  0.00  0.00     0.043 A 
ATOM     16  C   UNL d   1       1.763   8.560  -0.730  0.00  0.00     0.116 A 
ATOM     17  C   UNL d   1       0.809   7.628  -1.126  0.00  0.00     0.043 A 
ATOM     18  F   UNL d   1       1.494   9.867  -0.839  0.00  0.00    -0.206 F 
ATOM     19  C   UNL d   1       1.087   6.261  -1.027  0.00  0.00     0.018 A 
ENDBRANCH  11  13
ENDBRANCH  10  11
ENDBRANCH   9  10
ENDBRANCH   2   9
BRANCH   1  20
ATOM     20  C   UNL d   1       2.060  -1.593  -0.024  0.00  0.00     0.049 A 
ATOM     21  C   UNL d   1       1.886  -2.937  -0.407  0.00  0.00     0.069 A 
ATOM     22  C   UNL d   1       2.972  -3.820  -0.480  0.00  0.00     0.104 A 
ATOM     23  O   UNL d   1       2.696  -5.112  -0.856  0.00  0.00    -0.346 OA
ATOM     24  C   UNL d   1       4.261  -3.375  -0.196  0.00  0.00     0.102 A 
ATOM     25  C   UNL d   1       3.802  -5.980  -0.575  0.00  0.00     0.202 C 
ATOM     26  C   UNL d   1       5.101  -5.353  -1.052  0.00  0.00     0.202 C 
ATOM     27  O   UNL d   1       5.378  -4.159  -0.312  0.00  0.00    -0.346 OA
ATOM     28  C   UNL d   1       4.449  -2.076   0.247  0.00  0.00     0.042 A 
ATOM     29  C   UNL d   1       3.356  -1.207   0.350  0.00  0.00     0.033 A 
ENDBRANCH   1  20
TORSDOF 5
