REMARK  7 active torsions:
REMARK  status: ('A' for Active; 'I' for Inactive)
REMARK    1  A    between atoms: C_11  and  N_9 
REMARK    2  A    between atoms: C_17  and  C_11 
REMARK    3  A    between atoms: N_16  and  C_20 
REMARK    4  A    between atoms: C_21  and  N_16 
REMARK    5  A    between atoms: O_18  and  C_17 
REMARK    6  A    between atoms: C_20  and  C_17 
REMARK    7  A    between atoms: C_19  and  C_21 
ROOT
ATOM      1  C   UNL d   1       0.833  -0.915  -0.690  0.00  0.00     0.145 A 
ATOM      2  C   UNL d   1       1.254   0.286  -1.166  0.00  0.00     0.149 A 
ATOM      3  N   UNL d   1       0.438  -1.923  -1.537  0.00  0.00    -0.287 N 
ATOM      4  N   UNL d   1       0.878  -0.445  -3.367  0.00  0.00    -0.269 N 
ATOM      5  C   UNL d   1       0.452  -1.704  -2.914  0.00  0.00     0.332 A 
ATOM      6  C   UNL d   1       1.321   0.601  -2.550  0.00  0.00     0.282 A 
ATOM      7  N   UNL d   1       0.866  -0.966   0.672  0.00  0.00    -0.336 N 
ATOM      8  HN  UNL d   1       0.600  -1.744   1.276  1.00  0.00     0.168 HD
ATOM      9  N   UNL d   1       1.579   1.013  -0.055  0.00  0.00    -0.333 N 
ATOM     10  C   UNL d   1       1.318   0.217   1.032  0.00  0.00     0.185 A 
ATOM     11  O   UNL d   1       0.104  -2.590  -3.696  0.00  0.00    -0.246 OA
ATOM     12  O   UNL d   1       1.732   1.678  -2.977  0.00  0.00    -0.265 OA
ATOM     13  C   UNL d   1       0.012  -3.213  -1.033  0.00  0.00     0.163 C 
ATOM     14  C   UNL d   1       0.894  -0.188  -4.792  0.00  0.00     0.164 C 
ENDROOT
BRANCH   9  15
ATOM     15  C   UNL d   1       2.062   2.376  -0.013  0.00  0.00     0.163 C 
BRANCH  15  16
ATOM     16  C   UNL d   1       3.596   2.466  -0.047  0.00  0.00     0.164 C 
BRANCH  16  17
ATOM     17  O   UNL d   1       4.141   1.907  -1.246  0.00  0.00    -0.392 OA
ATOM     18  H   UNL d   1       3.655   2.274  -2.011  0.00  0.00     0.210 HD
ENDBRANCH  16  17
BRANCH  16  19
ATOM     19  C   UNL d   1       4.062   3.930   0.070  0.00  0.00     0.303 C 
BRANCH  19  20
ATOM     20  N   UNL d   1       3.578   4.522   1.313  0.00  0.00     0.090 N 
ATOM     21  H   UNL d   1       3.958   4.016   2.114  0.00  0.00     0.316 HD
BRANCH  20  22
ATOM     22  C   UNL d   1       3.959   5.927   1.445  0.00  0.00     0.308 C 
BRANCH  22  23
ATOM     23  C   UNL d   1       3.395   6.496   2.727  0.00  0.00    -0.030 A 
ATOM     24  C   UNL d   1       4.238   7.006   3.723  0.00  0.00     0.009 A 
ATOM     25  C   UNL d   1       3.701   7.541   4.897  0.00  0.00     0.001 A 
ATOM     26  C   UNL d   1       2.321   7.565   5.090  0.00  0.00     0.000 A 
ATOM     27  C   UNL d   1       1.473   7.053   4.111  0.00  0.00     0.001 A 
ATOM     28  C   UNL d   1       2.007   6.524   2.935  0.00  0.00     0.009 A 
ENDBRANCH  22  23
ENDBRANCH  20  22
ENDBRANCH  19  20
ENDBRANCH  16  19
ENDBRANCH  15  16
ENDBRANCH   9  15
TORSDOF 7
