REMARK  6 active torsions:
REMARK  status: ('A' for Active; 'I' for Inactive)
REMARK    1  A    between atoms: C_3  and  O_13 
REMARK       I    between atoms: N_7  and  C_3 
REMARK    2  A    between atoms: N_8  and  C_4 
REMARK    3  A    between atoms: C_15  and  N_7 
REMARK    4  A    between atoms: C_17  and  N_8 
REMARK    5  A    between atoms: O_13  and  C_16 
REMARK    6  A    between atoms: C_16  and  C_17 
ROOT
ATOM      1  N   UNL d   1      -1.622   1.300  -0.757  0.00  0.00    -0.351 N 
ATOM      2  HN  UNL d   1      -1.725   1.476  -1.757  1.00  0.00     0.166 HD
ATOM      3  C   UNL d   1      -2.601   0.663  -0.071  0.00  0.00     0.102 A 
ATOM      4  N   UNL d   1       1.963   2.167   2.341  0.00  0.00    -0.191 NA
ATOM      5  C   UNL d   1       0.954   1.874   1.849  0.00  0.00     0.101 C 
ATOM      6  C   UNL d   1      -0.280   1.492   1.240  0.00  0.00     0.060 A 
ATOM      7  C   UNL d   1      -2.459   0.483   1.307  0.00  0.00     0.050 A 
ATOM      8  C   UNL d   1      -0.503   1.700  -0.106  0.00  0.00     0.112 A 
ATOM      9  C   UNL d   1      -1.292   0.878   1.965  0.00  0.00     0.028 A 
ENDROOT
BRANCH   3  10
ATOM     10  N   UNL d   1      -3.731   0.224  -0.758  0.00  0.00    -0.370 N 
ATOM     11  C   UNL d   1      -3.729   0.446  -2.205  0.00  0.00     0.151 C 
BRANCH  10  12
ATOM     12  C   UNL d   1      -4.447  -0.983  -0.307  0.00  0.00     0.151 C 
BRANCH  12  13
ATOM     13  C   UNL d   1      -3.572  -2.247  -0.287  0.00  0.00     0.200 C 
BRANCH  13  14
ATOM     14  O   UNL d   1      -4.304  -3.400   0.172  0.00  0.00    -0.302 OA
BRANCH  14  15
ATOM     15  C   UNL d   1      -4.994  -4.079  -0.774  0.00  0.00     0.365 C 
ATOM     16  N   UNL d   1      -5.545  -5.269  -0.379  0.00  0.00    -0.303 N 
ATOM     17  H   UNL d   1      -6.028  -5.715  -1.148  0.00  0.00     0.171 HD
ATOM     18  O   UNL d   1      -5.130  -3.689  -1.930  0.00  0.00    -0.238 OA
BRANCH  16  19
ATOM     19  C   UNL d   1      -5.492  -5.989   0.831  0.00  0.00     0.036 A 
ATOM     20  C   UNL d   1      -4.858  -5.554   1.996  0.00  0.00     0.029 A 
ATOM     21  C   UNL d   1      -4.836  -6.360   3.140  0.00  0.00     0.002 A 
ATOM     22  C   UNL d   1      -5.449  -7.610   3.134  0.00  0.00     0.000 A 
ATOM     23  C   UNL d   1      -6.094  -8.053   1.985  0.00  0.00     0.002 A 
ATOM     24  C   UNL d   1      -6.117  -7.246   0.843  0.00  0.00     0.029 A 
ENDBRANCH  16  19
ENDBRANCH  14  15
ENDBRANCH  13  14
ENDBRANCH  12  13
ENDBRANCH  10  12
ENDBRANCH   3  10
TORSDOF 6
