REMARK  5 active torsions:
REMARK  status: ('A' for Active; 'I' for Inactive)
REMARK    1  A    between atoms: C_4  and  C_1 
REMARK    2  A    between atoms: C_2  and  C_5 
REMARK    3  A    between atoms: C_3  and  C_6 
REMARK       I    between atoms: N_7  and  C_3 
REMARK    4  A    between atoms: C_11  and  N_7 
REMARK    5  A    between atoms: C_19  and  C_11 
ROOT
ATOM      1  C   UNL d   1       0.382   1.328   0.573  0.00  0.00     0.049 A 
ATOM      2  C   UNL d   1      -0.420   2.880   2.279  0.00  0.00     0.049 A 
ATOM      3  C   UNL d   1       1.018   3.688   0.462  0.00  0.00     0.033 A 
ATOM      4  C   UNL d   1      -0.358   1.586   1.737  0.00  0.00     0.032 A 
ATOM      5  C   UNL d   1       0.265   3.920   1.626  0.00  0.00     0.033 A 
ATOM      6  C   UNL d   1       1.070   2.385  -0.056  0.00  0.00     0.033 A 
ENDROOT
BRANCH   3   7
ATOM      7  C   UNL d   1       1.692   4.861  -0.185  0.00  0.00     0.252 C 
ATOM      8  N   UNL d   1       2.547   4.616  -1.242  0.00  0.00    -0.349 N 
ATOM      9  H   UNL d   1       2.838   3.678  -1.459  0.00  0.00     0.163 HD
ATOM     10  O   UNL d   1       1.456   5.992   0.230  0.00  0.00    -0.268 OA
BRANCH   8  11
ATOM     11  C   UNL d   1       3.255   5.690  -1.929  0.00  0.00     0.114 C 
ATOM     12  C   UNL d   1       3.236   5.457  -3.443  0.00  0.00     0.037 C 
BRANCH  11  13
ATOM     13  C   UNL d   1       4.692   5.826  -1.455  0.00  0.00    -0.036 A 
ATOM     14  C   UNL d   1       5.571   4.729  -1.429  0.00  0.00     0.009 A 
ATOM     15  C   UNL d   1       6.914   4.900  -1.088  0.00  0.00     0.001 A 
ATOM     16  C   UNL d   1       7.399   6.167  -0.771  0.00  0.00     0.000 A 
ATOM     17  C   UNL d   1       6.538   7.262  -0.778  0.00  0.00     0.001 A 
ATOM     18  C   UNL d   1       5.193   7.092  -1.114  0.00  0.00     0.009 A 
ENDBRANCH  11  13
ENDBRANCH   8  11
ENDBRANCH   3   7
BRANCH   1  19
ATOM     19  C   UNL d   1       0.451  -0.064  -0.015  0.00  0.00     0.417 C 
ATOM     20  F   UNL d   1      -0.296  -0.979   0.658  0.00  0.00    -0.166 F 
ATOM     21  F   UNL d   1       1.721  -0.550  -0.033  0.00  0.00    -0.166 F 
ATOM     22  F   UNL d   1       0.019  -0.098  -1.306  0.00  0.00    -0.166 F 
ENDBRANCH   1  19
BRANCH   2  23
ATOM     23  C   UNL d   1      -1.201   3.159   3.543  0.00  0.00     0.417 C 
ATOM     24  F   UNL d   1      -1.765   2.043   4.084  0.00  0.00    -0.166 F 
ATOM     25  F   UNL d   1      -0.426   3.697   4.524  0.00  0.00    -0.166 F 
ATOM     26  F   UNL d   1      -2.224   4.034   3.343  0.00  0.00    -0.166 F 
ENDBRANCH   2  23
TORSDOF 5
