REMARK  2 active torsions:
REMARK  status: ('A' for Active; 'I' for Inactive)
REMARK    1  A    between atoms: C_6  and  C_1 
REMARK    2  A    between atoms: O_10  and  C_4 
ROOT
ATOM      1  C   UNL d   1      -0.140  -1.257  -0.048  0.00  0.00     0.092 A 
ATOM      2  N   UNL d   1      -0.032  -0.516   1.041  0.00  0.00    -0.330 N 
ATOM      3  HN  UNL d   1      -0.116  -0.864   1.996  1.00  0.00     0.168 HD
ATOM      4  C   UNL d   1       0.209   0.785   0.699  0.00  0.00     0.153 A 
ATOM      5  S   UNL d   1       0.091  -0.384  -1.523  0.00  0.00    -0.072 SA
ATOM      6  C   UNL d   1       0.282   1.070  -0.644  0.00  0.00     0.032 A 
ATOM      7  C   UNL d   1       0.499   2.370  -1.324  0.00  0.00     0.061 C 
ENDROOT
BRANCH   1   8
ATOM      8  C   UNL d   1      -0.380  -2.706  -0.049  0.00  0.00     0.075 A 
ATOM      9  C   UNL d   1      -1.107  -3.361  -1.052  0.00  0.00     0.132 A 
ATOM     10  F   UNL d   1      -1.654  -2.677  -2.069  0.00  0.00    -0.205 F 
ATOM     11  C   UNL d   1      -1.315  -4.742  -1.033  0.00  0.00     0.043 A 
ATOM     12  C   UNL d   1      -0.809  -5.510   0.012  0.00  0.00     0.006 A 
ATOM     13  C   UNL d   1      -0.099  -4.884   1.032  0.00  0.00     0.043 A 
ATOM     14  C   UNL d   1       0.108  -3.502   0.997  0.00  0.00     0.132 A 
ATOM     15  F   UNL d   1       0.817  -2.961   2.000  0.00  0.00    -0.205 F 
ENDBRANCH   1   8
BRANCH   4  16
ATOM     16  O   UNL d   1       0.367   1.729   1.634  0.00  0.00    -0.345 OA
ATOM     17  H   UNL d   1       0.297   1.267   2.487  0.00  0.00     0.219 HD
ENDBRANCH   4  16
TORSDOF 2
