REMARK  4 active torsions:
REMARK  status: ('A' for Active; 'I' for Inactive)
REMARK       I    between atoms: C_4  and  N_1 
REMARK    1  A    between atoms: C_3  and  C_4 
REMARK    2  A    between atoms: C_13  and  C_5 
REMARK    3  A    between atoms: C_16  and  N_11 
REMARK    4  A    between atoms: O_25  and  C_20 
ROOT
ATOM      1  N   UNL d   1      -2.447   0.672  -0.142  0.00  0.00    -0.279 N 
ATOM      2  C   UNL d   1      -2.110  -0.377  -1.008  0.00  0.00     0.155 C 
ATOM      3  C   UNL d   1      -3.458   0.371   0.741  0.00  0.00     0.265 C 
ATOM      4  S   UNL d   1      -1.215   0.222  -2.398  0.00  0.00    -0.056 SA
ATOM      5  C   UNL d   1      -2.328   2.039  -0.762  0.00  0.00     0.075 C 
ATOM      6  C   UNL d   1      -1.180   1.828  -1.767  0.00  0.00     0.005 C 
ATOM      7  N   UNL d   1      -2.397  -1.622  -0.779  0.00  0.00    -0.334 N 
ATOM      8  HN  UNL d   1      -2.883  -1.884   0.079  1.00  0.00     0.168 HD
ATOM      9  O   UNL d   1      -4.613   0.207   0.339  0.00  0.00    -0.267 OA
ATOM     10  C   UNL d   1      -0.153   2.628  -2.098  0.00  0.00     0.029 C 
ATOM     11  C   UNL d   1      -3.603   2.456  -1.562  0.00  0.00     0.037 C 
ATOM     12  C   UNL d   1      -1.961   3.163   0.235  0.00  0.00     0.037 C 
ATOM     13  C   UNL d   1      -4.724   3.111  -0.742  0.00  0.00     0.003 C 
ATOM     14  C   UNL d   1      -3.106   3.716   1.073  0.00  0.00     0.003 C 
ATOM     15  C   UNL d   1      -4.224   4.216   0.176  0.00  0.00     0.000 C 
ENDROOT
BRANCH   3  16
ATOM     16  C   UNL d   1      -3.163   0.327   2.174  0.00  0.00     0.093 A 
ATOM     17  C   UNL d   1      -1.998   0.548   2.979  0.00  0.00     0.085 A 
ATOM     18  N   UNL d   1      -2.284   0.391   4.283  0.00  0.00    -0.259 N 
ATOM     19  O   UNL d   1      -3.623   0.119   4.362  0.00  0.00    -0.241 OA
ATOM     20  HN  UNL d   1      -1.630   0.461   5.062  1.00  0.00     0.195 HD
ATOM     21  C   UNL d   1      -4.150   0.082   3.119  0.00  0.00     0.090 A 
ATOM     22  C   UNL d   1      -5.603  -0.193   3.056  0.00  0.00     0.080 C 
BRANCH  17  23
ATOM     23  C   UNL d   1      -0.628   0.898   2.617  0.00  0.00     0.015 A 
ATOM     24  C   UNL d   1       0.000   2.066   3.097  0.00  0.00     0.046 A 
ATOM     25 CL   UNL d   1      -0.812   3.241   4.077  0.00  0.00    -0.083 Cl
ATOM     26  C   UNL d   1       1.315   2.366   2.723  0.00  0.00     0.025 A 
ATOM     27  C   UNL d   1       2.018   1.504   1.881  0.00  0.00     0.002 A 
ATOM     28  C   UNL d   1       1.411   0.337   1.419  0.00  0.00     0.001 A 
ATOM     29  C   UNL d   1       0.098   0.029   1.791  0.00  0.00     0.015 A 
ENDBRANCH  17  23
ENDBRANCH   3  16
BRANCH   7  30
ATOM     30  C   UNL d   1      -2.034  -2.617  -1.724  0.00  0.00     0.067 A 
ATOM     31  C   UNL d   1      -2.946  -3.258  -2.588  0.00  0.00     0.094 A 
ATOM     32  C   UNL d   1      -2.469  -4.176  -3.544  0.00  0.00     0.039 A 
ATOM     33  C   UNL d   1      -1.114  -4.478  -3.648  0.00  0.00     0.003 A 
ATOM     34  C   UNL d   1      -0.214  -3.887  -2.773  0.00  0.00     0.002 A 
ATOM     35  C   UNL d   1      -0.676  -2.986  -1.808  0.00  0.00     0.032 A 
BRANCH  31  36
ATOM     36  O   UNL d   1      -4.307  -3.116  -2.673  0.00  0.00    -0.354 OA
ATOM     37  C   UNL d   1      -4.971  -2.322  -1.706  0.00  0.00     0.210 C 
ENDBRANCH  31  36
ENDBRANCH   7  30
TORSDOF 4
