REMARK  7 active torsions:
REMARK  status: ('A' for Active; 'I' for Inactive)
REMARK    1  A    between atoms: N_10  and  C_1 
REMARK    2  A    between atoms: N_14  and  C_1 
REMARK    3  A    between atoms: N_9  and  C_3 
REMARK    4  A    between atoms: O_15  and  C_4 
REMARK    5  A    between atoms: C_5  and  C_13 
REMARK    6  A    between atoms: N_6  and  N_10 
REMARK    7  A    between atoms: C_13  and  N_6 
ROOT
ATOM      1  C   UNL d   1      -5.311   0.500   1.642  0.00  0.00     0.066 A 
ATOM      2  C   UNL d   1      -6.048   1.700   1.632  0.00  0.00     0.032 A 
ATOM      3  C   UNL d   1      -3.907   0.492   1.642  0.00  0.00     0.079 A 
ATOM      4  C   UNL d   1      -3.199   1.690   1.633  0.00  0.00     0.014 A 
ATOM      5  C   UNL d   1      -3.905   2.893   1.640  0.00  0.00     0.018 A 
ATOM      6  C   UNL d   1      -5.303   2.890   1.643  0.00  0.00     0.030 A 
ENDROOT
BRANCH   4   7
ATOM      7  C   UNL d   1      -1.722   1.711   1.597  0.00  0.00     0.121 C 
BRANCH   7   8
ATOM      8  N   UNL d   1      -1.080   2.838   1.572  0.00  0.00    -0.309 N 
ATOM      9  HN  UNL d   1      -1.562   3.737   1.595  1.00  0.00     0.186 HD
BRANCH   8  10
ATOM     10  N   UNL d   1       0.280   2.745   1.513  0.00  0.00    -0.277 N 
ATOM     11  H   UNL d   1       0.738   1.840   1.465  0.00  0.00     0.189 HD
BRANCH  10  12
ATOM     12  C   UNL d   1       1.048   3.880   1.477  0.00  0.00     0.184 C 
ATOM     13  S   UNL d   1       2.703   3.836   1.369  0.00  0.00    -0.040 SA
BRANCH  12  14
ATOM     14  N   UNL d   1       0.359   5.043   1.536  0.00  0.00    -0.375 N 
ATOM     15  H   UNL d   1       0.820   5.943   1.515  0.00  0.00     0.158 HD
ATOM     16  H   UNL d   1      -0.648   4.970   1.595  0.00  0.00     0.158 HD
ENDBRANCH  12  14
ENDBRANCH  10  12
ENDBRANCH   8  10
ENDBRANCH   7   8
ENDBRANCH   4   7
BRANCH   3  17
ATOM     17  O   UNL d   1      -3.233  -0.699   1.637  0.00  0.00    -0.360 OA
ATOM     18  H   UNL d   1      -3.878  -1.427   1.633  0.00  0.00     0.217 HD
ENDBRANCH   3  17
BRANCH   2  19
ATOM     19  N   UNL d   1      -7.431   1.713   1.601  0.00  0.00    -0.389 N 
ATOM     20  C   UNL d   1      -8.237   0.646   2.181  0.00  0.00     0.149 C 
ATOM     21  C   UNL d   1      -8.179   2.819   1.011  0.00  0.00     0.149 C 
ENDBRANCH   2  19
TORSDOF 7
