REMARK  2 active torsions:
REMARK  status: ('A' for Active; 'I' for Inactive)
REMARK    1  A    between atoms: C_18  and  N_10 
REMARK    2  A    between atoms: C_14  and  C_12 
ROOT
ATOM      1  N   UNL d   1       1.298  -0.646  -0.073  0.00  0.00    -0.203 N 
ATOM      2  C   UNL d   1      -1.118  -0.640  -0.038  0.00  0.00     0.062 A 
ATOM      3  C   UNL d   1      -1.020   0.684   0.047  0.00  0.00     0.116 A 
ATOM      4  C   UNL d   1       1.313   0.744   0.034  0.00  0.00     0.133 A 
ATOM      5  C   UNL d   1       0.119  -1.437  -0.122  0.00  0.00     0.278 A 
ATOM      6  N   UNL d   1       2.559  -1.158  -0.122  0.00  0.00    -0.287 N 
ATOM      7  HN  UNL d   1       2.838  -2.133  -0.225  1.00  0.00     0.188 HD
ATOM      8  C   UNL d   1      -2.390   1.215   0.093  0.00  0.00     0.271 C 
ATOM      9  N   UNL d   1       0.138   1.407   0.071  0.00  0.00    -0.336 N 
ATOM     10  N   UNL d   1      -3.245   0.118   0.186  0.00  0.00    -0.338 N 
ATOM     11  C   UNL d   1       2.620   1.129   0.094  0.00  0.00     0.084 A 
ATOM     12  C   UNL d   1       3.348  -0.079  -0.002  0.00  0.00     0.086 A 
ATOM     13  C   UNL d   1      -2.507  -1.127  -0.025  0.00  0.00     0.173 C 
ATOM     14  O   UNL d   1       0.145  -2.658  -0.210  0.00  0.00    -0.265 OA
ATOM     15  O   UNL d   1      -2.640   2.406   0.040  0.00  0.00    -0.266 OA
ATOM     16  H   UNL d   1       0.033   2.421   0.153  0.00  0.00     0.168 HD
ENDROOT
BRANCH  10  17
ATOM     17  C   UNL d   1      -4.707   0.217   0.021  0.00  0.00     0.088 C 
ATOM     18  C   UNL d   1      -5.342   1.392   0.792  0.00  0.00     0.025 C 
ATOM     19  C   UNL d   1      -5.221   1.214   2.302  0.00  0.00     0.002 C 
ATOM     20  C   UNL d   1      -5.835  -0.102   2.772  0.00  0.00     0.000 C 
ATOM     21  C   UNL d   1      -5.397  -1.310   1.947  0.00  0.00     0.002 C 
ATOM     22  C   UNL d   1      -5.455  -1.063   0.438  0.00  0.00     0.025 C 
ENDBRANCH  10  17
BRANCH  12  23
ATOM     23  C   UNL d   1       4.837  -0.143   0.039  0.00  0.00     0.103 A 
ATOM     24  O   UNL d   1       5.641   0.949   0.235  0.00  0.00    -0.320 OA
ATOM     25  C   UNL d   1       6.924   0.511   0.238  0.00  0.00     0.142 A 
ATOM     26  C   UNL d   1       6.969  -0.846   0.029  0.00  0.00     0.027 A 
ATOM     27  C   UNL d   1       5.623  -1.269  -0.101  0.00  0.00     0.041 A 
ENDBRANCH  12  23
TORSDOF 2
