REMARK  8 active torsions:
REMARK  status: ('A' for Active; 'I' for Inactive)
REMARK    1  A    between atoms: N_7  and  C_1 
REMARK    2  A    between atoms: C_8  and  C_6 
REMARK       I    between atoms: C_9  and  N_7 
REMARK    3  A    between atoms: C_14  and  C_9 
REMARK    4  A    between atoms: C_12  and  C_14 
REMARK    5  A    between atoms: C_15  and  C_12 
REMARK    6  A    between atoms: C_18  and  C_12 
REMARK    7  A    between atoms: C_13  and  C_15 
REMARK    8  A    between atoms: O_19  and  C_13 
ROOT
ATOM      1  N   UNL d   1      -1.348  -4.211   0.724  0.00  0.00    -0.312 N 
ATOM      2  C   UNL d   1      -1.466  -2.773   0.617  0.00  0.00     0.223 C 
ATOM      3  O   UNL d   1      -0.561  -2.059   1.036  0.00  0.00    -0.273 OA
ATOM      4  H   UNL d   1      -2.075  -4.780   0.307  0.00  0.00     0.170 HD
ENDROOT
BRANCH   2   5
ATOM      5  C   UNL d   1      -2.754  -2.207   0.011  0.00  0.00     0.113 C 
BRANCH   5   6
ATOM      6  C   UNL d   1      -2.508  -0.773  -0.545  0.00  0.00     0.037 C 
BRANCH   6   7
ATOM      7  C   UNL d   1      -1.597  -0.687  -1.792  0.00  0.00     0.119 C 
BRANCH   7   8
ATOM      8  C   UNL d   1      -2.051  -1.484  -2.992  0.00  0.00     0.140 C 
ATOM      9  O   UNL d   1      -2.600  -2.573  -2.922  0.00  0.00    -0.650 OA
BRANCH   8  10
ATOM     10  O   UNL d   1      -1.704  -0.931  -4.172  0.00  0.00    -0.776 OA
ATOM     11  H   UNL d   1      -1.246  -0.070  -4.112  0.00  0.00     0.167 HD
ENDBRANCH   8  10
ENDBRANCH   7   8
ENDBRANCH   6   7
BRANCH   6  12
ATOM     12  C   UNL d   1      -3.714   0.155  -0.727  0.00  0.00    -0.053 A 
ATOM     13  C   UNL d   1      -3.660   1.429  -0.121  0.00  0.00     0.007 A 
ATOM     14  C   UNL d   1      -4.626   2.405  -0.377  0.00  0.00     0.001 A 
ATOM     15  C   UNL d   1      -5.674   2.126  -1.243  0.00  0.00     0.000 A 
ATOM     16  C   UNL d   1      -5.763   0.865  -1.833  0.00  0.00     0.001 A 
ATOM     17  C   UNL d   1      -4.792  -0.121  -1.575  0.00  0.00     0.007 A 
ENDBRANCH   6  12
ENDBRANCH   5   6
ENDBRANCH   2   5
BRANCH   1  18
ATOM     18  C   UNL d   1      -0.274  -4.867   1.362  0.00  0.00     0.126 A 
ATOM     19  C   UNL d   1       0.836  -4.332   2.007  0.00  0.00     0.077 A 
ATOM     20  C   UNL d   1       1.589  -5.440   2.459  0.00  0.00     0.034 A 
ATOM     21  N   UNL d   1       1.000  -6.590   2.152  0.00  0.00    -0.301 N 
ATOM     22  N   UNL d   1      -0.104  -6.233   1.480  0.00  0.00    -0.281 N 
ATOM     23  HN  UNL d   1       1.317  -7.533   2.376  1.00  0.00     0.187 HD
ATOM     24  C   UNL d   1      -0.939  -7.308   1.009  0.00  0.00     0.179 C 
BRANCH  20  25
ATOM     25  C   UNL d   1       2.925  -5.487   3.192  0.00  0.00     0.037 A 
ATOM     26  C   UNL d   1       3.341  -4.449   4.206  0.00  0.00     0.011 A 
ATOM     27  C   UNL d   1       3.996  -4.470   2.867  0.00  0.00     0.011 A 
ENDBRANCH  20  25
ENDBRANCH   1  18
TORSDOF 8
