REMARK  6 active torsions:
REMARK  status: ('A' for Active; 'I' for Inactive)
REMARK       I    between atoms: C_2  and  N_1 
REMARK    1  A    between atoms: C_5  and  C_2 
REMARK    2  A    between atoms: C_4  and  N_3 
REMARK    3  A    between atoms: C_6  and  C_5 
REMARK    4  A    between atoms: C_14  and  C_6 
REMARK    5  A    between atoms: C_7  and  C_14 
REMARK    6  A    between atoms: O_18  and  C_7 
ROOT
ATOM      1  N   UNL d   1      -1.254  -0.041   0.096  0.00  0.00    -0.349 N 
ATOM      2  C   UNL d   1      -2.370   0.003   0.912  0.00  0.00     0.220 C 
ATOM      3  N   UNL d   1       1.592  -0.269  -0.149  0.00  0.00    -0.378 N 
ATOM      4  C   UNL d   1      -0.647  -1.345  -0.223  0.00  0.00     0.145 C 
ATOM      5  C   UNL d   1      -0.458   1.096  -0.402  0.00  0.00     0.145 C 
ATOM      6  C   UNL d   1       0.816  -1.455   0.265  0.00  0.00     0.143 C 
ATOM      7  C   UNL d   1       0.972   1.031   0.165  0.00  0.00     0.143 C 
ATOM      8  O   UNL d   1      -2.818  -1.035   1.412  0.00  0.00    -0.273 OA
ENDROOT
BRANCH   2   9
ATOM      9  C   UNL d   1      -3.106   1.318   1.153  0.00  0.00     0.112 C 
BRANCH   9  10
ATOM     10  C   UNL d   1      -3.311   1.728   2.643  0.00  0.00    -0.030 C 
ATOM     11  C   UNL d   1      -4.126   3.042   2.675  0.00  0.00     0.016 C 
ATOM     12  C   UNL d   1      -4.149   0.682   3.416  0.00  0.00     0.016 C 
BRANCH  10  13
ATOM     13  C   UNL d   1      -1.976   1.887   3.413  0.00  0.00     0.119 C 
BRANCH  13  14
ATOM     14  C   UNL d   1      -0.977   2.884   2.867  0.00  0.00     0.140 C 
ATOM     15  O   UNL d   1      -1.141   3.615   1.907  0.00  0.00    -0.650 OA
BRANCH  14  16
ATOM     16  O   UNL d   1       0.183   2.867   3.564  0.00  0.00    -0.776 OA
ATOM     17  H   UNL d   1       0.190   2.239   4.311  0.00  0.00     0.167 HD
ENDBRANCH  14  16
ENDBRANCH  13  14
ENDBRANCH  10  13
ENDBRANCH   9  10
ENDBRANCH   2   9
BRANCH   3  18
ATOM     18  C   UNL d   1       2.720  -0.375  -0.939  0.00  0.00     0.030 A 
ATOM     19  C   UNL d   1       3.663  -1.397  -0.732  0.00  0.00     0.032 A 
ATOM     20  C   UNL d   1       4.833  -1.484  -1.497  0.00  0.00     0.044 A 
ATOM     21  C   UNL d   1       5.070  -0.550  -2.493  0.00  0.00     0.116 A 
ATOM     22  C   UNL d   1       4.157   0.462  -2.739  0.00  0.00     0.044 A 
ATOM     23  F   UNL d   1       6.191  -0.624  -3.221  0.00  0.00    -0.206 F 
ATOM     24  C   UNL d   1       2.995   0.544  -1.965  0.00  0.00     0.032 A 
ENDBRANCH   3  18
TORSDOF 6
