REMARK  0 active torsions:
REMARK  status: ('A' for Active; 'I' for Inactive)
ROOT
ATOM      1  N   UNL d   1       1.068   0.012  -0.022  0.00  0.00    -0.191 NA
ATOM      2  C   UNL d   1       2.227  -0.032  -0.021  0.00  0.00     0.101 C 
ATOM      3  N   UNL d   1       5.764   1.093  -0.016  0.00  0.00    -0.372 N 
ATOM      4  HN  UNL d   1       6.287   1.968  -0.014  1.00  0.00     0.164 HD
ATOM      5  C   UNL d   1       3.654  -0.092  -0.019  0.00  0.00     0.061 A 
ATOM      6  C   UNL d   1       4.326  -1.316  -0.018  0.00  0.00     0.044 A 
ATOM      7  C   UNL d   1       5.718  -1.322  -0.017  0.00  0.00     0.027 A 
ATOM      8  C   UNL d   1       4.409   1.074  -0.018  0.00  0.00     0.110 A 
ATOM      9 BR   UNL d   1       6.667  -2.951  -0.019  0.00  0.00    -0.050 Br
ATOM     10  C   UNL d   1       6.391  -0.109  -0.015  0.00  0.00     0.106 A 
ENDROOT
TORSDOF 0
