REMARK  5 active torsions:
REMARK  status: ('A' for Active; 'I' for Inactive)
REMARK    1  A    between atoms: N_3  and  C_10 
REMARK    2  A    between atoms: N_5  and  C_4 
REMARK       I    between atoms: C_6  and  N_5 
REMARK       I    between atoms: N_11  and  C_6 
REMARK    3  A    between atoms: C_19  and  C_7 
REMARK    4  A    between atoms: C_23  and  N_11 
REMARK    5  A    between atoms: C_14  and  C_19 
ROOT
ATOM      1  N   UNL d   1       2.726   1.744  -0.105  0.00  0.00    -0.294 N 
ATOM      2  C   UNL d   1       3.800   0.946   0.253  0.00  0.00     0.326 C 
ATOM      3  N   UNL d   1       5.000   1.482  -0.184  0.00  0.00    -0.309 N 
ATOM      4  O   UNL d   1       3.689  -0.109   0.870  0.00  0.00    -0.247 OA
ATOM      5  H   UNL d   1       2.784   2.736   0.052  0.00  0.00     0.172 HD
ATOM      6  H   UNL d   1       4.951   2.391  -0.618  0.00  0.00     0.170 HD
ENDROOT
BRANCH   1   7
ATOM      7  C   UNL d   1       1.483   1.177  -0.306  0.00  0.00     0.116 A 
ATOM      8  N   UNL d   1       1.397  -0.151  -0.641  0.00  0.00    -0.339 N 
ATOM      9  C   UNL d   1       0.149  -0.538  -0.735  0.00  0.00     0.056 A 
ATOM     10  HN  UNL d   1       2.202  -0.759  -0.797  1.00  0.00     0.168 HD
ATOM     11  S   UNL d   1      -1.005   0.721  -0.534  0.00  0.00    -0.085 SA
ATOM     12  C   UNL d   1       0.278   1.842  -0.268  0.00  0.00     0.100 A 
BRANCH   9  13
ATOM     13  C   UNL d   1      -0.226  -1.988  -0.855  0.00  0.00     0.103 C 
BRANCH  13  14
ATOM     14  C   UNL d   1      -1.108  -2.364  -2.013  0.00  0.00    -0.045 A 
ATOM     15  C   UNL d   1      -0.658  -2.927  -3.195  0.00  0.00     0.057 A 
ATOM     16  S   UNL d   1      -1.931  -3.379  -4.245  0.00  0.00    -0.113 SA
ATOM     17  C   UNL d   1      -3.108  -2.814  -3.145  0.00  0.00     0.050 A 
ATOM     18  C   UNL d   1      -2.541  -2.284  -2.008  0.00  0.00     0.015 A 
ENDBRANCH  13  14
ENDBRANCH   9  13
ENDBRANCH   1   7
BRANCH   3  19
ATOM     19  C   UNL d   1       6.244   0.814  -0.230  0.00  0.00     0.036 A 
ATOM     20  C   UNL d   1       6.420  -0.524   0.145  0.00  0.00     0.032 A 
ATOM     21  C   UNL d   1       7.668  -1.147   0.034  0.00  0.00     0.038 A 
ATOM     22  C   UNL d   1       8.756  -0.423  -0.457  0.00  0.00     0.103 A 
ATOM     23  C   UNL d   1       8.599   0.915  -0.838  0.00  0.00     0.038 A 
ATOM     24  C   UNL d   1       7.343   1.525  -0.726  0.00  0.00     0.032 A 
BRANCH  22  25
ATOM     25  N   UNL d   1      10.067  -1.071  -0.575  0.00  0.00    -0.116 N 
ATOM     26  O   UNL d   1      10.144  -2.278  -0.304  0.00  0.00    -0.532 OA
ATOM     27  O   UNL d   1      11.022  -0.370  -0.940  0.00  0.00    -0.532 OA
ENDBRANCH  22  25
ENDBRANCH   3  19
TORSDOF 5
