REMARK  4 active torsions:
REMARK  status: ('A' for Active; 'I' for Inactive)
REMARK       I    between atoms: N_2  and  C_1 
REMARK    1  A    between atoms: C_3  and  C_1 
REMARK    2  A    between atoms: N_4  and  N_2 
REMARK    3  A    between atoms: C_8  and  N_4 
REMARK    4  A    between atoms: C_18  and  C_12 
ROOT
ATOM      1  C   UNL d   1       1.048   0.019  -0.042  0.00  0.00     0.266 C 
ATOM      2  N   UNL d   1       2.380  -0.237   0.236  0.00  0.00    -0.283 N 
ATOM      3  O   UNL d   1       0.456   1.010   0.380  0.00  0.00    -0.266 OA
ATOM      4  H   UNL d   1       2.824  -1.124   0.043  0.00  0.00     0.184 HD
ENDROOT
BRANCH   2   5
ATOM      5  N   UNL d   1       3.007   0.559   1.197  0.00  0.00    -0.203 NA
ATOM      6  H   UNL d   1       2.429   1.366   1.464  0.00  0.00     0.153 HD
BRANCH   5   7
ATOM      7  C   UNL d   1       4.346   0.927   0.923  0.00  0.00     0.027 A 
ATOM      8  C   UNL d   1       5.109   0.387  -0.124  0.00  0.00     0.027 A 
ATOM      9  C   UNL d   1       6.466   0.702  -0.268  0.00  0.00     0.026 A 
ATOM     10  C   UNL d   1       7.082   1.547   0.650  0.00  0.00     0.034 A 
ATOM     11  C   UNL d   1       6.349   2.088   1.702  0.00  0.00     0.026 A 
ATOM     12 CL   UNL d   1       8.756   1.905   0.494  0.00  0.00    -0.084 Cl
ATOM     13  C   UNL d   1       4.993   1.777   1.835  0.00  0.00     0.027 A 
ENDBRANCH   5   7
ENDBRANCH   2   5
BRANCH   1  14
ATOM     14  C   UNL d   1       0.359  -0.967  -0.927  0.00  0.00     0.033 A 
ATOM     15  C   UNL d   1       0.788  -2.294  -1.058  0.00  0.00     0.017 A 
ATOM     16  C   UNL d   1       0.144  -3.157  -1.950  0.00  0.00     0.008 A 
ATOM     17  C   UNL d   1      -0.946  -2.713  -2.708  0.00  0.00    -0.059 A 
ATOM     18  C   UNL d   1      -1.390  -1.395  -2.553  0.00  0.00     0.008 A 
ATOM     19  C   UNL d   1      -0.747  -0.529  -1.664  0.00  0.00     0.017 A 
BRANCH  17  20
ATOM     20  C   UNL d   1      -1.616  -3.637  -3.694  0.00  0.00     0.034 C 
ATOM     21  C   UNL d   1      -0.966  -3.568  -5.069  0.00  0.00     0.010 C 
ENDBRANCH  17  20
ENDBRANCH   1  14
TORSDOF 4
