REMARK  7 active torsions:
REMARK  status: ('A' for Active; 'I' for Inactive)
REMARK    1  A    between atoms: C_2  and  C_1 
REMARK    2  A    between atoms: O_3  and  C_1 
REMARK    3  A    between atoms: C_11  and  O_3 
REMARK    4  A    between atoms: C_4  and  C_11 
REMARK    5  A    between atoms: C_13  and  C_4 
REMARK    6  A    between atoms: O_15  and  C_8 
REMARK    7  A    between atoms: O_14  and  C_9 
ROOT
ATOM      1  C   UNL d   1       1.101  -0.064  -0.011  0.00  0.00     0.293 C 
ATOM      2  O   UNL d   1       2.075   0.571  -0.390  0.00  0.00    -0.259 OA
ENDROOT
BRANCH   1   3
ATOM      3  C   UNL d   1       0.322   0.295   1.212  0.00  0.00     0.044 A 
ATOM      4  C   UNL d   1       0.764   1.390   1.972  0.00  0.00     0.054 A 
ATOM      5  C   UNL d   1       0.033   1.820   3.080  0.00  0.00     0.071 A 
ATOM      6  C   UNL d   1      -1.147   1.156   3.428  0.00  0.00     0.073 A 
ATOM      7  C   UNL d   1      -1.603   0.072   2.679  0.00  0.00     0.071 A 
ATOM      8  C   UNL d   1      -0.854  -0.371   1.583  0.00  0.00     0.054 A 
BRANCH   5   9
ATOM      9  O   UNL d   1       0.345   2.877   3.890  0.00  0.00    -0.356 OA
ATOM     10  C   UNL d   1       1.526   3.607   3.578  0.00  0.00     0.210 C 
ENDBRANCH   5   9
BRANCH   7  11
ATOM     11  O   UNL d   1      -2.764  -0.618   2.903  0.00  0.00    -0.356 OA
ATOM     12  C   UNL d   1      -3.637  -0.102   3.904  0.00  0.00     0.210 C 
ENDBRANCH   7  11
ENDBRANCH   1   3
BRANCH   1  13
ATOM     13  O   UNL d   1       0.534  -1.103  -0.672  0.00  0.00    -0.310 OA
BRANCH  13  14
ATOM     14  C   UNL d   1       1.145  -1.425  -1.927  0.00  0.00     0.263 C 
BRANCH  14  15
ATOM     15  C   UNL d   1       2.393  -2.302  -1.821  0.00  0.00     0.183 C 
ATOM     16  O   UNL d   1       2.833  -2.690  -0.739  0.00  0.00    -0.290 OA
BRANCH  15  17
ATOM     17  C   UNL d   1       3.082  -2.721  -3.086  0.00  0.00     0.012 A 
ATOM     18  C   UNL d   1       2.582  -2.418  -4.359  0.00  0.00     0.015 A 
ATOM     19  C   UNL d   1       3.264  -2.844  -5.507  0.00  0.00     0.001 A 
ATOM     20  C   UNL d   1       4.445  -3.574  -5.391  0.00  0.00     0.000 A 
ATOM     21  C   UNL d   1       4.949  -3.886  -4.133  0.00  0.00     0.001 A 
ATOM     22  C   UNL d   1       4.269  -3.463  -2.986  0.00  0.00     0.015 A 
ENDBRANCH  15  17
ENDBRANCH  14  15
ENDBRANCH  13  14
ENDBRANCH   1  13
TORSDOF 7
