REMARK  6 active torsions:
REMARK  status: ('A' for Active; 'I' for Inactive)
REMARK    1  A    between atoms: S_13  and  C_5 
REMARK    2  A    between atoms: C_12  and  C_10 
REMARK    3  A    between atoms: C_14  and  C_11 
REMARK    4  A    between atoms: C_20  and  S_13 
REMARK    5  A    between atoms: C_15  and  C_20 
REMARK    6  A    between atoms: O_21  and  C_15 
ROOT
ATOM      1  N   UNL d   1       0.302   0.661  -0.007  0.00  0.00    -0.233 N 
ATOM      2  C   UNL d   1       0.138  -0.727   0.010  0.00  0.00     0.130 A 
ATOM      3  N   UNL d   1       1.623   0.993  -0.021  0.00  0.00    -0.295 N 
ATOM      4  HN  UNL d   1       2.022   1.932  -0.027  1.00  0.00     0.187 HD
ATOM      5  C   UNL d   1      -0.826   1.502  -0.011  0.00  0.00     0.097 A 
ATOM      6  N   UNL d   1      -1.087  -1.325   0.039  0.00  0.00    -0.337 N 
ATOM      7  HN  UNL d   1      -1.182  -2.341   0.054  1.00  0.00     0.167 HD
ATOM      8  C   UNL d   1       1.400  -1.266   0.004  0.00  0.00     0.077 A 
ATOM      9  C   UNL d   1      -2.056   0.959   0.017  0.00  0.00     0.073 A 
ATOM     10  C   UNL d   1      -2.136  -0.542   0.047  0.00  0.00     0.120 A 
ATOM     11  C   UNL d   1       2.288  -0.168  -0.025  0.00  0.00     0.037 A 
ENDROOT
BRANCH   5  12
ATOM     12  S   UNL d   1      -0.652   3.239  -0.002  0.00  0.00    -0.100 SA
BRANCH  12  13
ATOM     13  C   UNL d   1       0.288   3.543  -1.536  0.00  0.00     0.191 C 
BRANCH  13  14
ATOM     14  C   UNL d   1      -0.476   3.140  -2.781  0.00  0.00     0.268 C 
ATOM     15  O   UNL d   1      -1.567   2.584  -2.819  0.00  0.00    -0.264 OA
BRANCH  14  16
ATOM     16  O   UNL d   1       0.249   3.482  -3.889  0.00  0.00    -0.326 OA
ATOM     17  C   UNL d   1      -0.385   3.135  -5.122  0.00  0.00     0.213 C 
ENDBRANCH  14  16
ENDBRANCH  13  14
ENDBRANCH  12  13
ENDBRANCH   5  12
BRANCH  10  18
ATOM     18  C   UNL d   1      -3.534  -1.164   0.108  0.00  0.00     0.432 C 
ATOM     19  F   UNL d   1      -4.530  -0.234   0.119  0.00  0.00    -0.165 F 
ATOM     20  F   UNL d   1      -3.786  -1.980  -0.951  0.00  0.00    -0.165 F 
ATOM     21  F   UNL d   1      -3.709  -1.916   1.229  0.00  0.00    -0.165 F 
ENDBRANCH  10  18
BRANCH  11  22
ATOM     22  C   UNL d   1       3.808  -0.191  -0.021  0.00  0.00    -0.007 C 
ATOM     23  C   UNL d   1       4.319  -0.215   1.432  0.00  0.00     0.021 C 
ATOM     24  C   UNL d   1       4.342  -1.440  -0.754  0.00  0.00     0.021 C 
ATOM     25  C   UNL d   1       4.392   1.050  -0.729  0.00  0.00     0.021 C 
ENDBRANCH  11  22
TORSDOF 6
