REMARK  7 active torsions:
REMARK  status: ('A' for Active; 'I' for Inactive)
REMARK    1  A    between atoms: C_7  and  C_1 
REMARK    2  A    between atoms: C_14  and  C_4 
REMARK       I    between atoms: N_8  and  C_7 
REMARK    3  A    between atoms: C_12  and  N_8 
REMARK    4  A    between atoms: C_9  and  C_12 
REMARK    5  A    between atoms: O_13  and  C_9 
REMARK    6  A    between atoms: C_16  and  O_13 
REMARK    7  A    between atoms: C_17  and  C_14 
ROOT
ATOM      1  C   UNL d   1       1.456  -0.748  -0.179  0.00  0.00     0.072 A 
ATOM      2  N   UNL d   1      -0.208   0.829  -0.036  0.00  0.00    -0.302 N 
ATOM      3  HN  UNL d   1      -0.712   1.713   0.040  1.00  0.00     0.186 HD
ATOM      4  C   UNL d   1       1.117   0.633  -0.002  0.00  0.00     0.043 A 
ATOM      5  N   UNL d   1      -0.721  -0.395  -0.191  0.00  0.00    -0.307 N 
ATOM      6  C   UNL d   1       0.226  -1.371  -0.309  0.00  0.00     0.128 A 
ATOM      7  C   UNL d   1      -2.154  -0.551  -0.185  0.00  0.00     0.177 C 
ENDROOT
BRANCH   1   8
ATOM      8  C   UNL d   1       2.787  -1.343  -0.186  0.00  0.00     0.255 C 
ATOM      9  N   UNL d   1       2.861  -2.708  -0.403  0.00  0.00    -0.347 N 
ATOM     10  H   UNL d   1       2.028  -3.270  -0.496  0.00  0.00     0.163 HD
ATOM     11  O   UNL d   1       3.798  -0.675   0.007  0.00  0.00    -0.268 OA
BRANCH   9  12
ATOM     12  C   UNL d   1       4.155  -3.365  -0.287  0.00  0.00     0.233 C 
BRANCH  12  13
ATOM     13  C   UNL d   1       4.264  -4.854  -0.598  0.00  0.00     0.276 C 
ATOM     14  O   UNL d   1       5.312  -5.479  -0.484  0.00  0.00    -0.263 OA
BRANCH  13  15
ATOM     15  O   UNL d   1       3.081  -5.400  -1.002  0.00  0.00    -0.321 OA
BRANCH  15  16
ATOM     16  C   UNL d   1       3.126  -6.819  -1.247  0.00  0.00     0.174 C 
ATOM     17  C   UNL d   1       3.642  -7.125  -2.643  0.00  0.00     0.034 C 
ENDBRANCH  15  16
ENDBRANCH  13  15
ENDBRANCH  12  13
ENDBRANCH   9  12
ENDBRANCH   1   8
BRANCH   4  18
ATOM     18  C   UNL d   1       1.998   1.820   0.239  0.00  0.00     0.059 C 
BRANCH  18  19
ATOM     19  C   UNL d   1       2.097   2.151   1.732  0.00  0.00     0.002 C 
ATOM     20  C   UNL d   1       2.721   3.515   1.977  0.00  0.00     0.005 C 
ENDBRANCH  18  19
ENDBRANCH   4  18
TORSDOF 7
