REMARK  5 active torsions:
REMARK  status: ('A' for Active; 'I' for Inactive)
REMARK    1  A    between atoms: C_20  and  C_2 
REMARK    2  A    between atoms: S_13  and  C_4 
REMARK    3  A    between atoms: C_6  and  S_13 
REMARK    4  A    between atoms: C_21  and  C_18 
REMARK    5  A    between atoms: C_22  and  C_19 
ROOT
ATOM      1  N   UNL d   1       0.300   0.695  -0.083  0.00  0.00    -0.233 N 
ATOM      2  C   UNL d   1       0.152  -0.694  -0.074  0.00  0.00     0.130 A 
ATOM      3  C   UNL d   1      -0.838   1.519  -0.075  0.00  0.00     0.104 A 
ATOM      4  N   UNL d   1       1.620   1.044  -0.079  0.00  0.00    -0.295 N 
ATOM      5  HN  UNL d   1       2.010   1.986  -0.094  1.00  0.00     0.187 HD
ATOM      6  N   UNL d   1      -1.068  -1.308  -0.059  0.00  0.00    -0.337 N 
ATOM      7  HN  UNL d   1      -1.151  -2.325  -0.052  1.00  0.00     0.167 HD
ATOM      8  C   UNL d   1       1.418  -1.221  -0.054  0.00  0.00     0.077 A 
ATOM      9  C   UNL d   1      -2.062   0.964  -0.072  0.00  0.00     0.073 A 
ATOM     10  C   UNL d   1      -2.127  -0.538  -0.054  0.00  0.00     0.120 A 
ATOM     11  C   UNL d   1       2.296  -0.113  -0.051  0.00  0.00     0.037 A 
ENDROOT
BRANCH   3  12
ATOM     12  S   UNL d   1      -0.646   3.244   0.027  0.00  0.00    -0.033 SA
BRANCH  12  13
ATOM     13  C   UNL d   1      -0.415   3.558  -1.659  0.00  0.00     0.169 A 
ATOM     14  N   UNL d   1       0.634   4.285  -2.166  0.00  0.00    -0.312 N 
ATOM     15  C   UNL d   1       0.385   4.395  -3.519  0.00  0.00     0.209 A 
ATOM     16  C   UNL d   1       1.736   4.800  -1.393  0.00  0.00     0.160 C 
ATOM     17  N   UNL d   1      -0.743   3.749  -3.785  0.00  0.00    -0.279 N 
ATOM     18  N   UNL d   1      -1.240   3.227  -2.620  0.00  0.00    -0.278 N 
ATOM     19  HN  UNL d   1      -1.170   3.656  -4.707  1.00  0.00     0.188 HD
ATOM     20  HN  UNL d   1      -2.095   2.681  -2.520  1.00  0.00     0.189 HD
BRANCH  15  21
ATOM     21  C   UNL d   1       1.213   5.112  -4.530  0.00  0.00     0.450 C 
ATOM     22  F   UNL d   1       2.310   5.723  -4.012  0.00  0.00    -0.163 F 
ATOM     23  F   UNL d   1       1.672   4.273  -5.495  0.00  0.00    -0.163 F 
ATOM     24  F   UNL d   1       0.509   6.089  -5.160  0.00  0.00    -0.163 F 
ENDBRANCH  15  21
ENDBRANCH  12  13
ENDBRANCH   3  12
BRANCH  10  25
ATOM     25  C   UNL d   1      -3.519  -1.171   0.025  0.00  0.00     0.432 C 
ATOM     26  F   UNL d   1      -4.521  -0.252  -0.055  0.00  0.00    -0.165 F 
ATOM     27  F   UNL d   1      -3.744  -2.071  -0.969  0.00  0.00    -0.165 F 
ATOM     28  F   UNL d   1      -3.708  -1.831   1.201  0.00  0.00    -0.165 F 
ENDBRANCH  10  25
BRANCH  11  29
ATOM     29  C   UNL d   1       3.816  -0.151  -0.029  0.00  0.00    -0.007 C 
ATOM     30  C   UNL d   1       4.434   1.262   0.034  0.00  0.00     0.021 C 
ATOM     31  C   UNL d   1       4.312  -0.940   1.201  0.00  0.00     0.021 C 
ATOM     32  C   UNL d   1       4.334  -0.845  -1.305  0.00  0.00     0.021 C 
ENDBRANCH  11  29
TORSDOF 5
