REMARK  6 active torsions:
REMARK  status: ('A' for Active; 'I' for Inactive)
REMARK    1  A    between atoms: C_2  and  S_1 
REMARK    2  A    between atoms: N_5  and  S_1 
REMARK    3  A    between atoms: N_4  and  C_3 
REMARK    4  A    between atoms: C_10  and  N_5 
REMARK    5  A    between atoms: C_7  and  S_9 
REMARK    6  A    between atoms: S_9  and  C_14 
ROOT
ATOM      1  C   UNL d   1       0.747   2.524   0.702  0.00  0.00     0.059 A 
ATOM      2  C   UNL d   1       2.121   2.605   1.017  0.00  0.00     0.033 A 
ATOM      3  C   UNL d   1      -0.088   3.617   0.988  0.00  0.00     0.031 A 
ATOM      4  C   UNL d   1       2.593   3.789   1.621  0.00  0.00     0.021 A 
ATOM      5  C   UNL d   1       0.400   4.774   1.589  0.00  0.00     0.002 A 
ATOM      6  C   UNL d   1       1.743   4.859   1.906  0.00  0.00     0.002 A 
ENDROOT
BRANCH   1   7
ATOM      7  N   UNL d   1       0.114   1.506  -0.065  0.00  0.00    -0.279 N 
ATOM      8  H   UNL d   1      -0.358   1.795  -0.922  0.00  0.00     0.179 HD
BRANCH   7   9
ATOM      9  S   UNL d   1      -0.355  -0.001   0.461  0.00  0.00     0.265 S 
ATOM     10  O   UNL d   1      -1.304  -0.490  -0.512  0.00  0.00    -0.200 OA
ATOM     11  O   UNL d   1       0.844  -0.762   0.745  0.00  0.00    -0.200 OA
BRANCH   9  12
ATOM     12  C   UNL d   1      -1.246   0.124   1.998  0.00  0.00     0.103 A 
ATOM     13  C   UNL d   1      -0.798  -0.704   3.048  0.00  0.00     0.052 A 
ATOM     14  C   UNL d   1      -1.531  -0.839   4.230  0.00  0.00     0.057 A 
ATOM     15 CL   UNL d   1      -0.937  -1.938   5.421  0.00  0.00    -0.083 Cl
ATOM     16  C   UNL d   1      -2.720  -0.126   4.389  0.00  0.00     0.057 A 
ATOM     17  C   UNL d   1      -3.170   0.700   3.357  0.00  0.00     0.051 A 
ATOM     18 CL   UNL d   1      -3.691  -0.255   5.811  0.00  0.00    -0.082 Cl
ATOM     19  C   UNL d   1      -2.453   0.808   2.147  0.00  0.00     0.059 A 
ATOM     20 CL   UNL d   1      -3.180   1.762   0.909  0.00  0.00    -0.083 Cl
ENDBRANCH   9  12
ENDBRANCH   7   9
ENDBRANCH   1   7
BRANCH   2  21
ATOM     21  S   UNL d   1       3.369   1.415   0.503  0.00  0.00    -0.086 SA
BRANCH  21  22
ATOM     22  C   UNL d   1       4.244   1.083   2.035  0.00  0.00     0.038 A 
ATOM     23  C   UNL d   1       5.561   1.466   2.344  0.00  0.00     0.121 A 
ATOM     24  C   UNL d   1       6.182   1.128   3.560  0.00  0.00     0.061 A 
ATOM     25  C   UNL d   1       5.470   0.385   4.491  0.00  0.00     0.036 A 
ATOM     26  C   UNL d   1       4.169  -0.026   4.212  0.00  0.00     0.025 A 
ATOM     27 CL   UNL d   1       6.194  -0.030   5.993  0.00  0.00    -0.084 Cl
ATOM     28  C   UNL d   1       3.565   0.313   2.995  0.00  0.00     0.023 A 
BRANCH  23  29
ATOM     29  N   UNL d   1       6.352   2.267   1.433  0.00  0.00    -0.114 N 
ATOM     30  O   UNL d   1       6.039   3.459   1.313  0.00  0.00    -0.532 OA
ATOM     31  O   UNL d   1       7.342   1.725   0.923  0.00  0.00    -0.532 OA
ENDBRANCH  23  29
ENDBRANCH  21  22
ENDBRANCH   2  21
TORSDOF 6
