REMARK  7 active torsions:
REMARK  status: ('A' for Active; 'I' for Inactive)
REMARK    1  A    between atoms: S_9  and  C_2 
REMARK    2  A    between atoms: C_11  and  C_3 
REMARK       I    between atoms: C_8  and  N_10 
REMARK    3  A    between atoms: O_12  and  C_8 
REMARK    4  A    between atoms: C_19  and  S_9 
REMARK    5  A    between atoms: N_10  and  C_11 
REMARK    6  A    between atoms: C_18  and  O_12 
REMARK    7  A    between atoms: C_17  and  C_19 
ROOT
ATOM      1  N   UNL d   1       0.845   0.275  -0.043  0.00  0.00    -0.318 N 
ATOM      2  C   UNL d   1      -0.002   1.349  -0.008  0.00  0.00     0.162 A 
ATOM      3  C   UNL d   1       0.029  -0.834  -0.127  0.00  0.00     0.117 A 
ATOM      4  N   UNL d   1      -1.243   0.935  -0.109  0.00  0.00    -0.278 N 
ATOM      5  HN  UNL d   1      -2.074   1.527  -0.124  1.00  0.00     0.189 HD
ATOM      6  N   UNL d   1      -1.227  -0.434  -0.190  0.00  0.00    -0.285 N 
ATOM      7  HN  UNL d   1      -2.044  -1.038  -0.284  1.00  0.00     0.188 HD
ATOM      8  C   UNL d   1       2.284   0.256   0.026  0.00  0.00     0.160 C 
ENDROOT
BRANCH   2   9
ATOM      9  S   UNL d   1       0.492   2.998   0.179  0.00  0.00    -0.088 SA
BRANCH   9  10
ATOM     10  C   UNL d   1      -1.054   3.709   0.818  0.00  0.00     0.121 C 
BRANCH  10  11
ATOM     11  C   UNL d   1      -0.973   5.204   1.009  0.00  0.00    -0.043 A 
ATOM     12  C   UNL d   1      -1.483   6.077   0.035  0.00  0.00     0.050 A 
ATOM     13  C   UNL d   1      -1.452   7.455   0.242  0.00  0.00     0.119 A 
ATOM     14  F   UNL d   1      -1.968   8.270  -0.688  0.00  0.00    -0.206 F 
ATOM     15  C   UNL d   1      -0.912   7.996   1.398  0.00  0.00     0.084 A 
ATOM     16  C   UNL d   1      -0.387   7.138   2.352  0.00  0.00     0.119 A 
ATOM     17  C   UNL d   1      -0.408   5.754   2.171  0.00  0.00     0.050 A 
ATOM     18  F   UNL d   1       0.140   7.644   3.475  0.00  0.00    -0.206 F 
ENDBRANCH  10  11
ENDBRANCH   9  10
ENDBRANCH   2   9
BRANCH   3  19
ATOM     19  C   UNL d   1       0.487  -2.248  -0.088  0.00  0.00     0.203 C 
BRANCH  19  20
ATOM     20  N   UNL d   1       0.625  -2.755  -1.428  0.00  0.00    -0.330 N 
ATOM     21  C   UNL d   1       1.829  -3.030  -1.992  0.00  0.00     0.361 C 
ATOM     22  O   UNL d   1       2.906  -2.790  -1.468  0.00  0.00    -0.238 OA
ATOM     23  H   UNL d   1      -0.201  -2.967  -1.971  0.00  0.00     0.165 HD
BRANCH  21  24
ATOM     24  O   UNL d   1       1.638  -3.615  -3.195  0.00  0.00    -0.294 OA
BRANCH  24  25
ATOM     25  C   UNL d   1       2.771  -4.070  -3.983  0.00  0.00     0.061 C 
ATOM     26  C   UNL d   1       3.633  -5.077  -3.208  0.00  0.00     0.046 C 
ATOM     27  C   UNL d   1       2.156  -4.788  -5.196  0.00  0.00     0.046 C 
ATOM     28  C   UNL d   1       3.594  -2.877  -4.480  0.00  0.00     0.046 C 
ENDBRANCH  24  25
ENDBRANCH  21  24
ENDBRANCH  19  20
ENDBRANCH   3  19
TORSDOF 7
