REMARK  4 active torsions:
REMARK  status: ('A' for Active; 'I' for Inactive)
REMARK       I    between atoms: N_2  and  C_1 
REMARK    1  A    between atoms: C_5  and  C_1 
REMARK    2  A    between atoms: C_6  and  N_2 
REMARK    3  A    between atoms: S_3  and  C_5 
REMARK    4  A    between atoms: C_7  and  S_3 
ROOT
ATOM      1  C   UNL d   1       0.998   0.012   0.070  0.00  0.00     0.231 C 
ATOM      2  N   UNL d   1       0.352  -0.693  -0.931  0.00  0.00    -0.327 N 
ATOM      3  O   UNL d   1       0.442   0.625   0.981  0.00  0.00    -0.272 OA
ATOM      4  H   UNL d   1       0.952  -1.233  -1.545  0.00  0.00     0.169 HD
ENDROOT
BRANCH   1   5
ATOM      5  C   UNL d   1       2.523  -0.085   0.054  0.00  0.00     0.182 C 
BRANCH   5   6
ATOM      6  S   UNL d   1       3.189  -0.161  -1.645  0.00  0.00    -0.121 SA
BRANCH   6   7
ATOM      7  C   UNL d   1       4.960  -0.057  -1.413  0.00  0.00     0.001 A 
ATOM      8  C   UNL d   1       5.758  -0.574  -2.442  0.00  0.00     0.019 A 
ATOM      9  C   UNL d   1       7.151  -0.470  -2.397  0.00  0.00     0.008 A 
ATOM     10  C   UNL d   1       7.779   0.161  -1.320  0.00  0.00    -0.062 A 
ATOM     11  C   UNL d   1       6.989   0.672  -0.286  0.00  0.00     0.008 A 
ATOM     12  C   UNL d   1       9.271   0.320  -1.313  0.00  0.00     0.048 C 
ATOM     13  C   UNL d   1       5.591   0.565  -0.333  0.00  0.00     0.019 A 
ENDBRANCH   6   7
ENDBRANCH   5   6
ENDBRANCH   1   5
BRANCH   2  14
ATOM     14  C   UNL d   1      -1.025  -0.687  -1.237  0.00  0.00     0.034 A 
ATOM     15  C   UNL d   1      -1.951   0.163  -0.621  0.00  0.00     0.032 A 
ATOM     16  C   UNL d   1      -3.296   0.144  -1.004  0.00  0.00     0.044 A 
ATOM     17  C   UNL d   1      -3.716  -0.731  -1.997  0.00  0.00     0.116 A 
ATOM     18  C   UNL d   1      -2.813  -1.585  -2.617  0.00  0.00     0.044 A 
ATOM     19  F   UNL d   1      -5.003  -0.747  -2.364  0.00  0.00    -0.206 F 
ATOM     20  C   UNL d   1      -1.467  -1.559  -2.241  0.00  0.00     0.032 A 
ENDBRANCH   2  14
TORSDOF 4
