REMARK  2 active torsions:
REMARK  status: ('A' for Active; 'I' for Inactive)
REMARK    1  A    between atoms: N_6  and  S_1 
REMARK    2  A    between atoms: C_10  and  S_1 
ROOT
ATOM      1  C   UNL d   1       2.198  -4.557   2.236  0.00  0.00     0.148 A 
ATOM      2  N   UNL d   1       3.347  -4.750   2.848  0.00  0.00    -0.336 N 
ATOM      3  HN  UNL d   1       4.027  -4.015   3.043  1.00  0.00     0.168 HD
ATOM      4  S   UNL d   1       1.255  -6.002   2.061  0.00  0.00    -0.052 SA
ATOM      5  N   UNL d   1       0.551  -0.768   1.284  0.00  0.00    -0.203 NA
ATOM      6  N   UNL d   1       1.735  -3.337   1.841  0.00  0.00    -0.359 N 
ATOM      7  C   UNL d   1       2.456  -6.920   2.856  0.00  0.00     0.036 A 
ATOM      8  C   UNL d   1       3.514  -6.082   3.196  0.00  0.00     0.051 A 
ATOM      9  C   UNL d   1       1.603  -0.910   2.350  0.00  0.00     0.127 C 
ATOM     10  C   UNL d   1      -0.195  -2.047   1.098  0.00  0.00     0.127 C 
ATOM     11  C   UNL d   1       2.451  -8.291   3.157  0.00  0.00     0.045 A 
ATOM     12  C   UNL d   1       0.764  -3.191   0.748  0.00  0.00     0.140 C 
ATOM     13  C   UNL d   1       2.534  -2.130   2.111  0.00  0.00     0.140 C 
ATOM     14  C   UNL d   1       4.628  -6.641   3.856  0.00  0.00     0.032 A 
ATOM     15  C   UNL d   1       3.561  -8.814   3.817  0.00  0.00     0.035 A 
ATOM     16  C   UNL d   1       4.641  -8.009   4.162  0.00  0.00     0.026 A 
ATOM     17 CL   UNL d   1       3.585 -10.491   4.213  0.00  0.00    -0.084 Cl
ENDROOT
BRANCH   5  18
ATOM     18  S   UNL d   1       1.025   0.013  -0.151  0.00  0.00     0.243 S 
ATOM     19  O   UNL d   1       0.054  -0.281  -1.184  0.00  0.00    -0.206 OA
ATOM     20  O   UNL d   1       2.437  -0.221  -0.351  0.00  0.00    -0.206 OA
BRANCH  18  21
ATOM     21  C   UNL d   1       0.794   1.716   0.289  0.00  0.00     0.074 A 
ATOM     22  C   UNL d   1       1.860   2.615   0.219  0.00  0.00     0.026 A 
ATOM     23  C   UNL d   1       1.651   3.948   0.578  0.00  0.00     0.025 A 
ATOM     24  C   UNL d   1       0.386   4.367   0.998  0.00  0.00     0.034 A 
ATOM     25  C   UNL d   1      -0.680   3.467   1.053  0.00  0.00     0.025 A 
ATOM     26 CL   UNL d   1       0.140   6.006   1.458  0.00  0.00    -0.084 Cl
ATOM     27  C   UNL d   1      -0.478   2.135   0.694  0.00  0.00     0.026 A 
ENDBRANCH  18  21
ENDBRANCH   5  18
TORSDOF 2
