REMARK  5 active torsions:
REMARK  status: ('A' for Active; 'I' for Inactive)
REMARK    1  A    between atoms: C_2  and  O_10 
REMARK    2  A    between atoms: C_7  and  C_2 
REMARK    3  A    between atoms: C_3  and  C_8 
REMARK    4  A    between atoms: C_15  and  C_4 
REMARK    5  A    between atoms: O_10  and  C_15 
ROOT
ATOM      1  N   UNL d   1       1.205   0.131   0.320  0.00  0.00    -0.191 NA
ATOM      2  C   UNL d   1       2.358   0.090   0.204  0.00  0.00     0.099 C 
ATOM      3  C   UNL d   1       6.557  -0.052  -0.343  0.00  0.00     0.017 A 
ATOM      4  C   UNL d   1       3.783   0.041   0.045  0.00  0.00     0.044 A 
ATOM      5  C   UNL d   1       5.906   1.179  -0.235  0.00  0.00     0.022 A 
ATOM      6  C   UNL d   1       5.825  -1.237  -0.231  0.00  0.00     0.022 A 
ATOM      7  C   UNL d   1       4.521   1.227  -0.043  0.00  0.00     0.024 A 
ATOM      8  C   UNL d   1       4.441  -1.191  -0.039  0.00  0.00     0.024 A 
ENDROOT
BRANCH   3   9
ATOM      9  C   UNL d   1       7.964  -0.098  -0.599  0.00  0.00    -0.065 C 
ATOM     10  C   UNL d   1       9.139  -0.141  -0.841  0.00  0.00    -0.074 C 
BRANCH  10  11
ATOM     11  C   UNL d   1      10.573  -0.213  -1.139  0.00  0.00     0.273 C 
BRANCH  11  12
ATOM     12  O   UNL d   1      10.922  -1.520  -1.612  0.00  0.00    -0.305 OA
BRANCH  12  13
ATOM     13  C   UNL d   1      11.171  -2.438  -0.647  0.00  0.00     0.294 C 
ATOM     14  O   UNL d   1      11.128  -2.246   0.557  0.00  0.00    -0.259 OA
BRANCH  13  15
ATOM     15  C   UNL d   1      11.517  -3.750  -1.258  0.00  0.00     0.039 A 
ATOM     16  C   UNL d   1      11.708  -4.850  -0.410  0.00  0.00     0.017 A 
ATOM     17  C   UNL d   1      12.059  -6.094  -0.939  0.00  0.00     0.001 A 
ATOM     18  C   UNL d   1      12.222  -6.246  -2.316  0.00  0.00     0.000 A 
ATOM     19  C   UNL d   1      12.024  -5.160  -3.167  0.00  0.00     0.001 A 
ATOM     20  C   UNL d   1      11.671  -3.914  -2.642  0.00  0.00     0.017 A 
ENDBRANCH  13  15
ENDBRANCH  12  13
ENDBRANCH  11  12
ENDBRANCH  10  11
ENDBRANCH   3   9
TORSDOF 5
