REMARK  2 active torsions:
REMARK  status: ('A' for Active; 'I' for Inactive)
REMARK       I    between atoms: N_2  and  C_1 
REMARK       I    between atoms: N_7  and  C_1 
REMARK    1  A    between atoms: C_4  and  N_3 
REMARK    2  A    between atoms: C_18  and  N_7 
ROOT
ATOM      1  C   UNL d   1      -0.951   1.885  -4.900  0.00  0.00     0.103 A 
ATOM      2  N   UNL d   1      -1.445   3.126  -5.098  0.00  0.00    -0.351 N 
ATOM      3  HN  UNL d   1      -1.341   3.849  -4.386  1.00  0.00     0.166 HD
ATOM      4  N   UNL d   1      -3.543   3.055  -9.435  0.00  0.00    -0.191 NA
ATOM      5  C   UNL d   1      -2.980   2.785  -8.457  0.00  0.00     0.101 C 
ATOM      6  C   UNL d   1      -2.288   2.445  -7.259  0.00  0.00     0.060 A 
ATOM      7  C   UNL d   1      -1.128   0.887  -5.861  0.00  0.00     0.050 A 
ATOM      8  C   UNL d   1      -2.082   3.386  -6.266  0.00  0.00     0.112 A 
ATOM      9  C   UNL d   1      -1.808   1.162  -7.045  0.00  0.00     0.028 A 
ENDROOT
BRANCH   1  10
ATOM     10  N   UNL d   1      -0.341   1.591  -3.710  0.00  0.00    -0.364 N 
ATOM     11  C   UNL d   1      -0.628   2.373  -2.509  0.00  0.00     0.144 C 
ATOM     12  C   UNL d   1      -0.751   1.390  -1.320  0.00  0.00     0.147 C 
ATOM     13  N   UNL d   1       0.413   0.480  -1.222  0.00  0.00    -0.331 N 
ATOM     14  C   UNL d   1       1.044   0.021  -0.076  0.00  0.00     0.323 C 
ATOM     15  C   UNL d   1       0.763  -0.193  -2.488  0.00  0.00     0.147 C 
ATOM     16  N   UNL d   1       0.647   0.600   1.103  0.00  0.00    -0.309 N 
ATOM     17  O   UNL d   1       1.910  -0.849  -0.157  0.00  0.00    -0.247 OA
ATOM     18  H   UNL d   1      -0.086   1.282   1.064  0.00  0.00     0.170 HD
ATOM     19  C   UNL d   1       0.892   0.805  -3.645  0.00  0.00     0.144 C 
BRANCH  16  20
ATOM     20  C   UNL d   1       1.121   0.311   2.402  0.00  0.00     0.036 A 
ATOM     21  C   UNL d   1       2.150  -0.591   2.680  0.00  0.00     0.029 A 
ATOM     22  C   UNL d   1       2.538  -0.845   3.997  0.00  0.00     0.002 A 
ATOM     23  C   UNL d   1       1.901  -0.199   5.053  0.00  0.00     0.000 A 
ATOM     24  C   UNL d   1       0.887   0.714   4.790  0.00  0.00     0.002 A 
ATOM     25  C   UNL d   1       0.499   0.972   3.471  0.00  0.00     0.029 A 
ENDBRANCH  16  20
ENDBRANCH   1  10
TORSDOF 2
