REMARK  3 active torsions:
REMARK  status: ('A' for Active; 'I' for Inactive)
REMARK    1  A    between atoms: C_11  and  C_1 
REMARK       I    between atoms: C_6  and  N_13 
REMARK    2  A    between atoms: C_7  and  C_6 
REMARK    3  A    between atoms: N_13  and  N_9 
ROOT
ATOM      1  N   UNL d   1      -4.291   1.246   0.055  0.00  0.00    -0.308 N 
ATOM      2  HN  UNL d   1      -3.678   2.061   0.071  1.00  0.00     0.186 HD
ATOM      3  C   UNL d   1      -3.806   0.047   0.034  0.00  0.00     0.124 C 
ENDROOT
BRANCH   1   4
ATOM      4  N   UNL d   1      -5.646   1.386   0.056  0.00  0.00    -0.266 N 
ATOM      5  C   UNL d   1      -6.167   2.672   0.114  0.00  0.00     0.271 C 
ATOM      6  O   UNL d   1      -5.494   3.697   0.203  0.00  0.00    -0.266 OA
ATOM      7  H   UNL d   1      -6.236   0.563   0.097  0.00  0.00     0.190 HD
BRANCH   5   8
ATOM      8  C   UNL d   1      -7.640   2.799   0.082  0.00  0.00     0.049 A 
ATOM      9  C   UNL d   1      -8.218   3.907   0.694  0.00  0.00     0.104 A 
ATOM     10  N   UNL d   1      -9.552   4.156   0.706  0.00  0.00    -0.374 N 
ATOM     11  C   UNL d   1     -10.339   3.275   0.056  0.00  0.00     0.087 A 
ATOM     12  HN  UNL d   1      -9.940   4.970   1.183  1.00  0.00     0.164 HD
ATOM     13  C   UNL d   1      -9.857   2.149  -0.596  0.00  0.00     0.018 A 
ATOM     14  C   UNL d   1      -8.482   1.905  -0.582  0.00  0.00     0.020 A 
ENDBRANCH   5   8
ENDBRANCH   1   4
BRANCH   3  15
ATOM     15  C   UNL d   1      -2.347  -0.212   0.021  0.00  0.00     0.054 A 
ATOM     16  C   UNL d   1      -1.782  -1.574  -0.037  0.00  0.00     0.198 A 
ATOM     17  C   UNL d   1      -0.309  -1.670  -0.070  0.00  0.00     0.049 A 
ATOM     18  O   UNL d   1      -2.498  -2.568  -0.061  0.00  0.00    -0.286 OA
ATOM     19  C   UNL d   1       0.331  -2.911  -0.144  0.00  0.00     0.018 A 
ATOM     20  C   UNL d   1       0.444  -0.496  -0.029  0.00  0.00     0.089 A 
ATOM     21  C   UNL d   1       1.726  -2.969  -0.177  0.00  0.00     0.001 A 
ATOM     22  C   UNL d   1       2.478  -1.792  -0.136  0.00  0.00     0.003 A 
ATOM     23  C   UNL d   1       1.837  -0.555  -0.061  0.00  0.00     0.038 A 
ATOM     24  O   UNL d   1      -0.124   0.750   0.043  0.00  0.00    -0.321 OA
ATOM     25  C   UNL d   1      -1.496   0.823   0.057  0.00  0.00     0.159 A 
ENDBRANCH   3  15
TORSDOF 3
