REMARK  3 active torsions:
REMARK  status: ('A' for Active; 'I' for Inactive)
REMARK    1  A    between atoms: C_12  and  C_2 
REMARK    2  A    between atoms: C_13  and  C_10 
REMARK    3  A    between atoms: C_16  and  C_11 
ROOT
ATOM      1  N   UNL d   1       0.294   0.634   0.007  0.00  0.00    -0.235 N 
ATOM      2  C   UNL d   1      -0.829   1.451   0.017  0.00  0.00     0.144 A 
ATOM      3  C   UNL d   1       0.156  -0.762  -0.008  0.00  0.00     0.130 A 
ATOM      4  N   UNL d   1       1.597   0.988   0.016  0.00  0.00    -0.296 N 
ATOM      5  HN  UNL d   1       1.983   1.932   0.039  1.00  0.00     0.187 HD
ATOM      6  N   UNL d   1      -1.063  -1.378   0.018  0.00  0.00    -0.340 N 
ATOM      7  HN  UNL d   1      -1.147  -2.394   0.030  1.00  0.00     0.167 HD
ATOM      8  C   UNL d   1      -2.056   0.890   0.022  0.00  0.00     0.067 A 
ATOM      9  C   UNL d   1       1.431  -1.278  -0.047  0.00  0.00     0.077 A 
ATOM     10  C   UNL d   1       2.271  -0.160  -0.010  0.00  0.00     0.034 A 
ATOM     11  C   UNL d   1      -2.114  -0.607   0.028  0.00  0.00     0.047 A 
ENDROOT
BRANCH  11  12
ATOM     12  C   UNL d   1      -3.464  -1.226   0.085  0.00  0.00     0.006 A 
ATOM     13  C   UNL d   1      -3.625  -2.433   0.758  0.00  0.00     0.101 A 
ATOM     14  N   UNL d   1      -4.814  -3.075   0.891  0.00  0.00    -0.374 N 
ATOM     15  C   UNL d   1      -5.885  -2.496   0.310  0.00  0.00     0.087 A 
ATOM     16  HN  UNL d   1      -4.893  -3.952   1.406  1.00  0.00     0.164 HD
ATOM     17  C   UNL d   1      -5.824  -1.306  -0.398  0.00  0.00     0.018 A 
ATOM     18  C   UNL d   1      -4.592  -0.662  -0.515  0.00  0.00     0.016 A 
ENDBRANCH  11  12
BRANCH   2  19
ATOM     19  C   UNL d   1      -0.648   2.922   0.028  0.00  0.00     0.434 C 
ATOM     20  F   UNL d   1       0.619   3.391  -0.003  0.00  0.00    -0.165 F 
ATOM     21  F   UNL d   1      -1.286   3.485  -1.038  0.00  0.00    -0.165 F 
ATOM     22  F   UNL d   1      -1.232   3.466   1.132  0.00  0.00    -0.165 F 
ENDBRANCH   2  19
BRANCH  10  23
ATOM     23  C   UNL d   1       3.789  -0.228   0.005  0.00  0.00     0.037 A 
ATOM     24  C   UNL d   1       4.545   0.830   0.788  0.00  0.00     0.011 A 
ATOM     25  C   UNL d   1       4.568   0.865  -0.701  0.00  0.00     0.011 A 
ENDBRANCH  10  23
TORSDOF 3
