REMARK  6 active torsions:
REMARK  status: ('A' for Active; 'I' for Inactive)
REMARK    1  A    between atoms: C_6  and  N_2 
REMARK    2  A    between atoms: C_7  and  C_6 
REMARK    3  A    between atoms: C_8  and  C_7 
REMARK       I    between atoms: N_12  and  C_8 
REMARK    4  A    between atoms: N_10  and  C_14 
REMARK    5  A    between atoms: C_13  and  N_12 
REMARK    6  A    between atoms: C_14  and  C_13 
ROOT
ATOM      1  C   UNL d   1       3.669  -2.451   0.007  0.00  0.00     0.123 C 
ENDROOT
BRANCH   1   2
ATOM      2  C   UNL d   1       2.313  -2.314   0.694  0.00  0.00     0.144 C 
BRANCH   2   3
ATOM      3  N   UNL d   1       1.823  -0.956   0.689  0.00  0.00    -0.290 N 
ATOM      4  C   UNL d   1       2.090   0.005   1.641  0.00  0.00     0.372 A 
ATOM      5  O   UNL d   1       1.446   1.215   1.330  0.00  0.00    -0.259 OA
ATOM      6  O   UNL d   1       2.789  -0.138   2.633  0.00  0.00    -0.237 OA
ATOM      7  C   UNL d   1       0.803   0.914   0.141  0.00  0.00     0.107 A 
ATOM      8  C   UNL d   1       0.019   1.784  -0.587  0.00  0.00     0.040 A 
ATOM      9  C   UNL d   1       1.021  -0.387  -0.271  0.00  0.00     0.073 A 
ATOM     10  C   UNL d   1      -0.550   1.300  -1.768  0.00  0.00     0.003 A 
ATOM     11  C   UNL d   1      -0.322  -0.026  -2.188  0.00  0.00     0.002 A 
ATOM     12  C   UNL d   1       0.477  -0.890  -1.432  0.00  0.00     0.033 A 
ENDBRANCH   2   3
ENDBRANCH   1   2
BRANCH   1  13
ATOM     13  C   UNL d   1       4.100  -3.900  -0.004  0.00  0.00     0.219 C 
ATOM     14  O   UNL d   1       3.294  -4.828  -0.023  0.00  0.00    -0.274 OA
ATOM     15  N   UNL d   1       5.462  -4.096  -0.065  0.00  0.00    -0.359 N 
ATOM     16  H   UNL d   1       6.093  -3.340   0.182  0.00  0.00     0.162 HD
BRANCH  15  17
ATOM     17  C   UNL d   1       6.002  -5.443  -0.030  0.00  0.00     0.152 C 
BRANCH  17  18
ATOM     18  C   UNL d   1       7.542  -5.486  -0.035  0.00  0.00     0.292 C 
BRANCH  18  19
ATOM     19  N   UNL d   1       8.200  -4.778   1.088  0.00  0.00     0.090 N 
ATOM     20  C   UNL d   1       7.864  -5.388   2.389  0.00  0.00     0.272 C 
ATOM     21  C   UNL d   1       8.543  -4.652   3.548  0.00  0.00     0.030 C 
ATOM     22  C   UNL d   1      10.054  -4.594   3.368  0.00  0.00     0.003 C 
ATOM     23  C   UNL d   1      10.401  -4.046   1.990  0.00  0.00     0.030 C 
ATOM     24  C   UNL d   1       9.664  -4.806   0.887  0.00  0.00     0.272 C 
ENDBRANCH  18  19
ENDBRANCH  17  18
ENDBRANCH  15  17
ENDBRANCH   1  13
TORSDOF 6
