REMARK  3 active torsions:
REMARK  status: ('A' for Active; 'I' for Inactive)
REMARK    1  A    between atoms: C_7  and  N_1 
REMARK    2  A    between atoms: C_15  and  N_5 
REMARK    3  A    between atoms: C_8  and  C_7 
ROOT
ATOM      1  N   UNL d   1      -0.392   0.994  -0.047  0.00  0.00    -0.291 N 
ATOM      2  C   UNL d   1       0.896   0.550   0.091  0.00  0.00     0.150 C 
ATOM      3  C   UNL d   1      -1.380   0.036  -0.109  0.00  0.00     0.235 C 
ATOM      4  S   UNL d   1       0.885  -1.137   0.549  0.00  0.00    -0.084 SA
ATOM      5  N   UNL d   1       1.914   1.318  -0.114  0.00  0.00    -0.337 N 
ATOM      6  HN  UNL d   1       1.740   2.302  -0.317  1.00  0.00     0.168 HD
ATOM      7  C   UNL d   1      -0.821  -1.354   0.023  0.00  0.00     0.185 C 
ATOM      8  O   UNL d   1      -2.569   0.247  -0.335  0.00  0.00    -0.272 OA
ENDROOT
BRANCH   1   9
ATOM      9  C   UNL d   1      -0.728   2.401  -0.169  0.00  0.00     0.199 C 
BRANCH   9  10
ATOM     10  C   UNL d   1      -0.897   2.977   1.195  0.00  0.00     0.070 A 
ATOM     11  O   UNL d   1      -2.156   2.952   1.722  0.00  0.00    -0.325 OA
ATOM     12  C   UNL d   1      -2.085   3.510   2.955  0.00  0.00     0.142 A 
ATOM     13  C   UNL d   1      -0.795   3.897   3.233  0.00  0.00     0.027 A 
ATOM     14  C   UNL d   1      -0.025   3.552   2.097  0.00  0.00     0.036 A 
ENDBRANCH   9  10
ENDBRANCH   1   9
BRANCH   5  15
ATOM     15  C   UNL d   1       3.248   0.877  -0.074  0.00  0.00     0.034 A 
ATOM     16  C   UNL d   1       3.697  -0.275  -0.737  0.00  0.00     0.031 A 
ATOM     17  C   UNL d   1       5.037  -0.667  -0.685  0.00  0.00     0.026 A 
ATOM     18  C   UNL d   1       5.963   0.137  -0.031  0.00  0.00     0.034 A 
ATOM     19  C   UNL d   1       5.556   1.325   0.570  0.00  0.00     0.026 A 
ATOM     20 CL   UNL d   1       7.617  -0.331   0.013  0.00  0.00    -0.084 Cl
ATOM     21  C   UNL d   1       4.202   1.688   0.551  0.00  0.00     0.031 A 
ENDBRANCH   5  15
TORSDOF 3
