REMARK  7 active torsions:
REMARK  status: ('A' for Active; 'I' for Inactive)
REMARK    1  A    between atoms: N_2  and  C_1 
REMARK    2  A    between atoms: C_3  and  C_6 
REMARK       I    between atoms: N_4  and  C_3 
REMARK    3  A    between atoms: C_10  and  N_4 
REMARK    4  A    between atoms: C_12  and  N_4 
REMARK    5  A    between atoms: S_8  and  C_7 
REMARK    6  A    between atoms: C_13  and  S_8 
REMARK    7  A    between atoms: C_23  and  C_12 
ROOT
ATOM      1  C   UNL d   1      -1.813  -2.308  -0.060  0.00  0.00     0.258 C 
ATOM      2  N   UNL d   1      -3.206  -2.296   0.134  0.00  0.00    -0.310 N 
ATOM      3  O   UNL d   1      -1.177  -1.271  -0.254  0.00  0.00    -0.267 OA
ENDROOT
BRANCH   1   4
ATOM      4  C   UNL d   1      -0.992  -3.558   0.081  0.00  0.00     0.035 A 
ATOM      5  C   UNL d   1       0.276  -3.577  -0.523  0.00  0.00     0.054 A 
ATOM      6  C   UNL d   1       1.141  -4.672  -0.329  0.00  0.00     0.121 A 
ATOM      7  C   UNL d   1       0.780  -5.768   0.466  0.00  0.00     0.040 A 
ATOM      8  C   UNL d   1      -0.494  -5.738   1.056  0.00  0.00     0.022 A 
ATOM      9  C   UNL d   1      -1.358  -4.643   0.886  0.00  0.00     0.018 A 
BRANCH   6  10
ATOM     10  N   UNL d   1       2.428  -4.621  -1.002  0.00  0.00    -0.114 N 
ATOM     11  O   UNL d   1       3.118  -3.605  -0.833  0.00  0.00    -0.532 OA
ATOM     12  O   UNL d   1       2.707  -5.553  -1.770  0.00  0.00    -0.532 OA
ENDBRANCH   6  10
BRANCH   7  13
ATOM     13  S   UNL d   1       1.792  -7.203   0.811  0.00  0.00    -0.070 SA
BRANCH  13  14
ATOM     14  C   UNL d   1       3.055  -6.561   1.902  0.00  0.00     0.074 A 
ATOM     15  N   UNL d   1       3.086  -5.230   2.137  0.00  0.00    -0.360 N 
ATOM     16  C   UNL d   1       4.068  -4.766   2.943  0.00  0.00     0.089 A 
ATOM     17  HN  UNL d   1       2.397  -4.601   1.724  1.00  0.00     0.166 HD
ATOM     18  C   UNL d   1       5.019  -5.573   3.546  0.00  0.00     0.017 A 
ATOM     19  C   UNL d   1       4.965  -6.939   3.305  0.00  0.00     0.004 A 
ATOM     20  C   UNL d   1       3.971  -7.442   2.465  0.00  0.00     0.037 A 
ENDBRANCH  13  14
ENDBRANCH   7  13
ENDBRANCH   1   4
BRANCH   2  21
ATOM     21  C   UNL d   1      -4.073  -3.408  -0.052  0.00  0.00     0.038 A 
ATOM     22  C   UNL d   1      -5.132  -3.615   0.846  0.00  0.00     0.033 A 
ATOM     23  C   UNL d   1      -6.028  -4.665   0.656  0.00  0.00     0.044 A 
ATOM     24  C   UNL d   1      -5.881  -5.497  -0.445  0.00  0.00     0.116 A 
ATOM     25  C   UNL d   1      -4.844  -5.307  -1.350  0.00  0.00     0.044 A 
ATOM     26  F   UNL d   1      -6.755  -6.494  -0.638  0.00  0.00    -0.206 F 
ATOM     27  C   UNL d   1      -3.929  -4.268  -1.150  0.00  0.00     0.033 A 
ENDBRANCH   2  21
BRANCH   2  28
ATOM     28  C   UNL d   1      -3.846  -0.966   0.256  0.00  0.00     0.171 C 
BRANCH  28  29
ATOM     29  C   UNL d   1      -4.077  -0.265  -1.074  0.00  0.00    -0.037 A 
ATOM     30  C   UNL d   1      -4.834  -0.866  -2.094  0.00  0.00     0.048 A 
ATOM     31  C   UNL d   1      -4.877  -0.244  -3.322  0.00  0.00     0.105 A 
ATOM     32  O   UNL d   1      -5.434  -0.757  -4.454  0.00  0.00    -0.323 OA
ATOM     33  C   UNL d   1      -4.281   0.976  -3.544  0.00  0.00     0.105 A 
ATOM     34  C   UNL d   1      -4.878   0.147  -5.431  0.00  0.00     0.352 C 
ATOM     35  O   UNL d   1      -4.389   1.370  -4.843  0.00  0.00    -0.323 OA
ATOM     36  C   UNL d   1      -3.623   1.651  -2.543  0.00  0.00     0.040 A 
ATOM     37  C   UNL d   1      -3.506   1.012  -1.303  0.00  0.00     0.012 A 
ENDBRANCH  28  29
ENDBRANCH   2  28
TORSDOF 7
