REMARK  4 active torsions:
REMARK  status: ('A' for Active; 'I' for Inactive)
REMARK    1  A    between atoms: N_10  and  C_1 
REMARK    2  A    between atoms: N_11  and  C_2 
REMARK    3  A    between atoms: C_12  and  C_3 
REMARK    4  A    between atoms: C_20  and  N_13 
ROOT
ATOM      1  C   UNL d   1       0.583  -1.423   0.315  0.00  0.00     0.163 A 
ATOM      2  C   UNL d   1      -1.416  -0.454  -0.181  0.00  0.00     0.163 A 
ATOM      3  C   UNL d   1       0.417   0.803   0.100  0.00  0.00     0.137 A 
ATOM      4  N   UNL d   1      -0.705  -1.556   0.041  0.00  0.00    -0.309 N 
ATOM      5  HN  UNL d   1      -1.140  -2.478   0.002  1.00  0.00     0.171 HD
ATOM      6  N   UNL d   1      -0.887   0.768  -0.177  0.00  0.00    -0.317 N 
ATOM      7  HN  UNL d   1      -1.433   1.608  -0.371  1.00  0.00     0.170 HD
ATOM      8  N   UNL d   1       1.184  -0.242   0.391  0.00  0.00    -0.317 N 
ATOM      9  HN  UNL d   1       2.165  -0.144   0.653  1.00  0.00     0.170 HD
ENDROOT
BRANCH   3  10
ATOM     10  C   UNL d   1       1.054   2.122   0.110  0.00  0.00     0.083 A 
ATOM     11  N   UNL d   1       2.361   2.406  -0.306  0.00  0.00    -0.319 N 
ATOM     12  C   UNL d   1       2.653   3.709   0.076  0.00  0.00     0.097 A 
ATOM     13  C   UNL d   1       1.526   4.295   0.600  0.00  0.00     0.020 A 
ATOM     14  C   UNL d   1       0.524   3.307   0.612  0.00  0.00     0.035 A 
BRANCH  11  15
ATOM     15  C   UNL d   1       3.270   1.590  -1.048  0.00  0.00     0.039 A 
ATOM     16  C   UNL d   1       2.799   0.659  -1.984  0.00  0.00     0.030 A 
ATOM     17  C   UNL d   1       3.696  -0.137  -2.698  0.00  0.00     0.002 A 
ATOM     18  C   UNL d   1       5.068   0.003  -2.502  0.00  0.00     0.000 A 
ATOM     19  C   UNL d   1       5.547   0.946  -1.596  0.00  0.00     0.002 A 
ATOM     20  C   UNL d   1       4.655   1.744  -0.874  0.00  0.00     0.030 A 
ENDBRANCH  11  15
ENDBRANCH   3  10
BRANCH   1  21
ATOM     21  N   UNL d   1       1.284  -2.640   0.494  0.00  0.00    -0.252 NA
ATOM     22  C   UNL d   1       2.723  -2.683   0.215  0.00  0.00     0.113 A 
ATOM     23  C   UNL d   1       2.217  -2.747   1.618  0.00  0.00     0.113 A 
ENDBRANCH   1  21
BRANCH   2  24
ATOM     24  N   UNL d   1      -2.791  -0.697  -0.430  0.00  0.00    -0.252 NA
ATOM     25  C   UNL d   1      -3.772   0.350  -0.146  0.00  0.00     0.113 A 
ATOM     26  C   UNL d   1      -3.428  -0.012  -1.556  0.00  0.00     0.113 A 
ENDBRANCH   2  24
TORSDOF 4
