REMARK  2 active torsions:
REMARK  status: ('A' for Active; 'I' for Inactive)
REMARK    1  A    between atoms: N_16  and  C_3 
REMARK    2  A    between atoms: N_7  and  C_10 
ROOT
ATOM      1  C   UNL d   1       1.177   1.407   0.009  0.00  0.00     0.094 A 
ATOM      2  N   UNL d   1       2.356  -0.680  -0.053  0.00  0.00    -0.307 N 
ATOM      3  C   UNL d   1       2.357   0.725  -0.066  0.00  0.00     0.104 A 
ATOM      4  C   UNL d   1       1.196  -1.460   0.045  0.00  0.00     0.259 A 
ATOM      5  C   UNL d   1      -0.095  -0.745   0.069  0.00  0.00     0.046 A 
ATOM      6  C   UNL d   1      -0.104   0.658   0.045  0.00  0.00     0.004 A 
ATOM      7  C   UNL d   1      -1.286  -1.496   0.075  0.00  0.00     0.054 A 
ATOM      8  C   UNL d   1       1.173   2.853   0.038  0.00  0.00     0.103 C 
ATOM      9  C   UNL d   1      -2.513  -0.832   0.043  0.00  0.00     0.103 A 
ATOM     10  N   UNL d   1       1.176   4.013   0.077  0.00  0.00    -0.191 NA
ATOM     11  C   UNL d   1      -1.356   1.300   0.022  0.00  0.00     0.016 A 
ATOM     12  O   UNL d   1       1.199  -2.687   0.091  0.00  0.00    -0.267 OA
ATOM     13  C   UNL d   1      -2.552   0.566   0.015  0.00  0.00     0.037 A 
ATOM     14  C   UNL d   1       3.581  -1.464  -0.198  0.00  0.00     0.161 C 
ENDROOT
BRANCH   3  15
ATOM     15  N   UNL d   1       3.567   1.396  -0.169  0.00  0.00    -0.287 NA
ATOM     16  H   UNL d   1       4.322   0.959   0.349  0.00  0.00     0.125 HD
ATOM     17  H   UNL d   1       3.542   2.398   0.009  0.00  0.00     0.125 HD
ENDBRANCH   3  15
BRANCH   9  18
ATOM     18  N   UNL d   1      -3.766  -1.600   0.022  0.00  0.00    -0.116 N 
ATOM     19  O   UNL d   1      -3.686  -2.835   0.055  0.00  0.00    -0.532 OA
ATOM     20  O   UNL d   1      -4.827  -0.963  -0.030  0.00  0.00    -0.532 OA
ENDBRANCH   9  18
TORSDOF 2
