REMARK  1 active torsions:
REMARK  status: ('A' for Active; 'I' for Inactive)
REMARK    1  A    between atoms: C_6  and  N_1 
ROOT
ATOM      1  N   UNL d   1      -1.189   0.024  -0.352  0.00  0.00    -0.244 N 
ATOM      2  C   UNL d   1      -0.377   1.125  -0.384  0.00  0.00     0.261 A 
ATOM      3  C   UNL d   1      -0.430  -1.097  -0.133  0.00  0.00     0.261 A 
ATOM      4  C   UNL d   1       1.010   0.657  -0.225  0.00  0.00     0.018 A 
ATOM      5  C   UNL d   1       0.980  -0.670  -0.097  0.00  0.00     0.018 A 
ATOM      6  O   UNL d   1      -0.657   2.309  -0.481  0.00  0.00    -0.267 OA
ATOM      7  O   UNL d   1      -0.761  -2.266  -0.035  0.00  0.00    -0.267 OA
ATOM      8  C   UNL d   1       2.175   1.574  -0.241  0.00  0.00     0.055 C 
ATOM      9  C   UNL d   1       2.112  -1.623  -0.011  0.00  0.00     0.055 C 
ENDROOT
BRANCH   1  10
ATOM     10  C   UNL d   1      -2.593   0.034  -0.579  0.00  0.00     0.046 A 
ATOM     11  C   UNL d   1      -3.197   1.077  -1.301  0.00  0.00     0.032 A 
ATOM     12  C   UNL d   1      -4.566   1.058  -1.598  0.00  0.00     0.026 A 
ATOM     13  C   UNL d   1      -5.356   0.007  -1.151  0.00  0.00     0.034 A 
ATOM     14  C   UNL d   1      -4.790  -1.024  -0.409  0.00  0.00     0.026 A 
ATOM     15 CL   UNL d   1      -7.033  -0.024  -1.527  0.00  0.00    -0.084 Cl
ATOM     16  C   UNL d   1      -3.416  -1.014  -0.134  0.00  0.00     0.032 A 
ENDBRANCH   1  10
TORSDOF 1
