REMARK  2 active torsions:
REMARK  status: ('A' for Active; 'I' for Inactive)
REMARK    1  A    between atoms: N_15  and  C_3 
REMARK    2  A    between atoms: C_13  and  C_5 
ROOT
ATOM      1  C   UNL d   1       2.217   0.117  -0.171  0.00  0.00     0.080 C 
ATOM      2  C   UNL d   1      -0.235   0.544  -0.126  0.00  0.00     0.031 C 
ATOM      3  C   UNL d   1       1.947  -1.176   0.118  0.00  0.00     0.138 C 
ATOM      4  C   UNL d   1      -0.421  -0.766   0.097  0.00  0.00     0.066 C 
ATOM      5  C   UNL d   1       1.104   1.070  -0.573  0.00  0.00     0.105 C 
ATOM      6  O   UNL d   1       0.640  -1.663   0.054  0.00  0.00    -0.301 OA
ATOM      7  C   UNL d   1      -1.353   1.491   0.117  0.00  0.00     0.159 C 
ATOM      8  C   UNL d   1       3.537   0.637  -0.084  0.00  0.00     0.100 C 
ATOM      9  N   UNL d   1       4.618   1.058  -0.017  0.00  0.00    -0.191 NA
ATOM     10  C   UNL d   1      -1.756  -1.396   0.367  0.00  0.00     0.075 C 
ATOM     11  C   UNL d   1      -2.943  -0.479  -0.006  0.00  0.00    -0.035 C 
ATOM     12  C   UNL d   1      -2.689   0.926   0.570  0.00  0.00     0.092 C 
ATOM     13  O   UNL d   1      -1.163   2.703   0.041  0.00  0.00    -0.293 OA
ATOM     14  C   UNL d   1      -4.232  -1.067   0.594  0.00  0.00     0.015 C 
ATOM     15  C   UNL d   1      -3.130  -0.391  -1.537  0.00  0.00     0.015 C 
ENDROOT
BRANCH   3  16
ATOM     16  N   UNL d   1       2.863  -2.135   0.473  0.00  0.00    -0.282 NA
ATOM     17  H   UNL d   1       3.823  -1.958   0.186  0.00  0.00     0.126 HD
ATOM     18  H   UNL d   1       2.545  -3.076   0.255  0.00  0.00     0.126 HD
ENDBRANCH   3  16
BRANCH   5  19
ATOM     19  C   UNL d   1       1.116   1.303  -2.092  0.00  0.00    -0.044 A 
ATOM     20  C   UNL d   1       1.347   2.586  -2.612  0.00  0.00     0.010 A 
ATOM     21  C   UNL d   1       1.374   2.797  -3.995  0.00  0.00     0.024 A 
ATOM     22  C   UNL d   1       1.165   1.732  -4.870  0.00  0.00     0.034 A 
ATOM     23  C   UNL d   1       0.927   0.455  -4.375  0.00  0.00     0.024 A 
ATOM     24 CL   UNL d   1       1.202   1.993  -6.569  0.00  0.00    -0.084 Cl
ATOM     25  C   UNL d   1       0.905   0.241  -2.996  0.00  0.00     0.010 A 
ENDBRANCH   5  19
TORSDOF 2
