REMARK  3 active torsions:
REMARK  status: ('A' for Active; 'I' for Inactive)
REMARK    1  A    between atoms: C_11  and  C_2 
REMARK    2  A    between atoms: C_6  and  S_12 
REMARK    3  A    between atoms: S_12  and  C_11 
ROOT
ATOM      1  S   UNL d   1      -1.740  -1.470  -0.002  0.00  0.00     0.198 S 
ATOM      2  C   UNL d   1      -1.709   1.108  -0.016  0.00  0.00    -0.026 A 
ATOM      3  C   UNL d   1      -2.559   0.060  -0.019  0.00  0.00     0.123 A 
ATOM      4  C   UNL d   1      -0.165  -0.719   0.019  0.00  0.00     0.074 A 
ATOM      5  C   UNL d   1      -0.299   0.671   0.028  0.00  0.00    -0.005 A 
ATOM      6  O   UNL d   1      -1.936  -2.127   1.275  0.00  0.00    -0.218 OA
ATOM      7  O   UNL d   1      -1.899  -2.145  -1.269  0.00  0.00    -0.218 OA
ATOM      8  C   UNL d   1       1.050  -1.385   0.015  0.00  0.00     0.026 A 
ATOM      9  C   UNL d   1       0.857   1.442   0.052  0.00  0.00     0.037 A 
ATOM     10  C   UNL d   1       2.102   0.799   0.042  0.00  0.00     0.035 A 
ATOM     11  C   UNL d   1       2.203  -0.602   0.023  0.00  0.00     0.025 A 
ATOM     12 CL   UNL d   1       3.540   1.747   0.041  0.00  0.00    -0.084 Cl
ENDROOT
BRANCH   2  13
ATOM     13  C   UNL d   1      -2.127   2.550  -0.047  0.00  0.00     0.120 C 
BRANCH  13  14
ATOM     14  S   UNL d   1      -1.665   3.287  -1.639  0.00  0.00    -0.118 SA
BRANCH  14  15
ATOM     15  C   UNL d   1      -2.106   4.985  -1.508  0.00  0.00     0.041 A 
ATOM     16  S   UNL d   1      -3.035   5.689  -0.257  0.00  0.00    -0.095 SA
ATOM     17  C   UNL d   1      -2.997   7.233  -0.996  0.00  0.00     0.051 A 
ATOM     18  C   UNL d   1      -2.274   7.223  -2.167  0.00  0.00     0.009 A 
ATOM     19  C   UNL d   1      -1.754   5.928  -2.455  0.00  0.00     0.026 A 
ENDBRANCH  14  15
ENDBRANCH  13  14
ENDBRANCH   2  13
TORSDOF 3
