REMARK  3 active torsions:
REMARK  status: ('A' for Active; 'I' for Inactive)
REMARK    1  A    between atoms: C_3  and  S_1 
REMARK    2  A    between atoms: N_6  and  S_1 
REMARK    3  A    between atoms: C_17  and  N_6 
ROOT
ATOM      1  S   UNL d   1       0.588  -6.792  -3.583  0.00  0.00     0.152 S 
ATOM      2  C   UNL d   1       0.375  -4.580  -2.294  0.00  0.00    -0.035 A 
ATOM      3  C   UNL d   1      -0.543  -5.646  -2.803  0.00  0.00     0.179 C 
ATOM      4  C   UNL d   1       1.993  -5.696  -3.773  0.00  0.00     0.179 C 
ATOM      5  C   UNL d   1       1.672  -4.582  -2.822  0.00  0.00    -0.037 A 
ATOM      6  O   UNL d   1       0.074  -7.130  -4.898  0.00  0.00    -0.227 OA
ATOM      7  O   UNL d   1       0.929  -7.825  -2.623  0.00  0.00    -0.227 OA
ATOM      8  C   UNL d   1       0.925  -2.666  -0.943  0.00  0.00     0.043 A 
ATOM      9  C   UNL d   1      -0.003  -3.624  -1.353  0.00  0.00     0.038 A 
ATOM     10  C   UNL d   1       2.583  -3.595  -2.450  0.00  0.00     0.011 A 
ATOM     11  C   UNL d   1       2.201  -2.630  -1.515  0.00  0.00     0.031 A 
ENDROOT
BRANCH   8  12
ATOM     12  N   UNL d   1       0.577  -1.719   0.061  0.00  0.00    -0.280 N 
ATOM     13  H   UNL d   1       0.006  -2.075   0.827  0.00  0.00     0.179 HD
BRANCH  12  14
ATOM     14  S   UNL d   1       0.023  -0.199  -0.435  0.00  0.00     0.269 S 
ATOM     15  O   UNL d   1      -0.318   0.532   0.767  0.00  0.00    -0.200 OA
ATOM     16  O   UNL d   1       0.921   0.346  -1.429  0.00  0.00    -0.200 OA
BRANCH  14  17
ATOM     17  C   UNL d   1      -1.526  -0.412  -1.288  0.00  0.00     0.121 A 
ATOM     18  S   UNL d   1      -2.773  -1.207  -0.421  0.00  0.00    -0.069 SA
ATOM     19  C   UNL d   1      -3.829  -1.098  -1.741  0.00  0.00     0.052 A 
ATOM     20 BR   UNL d   1      -5.565  -1.801  -1.722  0.00  0.00    -0.043 Br
ATOM     21  C   UNL d   1      -3.288  -0.447  -2.820  0.00  0.00     0.028 A 
ATOM     22  C   UNL d   1      -1.945  -0.044  -2.554  0.00  0.00     0.035 A 
ENDBRANCH  14  17
ENDBRANCH  12  14
ENDBRANCH   8  12
TORSDOF 3
