REMARK  7 active torsions:
REMARK  status: ('A' for Active; 'I' for Inactive)
REMARK    1  A    between atoms: C_5  and  C_1 
REMARK       I    between atoms: C_2  and  N_15 
REMARK    2  A    between atoms: C_4  and  C_2 
REMARK    3  A    between atoms: N_3  and  C_5 
REMARK    4  A    between atoms: C_24  and  N_6 
REMARK    5  A    between atoms: N_15  and  C_29 
REMARK    6  A    between atoms: C_25  and  C_24 
REMARK    7  A    between atoms: C_29  and  C_25 
ROOT
ATOM      1  N   UNL d   1      -1.023   3.135  -0.011  0.00  0.00     0.096 N 
ATOM      2  N   UNL d   1      -3.820   2.130  -0.608  0.00  0.00     0.091 N 
ATOM      3  C   UNL d   1      -2.108   3.202   0.986  0.00  0.00     0.303 C 
ATOM      4  C   UNL d   1      -1.604   3.116  -1.364  0.00  0.00     0.303 C 
ATOM      5  C   UNL d   1      -3.290   2.222   0.769  0.00  0.00     0.302 C 
ATOM      6  C   UNL d   1      -2.703   2.051  -1.567  0.00  0.00     0.302 C 
ENDROOT
BRANCH   2   7
ATOM      7  C   UNL d   1      -4.778   3.203  -0.914  0.00  0.00     0.274 C 
BRANCH   7   8
ATOM      8  C   UNL d   1      -5.591   2.924  -2.190  0.00  0.00     0.050 C 
BRANCH   8   9
ATOM      9  C   UNL d   1      -6.301   1.569  -2.143  0.00  0.00     0.124 C 
BRANCH   9  10
ATOM     10  N   UNL d   1      -6.947   1.266  -3.405  0.00  0.00    -0.357 N 
ATOM     11  C   UNL d   1      -8.215   1.711  -3.695  0.00  0.00     0.251 C 
ATOM     12  O   UNL d   1      -8.918   2.337  -2.907  0.00  0.00    -0.268 OA
ATOM     13  H   UNL d   1      -6.466   0.642  -4.039  0.00  0.00     0.162 HD
BRANCH  11  14
ATOM     14  C   UNL d   1      -8.734   1.396  -5.048  0.00  0.00     0.033 A 
ATOM     15  C   UNL d   1      -7.894   1.366  -6.167  0.00  0.00     0.042 A 
ATOM     16  C   UNL d   1      -8.436   1.158  -7.441  0.00  0.00     0.056 A 
ATOM     17 CL   UNL d   1      -7.347   1.167  -8.783  0.00  0.00    -0.083 Cl
ATOM     18  C   UNL d   1      -9.816   0.975  -7.597  0.00  0.00     0.055 A 
ATOM     19  C   UNL d   1     -10.651   0.992  -6.476  0.00  0.00     0.026 A 
ATOM     20 CL   UNL d   1     -10.551   0.746  -9.143  0.00  0.00    -0.083 Cl
ATOM     21  C   UNL d   1     -10.113   1.208  -5.206  0.00  0.00     0.019 A 
ENDBRANCH  11  14
ENDBRANCH   9  10
ENDBRANCH   8   9
ENDBRANCH   7   8
ENDBRANCH   2   7
BRANCH   1  22
ATOM     22  C   UNL d   1      -0.100   2.005   0.190  0.00  0.00     0.316 C 
BRANCH  22  23
ATOM     23  C   UNL d   1       0.881   2.182   1.329  0.00  0.00     0.030 A 
ATOM     24  C   UNL d   1       1.045   1.130   2.244  0.00  0.00     0.126 A 
ATOM     25  F   UNL d   1       0.315   0.012   2.116  0.00  0.00    -0.205 F 
ATOM     26  C   UNL d   1       1.972   1.187   3.284  0.00  0.00     0.043 A 
ATOM     27  C   UNL d   1       2.769   2.316   3.438  0.00  0.00     0.005 A 
ATOM     28  C   UNL d   1       2.643   3.369   2.533  0.00  0.00     0.024 A 
ATOM     29  C   UNL d   1       1.721   3.297   1.478  0.00  0.00     0.045 A 
ATOM     30 CL   UNL d   1       1.730   4.617   0.359  0.00  0.00    -0.084 Cl
ENDBRANCH  22  23
ENDBRANCH   1  22
TORSDOF 7
