REMARK  5 active torsions:
REMARK  status: ('A' for Active; 'I' for Inactive)
REMARK       I    between atoms: N_2  and  C_1 
REMARK    1  A    between atoms: C_5  and  C_1 
REMARK    2  A    between atoms: C_3  and  N_2 
REMARK    3  A    between atoms: S_7  and  C_4 
REMARK    4  A    between atoms: C_11  and  S_7 
REMARK    5  A    between atoms: C_14  and  C_11 
ROOT
ATOM      1  C   UNL d   1       1.065   1.705   1.630  0.00  0.00     0.051 A 
ATOM      2  C   UNL d   1       0.571   1.934   2.935  0.00  0.00     0.029 A 
ATOM      3  C   UNL d   1       1.340   2.731   3.800  0.00  0.00     0.044 A 
ATOM      4  C   UNL d   1       2.231   2.365   1.201  0.00  0.00     0.032 A 
ATOM      5  C   UNL d   1       2.510   3.354   3.364  0.00  0.00     0.035 A 
ATOM      6  C   UNL d   1       2.948   3.192   2.059  0.00  0.00     0.026 A 
ATOM      7 CL   UNL d   1       3.419   4.319   4.461  0.00  0.00    -0.084 Cl
ENDROOT
BRANCH   1   8
ATOM      8  N   UNL d   1       0.397   0.824   0.736  0.00  0.00    -0.325 N 
ATOM      9  C   UNL d   1       1.090  -0.032  -0.109  0.00  0.00     0.229 C 
ATOM     10  O   UNL d   1       2.316  -0.173  -0.065  0.00  0.00    -0.272 OA
ATOM     11  H   UNL d   1      -0.540   0.554   1.014  0.00  0.00     0.169 HD
BRANCH   9  12
ATOM     12  C   UNL d   1       0.261  -0.758  -1.190  0.00  0.00     0.030 C 
ATOM     13  C   UNL d   1      -0.134   0.271  -2.259  0.00  0.00     0.025 C 
ATOM     14  C   UNL d   1       1.148  -1.836  -1.848  0.00  0.00     0.025 C 
ATOM     15  C   UNL d   1      -0.991  -1.444  -0.632  0.00  0.00     0.025 C 
ENDBRANCH   9  12
ENDBRANCH   1   8
BRANCH   2  16
ATOM     16  S   UNL d   1      -0.935   1.111   3.505  0.00  0.00    -0.123 SA
BRANCH  16  17
ATOM     17  C   UNL d   1      -1.484   2.199   4.867  0.00  0.00     0.118 C 
BRANCH  17  18
ATOM     18  C   UNL d   1      -2.671   1.665   5.629  0.00  0.00    -0.049 A 
ATOM     19  C   UNL d   1      -2.474   0.949   6.822  0.00  0.00     0.008 A 
ATOM     20  C   UNL d   1      -3.562   0.529   7.587  0.00  0.00     0.001 A 
ATOM     21  C   UNL d   1      -4.859   0.810   7.163  0.00  0.00     0.000 A 
ATOM     22  C   UNL d   1      -5.067   1.500   5.969  0.00  0.00     0.001 A 
ATOM     23  C   UNL d   1      -3.979   1.924   5.203  0.00  0.00     0.008 A 
ENDBRANCH  17  18
ENDBRANCH  16  17
ENDBRANCH   2  16
TORSDOF 5
