REMARK  2 active torsions:
REMARK  status: ('A' for Active; 'I' for Inactive)
REMARK    1  A    between atoms: C_2  and  C_1 
REMARK    2  A    between atoms: C_14  and  N_3 
ROOT
ATOM      1  C   UNL d   1      -0.376  -1.358  -0.191  0.00  0.00     0.151 C 
ATOM      2  N   UNL d   1       0.861  -0.825   0.133  0.00  0.00    -0.224 N 
ATOM      3  N   UNL d   1       0.707   0.505   0.321  0.00  0.00     0.001 NA
ATOM      4  N   UNL d   1      -0.512   0.783  -0.126  0.00  0.00    -0.007 NA
ATOM      5  N   UNL d   1      -1.185  -0.362  -0.486  0.00  0.00    -0.269 N 
ATOM      6  HN  UNL d   1      -2.117  -0.426  -0.895  1.00  0.00     0.185 HD
ENDROOT
BRANCH   1   7
ATOM      7  C   UNL d   1      -0.747  -2.798  -0.170  0.00  0.00     0.038 A 
ATOM      8  C   UNL d   1      -1.533  -3.506  -1.117  0.00  0.00     0.009 A 
ATOM      9  C   UNL d   1      -1.438  -4.861  -0.778  0.00  0.00     0.045 A 
ATOM     10  C   UNL d   1      -2.219  -3.149  -2.293  0.00  0.00     0.058 A 
ATOM     11  C   UNL d   1      -1.969  -5.882  -1.576  0.00  0.00     0.057 A 
ATOM     12  N   UNL d   1      -0.738  -4.943   0.404  0.00  0.00    -0.364 N 
ATOM     13  C   UNL d   1      -2.605  -5.503  -2.762  0.00  0.00     0.074 A 
ATOM     14  C   UNL d   1      -2.738  -4.160  -3.104  0.00  0.00     0.139 A 
ATOM     15 CL   UNL d   1      -3.191  -6.736  -3.815  0.00  0.00    -0.081 Cl
ATOM     16  F   UNL d   1      -3.343  -3.808  -4.249  0.00  0.00    -0.204 F 
ATOM     17  C   UNL d   1      -0.281  -3.704   0.760  0.00  0.00     0.104 A 
ATOM     18  H   UNL d   1      -0.537  -5.803   0.899  0.00  0.00     0.165 HD
ENDBRANCH   1   7
BRANCH   2  19
ATOM     19  C   UNL d   1       2.131  -1.452   0.135  0.00  0.00     0.056 A 
ATOM     20  C   UNL d   1       2.365  -2.568  -0.681  0.00  0.00     0.032 A 
ATOM     21  C   UNL d   1       3.588  -3.235  -0.633  0.00  0.00     0.009 A 
ATOM     22  C   UNL d   1       4.594  -2.791   0.227  0.00  0.00    -0.062 A 
ATOM     23  C   UNL d   1       4.382  -1.637   0.993  0.00  0.00     0.009 A 
ATOM     24  C   UNL d   1       5.886  -3.550   0.297  0.00  0.00     0.048 C 
ATOM     25  C   UNL d   1       3.159  -0.953   0.936  0.00  0.00     0.032 A 
ENDBRANCH   2  19
TORSDOF 2
