REMARK  4 active torsions:
REMARK  status: ('A' for Active; 'I' for Inactive)
REMARK    1  A    between atoms: N_7  and  C_1 
REMARK    2  A    between atoms: C_10  and  C_6 
REMARK    3  A    between atoms: C_11  and  N_7 
REMARK    4  A    between atoms: O_17  and  C_12 
ROOT
ATOM      1  C   UNL d   1       2.264   0.764  -0.086  0.00  0.00     0.134 A 
ATOM      2  N   UNL d   1       1.187  -1.389   0.067  0.00  0.00    -0.351 N 
ATOM      3  HN  UNL d   1       1.226  -2.406   0.136  1.00  0.00     0.166 HD
ATOM      4  N   UNL d   1       1.067   1.403  -0.087  0.00  0.00    -0.339 N 
ATOM      5  HN  UNL d   1       1.019   2.420  -0.132  1.00  0.00     0.167 HD
ATOM      6  C   UNL d   1       2.330  -0.642   0.006  0.00  0.00     0.087 A 
ATOM      7  C   UNL d   1       0.006  -0.739   0.031  0.00  0.00     0.059 A 
ATOM      8  C   UNL d   1      -0.048   0.667  -0.029  0.00  0.00     0.060 A 
ATOM      9  C   UNL d   1      -1.190  -1.447   0.049  0.00  0.00     0.032 A 
ATOM     10  C   UNL d   1      -1.277   1.312  -0.037  0.00  0.00     0.032 A 
ATOM     11  C   UNL d   1      -2.471   0.592  -0.009  0.00  0.00     0.002 A 
ATOM     12  C   UNL d   1      -2.425  -0.797   0.025  0.00  0.00     0.002 A 
ENDROOT
BRANCH   1  13
ATOM     13  N   UNL d   1       3.420   1.563  -0.189  0.00  0.00    -0.341 N 
ATOM     14  H   UNL d   1       4.039   1.433   0.601  0.00  0.00     0.167 HD
BRANCH  13  15
ATOM     15  C   UNL d   1       3.530   2.798  -0.855  0.00  0.00     0.033 A 
ATOM     16  C   UNL d   1       4.525   3.710  -0.493  0.00  0.00     0.032 A 
ATOM     17  C   UNL d   1       4.661   4.933  -1.167  0.00  0.00     0.039 A 
ATOM     18  C   UNL d   1       3.810   5.251  -2.227  0.00  0.00     0.068 A 
ATOM     19  C   UNL d   1       2.844   4.330  -2.619  0.00  0.00     0.039 A 
ATOM     20  C   UNL d   1       2.710   3.116  -1.946  0.00  0.00     0.032 A 
BRANCH  18  21
ATOM     21  O   UNL d   1       3.820   6.406  -2.956  0.00  0.00    -0.356 OA
ATOM     22  C   UNL d   1       4.727   7.417  -2.542  0.00  0.00     0.210 C 
ENDBRANCH  18  21
ENDBRANCH  13  15
ENDBRANCH   1  13
BRANCH   6  23
ATOM     23  C   UNL d   1       3.588  -1.437   0.046  0.00  0.00    -0.006 A 
ATOM     24  C   UNL d   1       4.767  -1.049  -0.619  0.00  0.00     0.014 A 
ATOM     25  C   UNL d   1       5.952  -1.786  -0.509  0.00  0.00     0.001 A 
ATOM     26  C   UNL d   1       5.976  -2.959   0.235  0.00  0.00     0.000 A 
ATOM     27  C   UNL d   1       4.815  -3.399   0.861  0.00  0.00     0.001 A 
ATOM     28  C   UNL d   1       3.640  -2.646   0.769  0.00  0.00     0.014 A 
ENDBRANCH   6  23
TORSDOF 4
