REMARK  10 active torsions:
REMARK  status: ('A' for Active; 'I' for Inactive)
REMARK    1  A    between atoms: C_1  and  C_3 
REMARK    2  A    between atoms: C_2  and  O_13 
REMARK    3  A    between atoms: C_4  and  O_14 
REMARK    4  A    between atoms: C_6  and  O_15 
REMARK    5  A    between atoms: C_11  and  C_20 
REMARK    6  A    between atoms: C_16  and  O_13 
REMARK    7  A    between atoms: C_17  and  O_14 
REMARK    8  A    between atoms: C_18  and  O_15 
REMARK    9  A    between atoms: C_19  and  O_21 
REMARK   10  A    between atoms: O_21  and  C_20 
ROOT
ATOM      1  C   UNL d   1      -0.515  -1.250   0.265  0.00  0.00     0.223 C 
ATOM      2  C   UNL d   1       0.951  -1.293  -0.182  0.00  0.00     0.200 C 
ATOM      3  C   UNL d   1       1.682   0.005   0.209  0.00  0.00     0.196 C 
ATOM      4  O   UNL d   1      -1.162  -0.080  -0.255  0.00  0.00    -0.365 OA
ATOM      5  C   UNL d   1       0.892   1.253  -0.244  0.00  0.00     0.195 C 
ATOM      6  C   UNL d   1      -0.565   1.137   0.249  0.00  0.00     0.179 C 
ENDROOT
BRANCH   1   7
ATOM      7  C   UNL d   1      -1.243  -2.441  -0.259  0.00  0.00     0.139 A 
ATOM      8  N   UNL d   1      -1.060  -3.706   0.064  0.00  0.00    -0.272 N 
ATOM      9  N   UNL d   1      -1.884  -4.434  -0.756  0.00  0.00    -0.007 NA
ATOM     10  HN  UNL d   1      -0.431  -4.070   0.780  1.00  0.00     0.185 HD
ATOM     11  N   UNL d   1      -2.585  -3.638  -1.552  0.00  0.00    -0.007 NA
ATOM     12  N   UNL d   1      -2.196  -2.396  -1.234  0.00  0.00    -0.272 N 
ATOM     13  H   UNL d   1      -2.596  -1.597  -1.709  0.00  0.00     0.185 HD
ENDBRANCH   1   7
BRANCH   2  14
ATOM     14  O   UNL d   1       1.599  -2.408   0.469  0.00  0.00    -0.310 OA
BRANCH  14  15
ATOM     15  C   UNL d   1       2.172  -3.340  -0.338  0.00  0.00     0.255 C 
ATOM     16  O   UNL d   1       2.197  -3.294  -1.560  0.00  0.00    -0.266 OA
ATOM     17  C   UNL d   1       2.876  -4.377   0.480  0.00  0.00     0.126 C 
ENDBRANCH  14  15
ENDBRANCH   2  14
BRANCH   3  18
ATOM     18  O   UNL d   1       2.974   0.028  -0.456  0.00  0.00    -0.311 OA
BRANCH  18  19
ATOM     19  C   UNL d   1       3.998  -0.611   0.176  0.00  0.00     0.255 C 
ATOM     20  O   UNL d   1       3.946  -1.106   1.293  0.00  0.00    -0.266 OA
ATOM     21  C   UNL d   1       5.192  -0.692  -0.721  0.00  0.00     0.126 C 
ENDBRANCH  18  19
ENDBRANCH   3  18
BRANCH   6  22
ATOM     22  C   UNL d   1      -1.448   2.313  -0.206  0.00  0.00     0.213 C 
BRANCH  22  23
ATOM     23  O   UNL d   1      -2.785   2.184   0.322  0.00  0.00    -0.319 OA
BRANCH  23  24
ATOM     24  C   UNL d   1      -2.935   2.598   1.609  0.00  0.00     0.254 C 
ATOM     25  O   UNL d   1      -2.037   3.014   2.321  0.00  0.00    -0.266 OA
ATOM     26  C   UNL d   1      -4.365   2.474   2.044  0.00  0.00     0.126 C 
ENDBRANCH  23  24
ENDBRANCH  22  23
ENDBRANCH   6  22
BRANCH   5  27
ATOM     27  O   UNL d   1       1.550   2.414   0.321  0.00  0.00    -0.311 OA
BRANCH  27  28
ATOM     28  C   UNL d   1       1.528   3.554  -0.422  0.00  0.00     0.255 C 
ATOM     29  O   UNL d   1       0.930   3.683  -1.482  0.00  0.00    -0.266 OA
ATOM     30  C   UNL d   1       2.274   4.663   0.256  0.00  0.00     0.126 C 
ENDBRANCH  27  28
ENDBRANCH   5  27
TORSDOF 10
