REMARK  5 active torsions:
REMARK  status: ('A' for Active; 'I' for Inactive)
REMARK    1  A    between atoms: C_6  and  C_1 
REMARK    2  A    between atoms: C_5  and  C_4 
REMARK       I    between atoms: N_12  and  C_6 
REMARK    3  A    between atoms: C_7  and  C_9 
REMARK       I    between atoms: C_11  and  N_13 
REMARK       I    between atoms: N_14  and  C_11 
REMARK    4  A    between atoms: N_13  and  N_12 
REMARK    5  A    between atoms: C_17  and  N_14 
ROOT
ATOM      1  C   UNL d   1       1.150   0.829   0.054  0.00  0.00     0.110 C 
ATOM      2  N   UNL d   1      -0.169   1.284   0.160  0.00  0.00    -0.345 N 
ATOM      3  HN  UNL d   1      -0.443   2.180   0.562  1.00  0.00     0.167 HD
ATOM      4  C   UNL d   1      -1.010   0.395  -0.331  0.00  0.00     0.087 C 
ATOM      5  S   UNL d   1      -0.278  -1.121  -0.739  0.00  0.00    -0.081 SA
ATOM      6  C   UNL d   1       1.261  -0.491  -0.353  0.00  0.00     0.087 C 
ENDROOT
BRANCH   1   7
ATOM      7  C   UNL d   1       2.317   1.690   0.284  0.00  0.00     0.287 C 
ATOM      8  N   UNL d   1       2.004   2.991   0.605  0.00  0.00    -0.261 N 
ATOM      9  H   UNL d   1       1.056   3.243   0.886  0.00  0.00     0.190 HD
ATOM     10  O   UNL d   1       3.471   1.289   0.144  0.00  0.00    -0.264 OA
BRANCH   8  11
ATOM     11  N   UNL d   1       3.047   3.882   0.959  0.00  0.00    -0.248 N 
ATOM     12  C   UNL d   1       2.734   4.881   1.869  0.00  0.00     0.339 C 
ATOM     13  N   UNL d   1       3.798   5.731   2.092  0.00  0.00    -0.308 N 
ATOM     14  O   UNL d   1       1.625   4.932   2.386  0.00  0.00    -0.245 OA
ATOM     15  H   UNL d   1       4.683   5.462   1.687  0.00  0.00     0.170 HD
ATOM     16  H   UNL d   1       3.719   4.064   0.222  0.00  0.00     0.192 HD
BRANCH  13  17
ATOM     17  C   UNL d   1       3.796   6.898   2.896  0.00  0.00     0.038 A 
ATOM     18  C   UNL d   1       2.657   7.381   3.547  0.00  0.00     0.053 A 
ATOM     19  C   UNL d   1       2.710   8.572   4.272  0.00  0.00     0.036 A 
ATOM     20 CL   UNL d   1       1.288   9.162   5.045  0.00  0.00    -0.084 Cl
ATOM     21  C   UNL d   1       3.895   9.294   4.368  0.00  0.00     0.024 A 
ATOM     22  C   UNL d   1       5.043   8.810   3.747  0.00  0.00     0.004 A 
ATOM     23  C   UNL d   1       4.995   7.616   3.016  0.00  0.00     0.029 A 
ENDBRANCH  13  17
ENDBRANCH   8  11
ENDBRANCH   1   7
BRANCH   4  24
ATOM     24  C   UNL d   1      -2.439   0.626  -0.602  0.00  0.00     0.028 A 
ATOM     25  C   UNL d   1      -2.963   1.852  -1.056  0.00  0.00     0.063 A 
ATOM     26  C   UNL d   1      -4.353   1.942  -1.306  0.00  0.00     0.034 A 
ATOM     27  C   UNL d   1      -5.161   0.837  -1.127  0.00  0.00     0.088 A 
ATOM     28  N   UNL d   1      -4.693  -0.344  -0.698  0.00  0.00    -0.374 N 
ATOM     29  C   UNL d   1      -3.363  -0.417  -0.441  0.00  0.00     0.102 A 
ATOM     30  HN  UNL d   1      -5.307  -1.149  -0.572  1.00  0.00     0.164 HD
BRANCH  25  31
ATOM     31  C   UNL d   1      -2.176   3.111  -1.338  0.00  0.00     0.418 C 
ATOM     32  F   UNL d   1      -0.824   3.038  -1.322  0.00  0.00    -0.166 F 
ATOM     33  F   UNL d   1      -2.471   3.595  -2.584  0.00  0.00    -0.166 F 
ATOM     34  F   UNL d   1      -2.512   4.117  -0.481  0.00  0.00    -0.166 F 
ENDBRANCH  25  31
ENDBRANCH   4  24
TORSDOF 5
