REMARK  5 active torsions:
REMARK  status: ('A' for Active; 'I' for Inactive)
REMARK    1  A    between atoms: N_5  and  C_1 
REMARK    2  A    between atoms: O_10  and  C_2 
REMARK    3  A    between atoms: C_8  and  N_5 
REMARK    4  A    between atoms: C_16  and  O_10 
REMARK    5  A    between atoms: O_12  and  C_11 
ROOT
ATOM      1  N   UNL d   1       1.563  -2.396  -0.298  0.00  0.00    -0.254 NA
ATOM      2  H   UNL d   1       1.417  -3.289   0.184  0.00  0.00     0.134 HD
ENDROOT
BRANCH   1   3
ATOM      3  C   UNL d   1       0.619  -1.487  -0.140  0.00  0.00     0.105 A 
ATOM      4  C   UNL d   1      -0.111  -0.595  -0.893  0.00  0.00     0.148 A 
ATOM      5  C   UNL d   1      -0.816  -0.090   0.306  0.00  0.00     0.258 A 
ATOM      6  C   UNL d   1      -0.106  -1.121   1.094  0.00  0.00     0.248 A 
ATOM      7  O   UNL d   1      -1.638   0.740   0.608  0.00  0.00    -0.281 OA
ATOM      8  O   UNL d   1      -0.133  -1.445   2.256  0.00  0.00    -0.282 OA
BRANCH   4   9
ATOM      9  O   UNL d   1      -0.188  -0.259  -2.132  0.00  0.00    -0.346 OA
BRANCH   9  10
ATOM     10  C   UNL d   1       0.215  -1.284  -3.037  0.00  0.00     0.171 C 
ATOM     11  C   UNL d   1       0.048  -0.763  -4.453  0.00  0.00     0.034 C 
ENDBRANCH   9  10
ENDBRANCH   4   9
ENDBRANCH   1   3
BRANCH   1  12
ATOM     12  C   UNL d   1       2.961  -2.131  -0.122  0.00  0.00     0.015 A 
ATOM     13  C   UNL d   1       3.477  -0.845   0.121  0.00  0.00     0.060 A 
ATOM     14  C   UNL d   1       4.853  -0.647   0.282  0.00  0.00     0.069 A 
ATOM     15  C   UNL d   1       5.724  -1.730   0.158  0.00  0.00     0.037 A 
ATOM     16  C   UNL d   1       5.233  -3.002  -0.124  0.00  0.00     0.005 A 
ATOM     17  C   UNL d   1       3.860  -3.200  -0.268  0.00  0.00     0.024 A 
BRANCH  14  18
ATOM     18  O   UNL d   1       5.469   0.544   0.563  0.00  0.00    -0.356 OA
ATOM     19  C   UNL d   1       4.633   1.674   0.773  0.00  0.00     0.210 C 
ENDBRANCH  14  18
ENDBRANCH   1  12
TORSDOF 5
