REMARK  7 active torsions:
REMARK  status: ('A' for Active; 'I' for Inactive)
REMARK    1  A    between atoms: N_2  and  C_1 
REMARK    2  A    between atoms: C_5  and  N_2 
REMARK    3  A    between atoms: C_15  and  N_4 
REMARK    4  A    between atoms: N_7  and  C_16 
REMARK    5  A    between atoms: C_14  and  N_7 
REMARK    6  A    between atoms: C_13  and  C_15 
REMARK    7  A    between atoms: C_16  and  C_13 
ROOT
ATOM      1  C   UNL d   1       2.197   1.562   2.019  0.00  0.00     0.172 C 
ATOM      2  S   UNL d   1       1.672   2.105   3.509  0.00  0.00    -0.041 SA
ATOM      3  N   UNL d   1       2.742   0.314   1.979  0.00  0.00    -0.367 N 
ATOM      4  H   UNL d   1       2.740  -0.153   2.880  0.00  0.00     0.161 HD
ENDROOT
BRANCH   3   5
ATOM      5  C   UNL d   1       3.197  -0.463   0.834  0.00  0.00     0.123 C 
BRANCH   5   6
ATOM      6  C   UNL d   1       4.712  -0.381   0.652  0.00  0.00     0.050 C 
BRANCH   6   7
ATOM      7  C   UNL d   1       5.438  -0.916   1.890  0.00  0.00     0.271 C 
BRANCH   7   8
ATOM      8  N   UNL d   1       6.883  -0.963   1.676  0.00  0.00     0.088 N 
ATOM      9  H   UNL d   1       7.220  -0.034   1.432  0.00  0.00     0.316 HD
BRANCH   8  10
ATOM     10  C   UNL d   1       7.613  -1.442   2.869  0.00  0.00     0.220 C 
ATOM     11  C   UNL d   1       9.124  -1.387   2.580  0.00  0.00     0.035 C 
ATOM     12  C   UNL d   1       9.554  -2.397   1.512  0.00  0.00     0.002 C 
ATOM     13  C   UNL d   1       9.102  -3.817   1.850  0.00  0.00     0.000 C 
ATOM     14  C   UNL d   1       7.616  -3.893   2.191  0.00  0.00     0.002 C 
ATOM     15  C   UNL d   1       7.248  -2.881   3.276  0.00  0.00     0.035 C 
ENDBRANCH   8  10
ENDBRANCH   7   8
ENDBRANCH   6   7
ENDBRANCH   5   6
ENDBRANCH   3   5
BRANCH   1  16
ATOM     16  N   UNL d   1       2.188   2.248   0.832  0.00  0.00    -0.333 N 
ATOM     17  H   UNL d   1       3.006   2.104   0.258  0.00  0.00     0.168 HD
BRANCH  16  18
ATOM     18  C   UNL d   1       1.308   3.266   0.412  0.00  0.00     0.034 A 
ATOM     19  C   UNL d   1       1.768   4.171  -0.552  0.00  0.00     0.031 A 
ATOM     20  C   UNL d   1       0.903   5.136  -1.084  0.00  0.00     0.026 A 
ATOM     21  C   UNL d   1      -0.427   5.172  -0.675  0.00  0.00     0.034 A 
ATOM     22  C   UNL d   1      -0.894   4.278   0.282  0.00  0.00     0.026 A 
ATOM     23 CL   UNL d   1      -1.509   6.305  -1.387  0.00  0.00    -0.084 Cl
ATOM     24  C   UNL d   1      -0.024   3.328   0.830  0.00  0.00     0.031 A 
ENDBRANCH  16  18
ENDBRANCH   1  16
TORSDOF 7
