REMARK  6 active torsions:
REMARK  status: ('A' for Active; 'I' for Inactive)
REMARK    1  A    between atoms: C_5  and  C_1 
REMARK    2  A    between atoms: C_2  and  N_4 
REMARK    3  A    between atoms: S_6  and  C_2 
REMARK    4  A    between atoms: N_4  and  C_3 
REMARK    5  A    between atoms: O_10  and  C_5 
REMARK    6  A    between atoms: C_9  and  S_6 
ROOT
ATOM      1  N   UNL d   1       0.976  -3.543  -0.969  0.00  0.00    -0.341 N 
ATOM      2  H   UNL d   1       1.855  -3.375  -1.448  0.00  0.00     0.167 HD
ENDROOT
BRANCH   1   3
ATOM      3  C   UNL d   1       0.305  -4.685  -1.349  0.00  0.00     0.144 C 
ATOM      4  S   UNL d   1      -0.789  -5.508  -0.385  0.00  0.00    -0.052 SA
BRANCH   3   5
ATOM      5  S   UNL d   1       0.650  -5.044  -3.032  0.00  0.00    -0.061 SA
BRANCH   5   6
ATOM      6  C   UNL d   1       1.461  -6.626  -3.154  0.00  0.00     0.007 A 
ATOM      7  C   UNL d   1       1.095  -7.776  -2.448  0.00  0.00     0.021 A 
ATOM      8  C   UNL d   1       1.712  -9.007  -2.713  0.00  0.00     0.025 A 
ATOM      9  C   UNL d   1       2.687  -9.101  -3.698  0.00  0.00     0.034 A 
ATOM     10  C   UNL d   1       3.061  -7.974  -4.421  0.00  0.00     0.025 A 
ATOM     11 CL   UNL d   1       3.414 -10.621  -4.046  0.00  0.00    -0.084 Cl
ATOM     12  C   UNL d   1       2.448  -6.743  -4.147  0.00  0.00     0.021 A 
ENDBRANCH   5   6
ENDBRANCH   3   5
ENDBRANCH   1   3
BRANCH   1  13
ATOM     13  C   UNL d   1       0.357  -2.344  -0.492  0.00  0.00     0.050 A 
ATOM     14  C   UNL d   1       1.127  -1.348   0.132  0.00  0.00     0.066 A 
ATOM     15  C   UNL d   1       0.591  -0.073   0.372  0.00  0.00     0.020 A 
ATOM     16  C   UNL d   1      -0.735   0.199   0.043  0.00  0.00     0.001 A 
ATOM     17  C   UNL d   1      -1.528  -0.805  -0.507  0.00  0.00     0.002 A 
ATOM     18  C   UNL d   1      -0.987  -2.065  -0.779  0.00  0.00     0.030 A 
BRANCH  14  19
ATOM     19  C   UNL d   1       2.461  -1.625   0.704  0.00  0.00     0.295 C 
ATOM     20  O   UNL d   1       3.426  -0.894   0.590  0.00  0.00    -0.259 OA
BRANCH  19  21
ATOM     21  O   UNL d   1       2.350  -2.735   1.471  0.00  0.00    -0.322 OA
ATOM     22  C   UNL d   1       3.467  -3.050   2.301  0.00  0.00     0.213 C 
ENDBRANCH  19  21
ENDBRANCH  14  19
ENDBRANCH   1  13
TORSDOF 6
