REMARK  11 active torsions:
REMARK  status: ('A' for Active; 'I' for Inactive)
REMARK    1  A    between atoms: C_2  and  S_1 
REMARK    2  A    between atoms: N_4  and  S_1 
REMARK    3  A    between atoms: C_12  and  N_4 
REMARK    4  A    between atoms: C_22  and  N_4 
REMARK    5  A    between atoms: C_11  and  O_26 
REMARK       I    between atoms: N_21  and  C_11 
REMARK    6  A    between atoms: C_19  and  C_12 
REMARK    7  A    between atoms: C_16  and  C_20 
REMARK    8  A    between atoms: N_31  and  C_16 
REMARK    9  A    between atoms: O_26  and  N_17 
REMARK   10  A    between atoms: C_20  and  C_22 
REMARK   11  A    between atoms: C_32  and  N_21 
ROOT
ATOM      1  N   UNL d   1       0.832   3.103  -8.385  0.00  0.00    -0.200 NA
ENDROOT
BRANCH   1   2
ATOM      2  S   UNL d   1       1.550   4.515  -9.091  0.00  0.00     0.246 S 
ATOM      3  O   UNL d   1       1.567   5.555  -8.080  0.00  0.00    -0.206 OA
ATOM      4  O   UNL d   1       2.777   4.097  -9.731  0.00  0.00    -0.206 OA
BRANCH   2   5
ATOM      5  C   UNL d   1       0.355   5.042 -10.262  0.00  0.00     0.104 A 
ATOM      6  C   UNL d   1       0.637   5.334 -11.614  0.00  0.00     0.090 A 
ATOM      7  N   UNL d   1       1.785   5.155 -12.287  0.00  0.00    -0.309 N 
ATOM      8  C   UNL d   1      -0.437   5.957 -12.485  0.00  0.00     0.068 A 
ATOM      9  S   UNL d   1       1.537   5.676 -13.839  0.00  0.00     0.068 SA
ATOM     10  HN  UNL d   1       2.651   4.768 -11.911  1.00  0.00     0.176 HD
ATOM     11  N   UNL d   1      -0.039   6.184 -13.746  0.00  0.00    -0.310 N 
ATOM     12  HN  UNL d   1      -0.595   6.589 -14.499  1.00  0.00     0.176 HD
ATOM     13  C   UNL d   1      -1.719   6.264 -11.967  0.00  0.00     0.032 A 
ATOM     14  C   UNL d   1      -1.938   5.948 -10.618  0.00  0.00     0.004 A 
ATOM     15  C   UNL d   1      -0.946   5.362  -9.801  0.00  0.00     0.027 A 
ENDBRANCH   2   5
ENDBRANCH   1   2
BRANCH   1  16
ATOM     16  C   UNL d   1       1.221   1.831  -9.069  0.00  0.00     0.172 C 
BRANCH  16  17
ATOM     17  C   UNL d   1       0.772   1.762 -10.486  0.00  0.00     0.066 A 
ATOM     18  O   UNL d   1      -0.572   1.819 -10.718  0.00  0.00    -0.326 OA
ATOM     19  C   UNL d   1      -0.748   1.696 -12.059  0.00  0.00     0.142 A 
ATOM     20  C   UNL d   1       0.463   1.554 -12.695  0.00  0.00     0.027 A 
ATOM     21  C   UNL d   1       1.447   1.597 -11.679  0.00  0.00     0.036 A 
ENDBRANCH  16  17
ENDBRANCH   1  16
BRANCH   1  22
ATOM     22  C   UNL d   1       0.999   3.083  -6.892  0.00  0.00     0.115 C 
BRANCH  22  23
ATOM     23  C   UNL d   1       0.276   1.938  -6.194  0.00  0.00     0.093 C 
BRANCH  23  24
ATOM     24  C   UNL d   1       0.363   2.106  -4.684  0.00  0.00     0.097 C 
ATOM     25  N   UNL d   1      -0.312   3.066  -4.115  0.00  0.00    -0.244 N 
ATOM     26  HN  UNL d   1      -0.905   3.744  -4.593  1.00  0.00     0.196 HD
BRANCH  25  27
ATOM     27  O   UNL d   1      -0.078   3.004  -2.718  0.00  0.00    -0.179 OA
BRANCH  27  28
ATOM     28  C   UNL d   1      -0.733   3.971  -1.978  0.00  0.00     0.387 C 
ATOM     29  N   UNL d   1      -1.438   4.881  -2.725  0.00  0.00    -0.301 N 
ATOM     30  H   UNL d   1      -1.365   4.706  -3.720  0.00  0.00     0.171 HD
ATOM     31  O   UNL d   1      -0.627   3.951  -0.754  0.00  0.00    -0.236 OA
BRANCH  29  32
ATOM     32  C   UNL d   1      -2.199   5.976  -2.263  0.00  0.00     0.036 A 
ATOM     33  C   UNL d   1      -2.372   6.282  -0.909  0.00  0.00     0.029 A 
ATOM     34  C   UNL d   1      -3.149   7.379  -0.516  0.00  0.00     0.002 A 
ATOM     35  C   UNL d   1      -3.759   8.182  -1.473  0.00  0.00     0.000 A 
ATOM     36  C   UNL d   1      -3.591   7.890  -2.825  0.00  0.00     0.002 A 
ATOM     37  C   UNL d   1      -2.815   6.792  -3.216  0.00  0.00     0.029 A 
ENDBRANCH  29  32
ENDBRANCH  27  28
ENDBRANCH  25  27
BRANCH  24  38
ATOM     38  N   UNL d   1       1.163   1.224  -4.001  0.00  0.00    -0.388 N 
ATOM     39  H   UNL d   1       1.938   0.778  -4.479  0.00  0.00     0.157 HD
ATOM     40  H   UNL d   1       1.364   1.489  -3.041  0.00  0.00     0.157 HD
ENDBRANCH  24  38
ENDBRANCH  23  24
ENDBRANCH  22  23
ENDBRANCH   1  22
TORSDOF 11
