REMARK  6 active torsions:
REMARK  status: ('A' for Active; 'I' for Inactive)
REMARK       I    between atoms: N_3  and  C_1 
REMARK       I    between atoms: N_4  and  C_1 
REMARK    1  A    between atoms: C_7  and  N_3 
REMARK    2  A    between atoms: C_8  and  N_4 
REMARK    3  A    between atoms: O_9  and  C_10 
REMARK    4  A    between atoms: C_11  and  O_9 
REMARK    5  A    between atoms: C_21  and  C_11 
REMARK    6  A    between atoms: C_22  and  C_12 
ROOT
ATOM      1  N   UNL d   1       0.742  -4.542  -6.406  0.00  0.00    -0.197 NA
ATOM      2  C   UNL d   1       1.107  -4.907  -5.368  0.00  0.00     0.063 C 
ATOM      3  C   UNL d   1       1.575  -5.379  -4.026  0.00  0.00     0.162 C 
ENDROOT
BRANCH   3   4
ATOM      4  C   UNL d   1       1.311  -4.346  -2.942  0.00  0.00    -0.045 A 
ATOM      5  C   UNL d   1       0.087  -4.306  -2.259  0.00  0.00     0.010 A 
ATOM      6  C   UNL d   1      -0.205  -3.258  -1.374  0.00  0.00     0.030 A 
ATOM      7  C   UNL d   1       0.719  -2.234  -1.153  0.00  0.00     0.036 A 
ATOM      8  C   UNL d   1       1.956  -2.307  -1.803  0.00  0.00     0.030 A 
ATOM      9  C   UNL d   1       2.250  -3.346  -2.687  0.00  0.00     0.010 A 
BRANCH   7  10
ATOM     10  N   UNL d   1       0.347  -1.174  -0.291  0.00  0.00    -0.309 N 
ATOM     11  C   UNL d   1       1.119  -0.062  -0.002  0.00  0.00     0.325 C 
ATOM     12  N   UNL d   1       0.515   0.769   0.929  0.00  0.00    -0.309 N 
ATOM     13  O   UNL d   1       2.224   0.149  -0.485  0.00  0.00    -0.247 OA
ATOM     14  H   UNL d   1      -0.301   0.419   1.406  0.00  0.00     0.170 HD
ATOM     15  H   UNL d   1      -0.586  -1.206   0.089  0.00  0.00     0.170 HD
BRANCH  12  16
ATOM     16  C   UNL d   1       1.112   1.935   1.464  0.00  0.00     0.036 A 
ATOM     17  C   UNL d   1       2.205   2.572   0.870  0.00  0.00     0.032 A 
ATOM     18  C   UNL d   1       2.820   3.670   1.474  0.00  0.00     0.039 A 
ATOM     19  C   UNL d   1       2.338   4.157   2.683  0.00  0.00     0.069 A 
ATOM     20  C   UNL d   1       1.210   3.567   3.254  0.00  0.00     0.039 A 
ATOM     21  C   UNL d   1       0.596   2.462   2.651  0.00  0.00     0.032 A 
BRANCH  19  22
ATOM     22  O   UNL d   1       2.861   5.224   3.358  0.00  0.00    -0.347 OA
BRANCH  22  23
ATOM     23  C   UNL d   1       4.265   5.426   3.185  0.00  0.00     0.214 C 
BRANCH  23  24
ATOM     24  C   UNL d   1       4.683   6.632   3.988  0.00  0.00    -0.034 A 
ATOM     25  C   UNL d   1       5.624   6.519   5.020  0.00  0.00     0.009 A 
ATOM     26  C   UNL d   1       6.050   7.654   5.711  0.00  0.00     0.001 A 
ATOM     27  C   UNL d   1       5.540   8.909   5.378  0.00  0.00     0.000 A 
ATOM     28  C   UNL d   1       4.590   9.029   4.366  0.00  0.00     0.001 A 
ATOM     29  C   UNL d   1       4.162   7.896   3.675  0.00  0.00     0.009 A 
ENDBRANCH  23  24
ENDBRANCH  22  23
ENDBRANCH  19  22
ENDBRANCH  12  16
ENDBRANCH   7  10
ENDBRANCH   3   4
TORSDOF 6
