REMARK  3 active torsions:
REMARK  status: ('A' for Active; 'I' for Inactive)
REMARK       I    between atoms: C_2  and  N_1 
REMARK    1  A    between atoms: C_3  and  C_2 
REMARK    2  A    between atoms: C_4  and  C_5 
REMARK       I    between atoms: N_8  and  C_5 
REMARK    3  A    between atoms: C_19  and  N_8 
ROOT
ATOM      1  N   UNL d   1       1.958  -0.563  -0.320  0.00  0.00    -0.338 N 
ATOM      2  C   UNL d   1       3.124  -1.167  -0.754  0.00  0.00     0.229 C 
ATOM      3  C   UNL d   1       2.044   0.894   0.051  0.00  0.00     0.179 C 
ATOM      4  C   UNL d   1       0.717  -1.319  -0.084  0.00  0.00     0.132 C 
ATOM      5  C   UNL d   1       1.124   1.285   1.213  0.00  0.00     0.040 C 
ATOM      6  C   UNL d   1      -0.166  -0.796   1.077  0.00  0.00     0.008 C 
ATOM      7  C   UNL d   1      -0.289   0.728   1.043  0.00  0.00    -0.006 C 
ATOM      8  O   UNL d   1       4.188  -0.558  -0.535  0.00  0.00    -0.272 OA
ATOM      9  C   UNL d   1      -1.024   1.171  -0.235  0.00  0.00     0.005 C 
ATOM     10  C   UNL d   1      -1.582  -1.386   1.103  0.00  0.00     0.006 C 
ATOM     11  C   UNL d   1      -2.404   0.532  -0.371  0.00  0.00     0.000 C 
ATOM     12  C   UNL d   1      -2.421  -0.973  -0.103  0.00  0.00     0.000 C 
ENDROOT
BRANCH   2  13
ATOM     13  C   UNL d   1       3.205  -2.365  -1.734  0.00  0.00     0.042 C 
ATOM     14  C   UNL d   1       2.087  -3.469  -2.021  0.00  0.00     0.024 C 
ATOM     15  C   UNL d   1       2.533  -4.553  -3.152  0.00  0.00    -0.013 C 
ATOM     16  C   UNL d   1       2.871  -3.781  -4.542  0.00  0.00     0.009 C 
ATOM     17  C   UNL d   1       3.882  -5.254  -2.691  0.00  0.00     0.009 C 
ATOM     18  C   UNL d   1       3.977  -2.731  -4.181  0.00  0.00    -0.013 C 
ATOM     19  C   UNL d   1       3.477  -1.629  -3.199  0.00  0.00     0.024 C 
ATOM     20  C   UNL d   1       5.351  -3.367  -3.749  0.00  0.00     0.009 C 
ATOM     21  C   UNL d   1       5.043  -4.219  -2.403  0.00  0.00    -0.013 C 
ATOM     22  C   UNL d   1       4.515  -3.217  -1.303  0.00  0.00     0.024 C 
ENDBRANCH   2  13
BRANCH   3  23
ATOM     23  C   UNL d   1       1.841   1.917  -1.121  0.00  0.00     0.241 C 
ATOM     24  N   UNL d   1       2.355   1.555  -2.344  0.00  0.00    -0.351 N 
ATOM     25  H   UNL d   1       3.030   0.802  -2.337  0.00  0.00     0.163 HD
ATOM     26  O   UNL d   1       1.327   3.020  -0.940  0.00  0.00    -0.271 OA
BRANCH  24  27
ATOM     27  C   UNL d   1       2.108   2.284  -3.601  0.00  0.00     0.022 C 
ATOM     28  C   UNL d   1       2.654   3.725  -3.580  0.00  0.00     0.037 C 
ATOM     29  C   UNL d   1       2.809   1.537  -4.750  0.00  0.00     0.037 C 
ATOM     30  C   UNL d   1       0.595   2.302  -3.897  0.00  0.00     0.037 C 
ENDBRANCH  24  27
ENDBRANCH   3  23
TORSDOF 3
