REMARK  4 active torsions:
REMARK  status: ('A' for Active; 'I' for Inactive)
REMARK    1  A    between atoms: C_2  and  N_1 
REMARK    2  A    between atoms: C_5  and  S_8 
REMARK    3  A    between atoms: S_8  and  C_11 
REMARK    4  A    between atoms: C_11  and  C_12 
ROOT
ATOM      1  C   UNL d   1       0.235   0.636  -1.179  0.00  0.00     0.102 A 
ATOM      2  C   UNL d   1      -1.145   0.466  -1.351  0.00  0.00     0.036 A 
ATOM      3  C   UNL d   1       0.936   1.572  -1.948  0.00  0.00     0.036 A 
ATOM      4  C   UNL d   1      -1.129   2.156  -3.103  0.00  0.00    -0.048 A 
ATOM      5  C   UNL d   1       0.251   2.331  -2.900  0.00  0.00     0.010 A 
ATOM      6  C   UNL d   1      -1.820   1.225  -2.312  0.00  0.00     0.010 A 
ENDROOT
BRANCH   4   7
ATOM      7  C   UNL d   1      -1.860   2.966  -4.157  0.00  0.00     0.119 C 
BRANCH   7   8
ATOM      8  S   UNL d   1      -1.302   2.529  -5.838  0.00  0.00    -0.108 SA
BRANCH   8   9
ATOM      9  C   UNL d   1      -2.114   3.796  -6.795  0.00  0.00     0.069 A 
ATOM     10  N   UNL d   1      -3.060   4.555  -6.199  0.00  0.00    -0.361 N 
ATOM     11  C   UNL d   1      -3.650   5.510  -6.955  0.00  0.00     0.089 A 
ATOM     12  HN  UNL d   1      -3.319   4.415  -5.223  1.00  0.00     0.165 HD
ATOM     13  C   UNL d   1      -3.338   5.750  -8.283  0.00  0.00     0.017 A 
ATOM     14  C   UNL d   1      -2.368   4.955  -8.879  0.00  0.00     0.004 A 
ATOM     15  C   UNL d   1      -1.748   3.960  -8.127  0.00  0.00     0.037 A 
ENDBRANCH   8   9
ENDBRANCH   7   8
ENDBRANCH   4   7
BRANCH   1  16
ATOM     16  N   UNL d   1       0.955  -0.178  -0.192  0.00  0.00    -0.116 N 
ATOM     17  O   UNL d   1       0.298  -1.000   0.467  0.00  0.00    -0.532 OA
ATOM     18  O   UNL d   1       2.175   0.001  -0.073  0.00  0.00    -0.532 OA
ENDBRANCH   1  16
TORSDOF 4
