REMARK  4 active torsions:
REMARK  status: ('A' for Active; 'I' for Inactive)
REMARK    1  A    between atoms: N_2  and  C_5 
REMARK    2  A    between atoms: N_7  and  N_2 
REMARK    3  A    between atoms: C_4  and  N_7 
REMARK    4  A    between atoms: N_13  and  C_4 
ROOT
ATOM      1  C   UNL d   1       3.815   0.260  -0.131  0.00  0.00     0.032 C 
ATOM      2  C   UNL d   1       4.995  -0.613  -0.200  0.00  0.00     0.041 C 
ATOM      3  C   UNL d   1       2.579  -0.077   0.456  0.00  0.00    -0.011 A 
ATOM      4  C   UNL d   1       3.998   1.459  -0.826  0.00  0.00     0.081 C 
ATOM      5  O   UNL d   1       5.104   1.742  -1.578  0.00  0.00    -0.350 OA
ATOM      6  C   UNL d   1       1.551   0.900   0.416  0.00  0.00    -0.025 A 
ATOM      7  C   UNL d   1       3.013   2.435  -0.782  0.00  0.00     0.038 C 
ATOM      8  C   UNL d   1       1.799   2.159  -0.157  0.00  0.00     0.015 C 
ATOM      9  C   UNL d   1       5.443  -0.767  -1.623  0.00  0.00     0.086 C 
ATOM     10  C   UNL d   1       5.850   0.624  -2.097  0.00  0.00     0.181 C 
ATOM     11  C   UNL d   1       2.277  -1.341   1.010  0.00  0.00     0.013 A 
ATOM     12  C   UNL d   1       0.275   0.596   0.915  0.00  0.00     0.012 A 
ATOM     13  C   UNL d   1       0.991  -1.638   1.473  0.00  0.00     0.001 A 
ATOM     14  C   UNL d   1      -0.008  -0.671   1.423  0.00  0.00     0.001 A 
ENDROOT
BRANCH   2  15
ATOM     15  N   UNL d   1       5.616  -0.989   0.876  0.00  0.00    -0.302 N 
ATOM     16  HN  UNL d   1       5.249  -0.778   1.804  1.00  0.00     0.186 HD
BRANCH  15  17
ATOM     17  N   UNL d   1       6.790  -1.686   0.710  0.00  0.00    -0.276 N 
ATOM     18  H   UNL d   1       6.812  -2.344  -0.060  0.00  0.00     0.189 HD
BRANCH  17  19
ATOM     19  C   UNL d   1       7.996  -1.081   0.922  0.00  0.00     0.186 C 
ATOM     20  S   UNL d   1       9.292  -1.476  -0.060  0.00  0.00    -0.040 SA
BRANCH  19  21
ATOM     21  N   UNL d   1       8.166  -0.151   1.887  0.00  0.00    -0.370 N 
ATOM     22  C   UNL d   1       7.382   0.025   3.088  0.00  0.00     0.148 C 
ATOM     23  H   UNL d   1       9.091   0.268   1.899  0.00  0.00     0.161 HD
ENDBRANCH  19  21
ENDBRANCH  17  19
ENDBRANCH  15  17
ENDBRANCH   2  15
TORSDOF 4
