REMARK  9 active torsions:
REMARK  status: ('A' for Active; 'I' for Inactive)
REMARK    1  A    between atoms: C_8  and  S_1 
REMARK    2  A    between atoms: N_9  and  S_1 
REMARK    3  A    between atoms: N_3  and  O_10 
REMARK    4  A    between atoms: C_7  and  C_19 
REMARK    5  A    between atoms: O_10  and  C_7 
REMARK    6  A    between atoms: C_26  and  N_9 
REMARK    7  A    between atoms: C_27  and  N_9 
REMARK    8  A    between atoms: C_28  and  C_26 
REMARK    9  A    between atoms: C_29  and  C_27 
ROOT
ATOM      1  C   UNL d   1       0.506   1.554   0.989  0.00  0.00     0.074 A 
ATOM      2  C   UNL d   1      -0.071   3.796   2.610  0.00  0.00     0.041 A 
ATOM      3  C   UNL d   1      -0.063   1.372   2.254  0.00  0.00     0.026 A 
ATOM      4  C   UNL d   1       0.842   2.848   0.566  0.00  0.00     0.026 A 
ATOM      5  C   UNL d   1      -0.345   2.490   3.058  0.00  0.00     0.019 A 
ATOM      6  C   UNL d   1       0.521   3.961   1.354  0.00  0.00     0.019 A 
ENDROOT
BRANCH   2   7
ATOM      7  C   UNL d   1      -0.468   4.956   3.470  0.00  0.00     0.315 C 
ATOM      8  O   UNL d   1      -0.958   4.807   4.583  0.00  0.00    -0.257 OA
BRANCH   7   9
ATOM      9  O   UNL d   1      -0.258   6.154   2.832  0.00  0.00    -0.195 OA
BRANCH   9  10
ATOM     10  N   UNL d   1      -1.424   6.931   2.972  0.00  0.00    -0.265 N 
ATOM     11  C   UNL d   1      -1.276   8.189   2.692  0.00  0.00     0.019 C 
ATOM     12  C   UNL d   1      -2.536   9.049   2.625  0.00  0.00     0.034 C 
ATOM     13  C   UNL d   1       0.007   8.939   2.350  0.00  0.00     0.034 C 
ATOM     14  C   UNL d   1      -2.370  10.231   3.584  0.00  0.00     0.015 C 
ATOM     15  C   UNL d   1      -2.645   9.541   1.174  0.00  0.00     0.015 C 
ATOM     16  C   UNL d   1      -1.124  11.049   3.204  0.00  0.00    -0.013 C 
ATOM     17  C   UNL d   1       0.118  10.139   3.314  0.00  0.00     0.015 C 
ATOM     18  C   UNL d   1      -1.268  11.555   1.758  0.00  0.00     0.009 C 
ATOM     19  C   UNL d   1      -1.397  10.364   0.795  0.00  0.00    -0.013 C 
ATOM     20  C   UNL d   1      -0.145   9.466   0.913  0.00  0.00     0.015 C 
ATOM     21  HN  UNL d   1      -2.316   6.535   3.270  1.00  0.00     0.194 HD
ENDBRANCH   9  10
ENDBRANCH   7   9
ENDBRANCH   2   7
BRANCH   1  22
ATOM     22  S   UNL d   1       1.037   0.141   0.019  0.00  0.00     0.243 S 
ATOM     23  O   UNL d   1       0.836  -1.033   0.838  0.00  0.00    -0.206 OA
ATOM     24  O   UNL d   1       2.352   0.472  -0.484  0.00  0.00    -0.206 OA
BRANCH  22  25
ATOM     25  N   UNL d   1      -0.019   0.023  -1.381  0.00  0.00    -0.206 NA
BRANCH  25  26
ATOM     26  C   UNL d   1      -0.117   1.317  -2.150  0.00  0.00     0.107 C 
BRANCH  26  27
ATOM     27  C   UNL d   1      -1.039   1.265  -3.373  0.00  0.00     0.011 C 
ATOM     28  C   UNL d   1      -1.180   2.642  -4.009  0.00  0.00     0.006 C 
ENDBRANCH  26  27
ENDBRANCH  25  26
BRANCH  25  29
ATOM     29  C   UNL d   1       0.410  -1.105  -2.302  0.00  0.00     0.107 C 
BRANCH  29  30
ATOM     30  C   UNL d   1       0.256  -2.513  -1.739  0.00  0.00     0.011 C 
ATOM     31  C   UNL d   1      -1.178  -2.837  -1.356  0.00  0.00     0.006 C 
ENDBRANCH  29  30
ENDBRANCH  25  29
ENDBRANCH  22  25
ENDBRANCH   1  22
TORSDOF 9
