REMARK  4 active torsions:
REMARK  status: ('A' for Active; 'I' for Inactive)
REMARK       I    between atoms: C_2  and  N_1 
REMARK    1  A    between atoms: C_3  and  N_1 
REMARK       I    between atoms: C_4  and  N_1 
REMARK       I    between atoms: N_5  and  C_2 
REMARK    2  A    between atoms: C_6  and  C_3 
REMARK    3  A    between atoms: C_9  and  C_4 
REMARK    4  A    between atoms: C_14  and  N_5 
ROOT
ATOM      1  N   UNL d   1       3.762   2.186  -2.083  0.00  0.00    -0.197 NA
ATOM      2  C   UNL d   1       3.623   1.657  -1.057  0.00  0.00     0.068 C 
ATOM      3  C   UNL d   1       3.430   1.046   0.253  0.00  0.00     0.227 C 
ENDROOT
BRANCH   3   4
ATOM      4  C   UNL d   1       2.413  -0.081   0.161  0.00  0.00     0.241 C 
ATOM      5  N   UNL d   1       1.066   0.184   0.446  0.00  0.00    -0.265 N 
ATOM      6  C   UNL d   1       0.045  -0.786   0.413  0.00  0.00     0.325 C 
ATOM      7  N   UNL d   1       0.382  -1.997  -0.140  0.00  0.00    -0.338 N 
ATOM      8  O   UNL d   1      -1.092  -0.560   0.823  0.00  0.00    -0.247 OA
ATOM      9  H   UNL d   1       1.381  -2.191  -0.189  0.00  0.00     0.164 HD
ATOM     10  O   UNL d   1       2.820  -1.208  -0.158  0.00  0.00    -0.272 OA
BRANCH   5  11
ATOM     11  C   UNL d   1       0.599   1.519   0.818  0.00  0.00     0.178 C 
BRANCH  11  12
ATOM     12  C   UNL d   1       0.675   1.898   2.284  0.00  0.00    -0.001 A 
ATOM     13  C   UNL d   1       1.559   1.324   3.204  0.00  0.00     0.124 A 
ATOM     14  F   UNL d   1       2.338   0.292   2.855  0.00  0.00    -0.205 F 
ATOM     15  C   UNL d   1       1.706   1.831   4.494  0.00  0.00     0.043 A 
ATOM     16  C   UNL d   1       0.951   2.927   4.899  0.00  0.00     0.003 A 
ATOM     17  C   UNL d   1       0.033   3.493   4.019  0.00  0.00     0.001 A 
ATOM     18  C   UNL d   1      -0.104   2.985   2.724  0.00  0.00     0.012 A 
ENDBRANCH  11  12
ENDBRANCH   5  11
BRANCH   7  19
ATOM     19  C   UNL d   1      -0.534  -3.136  -0.167  0.00  0.00     0.086 C 
ATOM     20  C   UNL d   1       0.207  -4.426  -0.551  0.00  0.00     0.025 C 
ATOM     21  C   UNL d   1       0.608  -4.456  -2.027  0.00  0.00     0.002 C 
ATOM     22  C   UNL d   1      -0.595  -4.243  -2.939  0.00  0.00     0.000 C 
ATOM     23  C   UNL d   1      -1.349  -2.965  -2.588  0.00  0.00     0.002 C 
ATOM     24  C   UNL d   1      -1.732  -2.918  -1.109  0.00  0.00     0.025 C 
ENDBRANCH   7  19
ENDBRANCH   3   4
TORSDOF 4
