REMARK  4 active torsions:
REMARK  status: ('A' for Active; 'I' for Inactive)
REMARK    1  A    between atoms: C_8  and  C_1 
REMARK    2  A    between atoms: O_15  and  C_9 
REMARK    3  A    between atoms: O_17  and  C_10 
REMARK    4  A    between atoms: O_16  and  C_11 
ROOT
ATOM      1  C   UNL d   1       1.735   1.611   0.067  0.00  0.00     0.119 A 
ATOM      2  N   UNL d   1       1.325   1.242   1.327  0.00  0.00    -0.308 N 
ATOM      3  N   UNL d   1       1.327   1.007  -1.004  0.00  0.00    -0.341 N 
ATOM      4  HN  UNL d   1       1.658   1.296  -1.924  1.00  0.00     0.167 HD
ATOM      5  C   UNL d   1       0.465   0.200   1.566  0.00  0.00     0.259 A 
ATOM      6  C   UNL d   1      -0.036  -0.501   0.372  0.00  0.00     0.059 A 
ATOM      7  C   UNL d   1       0.421  -0.056  -0.869  0.00  0.00     0.049 A 
ATOM      8  O   UNL d   1       0.141  -0.130   2.702  0.00  0.00    -0.267 OA
ATOM      9  C   UNL d   1      -0.926  -1.574   0.476  0.00  0.00     0.019 A 
ATOM     10  C   UNL d   1      -0.037  -0.696  -2.022  0.00  0.00     0.030 A 
ATOM     11  C   UNL d   1      -1.371  -2.209  -0.683  0.00  0.00     0.001 A 
ATOM     12  C   UNL d   1      -0.929  -1.769  -1.932  0.00  0.00     0.002 A 
ATOM     13  H   UNL d   1       1.692   1.687   2.156  0.00  0.00     0.170 HD
ENDROOT
BRANCH   1  14
ATOM     14  C   UNL d   1       2.698   2.738  -0.039  0.00  0.00     0.014 A 
ATOM     15  C   UNL d   1       3.576   2.757  -1.128  0.00  0.00     0.055 A 
ATOM     16  C   UNL d   1       4.492   3.803  -1.309  0.00  0.00     0.105 A 
ATOM     17  C   UNL d   1       4.533   4.859  -0.369  0.00  0.00     0.135 A 
ATOM     18  C   UNL d   1       3.614   4.848   0.708  0.00  0.00     0.105 A 
ATOM     19  C   UNL d   1       2.719   3.784   0.877  0.00  0.00     0.055 A 
BRANCH  16  20
ATOM     20  O   UNL d   1       5.350   3.845  -2.376  0.00  0.00    -0.353 OA
ATOM     21  C   UNL d   1       5.316   2.789  -3.329  0.00  0.00     0.210 C 
ENDBRANCH  16  20
BRANCH  17  22
ATOM     22  O   UNL d   1       5.409   5.913  -0.370  0.00  0.00    -0.351 OA
ATOM     23  C   UNL d   1       6.410   6.021  -1.368  0.00  0.00     0.210 C 
ENDBRANCH  17  22
BRANCH  18  24
ATOM     24  O   UNL d   1       3.512   5.787   1.708  0.00  0.00    -0.353 OA
ATOM     25  C   UNL d   1       3.715   7.144   1.327  0.00  0.00     0.210 C 
ENDBRANCH  18  24
ENDBRANCH   1  14
TORSDOF 4
