REMARK  3 active torsions:
REMARK  status: ('A' for Active; 'I' for Inactive)
REMARK    1  A    between atoms: C_4  and  C_1 
REMARK    2  A    between atoms: C_5  and  C_1 
REMARK    3  A    between atoms: C_8  and  C_5 
ROOT
ATOM      1  N   UNL d   1       4.935   1.145  -4.439  0.00  0.00    -0.191 NA
ATOM      2  C   UNL d   1       3.982   1.313  -3.802  0.00  0.00     0.099 C 
ATOM      3  C   UNL d   1       1.357   0.908  -1.167  0.00  0.00     0.011 A 
ATOM      4  C   UNL d   1       2.504   0.690  -1.942  0.00  0.00     0.037 A 
ATOM      5  C   UNL d   1       2.804   1.536  -3.015  0.00  0.00     0.045 A 
ATOM      6  C   UNL d   1       0.513   1.981  -1.475  0.00  0.00     0.015 A 
ATOM      7  C   UNL d   1       0.807   2.821  -2.553  0.00  0.00     0.002 A 
ATOM      8  C   UNL d   1       1.950   2.599  -3.322  0.00  0.00     0.023 A 
ENDROOT
BRANCH   3   9
ATOM      9  C   UNL d   1       1.065  -0.053  -0.064  0.00  0.00     0.163 C 
ATOM     10  O   UNL d   1       1.491  -1.204  -0.158  0.00  0.00    -0.292 OA
BRANCH   9  11
ATOM     11  C   UNL d   1       0.281   0.405   1.153  0.00  0.00     0.122 C 
BRANCH  11  12
ATOM     12  C   UNL d   1      -1.215   0.313   0.986  0.00  0.00    -0.049 A 
ATOM     13  C   UNL d   1      -2.021   1.441   1.206  0.00  0.00     0.031 A 
ATOM     14  C   UNL d   1      -3.397   1.374   0.993  0.00  0.00     0.034 A 
ATOM     15 CL   UNL d   1      -4.359   2.785   1.207  0.00  0.00    -0.084 Cl
ATOM     16  C   UNL d   1      -3.993   0.182   0.591  0.00  0.00     0.024 A 
ATOM     17  C   UNL d   1      -3.207  -0.956   0.413  0.00  0.00     0.002 A 
ATOM     18  C   UNL d   1      -1.827  -0.893   0.614  0.00  0.00     0.007 A 
ENDBRANCH  11  12
ENDBRANCH   9  11
ENDBRANCH   3   9
TORSDOF 3
