REMARK  5 active torsions:
REMARK  status: ('A' for Active; 'I' for Inactive)
REMARK    1  A    between atoms: C_8  and  N_1 
REMARK    2  A    between atoms: C_2  and  C_5 
REMARK    3  A    between atoms: C_3  and  N_4 
REMARK       I    between atoms: N_4  and  C_6 
REMARK    4  A    between atoms: C_6  and  C_20 
REMARK    5  A    between atoms: C_20  and  C_21 
ROOT
ATOM      1  N   UNL d   1      -0.294   4.990  -2.645  0.00  0.00    -0.325 N 
ATOM      2  C   UNL d   1      -1.297   5.576  -1.898  0.00  0.00     0.226 C 
ATOM      3  O   UNL d   1      -1.762   6.700  -2.088  0.00  0.00    -0.273 OA
ATOM      4  H   UNL d   1      -0.223   3.978  -2.625  0.00  0.00     0.169 HD
ENDROOT
BRANCH   1   5
ATOM      5  C   UNL d   1       0.588   5.647  -3.535  0.00  0.00     0.057 A 
ATOM      6  C   UNL d   1       0.764   7.037  -3.523  0.00  0.00     0.047 A 
ATOM      7  C   UNL d   1       1.711   7.659  -4.354  0.00  0.00     0.050 A 
ATOM      8  C   UNL d   1       2.465   6.871  -5.237  0.00  0.00     0.018 A 
ATOM      9  C   UNL d   1       2.299   5.486  -5.263  0.00  0.00     0.027 A 
ATOM     10  C   UNL d   1       1.381   4.876  -4.405  0.00  0.00     0.060 A 
ATOM     11 CL   UNL d   1       1.244   3.153  -4.441  0.00  0.00    -0.082 Cl
BRANCH   7  12
ATOM     12  C   UNL d   1       1.944   9.150  -4.284  0.00  0.00     0.417 C 
ATOM     13  F   UNL d   1       1.210   9.778  -3.326  0.00  0.00    -0.166 F 
ATOM     14  F   UNL d   1       3.245   9.453  -4.009  0.00  0.00    -0.166 F 
ATOM     15  F   UNL d   1       1.655   9.780  -5.455  0.00  0.00    -0.166 F 
ENDBRANCH   7  12
ENDBRANCH   1   5
BRANCH   2  16
ATOM     16  C   UNL d   1      -1.773   4.716  -0.748  0.00  0.00     0.141 C 
BRANCH  16  17
ATOM     17  C   UNL d   1      -3.075   3.978  -0.947  0.00  0.00    -0.049 A 
ATOM     18  C   UNL d   1      -3.166   2.631  -0.558  0.00  0.00     0.010 A 
ATOM     19  C   UNL d   1      -4.406   1.992  -0.482  0.00  0.00     0.036 A 
ATOM     20  C   UNL d   1      -5.567   2.706  -0.798  0.00  0.00     0.102 A 
ATOM     21  C   UNL d   1      -5.487   4.022  -1.267  0.00  0.00     0.036 A 
ATOM     22  C   UNL d   1      -4.241   4.653  -1.341  0.00  0.00     0.010 A 
BRANCH  20  23
ATOM     23  N   UNL d   1      -6.880   2.095  -0.556  0.00  0.00    -0.116 N 
ATOM     24  O   UNL d   1      -7.884   2.805  -0.711  0.00  0.00    -0.532 OA
ATOM     25  O   UNL d   1      -6.907   0.912  -0.186  0.00  0.00    -0.532 OA
ENDBRANCH  20  23
ENDBRANCH  16  17
ENDBRANCH   2  16
TORSDOF 5
