REMARK  6 active torsions:
REMARK  status: ('A' for Active; 'I' for Inactive)
REMARK    1  A    between atoms: N_3  and  C_1 
REMARK    2  A    between atoms: N_4  and  C_1 
REMARK    3  A    between atoms: C_2  and  C_5 
REMARK    4  A    between atoms: C_11  and  N_4 
REMARK    5  A    between atoms: C_7  and  N_6 
REMARK    6  A    between atoms: N_10  and  C_12 
ROOT
ATOM      1  N   UNL d   1      -0.189  -0.220   0.866  0.00  0.00    -0.356 N 
ATOM      2  N   UNL d   1      -2.176  -0.270   3.179  0.00  0.00    -0.366 N 
ATOM      3  C   UNL d   1      -1.165  -1.296   1.118  0.00  0.00     0.145 C 
ATOM      4  C   UNL d   1      -2.442  -0.850   1.844  0.00  0.00     0.144 C 
ATOM      5  C   UNL d   1      -0.437   1.471   2.650  0.00  0.00     0.040 C 
ATOM      6  C   UNL d   1       0.383   0.312   2.102  0.00  0.00     0.127 C 
ATOM      7  C   UNL d   1      -1.829   1.151   3.199  0.00  0.00     0.126 C 
ENDROOT
BRANCH   1   8
ATOM      8  C   UNL d   1       0.640  -0.361  -0.255  0.00  0.00     0.174 C 
ATOM      9  S   UNL d   1       1.500  -1.752  -0.635  0.00  0.00    -0.041 SA
BRANCH   8  10
ATOM     10  N   UNL d   1       0.476   0.586  -1.243  0.00  0.00    -0.331 N 
ATOM     11  H   UNL d   1       0.645   0.230  -2.169  0.00  0.00     0.168 HD
BRANCH  10  12
ATOM     12  C   UNL d   1       0.535   2.000  -1.149  0.00  0.00     0.061 A 
ATOM     13  C   UNL d   1      -0.092   2.847  -2.096  0.00  0.00     0.057 A 
ATOM     14  C   UNL d   1       0.002   4.241  -1.855  0.00  0.00     0.031 A 
ATOM     15  C   UNL d   1       0.708   4.784  -0.781  0.00  0.00     0.002 A 
ATOM     16  C   UNL d   1       1.394   3.942   0.072  0.00  0.00     0.002 A 
ATOM     17  C   UNL d   1       1.318   2.567  -0.128  0.00  0.00     0.032 A 
BRANCH  13  18
ATOM     18  N   UNL d   1      -0.774   2.459  -3.244  0.00  0.00    -0.375 N 
ATOM     19  C   UNL d   1      -2.146   2.962  -3.460  0.00  0.00     0.149 C 
ATOM     20  C   UNL d   1      -2.345   3.231  -4.959  0.00  0.00     0.187 C 
ATOM     21  O   UNL d   1      -2.139   2.029  -5.720  0.00  0.00    -0.388 OA
ATOM     22  C   UNL d   1      -0.796   1.552  -5.537  0.00  0.00     0.187 C 
ATOM     23  C   UNL d   1      -0.456   1.281  -4.055  0.00  0.00     0.149 C 
ENDBRANCH  13  18
ENDBRANCH  10  12
ENDBRANCH   8  10
ENDBRANCH   1   8
BRANCH   2  24
ATOM     24  C   UNL d   1      -3.030  -0.777   4.161  0.00  0.00     0.102 A 
ATOM     25  N   UNL d   1      -3.058  -2.120   4.321  0.00  0.00    -0.352 N 
ATOM     26  C   UNL d   1      -3.826  -2.654   5.303  0.00  0.00     0.106 A 
ATOM     27  HN  UNL d   1      -2.509  -2.724   3.710  1.00  0.00     0.166 HD
ATOM     28  C   UNL d   1      -4.614  -1.912   6.161  0.00  0.00     0.063 A 
ATOM     29  C   UNL d   1      -4.609  -0.532   5.984  0.00  0.00     0.021 A 
ATOM     30  C   UNL d   1      -3.814   0.032   4.984  0.00  0.00     0.049 A 
BRANCH  28  31
ATOM     31  C   UNL d   1      -5.428  -2.562   7.236  0.00  0.00     0.418 C 
ATOM     32  F   UNL d   1      -5.370  -3.924   7.219  0.00  0.00    -0.166 F 
ATOM     33  F   UNL d   1      -5.036  -2.189   8.485  0.00  0.00    -0.166 F 
ATOM     34  F   UNL d   1      -6.750  -2.248   7.152  0.00  0.00    -0.166 F 
ENDBRANCH  28  31
ENDBRANCH   2  24
TORSDOF 6
