REMARK  3 active torsions:
REMARK  status: ('A' for Active; 'I' for Inactive)
REMARK    1  A    between atoms: N_7  and  C_2 
REMARK    2  A    between atoms: C_9  and  C_3 
REMARK       I    between atoms: C_6  and  N_7 
REMARK       I    between atoms: N_10  and  C_6 
REMARK    3  A    between atoms: C_12  and  N_10 
ROOT
ATOM      1  C   UNL d   1       0.346  -3.191  -0.316  0.00  0.00     0.326 C 
ATOM      2  N   UNL d   1      -0.425  -2.123   0.036  0.00  0.00    -0.293 N 
ATOM      3  N   UNL d   1       1.561  -2.929  -0.881  0.00  0.00    -0.309 N 
ATOM      4  O   UNL d   1      -0.112  -4.304  -0.058  0.00  0.00    -0.247 OA
ATOM      5  H   UNL d   1      -1.283  -2.395   0.492  0.00  0.00     0.172 HD
ATOM      6  H   UNL d   1       1.774  -1.944  -1.012  0.00  0.00     0.170 HD
ENDROOT
BRANCH   2   7
ATOM      7  C   UNL d   1      -0.198  -0.775  -0.135  0.00  0.00     0.132 A 
ATOM      8  C   UNL d   1      -1.093   0.223   0.311  0.00  0.00     0.086 A 
ATOM      9  C   UNL d   1      -0.548   1.409  -0.122  0.00  0.00     0.087 A 
ATOM     10  O   UNL d   1       0.641   1.136  -0.732  0.00  0.00    -0.240 OA
ATOM     11  N   UNL d   1       0.859  -0.230  -0.741  0.00  0.00    -0.245 N 
ATOM     12  HN  UNL d   1       1.663  -0.721  -1.132  1.00  0.00     0.196 HD
BRANCH   9  13
ATOM     13  C   UNL d   1      -0.980   2.850  -0.066  0.00  0.00     0.000 C 
ATOM     14  C   UNL d   1      -0.187   3.590   1.019  0.00  0.00     0.021 C 
ATOM     15  C   UNL d   1      -0.741   3.528  -1.429  0.00  0.00     0.021 C 
ATOM     16  C   UNL d   1      -2.483   2.950   0.260  0.00  0.00     0.021 C 
ENDBRANCH   9  13
ENDBRANCH   2   7
BRANCH   3  17
ATOM     17  C   UNL d   1       2.597  -3.848  -1.149  0.00  0.00     0.036 A 
ATOM     18  C   UNL d   1       2.456  -5.233  -1.036  0.00  0.00     0.029 A 
ATOM     19  C   UNL d   1       3.555  -6.077  -1.212  0.00  0.00     0.002 A 
ATOM     20  C   UNL d   1       4.806  -5.545  -1.512  0.00  0.00     0.000 A 
ATOM     21  C   UNL d   1       4.949  -4.168  -1.668  0.00  0.00     0.002 A 
ATOM     22  C   UNL d   1       3.848  -3.324  -1.499  0.00  0.00     0.029 A 
ENDBRANCH   3  17
TORSDOF 3
