REMARK  4 active torsions:
REMARK  status: ('A' for Active; 'I' for Inactive)
REMARK    1  A    between atoms: C_5  and  C_1 
REMARK    2  A    between atoms: N_3  and  C_2 
REMARK       I    between atoms: C_4  and  N_3 
REMARK    3  A    between atoms: C_10  and  C_4 
REMARK    4  A    between atoms: O_12  and  C_5 
ROOT
ATOM      1  N   UNL d   1       2.619   1.592   0.197  0.00  0.00    -0.321 N 
ATOM      2  C   UNL d   1       2.714   2.952   0.422  0.00  0.00     0.256 C 
ATOM      3  O   UNL d   1       1.779   3.728   0.609  0.00  0.00    -0.267 OA
ATOM      4  H   UNL d   1       3.434   1.012   0.371  0.00  0.00     0.169 HD
ENDROOT
BRANCH   1   5
ATOM      5  C   UNL d   1       1.399   0.936   0.009  0.00  0.00     0.058 A 
ATOM      6  C   UNL d   1       1.191  -0.412   0.273  0.00  0.00     0.106 A 
ATOM      7  S   UNL d   1      -0.436  -0.874  -0.073  0.00  0.00    -0.094 SA
ATOM      8  C   UNL d   1      -0.862   0.699  -0.560  0.00  0.00     0.053 A 
ATOM      9  C   UNL d   1       0.204   1.561  -0.477  0.00  0.00     0.038 A 
BRANCH   6  10
ATOM     10  C   UNL d   1       2.059  -1.432   0.838  0.00  0.00     0.302 C 
ATOM     11  O   UNL d   1       1.726  -2.567   1.161  0.00  0.00    -0.259 OA
BRANCH  10  12
ATOM     12  O   UNL d   1       3.328  -0.942   1.000  0.00  0.00    -0.322 OA
ATOM     13  C   UNL d   1       4.235  -1.827   1.665  0.00  0.00     0.213 C 
ENDBRANCH  10  12
ENDBRANCH   6  10
ENDBRANCH   1   5
BRANCH   2  14
ATOM     14  C   UNL d   1       4.084   3.499   0.505  0.00  0.00     0.032 A 
ATOM     15  C   UNL d   1       4.991   3.306  -0.542  0.00  0.00     0.017 A 
ATOM     16  C   UNL d   1       6.228   3.953  -0.505  0.00  0.00     0.001 A 
ATOM     17  C   UNL d   1       6.560   4.773   0.576  0.00  0.00     0.000 A 
ATOM     18  C   UNL d   1       5.658   4.952   1.625  0.00  0.00     0.001 A 
ATOM     19  C   UNL d   1       4.414   4.322   1.587  0.00  0.00     0.017 A 
ENDBRANCH   2  14
TORSDOF 4
