REMARK  7 active torsions:
REMARK  status: ('A' for Active; 'I' for Inactive)
REMARK    1  A    between atoms: C_2  and  C_1 
REMARK       I    between atoms: N_7  and  C_2 
REMARK    2  A    between atoms: C_17  and  C_5 
REMARK    3  A    between atoms: C_6  and  N_7 
REMARK    4  A    between atoms: N_11  and  C_10 
REMARK    5  A    between atoms: C_12  and  C_13 
REMARK    6  A    between atoms: O_20  and  C_12 
REMARK    7  A    between atoms: C_26  and  O_20 
ROOT
ATOM      1  C   UNL d   1      -1.870  -3.691  -0.448  0.00  0.00     0.062 A 
ATOM      2  C   UNL d   1      -2.244  -2.728  -1.420  0.00  0.00     0.057 A 
ATOM      3  C   UNL d   1      -4.136  -4.560  -0.321  0.00  0.00     0.041 A 
ATOM      4  C   UNL d   1      -2.798  -4.601   0.078  0.00  0.00     0.049 A 
ATOM      5  C   UNL d   1      -3.578  -2.785  -1.870  0.00  0.00     0.033 A 
ATOM      6  C   UNL d   1      -4.517  -3.671  -1.324  0.00  0.00     0.020 A 
ENDROOT
BRANCH   1   7
ATOM      7  N   UNL d   1      -0.603  -3.618   0.164  0.00  0.00    -0.321 N 
ATOM      8  C   UNL d   1       0.196  -4.707   0.467  0.00  0.00     0.261 C 
ATOM      9  O   UNL d   1      -0.016  -5.853   0.090  0.00  0.00    -0.267 OA
ATOM     10  H   UNL d   1      -0.169  -2.707   0.133  0.00  0.00     0.169 HD
BRANCH   8  11
ATOM     11  C   UNL d   1       1.368  -4.356   1.242  0.00  0.00     0.093 A 
ATOM     12  C   UNL d   1       2.717  -4.828   1.179  0.00  0.00     0.083 A 
ATOM     13  N   UNL d   1       3.454  -4.237   2.139  0.00  0.00    -0.259 N 
ATOM     14  O   UNL d   1       2.609  -3.426   2.851  0.00  0.00    -0.241 OA
ATOM     15  HN  UNL d   1       4.452  -4.368   2.304  1.00  0.00     0.195 HD
ATOM     16  C   UNL d   1       1.363  -3.506   2.333  0.00  0.00     0.090 A 
ATOM     17  C   UNL d   1       0.317  -2.751   3.054  0.00  0.00     0.080 C 
BRANCH  12  18
ATOM     18  C   UNL d   1       3.376  -5.765   0.264  0.00  0.00    -0.006 A 
ATOM     19  C   UNL d   1       4.384  -6.614   0.760  0.00  0.00     0.014 A 
ATOM     20  C   UNL d   1       5.105  -7.456  -0.092  0.00  0.00     0.001 A 
ATOM     21  C   UNL d   1       4.825  -7.458  -1.454  0.00  0.00     0.000 A 
ATOM     22  C   UNL d   1       3.820  -6.629  -1.960  0.00  0.00     0.001 A 
ATOM     23  C   UNL d   1       3.097  -5.790  -1.108  0.00  0.00     0.014 A 
ENDBRANCH  12  18
ENDBRANCH   8  11
ENDBRANCH   1   7
BRANCH   2  24
ATOM     24  N   UNL d   1      -1.375  -1.750  -1.890  0.00  0.00    -0.379 N 
ATOM     25  C   UNL d   1       0.004  -2.041  -2.300  0.00  0.00     0.123 C 
ATOM     26  C   UNL d   1       0.914  -0.996  -1.643  0.00  0.00     0.020 C 
ATOM     27  C   UNL d   1       0.471   0.427  -1.996  0.00  0.00     0.003 C 
ATOM     28  C   UNL d   1      -1.024   0.641  -1.754  0.00  0.00     0.020 C 
ATOM     29  C   UNL d   1      -1.869  -0.463  -2.391  0.00  0.00     0.123 C 
ENDBRANCH   2  24
BRANCH   3  30
ATOM     30  C   UNL d   1      -5.101  -5.433   0.396  0.00  0.00     0.293 C 
ATOM     31  O   UNL d   1      -4.785  -6.155   1.329  0.00  0.00    -0.259 OA
BRANCH  30  32
ATOM     32  O   UNL d   1      -6.348  -5.305  -0.124  0.00  0.00    -0.318 OA
BRANCH  32  33
ATOM     33  C   UNL d   1      -7.329  -6.196   0.429  0.00  0.00     0.174 C 
ATOM     34  C   UNL d   1      -7.325  -7.486  -0.370  0.00  0.00     0.034 C 
ENDBRANCH  32  33
ENDBRANCH  30  32
ENDBRANCH   3  30
TORSDOF 7
