REMARK  7 active torsions:
REMARK  status: ('A' for Active; 'I' for Inactive)
REMARK    1  A    between atoms: C_12  and  N_1 
REMARK    2  A    between atoms: O_22  and  C_2 
REMARK    3  A    between atoms: C_3  and  C_4 
REMARK       I    between atoms: C_4  and  N_8 
REMARK    4  A    between atoms: O_24  and  C_5 
REMARK    5  A    between atoms: O_23  and  C_6 
REMARK    6  A    between atoms: C_7  and  C_15 
REMARK       I    between atoms: N_9  and  C_7 
REMARK    7  A    between atoms: N_8  and  N_9 
ROOT
ATOM      1  C   UNL d   1      -4.306   5.001   0.233  0.00  0.00     0.270 C 
ATOM      2  N   UNL d   1      -4.328   3.709  -0.245  0.00  0.00    -0.263 N 
ATOM      3  O   UNL d   1      -3.507   5.384   1.091  0.00  0.00    -0.266 OA
ATOM      4  H   UNL d   1      -5.115   3.316  -0.763  0.00  0.00     0.190 HD
ENDROOT
BRANCH   2   5
ATOM      5  N   UNL d   1      -3.435   2.784   0.316  0.00  0.00    -0.263 N 
ATOM      6  C   UNL d   1      -3.739   1.441   0.199  0.00  0.00     0.270 C 
ATOM      7  O   UNL d   1      -4.784   1.058  -0.325  0.00  0.00    -0.266 OA
ATOM      8  H   UNL d   1      -2.669   3.176   0.856  0.00  0.00     0.190 HD
BRANCH   6   9
ATOM      9  C   UNL d   1      -2.738   0.446   0.698  0.00  0.00     0.033 A 
ATOM     10  C   UNL d   1      -1.446   0.790   1.121  0.00  0.00     0.019 A 
ATOM     11  C   UNL d   1      -0.528  -0.209   1.478  0.00  0.00     0.037 A 
ATOM     12  C   UNL d   1      -0.903  -1.558   1.413  0.00  0.00     0.102 A 
ATOM     13  C   UNL d   1      -2.196  -1.914   1.018  0.00  0.00     0.037 A 
ATOM     14  C   UNL d   1      -3.106  -0.911   0.664  0.00  0.00     0.019 A 
BRANCH  12  15
ATOM     15  N   UNL d   1       0.074  -2.609   1.739  0.00  0.00    -0.116 N 
ATOM     16  O   UNL d   1      -0.308  -3.785   1.690  0.00  0.00    -0.532 OA
ATOM     17  O   UNL d   1       1.221  -2.249   2.036  0.00  0.00    -0.532 OA
ENDBRANCH  12  15
ENDBRANCH   6   9
ENDBRANCH   2   5
BRANCH   1  18
ATOM     18  C   UNL d   1      -5.309   5.935  -0.328  0.00  0.00     0.039 A 
ATOM     19  C   UNL d   1      -5.817   6.937   0.498  0.00  0.00     0.057 A 
ATOM     20  C   UNL d   1      -6.715   7.895  -0.004  0.00  0.00     0.105 A 
ATOM     21  C   UNL d   1      -7.102   7.863  -1.366  0.00  0.00     0.135 A 
ATOM     22  C   UNL d   1      -6.614   6.819  -2.184  0.00  0.00     0.105 A 
ATOM     23  C   UNL d   1      -5.716   5.870  -1.658  0.00  0.00     0.057 A 
BRANCH  20  24
ATOM     24  O   UNL d   1      -7.296   8.813   0.837  0.00  0.00    -0.353 OA
ATOM     25  C   UNL d   1      -6.495   9.255   1.931  0.00  0.00     0.210 C 
ENDBRANCH  20  24
BRANCH  21  26
ATOM     26  O   UNL d   1      -7.944   8.755  -1.971  0.00  0.00    -0.351 OA
ATOM     27  C   UNL d   1      -8.231  10.014  -1.379  0.00  0.00     0.210 C 
ENDBRANCH  21  26
BRANCH  22  28
ATOM     28  O   UNL d   1      -6.907   6.537  -3.495  0.00  0.00    -0.353 OA
ATOM     29  C   UNL d   1      -7.548   7.504  -4.311  0.00  0.00     0.210 C 
ENDBRANCH  22  28
ENDBRANCH   1  18
TORSDOF 7
