REMARK  5 active torsions:
REMARK  status: ('A' for Active; 'I' for Inactive)
REMARK    1  A    between atoms: S_6  and  C_1 
REMARK    2  A    between atoms: C_14  and  S_6 
REMARK       I    between atoms: C_7  and  N_9 
REMARK    3  A    between atoms: C_11  and  C_7 
REMARK    4  A    between atoms: C_8  and  C_14 
REMARK       I    between atoms: N_10  and  C_8 
REMARK    5  A    between atoms: N_9  and  N_10 
ROOT
ATOM      1  C   UNL d   1      -3.881  -4.448   0.085  0.00  0.00     0.245 C 
ATOM      2  N   UNL d   1      -3.195  -5.349   0.872  0.00  0.00    -0.267 N 
ATOM      3  O   UNL d   1      -4.900  -4.786  -0.528  0.00  0.00    -0.271 OA
ATOM      4  H   UNL d   1      -2.330  -5.133   1.367  0.00  0.00     0.190 HD
ENDROOT
BRANCH   1   5
ATOM      5  C   UNL d   1      -3.399  -3.003   0.087  0.00  0.00     0.184 C 
BRANCH   5   6
ATOM      6  S   UNL d   1      -1.603  -2.872  -0.048  0.00  0.00    -0.118 SA
BRANCH   6   7
ATOM      7  C   UNL d   1      -1.271  -1.145   0.024  0.00  0.00     0.035 A 
ATOM      8  C   UNL d   1      -1.928  -0.091  -0.592  0.00  0.00     0.023 A 
ATOM      9  N   UNL d   1      -1.212   1.050  -0.305  0.00  0.00    -0.358 N 
ATOM     10  C   UNL d   1      -3.128  -0.003  -1.462  0.00  0.00     0.069 C 
ATOM     11  C   UNL d   1      -0.106   0.765   0.457  0.00  0.00     0.044 A 
ATOM     12  H   UNL d   1      -1.437   1.977  -0.642  0.00  0.00     0.166 HD
ATOM     13  C   UNL d   1      -0.121  -0.610   0.692  0.00  0.00     0.009 A 
ATOM     14  C   UNL d   1       0.902   1.612   0.936  0.00  0.00     0.030 A 
ATOM     15  C   UNL d   1       0.931  -1.161   1.458  0.00  0.00     0.015 A 
ATOM     16  C   UNL d   1       1.945  -0.330   1.950  0.00  0.00     0.001 A 
ATOM     17  C   UNL d   1       1.930   1.037   1.688  0.00  0.00     0.002 A 
ENDBRANCH   6   7
ENDBRANCH   5   6
ENDBRANCH   1   5
BRANCH   2  18
ATOM     18  N   UNL d   1      -3.642  -6.680   0.894  0.00  0.00    -0.263 N 
ATOM     19  C   UNL d   1      -2.946  -7.622   1.621  0.00  0.00     0.270 C 
ATOM     20  O   UNL d   1      -1.908  -7.371   2.231  0.00  0.00    -0.266 OA
ATOM     21  H   UNL d   1      -4.396  -6.908   0.247  0.00  0.00     0.190 HD
BRANCH  19  22
ATOM     22  C   UNL d   1      -3.519  -9.001   1.634  0.00  0.00     0.033 A 
ATOM     23  C   UNL d   1      -2.655 -10.095   1.775  0.00  0.00     0.019 A 
ATOM     24  C   UNL d   1      -3.168 -11.397   1.839  0.00  0.00     0.025 A 
ATOM     25  C   UNL d   1      -4.545 -11.604   1.775  0.00  0.00     0.034 A 
ATOM     26  C   UNL d   1      -5.413 -10.521   1.640  0.00  0.00     0.025 A 
ATOM     27 CL   UNL d   1      -5.180 -13.199   1.879  0.00  0.00    -0.084 Cl
ATOM     28  C   UNL d   1      -4.903  -9.220   1.571  0.00  0.00     0.019 A 
ENDBRANCH  19  22
ENDBRANCH   2  18
TORSDOF 5
