REMARK  4 active torsions:
REMARK  status: ('A' for Active; 'I' for Inactive)
REMARK    1  A    between atoms: C_6  and  C_2 
REMARK    2  A    between atoms: S_17  and  C_3 
REMARK    3  A    between atoms: C_9  and  C_7 
REMARK    4  A    between atoms: C_22  and  S_17 
ROOT
ATOM      1  C   UNL d   1       0.561   0.048   0.005  0.00  0.00     0.093 A 
ATOM      2  C   UNL d   1      -0.104   1.283   0.011  0.00  0.00     0.073 A 
ATOM      3  C   UNL d   1      -0.211  -1.126  -0.037  0.00  0.00     0.092 A 
ATOM      4  N   UNL d   1      -1.569  -1.111  -0.103  0.00  0.00    -0.348 N 
ATOM      5  HN  UNL d   1      -2.099  -1.980  -0.164  1.00  0.00     0.166 HD
ATOM      6  C   UNL d   1      -2.202   0.089  -0.084  0.00  0.00     0.051 A 
ATOM      7  C   UNL d   1      -1.507   1.288  -0.018  0.00  0.00     0.048 A 
ATOM      8  C   UNL d   1       1.993  -0.023   0.009  0.00  0.00     0.103 C 
ATOM      9  N   UNL d   1       3.152  -0.061  -0.009  0.00  0.00    -0.191 NA
ENDROOT
BRANCH   2  10
ATOM     10  C   UNL d   1       0.578   2.629   0.022  0.00  0.00     0.419 C 
ATOM     11  F   UNL d   1       1.931   2.602   0.035  0.00  0.00    -0.166 F 
ATOM     12  F   UNL d   1       0.231   3.368  -1.069  0.00  0.00    -0.166 F 
ATOM     13  F   UNL d   1       0.208   3.372   1.101  0.00  0.00    -0.166 F 
ENDBRANCH   2  10
BRANCH   3  14
ATOM     14  S   UNL d   1       0.567  -2.742   0.086  0.00  0.00    -0.099 SA
BRANCH  14  15
ATOM     15  C   UNL d   1      -0.663  -3.826  -0.710  0.00  0.00     0.173 C 
ATOM     16  C   UNL d   1      -0.191  -5.223  -0.731  0.00  0.00    -0.107 C 
ATOM     17  C   UNL d   1       0.190  -6.362  -0.746  0.00  0.00     0.013 C 
ENDBRANCH  14  15
ENDBRANCH   3  14
BRANCH   6  18
ATOM     18  C   UNL d   1      -3.661   0.044  -0.244  0.00  0.00     0.031 A 
ATOM     19  S   UNL d   1      -4.672   1.238   0.476  0.00  0.00    -0.100 SA
ATOM     20  C   UNL d   1      -6.076   0.606  -0.261  0.00  0.00     0.050 A 
ATOM     21  C   UNL d   1      -5.805  -0.526  -0.993  0.00  0.00     0.008 A 
ATOM     22  C   UNL d   1      -4.420  -0.866  -0.958  0.00  0.00     0.021 A 
ENDBRANCH   6  18
TORSDOF 4
