REMARK  3 active torsions:
REMARK  status: ('A' for Active; 'I' for Inactive)
REMARK    1  A    between atoms: N_3  and  C_1 
REMARK    2  A    between atoms: C_2  and  C_4 
REMARK    3  A    between atoms: N_5  and  N_3 
REMARK       I    between atoms: C_4  and  N_5 
ROOT
ATOM      1  C   UNL d   1      -1.110   4.269  -0.135  0.00  0.00     0.274 C 
ATOM      2  N   UNL d   1      -1.212   2.894  -0.229  0.00  0.00    -0.265 N 
ATOM      3  O   UNL d   1      -0.108   4.822   0.312  0.00  0.00    -0.266 OA
ATOM      4  H   UNL d   1      -2.100   2.431  -0.412  0.00  0.00     0.190 HD
ENDROOT
BRANCH   2   5
ATOM      5  N   UNL d   1      -0.219   2.101   0.314  0.00  0.00    -0.295 N 
ATOM      6  H   UNL d   1       0.604   2.627   0.637  0.00  0.00     0.187 HD
BRANCH   5   7
ATOM      7  C   UNL d   1       0.108   0.879  -0.340  0.00  0.00     0.091 A 
ATOM      8  C   UNL d   1      -0.583   0.300  -1.432  0.00  0.00     0.063 A 
ATOM      9 CL   UNL d   1      -1.857   1.081  -2.319  0.00  0.00    -0.082 Cl
ATOM     10  C   UNL d   1      -0.256  -0.983  -1.903  0.00  0.00     0.026 A 
ATOM     11  C   UNL d   1       0.742  -1.736  -1.294  0.00  0.00     0.003 A 
ATOM     12  C   UNL d   1       1.436  -1.201  -0.218  0.00  0.00     0.026 A 
ATOM     13  C   UNL d   1       1.126   0.084   0.247  0.00  0.00     0.063 A 
ATOM     14 CL   UNL d   1       2.036   0.664   1.608  0.00  0.00    -0.082 Cl
ENDBRANCH   5   7
ENDBRANCH   2   5
BRANCH   1  15
ATOM     15  C   UNL d   1      -2.300   5.037  -0.611  0.00  0.00     0.093 A 
ATOM     16  C   UNL d   1      -3.570   4.441  -0.564  0.00  0.00     0.133 A 
ATOM     17  F   UNL d   1      -3.731   3.196  -0.088  0.00  0.00    -0.205 F 
ATOM     18  C   UNL d   1      -4.714   5.103  -1.007  0.00  0.00     0.043 A 
ATOM     19  C   UNL d   1      -4.612   6.395  -1.505  0.00  0.00     0.005 A 
ATOM     20  C   UNL d   1      -3.363   7.012  -1.555  0.00  0.00     0.025 A 
ATOM     21  C   UNL d   1      -2.208   6.342  -1.115  0.00  0.00     0.052 A 
ATOM     22 CL   UNL d   1      -0.721   7.205  -1.297  0.00  0.00    -0.083 Cl
ENDBRANCH   1  15
TORSDOF 3
