REMARK  3 active torsions:
REMARK  status: ('A' for Active; 'I' for Inactive)
REMARK    1  A    between atoms: N_8  and  C_1 
REMARK    2  A    between atoms: C_6  and  C_3 
REMARK    3  A    between atoms: N_10  and  C_11 
ROOT
ATOM      1  C   UNL d   1      -1.286  -1.545   0.010  0.00  0.00     0.025 A 
ATOM      2  C   UNL d   1      -2.053  -0.720   0.888  0.00  0.00     0.013 A 
ATOM      3  C   UNL d   1      -0.544   0.479  -1.108  0.00  0.00     0.118 A 
ATOM      4  N   UNL d   1      -1.281   1.262  -0.283  0.00  0.00    -0.352 N 
ATOM      5  HN  UNL d   1      -1.284   2.276  -0.395  1.00  0.00     0.166 HD
ATOM      6  C   UNL d   1      -0.520  -0.904  -0.977  0.00  0.00     0.059 A 
ATOM      7  C   UNL d   1      -2.004   0.679   0.682  0.00  0.00     0.044 A 
ATOM      8  C   UNL d   1      -2.875  -1.205   1.940  0.00  0.00     0.022 A 
ATOM      9  C   UNL d   1      -2.742   1.517   1.504  0.00  0.00     0.031 A 
ATOM     10  C   UNL d   1      -3.577  -0.343   2.792  0.00  0.00    -0.061 A 
ATOM     11  C   UNL d   1      -3.517   1.027   2.554  0.00  0.00     0.009 A 
ATOM     12  C   UNL d   1      -4.381  -0.865   3.945  0.00  0.00     0.048 C 
ENDROOT
BRANCH   1  13
ATOM     13  N   UNL d   1      -1.313  -2.969   0.107  0.00  0.00    -0.282 NA
ATOM     14  C   UNL d   1      -1.063  -3.680  -1.163  0.00  0.00     0.098 C 
ATOM     15  C   UNL d   1      -1.330  -5.169  -1.020  0.00  0.00     0.040 C 
ATOM     16  C   UNL d   1      -0.565  -5.784   0.153  0.00  0.00     0.091 C 
ATOM     17  C   UNL d   1      -0.763  -4.971   1.439  0.00  0.00     0.040 C 
ATOM     18  C   UNL d   1      -0.533  -3.471   1.258  0.00  0.00     0.098 C 
BRANCH  16  19
ATOM     19  N   UNL d   1       0.836  -6.089  -0.152  0.00  0.00    -0.362 N 
ATOM     20  C   UNL d   1       1.871  -5.210  -0.345  0.00  0.00     0.091 A 
ATOM     21  C   UNL d   1       3.022  -5.927  -0.575  0.00  0.00     0.019 A 
ATOM     22  C   UNL d   1       2.678  -7.296  -0.541  0.00  0.00     0.019 A 
ATOM     23  C   UNL d   1       1.327  -7.370  -0.287  0.00  0.00     0.091 A 
ENDBRANCH  16  19
ENDBRANCH   1  13
BRANCH   3  24
ATOM     24  C   UNL d   1       0.277   1.113  -2.221  0.00  0.00     0.432 C 
ATOM     25  F   UNL d   1       0.177   2.469  -2.303  0.00  0.00    -0.165 F 
ATOM     26  F   UNL d   1       1.611   0.843  -2.101  0.00  0.00    -0.165 F 
ATOM     27  F   UNL d   1      -0.074   0.640  -3.455  0.00  0.00    -0.165 F 
ENDBRANCH   3  24
TORSDOF 3
