REMARK  7 active torsions:
REMARK  status: ('A' for Active; 'I' for Inactive)
REMARK    1  A    between atoms: N_2  and  C_1 
REMARK    2  A    between atoms: N_11  and  C_1 
REMARK    3  A    between atoms: C_3  and  N_2 
REMARK    4  A    between atoms: N_12  and  N_11 
REMARK    5  A    between atoms: C_13  and  N_12 
REMARK    6  A    between atoms: C_15  and  C_13 
REMARK    7  A    between atoms: O_14  and  C_15 
ROOT
ATOM      1  C   UNL d   1       1.293   0.007  -0.423  0.00  0.00     0.182 C 
ATOM      2  S   UNL d   1       2.225   0.210   0.950  0.00  0.00    -0.040 SA
ENDROOT
BRANCH   1   3
ATOM      3  N   UNL d   1       0.925   0.984  -1.320  0.00  0.00    -0.361 N 
ATOM      4  H   UNL d   1       0.029   0.845  -1.769  0.00  0.00     0.162 HD
BRANCH   3   5
ATOM      5  C   UNL d   1       1.496   2.319  -1.358  0.00  0.00     0.092 C 
ATOM      6  C   UNL d   1       1.277   3.125  -2.668  0.00  0.00     0.031 C 
ATOM      7  C   UNL d   1      -0.163   3.574  -2.825  0.00  0.00    -0.024 C 
ATOM      8  C   UNL d   1       1.875   4.462  -2.201  0.00  0.00     0.019 C 
ATOM      9  C   UNL d   1      -0.406   4.500  -1.880  0.00  0.00    -0.026 C 
ATOM     10  C   UNL d   1       0.855   4.634  -1.068  0.00  0.00     0.010 C 
ATOM     11  C   UNL d   1       1.010   3.318  -0.267  0.00  0.00     0.034 C 
ENDBRANCH   3   5
ENDBRANCH   1   3
BRANCH   1  12
ATOM     12  N   UNL d   1       0.891  -1.273  -0.734  0.00  0.00    -0.298 N 
ATOM     13  H   UNL d   1       1.212  -1.980  -0.071  0.00  0.00     0.183 HD
BRANCH  12  14
ATOM     14  N   UNL d   1       0.648  -1.706  -2.057  0.00  0.00    -0.236 NA
ATOM     15  H   UNL d   1       0.319  -0.926  -2.633  0.00  0.00     0.146 HD
BRANCH  14  16
ATOM     16  C   UNL d   1       1.889  -2.195  -2.691  0.00  0.00     0.136 C 
BRANCH  16  17
ATOM     17  C   UNL d   1       1.583  -2.747  -4.085  0.00  0.00     0.180 C 
BRANCH  17  18
ATOM     18  O   UNL d   1       1.016  -1.727  -4.907  0.00  0.00    -0.400 OA
ATOM     19  H   UNL d   1       0.720  -2.163  -5.725  0.00  0.00     0.209 HD
ENDBRANCH  17  18
ENDBRANCH  16  17
ENDBRANCH  14  16
ENDBRANCH  12  14
ENDBRANCH   1  12
TORSDOF 7
