REMARK  2 active torsions:
REMARK  status: ('A' for Active; 'I' for Inactive)
REMARK       I    between atoms: N_2  and  C_1 
REMARK       I    between atoms: N_4  and  C_1 
REMARK    1  A    between atoms: C_5  and  N_3 
REMARK    2  A    between atoms: C_13  and  N_4 
ROOT
ATOM      1  C   UNL d   1       0.913   0.037   0.164  0.00  0.00     0.323 C 
ATOM      2  N   UNL d   1       0.259  -1.091   0.634  0.00  0.00    -0.331 N 
ATOM      3  N   UNL d   1      -0.211  -3.853   1.321  0.00  0.00    -0.364 N 
ATOM      4  N   UNL d   1       0.510   0.502  -1.070  0.00  0.00    -0.309 N 
ATOM      5  O   UNL d   1       1.805   0.562   0.824  0.00  0.00    -0.247 OA
ATOM      6  C   UNL d   1       0.640  -1.603   1.959  0.00  0.00     0.147 C 
ATOM      7  C   UNL d   1      -0.876  -1.816   0.036  0.00  0.00     0.147 C 
ATOM      8  C   UNL d   1       0.892  -3.123   1.958  0.00  0.00     0.144 C 
ATOM      9  C   UNL d   1      -0.643  -3.338   0.015  0.00  0.00     0.144 C 
ATOM     10  H   UNL d   1      -0.394   0.209  -1.397  0.00  0.00     0.170 HD
ENDROOT
BRANCH   4  11
ATOM     11  C   UNL d   1       1.144   1.506  -1.843  0.00  0.00     0.036 A 
ATOM     12  C   UNL d   1       2.426   2.000  -1.572  0.00  0.00     0.032 A 
ATOM     13  C   UNL d   1       3.013   2.958  -2.405  0.00  0.00     0.044 A 
ATOM     14  C   UNL d   1       2.319   3.423  -3.512  0.00  0.00     0.116 A 
ATOM     15  C   UNL d   1       1.043   2.953  -3.797  0.00  0.00     0.044 A 
ATOM     16  F   UNL d   1       2.887   4.327  -4.319  0.00  0.00    -0.206 F 
ATOM     17  C   UNL d   1       0.457   1.993  -2.965  0.00  0.00     0.032 A 
ENDBRANCH   4  11
BRANCH   3  18
ATOM     18  C   UNL d   1      -1.075  -4.643   2.054  0.00  0.00     0.102 A 
ATOM     19  N   UNL d   1      -2.387  -4.659   1.726  0.00  0.00    -0.352 N 
ATOM     20  C   UNL d   1      -3.213  -5.498   2.394  0.00  0.00     0.089 A 
ATOM     21  HN  UNL d   1      -2.746  -4.051   0.990  1.00  0.00     0.166 HD
ATOM     22  C   UNL d   1      -2.803  -6.358   3.395  0.00  0.00     0.017 A 
ATOM     23  C   UNL d   1      -1.463  -6.345   3.738  0.00  0.00     0.005 A 
ATOM     24  C   UNL d   1      -0.598  -5.481   3.066  0.00  0.00     0.048 A 
ENDBRANCH   3  18
TORSDOF 2
