REMARK  3 active torsions:
REMARK  status: ('A' for Active; 'I' for Inactive)
REMARK    1  A    between atoms: C_10  and  C_7 
REMARK    2  A    between atoms: C_11  and  C_8 
REMARK    3  A    between atoms: O_16  and  C_9 
ROOT
ATOM      1  N   UNL d   1      -0.706   1.191  -0.049  0.00  0.00    -0.307 N 
ATOM      2  HN  UNL d   1      -1.217   2.073  -0.075  1.00  0.00     0.171 HD
ATOM      3  N   UNL d   1       1.368   0.040   0.000  0.00  0.00    -0.307 N 
ATOM      4  HN  UNL d   1       2.388   0.071   0.015  1.00  0.00     0.171 HD
ATOM      5  N   UNL d   1      -0.664  -1.167  -0.003  0.00  0.00    -0.327 N 
ATOM      6  HN  UNL d   1      -1.160  -2.058   0.009  1.00  0.00     0.169 HD
ATOM      7  C   UNL d   1       0.670  -1.097   0.011  0.00  0.00     0.120 A 
ATOM      8  C   UNL d   1      -1.307   0.004  -0.032  0.00  0.00     0.120 A 
ATOM      9  C   UNL d   1       0.610   1.120  -0.030  0.00  0.00     0.224 A 
ENDROOT
BRANCH   7  10
ATOM     10  C   UNL d   1       1.425  -2.369   0.038  0.00  0.00     0.008 A 
ATOM     11  C   UNL d   1       2.834  -2.387   0.067  0.00  0.00     0.017 A 
ATOM     12  C   UNL d   1       3.552  -3.588   0.090  0.00  0.00     0.025 A 
ATOM     13  C   UNL d   1       2.871  -4.801   0.084  0.00  0.00     0.034 A 
ATOM     14  C   UNL d   1       1.481  -4.821   0.057  0.00  0.00     0.025 A 
ATOM     15 CL   UNL d   1       3.750  -6.278   0.110  0.00  0.00    -0.084 Cl
ATOM     16  C   UNL d   1       0.768  -3.616   0.034  0.00  0.00     0.017 A 
ENDBRANCH   7  10
BRANCH   9  17
ATOM     17  O   UNL d   1       1.294   2.296  -0.036  0.00  0.00    -0.332 OA
ATOM     18  H   UNL d   1       2.204   1.960  -0.008  0.00  0.00     0.221 HD
ENDBRANCH   9  17
BRANCH   8  19
ATOM     19  C   UNL d   1      -2.785  -0.019  -0.034  0.00  0.00     0.008 A 
ATOM     20  C   UNL d   1      -3.505  -1.230   0.036  0.00  0.00     0.017 A 
ATOM     21  C   UNL d   1      -4.905  -1.249   0.045  0.00  0.00     0.025 A 
ATOM     22  C   UNL d   1      -5.614  -0.054  -0.019  0.00  0.00     0.034 A 
ATOM     23  C   UNL d   1      -4.937   1.157  -0.093  0.00  0.00     0.025 A 
ATOM     24 CL   UNL d   1      -7.334  -0.076  -0.005  0.00  0.00    -0.084 Cl
ATOM     25  C   UNL d   1      -3.537   1.171  -0.100  0.00  0.00     0.017 A 
ENDBRANCH   8  19
TORSDOF 3
