REMARK  3 active torsions:
REMARK  status: ('A' for Active; 'I' for Inactive)
REMARK    1  A    between atoms: C_2  and  C_1 
REMARK       I    between atoms: N_3  and  C_2 
REMARK       I    between atoms: C_7  and  N_3 
REMARK    2  A    between atoms: N_10  and  C_4 
REMARK    3  A    between atoms: C_14  and  N_10 
ROOT
ATOM      1  C   UNL d   1       1.044  -0.087  -0.000  0.00  0.00     0.122 C 
ATOM      2  C   UNL d   1       0.285   0.099   1.101  0.00  0.00     0.116 C 
ATOM      3  C   UNL d   1       0.458  -0.480  -1.232  0.00  0.00     0.106 C 
ATOM      4  N   UNL d   1      -0.082  -0.843  -2.194  0.00  0.00    -0.191 NA
ENDROOT
BRANCH   1   5
ATOM      5  C   UNL d   1       2.529  -0.035   0.194  0.00  0.00     0.249 C 
ATOM      6  N   UNL d   1       3.358  -0.356  -0.849  0.00  0.00    -0.194 NA
ATOM      7  C   UNL d   1       3.438   0.447  -1.969  0.00  0.00     0.200 C 
ATOM      8  H   UNL d   1       4.279  -0.547  -0.473  0.00  0.00     0.139 HD
ATOM      9  O   UNL d   1       2.550   1.204  -2.345  0.00  0.00    -0.280 OA
ATOM     10  C   UNL d   1       4.699   0.236  -2.771  0.00  0.00     0.111 C 
ATOM     11  O   UNL d   1       3.041   0.201   1.290  0.00  0.00    -0.273 OA
ENDBRANCH   1   5
BRANCH   2  12
ATOM     12  N   UNL d   1      -1.084  -0.007   1.241  0.00  0.00    -0.364 N 
ATOM     13  H   UNL d   1      -1.607  -0.247   0.397  0.00  0.00     0.165 HD
BRANCH  12  14
ATOM     14  C   UNL d   1      -1.832  -0.080   2.433  0.00  0.00     0.033 A 
ATOM     15  C   UNL d   1      -3.131  -0.616   2.381  0.00  0.00     0.056 A 
ATOM     16  C   UNL d   1      -3.894  -0.770   3.540  0.00  0.00     0.074 A 
ATOM     17 CL   UNL d   1      -5.468  -1.458   3.433  0.00  0.00    -0.081 Cl
ATOM     18  C   UNL d   1      -3.373  -0.382   4.769  0.00  0.00     0.138 A 
ATOM     19  C   UNL d   1      -2.097   0.163   4.847  0.00  0.00     0.046 A 
ATOM     20  F   UNL d   1      -4.083  -0.526   5.896  0.00  0.00    -0.204 F 
ATOM     21  C   UNL d   1      -1.332   0.311   3.686  0.00  0.00     0.032 A 
ENDBRANCH  12  14
ENDBRANCH   2  12
TORSDOF 3
