REMARK  5 active torsions:
REMARK  status: ('A' for Active; 'I' for Inactive)
REMARK    1  A    between atoms: N_11  and  C_2 
REMARK    2  A    between atoms: C_14  and  C_8 
REMARK    3  A    between atoms: N_12  and  C_15 
REMARK    4  A    between atoms: O_26  and  C_14 
REMARK    5  A    between atoms: C_28  and  O_26 
ROOT
ATOM      1  C   UNL d   1       0.231  -0.783  -0.030  0.00  0.00     0.061 A 
ATOM      2  C   UNL d   1      -0.987  -1.535  -0.090  0.00  0.00     0.064 A 
ATOM      3  C   UNL d   1       0.182   0.605   0.022  0.00  0.00     0.136 A 
ATOM      4  N   UNL d   1       2.384   0.048   0.043  0.00  0.00    -0.301 N 
ATOM      5  HN  UNL d   1       3.401   0.123   0.083  1.00  0.00     0.187 HD
ATOM      6  N   UNL d   1       1.475   1.040   0.060  0.00  0.00    -0.280 N 
ATOM      7  C   UNL d   1       1.637  -1.064  -0.041  0.00  0.00     0.038 A 
ATOM      8  C   UNL d   1      -2.149  -0.717  -0.228  0.00  0.00     0.082 A 
ATOM      9  N   UNL d   1      -0.908   1.390   0.016  0.00  0.00    -0.349 N 
ATOM     10  HN  UNL d   1      -0.881   2.404   0.119  1.00  0.00     0.167 HD
ATOM     11  C   UNL d   1      -2.041   0.679  -0.143  0.00  0.00     0.110 A 
ATOM     12  C   UNL d   1       1.921   2.411   0.050  0.00  0.00     0.179 C 
ATOM     13  C   UNL d   1       2.321  -2.376  -0.172  0.00  0.00     0.071 C 
ENDROOT
BRANCH   2  14
ATOM     14  N   UNL d   1      -0.924  -2.942   0.021  0.00  0.00    -0.379 N 
ATOM     15  C   UNL d   1      -1.958  -3.759  -0.632  0.00  0.00     0.125 C 
ATOM     16  C   UNL d   1      -1.638  -5.247  -0.572  0.00  0.00     0.045 C 
ATOM     17  C   UNL d   1      -1.287  -5.724   0.836  0.00  0.00     0.091 C 
ATOM     18  C   UNL d   1      -0.204  -4.833   1.447  0.00  0.00     0.045 C 
ATOM     19  C   UNL d   1      -0.565  -3.352   1.398  0.00  0.00     0.125 C 
BRANCH  17  20
ATOM     20  N   UNL d   1      -2.437  -5.935   1.718  0.00  0.00    -0.362 N 
ATOM     21  C   UNL d   1      -2.781  -7.160   2.244  0.00  0.00     0.091 A 
ATOM     22  C   UNL d   1      -3.849  -6.986   3.095  0.00  0.00     0.019 A 
ATOM     23  C   UNL d   1      -4.179  -5.615   3.080  0.00  0.00     0.019 A 
ATOM     24  C   UNL d   1      -3.312  -4.999   2.206  0.00  0.00     0.091 A 
ENDBRANCH  17  20
ENDBRANCH   2  14
BRANCH   8  25
ATOM     25  C   UNL d   1      -3.505  -1.162  -0.625  0.00  0.00     0.297 C 
ATOM     26  O   UNL d   1      -3.729  -1.871  -1.589  0.00  0.00    -0.259 OA
BRANCH  25  27
ATOM     27  O   UNL d   1      -4.454  -0.526   0.117  0.00  0.00    -0.318 OA
BRANCH  27  28
ATOM     28  C   UNL d   1      -5.789  -0.633  -0.406  0.00  0.00     0.174 C 
ATOM     29  C   UNL d   1      -5.958   0.256  -1.631  0.00  0.00     0.034 C 
ENDBRANCH  27  28
ENDBRANCH  25  27
ENDBRANCH   8  25
TORSDOF 5
