REMARK  6 active torsions:
REMARK  status: ('A' for Active; 'I' for Inactive)
REMARK    1  A    between atoms: S_2  and  C_1 
REMARK    2  A    between atoms: C_5  and  C_1 
REMARK    3  A    between atoms: C_6  and  S_2 
REMARK    4  A    between atoms: N_4  and  C_3 
REMARK    5  A    between atoms: S_12  and  C_3 
REMARK    6  A    between atoms: N_7  and  C_5 
ROOT
ATOM      1  C   UNL d   1       0.931  -0.057  -0.045  0.00  0.00     0.159 C 
ATOM      2  C   UNL d   1       0.289  -1.205  -0.390  0.00  0.00     0.099 C 
ENDROOT
BRANCH   1   3
ATOM      3  S   UNL d   1       0.155   1.294   0.708  0.00  0.00     0.218 S 
ATOM      4  O   UNL d   1      -1.125   1.576   0.081  0.00  0.00    -0.216 OA
ATOM      5  O   UNL d   1       0.251   1.164   2.151  0.00  0.00    -0.216 OA
BRANCH   3   6
ATOM      6  C   UNL d   1       1.163   2.714   0.270  0.00  0.00     0.065 A 
ATOM      7  C   UNL d   1       0.864   3.429  -0.899  0.00  0.00     0.025 A 
ATOM      8  C   UNL d   1       1.555   4.611  -1.179  0.00  0.00     0.025 A 
ATOM      9  C   UNL d   1       2.525   5.075  -0.291  0.00  0.00     0.034 A 
ATOM     10  C   UNL d   1       2.814   4.369   0.877  0.00  0.00     0.025 A 
ATOM     11 CL   UNL d   1       3.354   6.546  -0.627  0.00  0.00    -0.084 Cl
ATOM     12  C   UNL d   1       2.125   3.187   1.167  0.00  0.00     0.025 A 
ENDBRANCH   3   6
ENDBRANCH   1   3
BRANCH   1  13
ATOM     13  C   UNL d   1       2.451  -0.057  -0.045  0.00  0.00    -0.022 C 
BRANCH  13  14
ATOM     14  N   UNL d   1       3.712  -0.057  -0.045  0.00  0.00    -0.365 N 
ATOM     15  HN2 UNL d   1       2.692  -0.057  -0.045  1.00  0.00     0.165 HD
ATOM     16  HN1 UNL d   1       4.732  -0.057  -0.045  1.00  0.00     0.165 HD
ENDBRANCH  13  14
ENDBRANCH   1  13
BRANCH   2  17
ATOM     17  N   UNL d   1       0.936  -2.254  -1.082  0.00  0.00    -0.372 N 
ATOM     18  C   UNL d   1       1.691  -2.057  -2.340  0.00  0.00     0.134 C 
ATOM     19  C   UNL d   1       1.227  -3.032  -3.429  0.00  0.00     0.093 C 
ATOM     20  S   UNL d   1       1.460  -4.778  -2.953  0.00  0.00    -0.166 SA
ATOM     21  C   UNL d   1       0.630  -4.712  -1.327  0.00  0.00     0.093 C 
ATOM     22  C   UNL d   1       1.161  -3.575  -0.453  0.00  0.00     0.134 C 
ENDBRANCH   2  17
BRANCH   2  23
ATOM     23  S   UNL d   1      -1.363  -1.497   0.194  0.00  0.00    -0.115 SA
ATOM     24  C   UNL d   1      -2.259  -1.669  -1.361  0.00  0.00     0.097 C 
ENDBRANCH   2  23
TORSDOF 6
