REMARK  10 active torsions:
REMARK  status: ('A' for Active; 'I' for Inactive)
REMARK    1  A    between atoms: C_3  and  C_1 
REMARK    2  A    between atoms: O_4  and  C_2 
REMARK    3  A    between atoms: N_6  and  C_3 
REMARK    4  A    between atoms: C_11  and  O_4 
REMARK       I    between atoms: C_5  and  N_6 
REMARK    5  A    between atoms: C_21  and  C_5 
REMARK    6  A    between atoms: C_8  and  C_22 
REMARK    7  A    between atoms: O_14  and  C_8 
REMARK    8  A    between atoms: O_20  and  C_13 
REMARK    9  A    between atoms: C_23  and  C_21 
REMARK   10  A    between atoms: C_22  and  C_23 
ROOT
ATOM      1  C   UNL d   1       0.234   1.144  -0.146  0.00  0.00     0.015 A 
ATOM      2  C   UNL d   1       1.641   1.173  -0.099  0.00  0.00     0.085 A 
ATOM      3  C   UNL d   1      -0.398  -0.112  -0.067  0.00  0.00     0.044 A 
ATOM      4 CL   UNL d   1      -2.118  -0.280   0.007  0.00  0.00    -0.084 Cl
ATOM      5  C   UNL d   1       2.378  -0.024  -0.150  0.00  0.00     0.038 A 
ATOM      6  C   UNL d   1       1.735  -1.253  -0.117  0.00  0.00     0.004 A 
ATOM      7  C   UNL d   1       0.346  -1.297  -0.043  0.00  0.00     0.024 A 
ENDROOT
BRANCH   1   8
ATOM      8  C   UNL d   1      -0.546   2.414  -0.374  0.00  0.00     0.165 C 
BRANCH   8   9
ATOM      9  N   UNL d   1      -0.615   3.286   0.777  0.00  0.00    -0.357 N 
ATOM     10  C   UNL d   1      -1.543   4.305   0.787  0.00  0.00     0.217 C 
ATOM     11  O   UNL d   1      -2.406   4.446  -0.077  0.00  0.00    -0.274 OA
ATOM     12  H   UNL d   1       0.220   3.385   1.341  0.00  0.00     0.162 HD
BRANCH  10  13
ATOM     13  C   UNL d   1      -1.409   5.253   1.961  0.00  0.00     0.103 C 
BRANCH  13  14
ATOM     14  C   UNL d   1      -2.693   6.052   2.192  0.00  0.00     0.019 C 
BRANCH  14  15
ATOM     15  C   UNL d   1      -3.852   5.160   2.635  0.00  0.00     0.110 C 
BRANCH  15  16
ATOM     16  C   UNL d   1      -5.123   5.960   2.747  0.00  0.00     0.139 C 
ATOM     17  O   UNL d   1      -5.529   6.455   3.789  0.00  0.00    -0.650 OA
BRANCH  16  18
ATOM     18  O   UNL d   1      -5.767   6.105   1.568  0.00  0.00    -0.776 OA
ATOM     19  H   UNL d   1      -5.311   5.670   0.819  0.00  0.00     0.167 HD
ENDBRANCH  16  18
ENDBRANCH  15  16
ENDBRANCH  14  15
ENDBRANCH  13  14
ENDBRANCH  10  13
ENDBRANCH   8   9
ENDBRANCH   1   8
BRANCH   2  20
ATOM     20  O   UNL d   1       2.260   2.412  -0.039  0.00  0.00    -0.310 OA
BRANCH  20  21
ATOM     21  C   UNL d   1       3.477   2.480   0.608  0.00  0.00     0.076 A 
ATOM     22  C   UNL d   1       4.518   3.126  -0.057  0.00  0.00     0.040 A 
ATOM     23  C   UNL d   1       5.805   3.118   0.489  0.00  0.00     0.039 A 
ATOM     24  C   UNL d   1       6.046   2.469   1.702  0.00  0.00     0.068 A 
ATOM     25  C   UNL d   1       4.981   1.908   2.409  0.00  0.00     0.039 A 
ATOM     26  C   UNL d   1       3.692   1.924   1.873  0.00  0.00     0.040 A 
BRANCH  24  27
ATOM     27  O   UNL d   1       7.272   2.345   2.296  0.00  0.00    -0.356 OA
ATOM     28  C   UNL d   1       8.381   2.317   1.402  0.00  0.00     0.210 C 
ENDBRANCH  24  27
ENDBRANCH  20  21
ENDBRANCH   2  20
TORSDOF 10
