REMARK  9 active torsions:
REMARK  status: ('A' for Active; 'I' for Inactive)
REMARK    1  A    between atoms: C_5  and  C_1 
REMARK    2  A    between atoms: C_7  and  C_2 
REMARK       I    between atoms: N_9  and  C_7 
REMARK    3  A    between atoms: N_12  and  N_9 
REMARK       I    between atoms: C_10  and  N_12 
REMARK    4  A    between atoms: C_11  and  C_10 
REMARK    5  A    between atoms: C_16  and  C_11 
REMARK    6  A    between atoms: O_19  and  C_16 
REMARK    7  A    between atoms: O_20  and  C_16 
REMARK    8  A    between atoms: C_23  and  O_19 
REMARK    9  A    between atoms: C_24  and  O_20 
ROOT
ATOM      1  C   UNL d   1       0.183  -2.393  -1.468  0.00  0.00     0.275 C 
ATOM      2  N   UNL d   1      -0.579  -3.468  -1.049  0.00  0.00    -0.263 N 
ATOM      3  O   UNL d   1      -0.308  -1.405  -2.005  0.00  0.00    -0.266 OA
ATOM      4  H   UNL d   1      -0.202  -4.223  -0.481  0.00  0.00     0.190 HD
ENDROOT
BRANCH   1   5
ATOM      5  C   UNL d   1       1.608  -2.514  -1.196  0.00  0.00     0.094 A 
ATOM      6  C   UNL d   1       2.546  -1.488  -0.828  0.00  0.00     0.085 A 
ATOM      7  N   UNL d   1       3.786  -2.005  -0.757  0.00  0.00    -0.259 N 
ATOM      8  O   UNL d   1       3.685  -3.336  -1.045  0.00  0.00    -0.241 OA
ATOM      9  HN  UNL d   1       4.641  -1.498  -0.530  1.00  0.00     0.195 HD
ATOM     10  C   UNL d   1       2.385  -3.655  -1.301  0.00  0.00     0.090 A 
ATOM     11  C   UNL d   1       2.186  -5.071  -1.672  0.00  0.00     0.080 C 
BRANCH   6  12
ATOM     12  C   UNL d   1       2.366  -0.057  -0.561  0.00  0.00     0.015 A 
ATOM     13  C   UNL d   1       1.340   0.470   0.248  0.00  0.00     0.046 A 
ATOM     14 CL   UNL d   1       0.243  -0.516   1.153  0.00  0.00    -0.083 Cl
ATOM     15  C   UNL d   1       1.224   1.857   0.427  0.00  0.00     0.025 A 
ATOM     16  C   UNL d   1       2.162   2.732  -0.127  0.00  0.00     0.002 A 
ATOM     17  C   UNL d   1       3.219   2.222  -0.863  0.00  0.00     0.001 A 
ATOM     18  C   UNL d   1       3.318   0.847  -1.081  0.00  0.00     0.015 A 
ENDBRANCH   6  12
ENDBRANCH   1   5
BRANCH   2  19
ATOM     19  N   UNL d   1      -1.976  -3.479  -1.200  0.00  0.00    -0.267 N 
ATOM     20  C   UNL d   1      -2.635  -4.610  -0.772  0.00  0.00     0.240 C 
ATOM     21  O   UNL d   1      -2.027  -5.531  -0.217  0.00  0.00    -0.272 OA
ATOM     22  H   UNL d   1      -2.422  -2.729  -1.734  0.00  0.00     0.190 HD
BRANCH  20  23
ATOM     23  C   UNL d   1      -4.104  -4.727  -1.093  0.00  0.00     0.165 C 
BRANCH  23  24
ATOM     24  C   UNL d   1      -4.929  -3.497  -0.728  0.00  0.00     0.268 C 
BRANCH  24  25
ATOM     25  O   UNL d   1      -4.582  -2.486  -1.689  0.00  0.00    -0.361 OA
BRANCH  25  26
ATOM     26  C   UNL d   1      -5.356  -1.296  -1.559  0.00  0.00     0.166 C 
ATOM     27  C   UNL d   1      -4.839  -0.275  -2.559  0.00  0.00     0.033 C 
ENDBRANCH  25  26
ENDBRANCH  24  25
BRANCH  24  28
ATOM     28  O   UNL d   1      -6.330  -3.799  -0.805  0.00  0.00    -0.361 OA
BRANCH  28  29
ATOM     29  C   UNL d   1      -6.814  -4.589   0.282  0.00  0.00     0.166 C 
ATOM     30  C   UNL d   1      -8.321  -4.721   0.174  0.00  0.00     0.033 C 
ENDBRANCH  28  29
ENDBRANCH  24  28
ENDBRANCH  23  24
ENDBRANCH  20  23
ENDBRANCH   2  19
TORSDOF 9
