REMARK  5 active torsions:
REMARK  status: ('A' for Active; 'I' for Inactive)
REMARK       I    between atoms: N_2  and  C_1 
REMARK       I    between atoms: N_3  and  C_1 
REMARK    1  A    between atoms: C_7  and  N_2 
REMARK    2  A    between atoms: C_11  and  N_2 
REMARK    3  A    between atoms: C_8  and  N_3 
REMARK    4  A    between atoms: C_10  and  C_7 
REMARK    5  A    between atoms: C_9  and  C_11 
ROOT
ATOM      1  N   UNL d   1       2.026  -0.294   5.771  0.00  0.00    -0.197 NA
ATOM      2  C   UNL d   1       1.483  -0.533   4.771  0.00  0.00     0.060 C 
ATOM      3  C   UNL d   1       0.806  -0.837   3.504  0.00  0.00     0.144 C 
ENDROOT
BRANCH   3   4
ATOM      4  C   UNL d   1       0.764   0.407   2.607  0.00  0.00     0.142 C 
BRANCH   4   5
ATOM      5  N   UNL d   1       0.196   0.142   1.275  0.00  0.00    -0.329 N 
ATOM      6  C   UNL d   1       0.921  -0.080   0.102  0.00  0.00     0.323 C 
ATOM      7  N   UNL d   1       2.294  -0.175   0.240  0.00  0.00    -0.309 N 
ATOM      8  O   UNL d   1       0.342  -0.230  -0.974  0.00  0.00    -0.247 OA
ATOM      9  H   UNL d   1       2.637  -0.462   1.140  0.00  0.00     0.170 HD
BRANCH   7  10
ATOM     10  C   UNL d   1       3.172  -0.430  -0.848  0.00  0.00     0.036 A 
ATOM     11  C   UNL d   1       2.897  -0.023  -2.158  0.00  0.00     0.029 A 
ATOM     12  C   UNL d   1       3.712  -0.428  -3.219  0.00  0.00     0.002 A 
ATOM     13  C   UNL d   1       4.823  -1.230  -2.977  0.00  0.00     0.000 A 
ATOM     14  C   UNL d   1       5.152  -1.575  -1.667  0.00  0.00     0.002 A 
ATOM     15  C   UNL d   1       4.344  -1.158  -0.603  0.00  0.00     0.029 A 
ENDBRANCH   7  10
BRANCH   5  16
ATOM     16  C   UNL d   1      -1.273   0.071   1.171  0.00  0.00     0.166 C 
BRANCH  16  17
ATOM     17  C   UNL d   1      -1.980   1.386   0.908  0.00  0.00    -0.040 A 
ATOM     18  C   UNL d   1      -1.843   2.044  -0.324  0.00  0.00     0.009 A 
ATOM     19  C   UNL d   1      -2.565   3.206  -0.609  0.00  0.00     0.001 A 
ATOM     20  C   UNL d   1      -3.445   3.728   0.334  0.00  0.00     0.000 A 
ATOM     21  C   UNL d   1      -3.605   3.085   1.559  0.00  0.00     0.001 A 
ATOM     22  C   UNL d   1      -2.879   1.922   1.845  0.00  0.00     0.009 A 
ENDBRANCH  16  17
ENDBRANCH   5  16
ENDBRANCH   4   5
ENDBRANCH   3   4
TORSDOF 5
