REMARK  3 active torsions:
REMARK  status: ('A' for Active; 'I' for Inactive)
REMARK    1  A    between atoms: C_2  and  N_1 
REMARK    2  A    between atoms: C_5  and  C_7 
REMARK    3  A    between atoms: N_13  and  C_5 
ROOT
ATOM      1  C   UNL d   1       0.091   2.275  -0.116  0.00  0.00     0.046 A 
ATOM      2  C   UNL d   1      -0.552   3.044   0.870  0.00  0.00     0.044 A 
ATOM      3  C   UNL d   1      -0.486   4.451   0.872  0.00  0.00     0.004 A 
ATOM      4  C   UNL d   1       0.794   2.961  -1.118  0.00  0.00     0.030 A 
ATOM      5  C   UNL d   1       0.217   5.099  -0.148  0.00  0.00     0.014 A 
ATOM      6  C   UNL d   1       0.852   4.357  -1.140  0.00  0.00     0.003 A 
ENDROOT
BRANCH   1   7
ATOM      7  N   UNL d   1       0.052   0.846  -0.087  0.00  0.00    -0.252 N 
ATOM      8  C   UNL d   1       0.994   0.033  -0.679  0.00  0.00     0.231 A 
ATOM      9  C   UNL d   1       0.667  -1.400  -0.386  0.00  0.00     0.113 A 
ATOM     10  O   UNL d   1       2.001   0.341  -1.302  0.00  0.00    -0.273 OA
ATOM     11  C   UNL d   1      -0.655  -1.353   0.335  0.00  0.00     0.113 A 
ATOM     12  C   UNL d   1      -0.923   0.108   0.547  0.00  0.00     0.231 A 
ATOM     13  O   UNL d   1      -1.912   0.499   1.153  0.00  0.00    -0.273 OA
ENDBRANCH   1   7
BRANCH   3  14
ATOM     14  C   UNL d   1      -1.115   5.229   1.980  0.00  0.00     0.104 C 
ATOM     15  S   UNL d   1      -0.555   6.689   2.581  0.00  0.00    -0.060 SA
BRANCH  14  16
ATOM     16  N   UNL d   1      -2.238   4.694   2.561  0.00  0.00    -0.390 N 
ATOM     17  H   UNL d   1      -2.704   3.858   2.237  0.00  0.00     0.157 HD
ATOM     18  H   UNL d   1      -2.681   5.209   3.313  0.00  0.00     0.157 HD
ENDBRANCH  14  16
ENDBRANCH   3  14
TORSDOF 3
