REMARK  4 active torsions:
REMARK  status: ('A' for Active; 'I' for Inactive)
REMARK    1  A    between atoms: C_4  and  S_1 
REMARK    2  A    between atoms: N_10  and  S_1 
REMARK    3  A    between atoms: C_2  and  C_3 
REMARK       I    between atoms: C_3  and  N_5 
REMARK    4  A    between atoms: N_5  and  C_7 
ROOT
ATOM      1  C   UNL d   1       0.418  -1.352  -0.858  0.00  0.00     0.081 C 
ATOM      2  C   UNL d   1      -0.477  -2.606  -2.755  0.00  0.00     0.042 C 
ATOM      3  C   UNL d   1      -0.378  -1.415  -2.018  0.00  0.00     0.055 C 
ATOM      4  C   UNL d   1       0.326  -3.702  -2.352  0.00  0.00    -0.035 C 
ATOM      5  C   UNL d   1       1.086  -2.480  -0.392  0.00  0.00     0.026 C 
ATOM      6  C   UNL d   1       1.037  -3.648  -1.137  0.00  0.00     0.010 C 
ATOM      7  C   UNL d   1       0.554  -4.916  -3.214  0.00  0.00     0.050 C 
ENDROOT
BRANCH   2   8
ATOM      8  N   UNL d   1      -1.322  -2.755  -3.896  0.00  0.00    -0.322 N 
ATOM      9  C   UNL d   1      -2.230  -1.834  -4.417  0.00  0.00     0.264 C 
ATOM     10  O   UNL d   1      -2.438  -0.743  -3.887  0.00  0.00    -0.267 OA
ATOM     11  H   UNL d   1      -1.303  -3.659  -4.349  0.00  0.00     0.169 HD
BRANCH   9  12
ATOM     12  C   UNL d   1      -2.912  -2.225  -5.658  0.00  0.00     0.094 C 
ATOM     13  C   UNL d   1      -3.036  -3.428  -6.333  0.00  0.00     0.057 C 
ATOM     14  C   UNL d   1      -3.683  -3.292  -7.602  0.00  0.00     0.032 C 
ATOM     15 CL   UNL d   1      -2.475  -4.963  -5.814  0.00  0.00    -0.083 Cl
ATOM     16  C   UNL d   1      -4.101  -2.005  -7.839  0.00  0.00     0.052 C 
ATOM     17  S   UNL d   1      -3.763  -0.982  -6.517  0.00  0.00    -0.095 SA
ENDBRANCH   9  12
ENDBRANCH   2   8
BRANCH   1  18
ATOM     18  S   UNL d   1       0.748   0.202  -0.059  0.00  0.00     0.260 S 
ATOM     19  O   UNL d   1       0.564   1.258  -1.047  0.00  0.00    -0.200 OA
ATOM     20  O   UNL d   1       2.013   0.069   0.641  0.00  0.00    -0.200 OA
BRANCH  18  21
ATOM     21  N   UNL d   1      -0.477   0.331   1.105  0.00  0.00    -0.315 N 
ATOM     22  C   UNL d   1      -1.832   0.614   0.600  0.00  0.00     0.162 C 
ATOM     23  C   UNL d   1      -0.451  -0.624   2.224  0.00  0.00     0.162 C 
ENDBRANCH  18  21
ENDBRANCH   1  18
TORSDOF 4
