REMARK  6 active torsions:
REMARK  status: ('A' for Active; 'I' for Inactive)
REMARK    1  A    between atoms: C_12  and  C_1 
REMARK    2  A    between atoms: C_7  and  C_2 
REMARK    3  A    between atoms: N_9  and  C_3 
REMARK       I    between atoms: C_10  and  N_11 
REMARK    4  A    between atoms: C_20  and  C_10 
REMARK    5  A    between atoms: O_25  and  C_12 
REMARK    6  A    between atoms: C_28  and  O_25 
ROOT
ATOM      1  C   UNL d   1      -1.543   1.261   0.290  0.00  0.00     0.072 A 
ATOM      2  C   UNL d   1      -1.345   0.379   1.349  0.00  0.00     0.134 A 
ATOM      3  C   UNL d   1      -0.168  -1.124  -0.057  0.00  0.00     0.104 A 
ATOM      4  N   UNL d   1      -0.639  -0.790   1.170  0.00  0.00    -0.341 N 
ATOM      5  HN  UNL d   1      -0.470  -1.408   1.965  1.00  0.00     0.167 HD
ATOM      6  C   UNL d   1      -0.383  -0.286  -1.156  0.00  0.00     0.084 A 
ATOM      7  C   UNL d   1      -1.067   0.917  -0.974  0.00  0.00     0.046 A 
ATOM      8  C   UNL d   1       0.133  -0.595  -2.456  0.00  0.00     0.102 C 
ATOM      9  N   UNL d   1       0.511  -0.823  -3.524  0.00  0.00    -0.191 NA
ENDROOT
BRANCH   3  10
ATOM     10  N   UNL d   1       0.594  -2.276  -0.203  0.00  0.00    -0.265 NA
ATOM     11  C   UNL d   1       1.382  -2.701   0.970  0.00  0.00     0.117 C 
ATOM     12  C   UNL d   1       2.455  -3.705   0.486  0.00  0.00     0.141 C 
ATOM     13  N   UNL d   1       1.833  -4.849  -0.212  0.00  0.00    -0.346 N 
ATOM     14  C   UNL d   1       2.277  -6.170  -0.209  0.00  0.00     0.253 C 
ATOM     15  C   UNL d   1       0.934  -4.447  -1.308  0.00  0.00     0.141 C 
ATOM     16  O   UNL d   1       1.933  -6.970  -1.081  0.00  0.00    -0.267 OA
ATOM     17  C   UNL d   1      -0.109  -3.416  -0.837  0.00  0.00     0.117 C 
BRANCH  14  18
ATOM     18  C   UNL d   1       3.168  -6.692   0.861  0.00  0.00     0.032 A 
ATOM     19  C   UNL d   1       3.046  -6.317   2.203  0.00  0.00     0.017 A 
ATOM     20  C   UNL d   1       3.897  -6.866   3.166  0.00  0.00     0.001 A 
ATOM     21  C   UNL d   1       4.829  -7.838   2.805  0.00  0.00     0.000 A 
ATOM     22  C   UNL d   1       4.912  -8.266   1.481  0.00  0.00     0.001 A 
ATOM     23  C   UNL d   1       4.087  -7.692   0.513  0.00  0.00     0.017 A 
ENDBRANCH  14  18
ENDBRANCH   3  10
BRANCH   1  24
ATOM     24  C   UNL d   1      -2.206   2.564   0.457  0.00  0.00     0.295 C 
ATOM     25  O   UNL d   1      -1.966   3.334   1.362  0.00  0.00    -0.259 OA
BRANCH  24  26
ATOM     26  O   UNL d   1      -3.107   2.690  -0.543  0.00  0.00    -0.318 OA
BRANCH  26  27
ATOM     27  C   UNL d   1      -4.019   3.794  -0.456  0.00  0.00     0.174 C 
ATOM     28  C   UNL d   1      -5.365   3.238  -0.035  0.00  0.00     0.034 C 
ENDBRANCH  26  27
ENDBRANCH  24  26
ENDBRANCH   1  24
BRANCH   2  29
ATOM     29  C   UNL d   1      -1.918   0.637   2.738  0.00  0.00     0.433 C 
ATOM     30  F   UNL d   1      -2.975   1.495   2.778  0.00  0.00    -0.165 F 
ATOM     31  F   UNL d   1      -2.402  -0.509   3.309  0.00  0.00    -0.165 F 
ATOM     32  F   UNL d   1      -0.992   1.116   3.613  0.00  0.00    -0.165 F 
ENDBRANCH   2  29
TORSDOF 6
