REMARK  5 active torsions:
REMARK  status: ('A' for Active; 'I' for Inactive)
REMARK    1  A    between atoms: C_4  and  C_1 
REMARK    2  A    between atoms: C_9  and  C_3 
REMARK       I    between atoms: N_7  and  C_4 
REMARK    3  A    between atoms: C_11  and  N_7 
REMARK    4  A    between atoms: C_12  and  N_8 
REMARK    5  A    between atoms: C_18  and  C_12 
ROOT
ATOM      1  C   UNL d   1      -4.979  -1.672  -0.079  0.00  0.00     0.254 C 
ATOM      2  N   UNL d   1      -4.243  -0.646   0.444  0.00  0.00    -0.352 N 
ATOM      3  O   UNL d   1      -5.599  -1.562  -1.134  0.00  0.00    -0.268 OA
ATOM      4  H   UNL d   1      -3.897  -0.749   1.382  0.00  0.00     0.163 HD
ENDROOT
BRANCH   2   5
ATOM      5  C   UNL d   1      -3.805   0.553  -0.286  0.00  0.00     0.088 C 
ATOM      6  C   UNL d   1      -4.907   1.552  -0.673  0.00  0.00     0.055 C 
ATOM      7  C   UNL d   1      -5.242   1.671  -2.169  0.00  0.00     0.275 C 
ATOM      8  N   UNL d   1      -4.060   1.551  -3.040  0.00  0.00     0.092 N 
ATOM      9  C   UNL d   1      -3.442   0.240  -2.797  0.00  0.00     0.275 C 
ATOM     10  C   UNL d   1      -2.820   0.221  -1.409  0.00  0.00     0.055 C 
BRANCH   8  11
ATOM     11  C   UNL d   1      -4.424   1.651  -4.471  0.00  0.00     0.311 C 
BRANCH  11  12
ATOM     12  C   UNL d   1      -4.917   3.018  -4.905  0.00  0.00    -0.030 A 
ATOM     13  C   UNL d   1      -4.118   4.160  -4.744  0.00  0.00     0.009 A 
ATOM     14  C   UNL d   1      -4.576   5.411  -5.161  0.00  0.00     0.001 A 
ATOM     15  C   UNL d   1      -5.831   5.536  -5.754  0.00  0.00     0.000 A 
ATOM     16  C   UNL d   1      -6.625   4.406  -5.941  0.00  0.00     0.001 A 
ATOM     17  C   UNL d   1      -6.169   3.154  -5.525  0.00  0.00     0.009 A 
ENDBRANCH  11  12
ENDBRANCH   8  11
ENDBRANCH   2   5
BRANCH   1  18
ATOM     18  C   UNL d   1      -5.001  -2.939   0.670  0.00  0.00     0.063 A 
ATOM     19  C   UNL d   1      -5.949  -4.002   0.446  0.00  0.00     0.053 A 
ATOM     20  C   UNL d   1      -5.589  -5.068   1.242  0.00  0.00     0.062 A 
ATOM     21  O   UNL d   1      -4.496  -4.717   1.971  0.00  0.00    -0.318 OA
ATOM     22  C   UNL d   1      -4.129  -3.449   1.626  0.00  0.00     0.065 A 
ATOM     23  C   UNL d   1      -2.877  -3.025   2.295  0.00  0.00     0.077 C 
BRANCH  20  24
ATOM     24  C   UNL d   1      -6.083  -6.482   1.435  0.00  0.00    -0.002 C 
ATOM     25  C   UNL d   1      -7.430  -6.708   0.727  0.00  0.00     0.021 C 
ATOM     26  C   UNL d   1      -5.053  -7.468   0.852  0.00  0.00     0.021 C 
ATOM     27  C   UNL d   1      -6.267  -6.782   2.935  0.00  0.00     0.021 C 
ENDBRANCH  20  24
ENDBRANCH   1  18
TORSDOF 5
