REMARK  7 active torsions:
REMARK  status: ('A' for Active; 'I' for Inactive)
REMARK    1  A    between atoms: N_2  and  S_1 
REMARK    2  A    between atoms: C_3  and  S_1 
REMARK    3  A    between atoms: C_19  and  N_6 
REMARK       I    between atoms: C_9  and  N_10 
REMARK    4  A    between atoms: N_10  and  C_16 
REMARK    5  A    between atoms: C_22  and  C_19 
REMARK    6  A    between atoms: O_20  and  C_22 
REMARK    7  A    between atoms: C_21  and  O_20 
ROOT
ATOM      1  N   UNL d   1       0.484  -0.980   0.972  0.00  0.00    -0.203 NA
ATOM      2  N   UNL d   1       1.346  -3.801   0.599  0.00  0.00     0.092 N 
ATOM      3  C   UNL d   1       1.517  -1.575   1.873  0.00  0.00     0.138 C 
ATOM      4  C   UNL d   1      -0.454  -2.023   0.478  0.00  0.00     0.138 C 
ATOM      5  C   UNL d   1       0.324  -3.136  -0.244  0.00  0.00     0.288 C 
ATOM      6  C   UNL d   1       2.234  -2.774   1.199  0.00  0.00     0.288 C 
ENDROOT
BRANCH   1   7
ATOM      7  S   UNL d   1       1.050   0.116  -0.209  0.00  0.00     0.243 S 
ATOM      8  O   UNL d   1       0.062   0.227  -1.259  0.00  0.00    -0.206 OA
ATOM      9  O   UNL d   1       2.435  -0.180  -0.501  0.00  0.00    -0.206 OA
BRANCH   7  10
ATOM     10  C   UNL d   1       1.000   1.647   0.687  0.00  0.00     0.074 A 
ATOM     11  C   UNL d   1       2.154   2.402   0.889  0.00  0.00     0.027 A 
ATOM     12  C   UNL d   1       2.059   3.629   1.557  0.00  0.00     0.031 A 
ATOM     13  C   UNL d   1       0.819   4.097   2.023  0.00  0.00     0.034 A 
ATOM     14  C   UNL d   1      -0.323   3.324   1.807  0.00  0.00     0.031 A 
ATOM     15  C   UNL d   1      -0.238   2.102   1.139  0.00  0.00     0.027 A 
BRANCH  13  16
ATOM     16  N   UNL d   1       0.798   5.344   2.685  0.00  0.00    -0.328 N 
ATOM     17  C   UNL d   1      -0.305   5.975   3.234  0.00  0.00     0.218 C 
ATOM     18  O   UNL d   1      -1.462   5.563   3.239  0.00  0.00    -0.274 OA
ATOM     19  C   UNL d   1       0.019   7.296   3.880  0.00  0.00     0.117 C 
ATOM     20  H   UNL d   1       1.688   5.818   2.766  0.00  0.00     0.169 HD
ENDBRANCH  13  16
ENDBRANCH   7  10
ENDBRANCH   1   7
BRANCH   2  21
ATOM     21  C   UNL d   1       0.780  -4.686   1.632  0.00  0.00     0.299 C 
BRANCH  21  22
ATOM     22  C   UNL d   1      -0.001  -5.879   1.058  0.00  0.00     0.206 C 
BRANCH  22  23
ATOM     23  O   UNL d   1      -0.429  -6.711   2.138  0.00  0.00    -0.349 OA
BRANCH  23  24
ATOM     24  C   UNL d   1      -1.183  -7.801   1.793  0.00  0.00     0.068 A 
ATOM     25  C   UNL d   1      -1.550  -8.168   0.496  0.00  0.00     0.037 A 
ATOM     26  C   UNL d   1      -2.321  -9.314   0.280  0.00  0.00     0.003 A 
ATOM     27  C   UNL d   1      -2.727 -10.097   1.358  0.00  0.00     0.000 A 
ATOM     28  C   UNL d   1      -2.366  -9.735   2.654  0.00  0.00     0.003 A 
ATOM     29  C   UNL d   1      -1.597  -8.589   2.869  0.00  0.00     0.037 A 
ENDBRANCH  23  24
ENDBRANCH  22  23
ENDBRANCH  21  22
ENDBRANCH   2  21
TORSDOF 7
