REMARK  4 active torsions:
REMARK  status: ('A' for Active; 'I' for Inactive)
REMARK    1  A    between atoms: C_4  and  N_1 
REMARK    2  A    between atoms: C_2  and  C_6 
REMARK    3  A    between atoms: O_3  and  C_2 
REMARK    4  A    between atoms: C_5  and  O_3 
ROOT
ATOM      1  C   UNL d   1       0.244  -0.923   4.667  0.00  0.00     0.298 C 
ATOM      2  O   UNL d   1       1.152  -0.193   5.020  0.00  0.00    -0.259 OA
ENDROOT
BRANCH   1   3
ATOM      3  C   UNL d   1      -0.276  -0.988   3.269  0.00  0.00     0.042 A 
ATOM      4  C   UNL d   1      -1.393  -1.760   2.913  0.00  0.00     0.053 A 
ATOM      5  C   UNL d   1      -1.906  -1.672   1.610  0.00  0.00     0.103 A 
ATOM      6  C   UNL d   1      -1.320  -0.822   0.663  0.00  0.00     0.036 A 
ATOM      7  C   UNL d   1      -0.195  -0.075   1.014  0.00  0.00     0.003 A 
ATOM      8  C   UNL d   1       0.326  -0.161   2.308  0.00  0.00     0.018 A 
BRANCH   5   9
ATOM      9  N   UNL d   1      -3.083  -2.469   1.237  0.00  0.00    -0.116 N 
ATOM     10  O   UNL d   1      -3.536  -3.253   2.082  0.00  0.00    -0.532 OA
ATOM     11  O   UNL d   1      -3.551  -2.309   0.102  0.00  0.00    -0.532 OA
ENDBRANCH   5   9
ENDBRANCH   1   3
BRANCH   1  12
ATOM     12  O   UNL d   1      -0.525  -1.733   5.481  0.00  0.00    -0.274 OA
BRANCH  12  13
ATOM     13  C   UNL d   1      -1.002  -1.276   6.733  0.00  0.00     0.097 A 
ATOM     14  C   UNL d   1      -1.594  -2.221   7.579  0.00  0.00     0.045 A 
ATOM     15  C   UNL d   1      -2.329  -1.798   8.691  0.00  0.00     0.028 A 
ATOM     16 BR   UNL d   1      -1.476  -4.080   7.226  0.00  0.00    -0.048 Br
ATOM     17  C   UNL d   1      -2.472  -0.432   8.967  0.00  0.00    -0.061 A 
ATOM     18  C   UNL d   1      -1.819   0.501   8.152  0.00  0.00     0.009 A 
ATOM     19  C   UNL d   1      -3.391   0.024  10.061  0.00  0.00     0.048 C 
ATOM     20  C   UNL d   1      -1.086   0.084   7.038  0.00  0.00     0.039 A 
ENDBRANCH  12  13
ENDBRANCH   1  12
TORSDOF 4
