REMARK  8 active torsions:
REMARK  status: ('A' for Active; 'I' for Inactive)
REMARK    1  A    between atoms: N_5  and  C_1 
REMARK    2  A    between atoms: N_6  and  C_1 
REMARK    3  A    between atoms: N_2  and  N_5 
REMARK    4  A    between atoms: C_14  and  N_6 
REMARK    5  A    between atoms: C_8  and  C_7 
REMARK    6  A    between atoms: O_15  and  C_9 
REMARK    7  A    between atoms: C_17  and  C_14 
REMARK    8  A    between atoms: C_16  and  C_17 
ROOT
ATOM      1  N   UNL d   1       0.314   0.858   0.954  0.00  0.00    -0.277 N 
ATOM      2  H   UNL d   1      -0.696   0.909   1.049  0.00  0.00     0.189 HD
ENDROOT
BRANCH   1   3
ATOM      3  N   UNL d   1       1.130   1.669   1.685  0.00  0.00    -0.309 N 
ATOM      4  C   UNL d   1       0.537   2.491   2.491  0.00  0.00     0.118 C 
ATOM      5  HN  UNL d   1       2.146   1.630   1.602  1.00  0.00     0.186 HD
BRANCH   4   6
ATOM      6  C   UNL d   1       1.327   3.401   3.340  0.00  0.00    -0.019 A 
ATOM      7  C   UNL d   1       2.723   3.380   3.271  0.00  0.00     0.015 A 
ATOM      8  C   UNL d   1       3.483   4.212   4.095  0.00  0.00     0.037 A 
ATOM      9  C   UNL d   1       2.848   5.064   4.996  0.00  0.00     0.068 A 
ATOM     10  C   UNL d   1       1.449   5.109   5.041  0.00  0.00     0.037 A 
ATOM     11  C   UNL d   1       0.685   4.274   4.220  0.00  0.00     0.015 A 
BRANCH   9  12
ATOM     12  O   UNL d   1       3.492   5.911   5.856  0.00  0.00    -0.356 OA
ATOM     13  C   UNL d   1       4.802   5.505   6.242  0.00  0.00     0.210 C 
ENDBRANCH   9  12
ENDBRANCH   4   6
ENDBRANCH   1   3
BRANCH   1  14
ATOM     14  C   UNL d   1       0.835   0.062  -0.046  0.00  0.00     0.186 C 
ATOM     15  S   UNL d   1      -0.184  -0.815  -1.029  0.00  0.00    -0.040 SA
BRANCH  14  16
ATOM     16  N   UNL d   1       2.207   0.118  -0.117  0.00  0.00    -0.366 N 
ATOM     17  H   UNL d   1       2.556   0.822   0.530  0.00  0.00     0.161 HD
BRANCH  16  18
ATOM     18  C   UNL d   1       2.995  -0.208  -1.294  0.00  0.00     0.126 C 
BRANCH  18  19
ATOM     19  C   UNL d   1       4.495  -0.009  -1.071  0.00  0.00     0.058 C 
BRANCH  19  20
ATOM     20  C   UNL d   1       5.272  -0.287  -2.335  0.00  0.00    -0.057 A 
ATOM     21  C   UNL d   1       5.519   0.737  -3.259  0.00  0.00     0.007 A 
ATOM     22  C   UNL d   1       6.190   0.466  -4.454  0.00  0.00     0.001 A 
ATOM     23  C   UNL d   1       6.615  -0.831  -4.737  0.00  0.00     0.000 A 
ATOM     24  C   UNL d   1       6.373  -1.856  -3.824  0.00  0.00     0.001 A 
ATOM     25  C   UNL d   1       5.704  -1.587  -2.630  0.00  0.00     0.007 A 
ENDBRANCH  19  20
ENDBRANCH  18  19
ENDBRANCH  16  18
ENDBRANCH  14  16
ENDBRANCH   1  14
TORSDOF 8
