REMARK  0 active torsions:
REMARK  status: ('A' for Active; 'I' for Inactive)
ROOT
ATOM      1  N   UNL d   1      -3.610   0.944   0.064  0.00  0.00    -0.005 N 
ATOM      2  C   UNL d   1      -3.025   2.196   0.065  0.00  0.00     0.730 A 
ATOM      3  C   UNL d   1      -1.681  -0.132   0.026  0.00  0.00     0.089 A 
ATOM      4  N   UNL d   1      -2.981  -0.248   0.044  0.00  0.00    -0.263 N 
ATOM      5  HN  UNL d   1      -3.468  -1.145   0.044  1.00  0.00     0.189 HD
ATOM      6  N   UNL d   1      -1.674   2.343   0.041  0.00  0.00    -0.185 N 
ATOM      7  HN  UNL d   1      -1.226   3.259   0.038  1.00  0.00     0.184 HD
ATOM      8  C   UNL d   1      -0.988   1.233   0.023  0.00  0.00     0.089 A 
ATOM      9  N   UNL d   1      -4.942   1.060   0.091  0.00  0.00     0.031 NA
ATOM     10  N   UNL d   1      -3.999   3.083   0.095  0.00  0.00    -0.115 N 
ATOM     11  HN  UNL d   1      -3.902   4.098   0.104  1.00  0.00     0.203 HD
ATOM     12  N   UNL d   1      -5.175   2.366   0.110  0.00  0.00     0.008 NA
ATOM     13  C   UNL d   1      -0.837  -1.350   0.010  0.00  0.00     0.005 A 
ATOM     14  C   UNL d   1       0.494   1.273   0.004  0.00  0.00     0.005 A 
ATOM     15  C   UNL d   1       0.566  -1.245  -0.001  0.00  0.00    -0.012 A 
ATOM     16  C   UNL d   1       1.238   0.079  -0.001  0.00  0.00    -0.012 A 
ATOM     17  C   UNL d   1      -1.481  -2.602   0.008  0.00  0.00     0.014 A 
ATOM     18  C   UNL d   1       1.127   2.532  -0.004  0.00  0.00     0.014 A 
ATOM     19  C   UNL d   1       2.643   0.215  -0.005  0.00  0.00     0.013 A 
ATOM     20  C   UNL d   1       1.283  -2.462  -0.012  0.00  0.00     0.013 A 
ATOM     21  C   UNL d   1       2.514   2.625  -0.011  0.00  0.00     0.001 A 
ATOM     22  C   UNL d   1       3.272   1.466  -0.010  0.00  0.00     0.001 A 
ATOM     23  C   UNL d   1      -0.742  -3.778  -0.002  0.00  0.00     0.001 A 
ATOM     24  C   UNL d   1       0.642  -3.707  -0.011  0.00  0.00     0.001 A 
ENDROOT
TORSDOF 0
