REMARK  6 active torsions:
REMARK  status: ('A' for Active; 'I' for Inactive)
REMARK    1  A    between atoms: C_6  and  N_1 
REMARK    2  A    between atoms: C_2  and  N_7 
REMARK    3  A    between atoms: N_3  and  C_2 
REMARK       I    between atoms: C_4  and  N_3 
REMARK    4  A    between atoms: O_17  and  C_4 
REMARK    5  A    between atoms: N_7  and  C_16 
REMARK    6  A    between atoms: C_22  and  O_17 
ROOT
ATOM      1  C   UNL d   1       1.029   2.373  -0.841  0.00  0.00     0.030 C 
ATOM      2  C   UNL d   1       1.053   1.984  -2.181  0.00  0.00     0.031 C 
ATOM      3  C   UNL d   1       1.492   3.664  -0.540  0.00  0.00     0.031 C 
ATOM      4  C   UNL d   1       2.198   4.020  -2.827  0.00  0.00     0.034 C 
ATOM      5  C   UNL d   1       1.621   2.799  -3.163  0.00  0.00     0.032 C 
ATOM      6  C   UNL d   1       2.062   4.492  -1.523  0.00  0.00     0.032 C 
ENDROOT
BRANCH   4   7
ATOM      7  N   UNL d   1       2.912   4.782  -3.776  0.00  0.00    -0.333 N 
ATOM      8  H   UNL d   1       2.982   5.779  -3.599  0.00  0.00     0.168 HD
BRANCH   7   9
ATOM      9  C   UNL d   1       3.799   4.295  -4.715  0.00  0.00     0.180 C 
ATOM     10  S   UNL d   1       4.490   2.767  -4.800  0.00  0.00    -0.040 SA
BRANCH   9  11
ATOM     11  N   UNL d   1       4.185   5.171  -5.699  0.00  0.00    -0.279 N 
ATOM     12  C   UNL d   1       3.664   6.389  -6.041  0.00  0.00     0.366 C 
ATOM     13  O   UNL d   1       2.953   7.093  -5.342  0.00  0.00    -0.238 OA
ATOM     14  H   UNL d   1       4.772   4.764  -6.413  0.00  0.00     0.173 HD
BRANCH  12  15
ATOM     15  O   UNL d   1       4.088   6.682  -7.295  0.00  0.00    -0.304 OA
BRANCH  15  16
ATOM     16  C   UNL d   1       3.475   7.810  -7.934  0.00  0.00     0.176 C 
ATOM     17  C   UNL d   1       2.255   7.333  -8.699  0.00  0.00     0.034 C 
ENDBRANCH  15  16
ENDBRANCH  12  15
ENDBRANCH   9  11
ENDBRANCH   7   9
ENDBRANCH   4   7
BRANCH   1  18
ATOM     18  N   UNL d   1       0.647   1.516   0.180  0.00  0.00    -0.376 N 
ATOM     19  C   UNL d   1       0.851   0.061   0.051  0.00  0.00     0.154 C 
ATOM     20  C   UNL d   1      -0.455  -0.669  -0.325  0.00  0.00     0.136 C 
ATOM     21  C   UNL d   1      -0.264  -2.179  -0.258  0.00  0.00     0.041 C 
ATOM     22  O   UNL d   1      -1.521  -0.322   0.580  0.00  0.00    -0.378 OA
ATOM     23  C   UNL d   1      -1.764   1.100   0.554  0.00  0.00     0.136 C 
ATOM     24  C   UNL d   1      -0.513   1.884   1.010  0.00  0.00     0.154 C 
ATOM     25  C   UNL d   1      -2.945   1.372   1.476  0.00  0.00     0.041 C 
ENDBRANCH   1  18
TORSDOF 6
