REMARK  6 active torsions:
REMARK  status: ('A' for Active; 'I' for Inactive)
REMARK       I    between atoms: N_2  and  C_1 
REMARK    1  A    between atoms: C_3  and  C_1 
REMARK    2  A    between atoms: N_4  and  N_2 
REMARK    3  A    between atoms: C_8  and  N_4 
REMARK    4  A    between atoms: O_17  and  C_9 
REMARK    5  A    between atoms: C_18  and  C_12 
REMARK    6  A    between atoms: C_20  and  C_18 
ROOT
ATOM      1  C   UNL d   1       1.066  -0.160  -0.100  0.00  0.00     0.266 C 
ATOM      2  N   UNL d   1       0.305  -1.054   0.632  0.00  0.00    -0.283 N 
ATOM      3  O   UNL d   1       2.287  -0.215  -0.197  0.00  0.00    -0.266 OA
ATOM      4  H   UNL d   1      -0.576  -0.738   1.031  0.00  0.00     0.184 HD
ENDROOT
BRANCH   2   5
ATOM      5  N   UNL d   1       0.978  -2.013   1.393  0.00  0.00    -0.203 NA
ATOM      6  H   UNL d   1       1.968  -2.092   1.130  0.00  0.00     0.153 HD
BRANCH   5   7
ATOM      7  C   UNL d   1       0.342  -3.275   1.481  0.00  0.00     0.027 A 
ATOM      8  C   UNL d   1      -0.965  -3.520   1.038  0.00  0.00     0.028 A 
ATOM      9  C   UNL d   1      -1.593  -4.755   1.257  0.00  0.00     0.038 A 
ATOM     10  C   UNL d   1      -0.930  -5.763   1.953  0.00  0.00     0.068 A 
ATOM     11  C   UNL d   1       0.369  -5.532   2.402  0.00  0.00     0.038 A 
ATOM     12  C   UNL d   1       0.998  -4.301   2.173  0.00  0.00     0.028 A 
BRANCH  10  13
ATOM     13  O   UNL d   1      -1.440  -6.993   2.263  0.00  0.00    -0.356 OA
ATOM     14  C   UNL d   1      -2.772  -7.262   1.843  0.00  0.00     0.210 C 
ENDBRANCH  10  13
ENDBRANCH   5   7
ENDBRANCH   2   5
BRANCH   1  15
ATOM     15  C   UNL d   1       0.284   0.915  -0.769  0.00  0.00     0.033 A 
ATOM     16  C   UNL d   1       0.870   2.167  -0.977  0.00  0.00     0.017 A 
ATOM     17  C   UNL d   1       0.144   3.180  -1.612  0.00  0.00     0.008 A 
ATOM     18  C   UNL d   1      -1.167   2.950  -2.055  0.00  0.00    -0.058 A 
ATOM     19  C   UNL d   1      -1.734   1.683  -1.867  0.00  0.00     0.008 A 
ATOM     20  C   UNL d   1      -1.018   0.673  -1.226  0.00  0.00     0.017 A 
BRANCH  18  21
ATOM     21  C   UNL d   1      -1.951   4.045  -2.740  0.00  0.00     0.038 C 
BRANCH  21  22
ATOM     22  C   UNL d   1      -3.257   4.418  -2.029  0.00  0.00     0.000 C 
ATOM     23  C   UNL d   1      -3.038   4.976  -0.630  0.00  0.00     0.005 C 
ENDBRANCH  21  22
ENDBRANCH  18  21
ENDBRANCH   1  15
TORSDOF 6
