REMARK  6 active torsions:
REMARK  status: ('A' for Active; 'I' for Inactive)
REMARK    1  A    between atoms: C_6  and  N_1 
REMARK    2  A    between atoms: N_11  and  C_6 
REMARK    3  A    between atoms: C_12  and  N_11 
REMARK    4  A    between atoms: C_17  and  N_11 
REMARK    5  A    between atoms: C_16  and  C_12 
REMARK    6  A    between atoms: C_13  and  C_17 
ROOT
ATOM      1  N   UNL d   1       8.393   1.000  -1.938  0.00  0.00    -0.197 NA
ATOM      2  C   UNL d   1       7.236   0.985  -1.845  0.00  0.00     0.060 C 
ATOM      3  C   UNL d   1       5.775   0.940  -1.716  0.00  0.00     0.154 C 
ENDROOT
BRANCH   3   4
ATOM      4  C   UNL d   1       5.360   1.272  -0.275  0.00  0.00     0.289 C 
BRANCH   4   5
ATOM      5  N   UNL d   1       3.893   1.354  -0.058  0.00  0.00     0.111 N 
BRANCH   5   6
ATOM      6  C   UNL d   1       3.259   0.045  -0.303  0.00  0.00     0.408 C 
BRANCH   6   7
ATOM      7  N   UNL d   1       1.842   0.085  -0.053  0.00  0.00    -0.252 N 
ATOM      8  C   UNL d   1       0.936   0.785  -0.802  0.00  0.00     0.263 A 
ATOM      9  C   UNL d   1      -0.360   0.595  -0.153  0.00  0.00     0.048 A 
ATOM     10  O   UNL d   1       1.096   1.434  -1.818  0.00  0.00    -0.267 OA
ATOM     11  C   UNL d   1      -1.584   1.180  -0.409  0.00  0.00     0.018 A 
ATOM     12  C   UNL d   1      -0.182  -0.304   0.883  0.00  0.00     0.048 A 
ATOM     13  C   UNL d   1      -2.648   0.825   0.427  0.00  0.00     0.001 A 
ATOM     14  C   UNL d   1      -2.468  -0.107   1.472  0.00  0.00     0.001 A 
ATOM     15  C   UNL d   1      -1.220  -0.689   1.708  0.00  0.00     0.018 A 
ATOM     16  C   UNL d   1       1.233  -0.657   0.920  0.00  0.00     0.263 A 
ATOM     17  O   UNL d   1       1.720  -1.456   1.697  0.00  0.00    -0.267 OA
ENDBRANCH   6   7
ENDBRANCH   5   6
BRANCH   5  18
ATOM     18  C   UNL d   1       3.599   1.858   1.303  0.00  0.00     0.313 C 
BRANCH  18  19
ATOM     19  C   UNL d   1       4.113   3.263   1.554  0.00  0.00    -0.030 A 
ATOM     20  C   UNL d   1       3.727   4.327   0.725  0.00  0.00     0.009 A 
ATOM     21  C   UNL d   1       4.237   5.609   0.935  0.00  0.00     0.001 A 
ATOM     22  C   UNL d   1       5.129   5.842   1.981  0.00  0.00     0.000 A 
ATOM     23  C   UNL d   1       5.502   4.796   2.824  0.00  0.00     0.001 A 
ATOM     24  C   UNL d   1       4.995   3.514   2.615  0.00  0.00     0.009 A 
ENDBRANCH  18  19
ENDBRANCH   5  18
ENDBRANCH   4   5
ENDBRANCH   3   4
TORSDOF 6
