REMARK  7 active torsions:
REMARK  status: ('A' for Active; 'I' for Inactive)
REMARK    1  A    between atoms: C_2  and  S_1 
REMARK    2  A    between atoms: N_4  and  S_1 
REMARK    3  A    between atoms: C_9  and  C_5 
REMARK    4  A    between atoms: C_11  and  C_8 
REMARK    5  A    between atoms: O_18  and  C_9 
REMARK    6  A    between atoms: O_19  and  C_11 
REMARK    7  A    between atoms: C_22  and  O_19 
ROOT
ATOM      1  S   UNL d   1       0.883   0.077   0.017  0.00  0.00     0.259 S 
ATOM      2  O   UNL d   1       0.254  -0.489   1.191  0.00  0.00    -0.204 OA
ATOM      3  O   UNL d   1       2.305   0.347  -0.020  0.00  0.00    -0.204 OA
ENDROOT
BRANCH   1   4
ATOM      4  C   UNL d   1       0.097   1.661  -0.183  0.00  0.00     0.146 A 
ATOM      5  N   UNL d   1      -1.274   1.857  -0.259  0.00  0.00    -0.336 N 
ATOM      6  C   UNL d   1      -1.567   3.219  -0.298  0.00  0.00     0.111 A 
ATOM      7  C   UNL d   1      -2.289   0.821  -0.256  0.00  0.00     0.157 C 
ATOM      8  C   UNL d   1      -0.349   3.881  -0.284  0.00  0.00     0.039 A 
ATOM      9  C   UNL d   1       0.675   2.921  -0.222  0.00  0.00     0.046 A 
BRANCH   6  10
ATOM     10  C   UNL d   1      -2.900   3.798  -0.330  0.00  0.00     0.309 C 
ATOM     11  O   UNL d   1      -3.955   3.177  -0.338  0.00  0.00    -0.258 OA
BRANCH  10  12
ATOM     12  O   UNL d   1      -2.808   5.160  -0.341  0.00  0.00    -0.321 OA
ATOM     13  C   UNL d   1      -4.061   5.840  -0.365  0.00  0.00     0.213 C 
ENDBRANCH  10  12
ENDBRANCH   6  10
ENDBRANCH   1   4
BRANCH   1  14
ATOM     14  N   UNL d   1       0.509  -0.922  -1.330  0.00  0.00    -0.204 NA
ATOM     15  C   UNL d   1       1.078  -0.422  -2.623  0.00  0.00     0.122 C 
ATOM     16  C   UNL d   1       0.623  -1.288  -3.805  0.00  0.00     0.100 C 
ATOM     17  C   UNL d   1       0.959  -2.763  -3.543  0.00  0.00     0.017 C 
ATOM     18  C   UNL d   1       0.401  -3.233  -2.204  0.00  0.00     0.016 C 
ATOM     19  C   UNL d   1       0.885  -2.342  -1.067  0.00  0.00     0.107 C 
BRANCH  16  20
ATOM     20  C   UNL d   1      -0.842  -1.017  -4.115  0.00  0.00     0.264 C 
ATOM     21  O   UNL d   1      -1.385   0.071  -3.957  0.00  0.00    -0.265 OA
BRANCH  20  22
ATOM     22  O   UNL d   1      -1.451  -2.108  -4.655  0.00  0.00    -0.322 OA
BRANCH  22  23
ATOM     23  C   UNL d   1      -2.842  -1.958  -4.975  0.00  0.00     0.174 C 
ATOM     24  C   UNL d   1      -3.690  -2.168  -3.735  0.00  0.00     0.034 C 
ENDBRANCH  22  23
ENDBRANCH  20  22
ENDBRANCH  16  20
ENDBRANCH   1  14
TORSDOF 7
