REMARK  4 active torsions:
REMARK  status: ('A' for Active; 'I' for Inactive)
REMARK    1  A    between atoms: S_2  and  N_7 
REMARK    2  A    between atoms: C_11  and  S_2 
REMARK    3  A    between atoms: N_8  and  C_5 
REMARK    4  A    between atoms: N_7  and  N_8 
ROOT
ATOM      1  N   UNL d   1      -2.395   1.755   1.185  0.00  0.00    -0.237 NA
ATOM      2  H   UNL d   1      -2.233   1.316   2.104  0.00  0.00     0.142 HD
ENDROOT
BRANCH   1   3
ATOM      3  N   UNL d   1      -3.783   2.074   1.077  0.00  0.00    -0.147 NA
ATOM      4  H   UNL d   1      -3.938   2.720   0.292  0.00  0.00     0.159 HD
BRANCH   3   5
ATOM      5  S   UNL d   1      -4.261   2.917   2.527  0.00  0.00     0.254 S 
ATOM      6  O   UNL d   1      -3.960   2.055   3.648  0.00  0.00    -0.205 OA
ATOM      7  O   UNL d   1      -3.745   4.265   2.426  0.00  0.00    -0.205 OA
BRANCH   5   8
ATOM      8  C   UNL d   1      -6.020   2.984   2.299  0.00  0.00     0.075 A 
ATOM      9  C   UNL d   1      -6.843   2.021   2.885  0.00  0.00     0.025 A 
ATOM     10  C   UNL d   1      -8.225   2.088   2.682  0.00  0.00     0.008 A 
ATOM     11  C   UNL d   1      -8.785   3.114   1.907  0.00  0.00    -0.062 A 
ATOM     12  C   UNL d   1      -7.948   4.088   1.350  0.00  0.00     0.008 A 
ATOM     13  C   UNL d   1     -10.268   3.152   1.672  0.00  0.00     0.048 C 
ATOM     14  C   UNL d   1      -6.568   4.031   1.550  0.00  0.00     0.025 A 
ENDBRANCH   5   8
ENDBRANCH   3   5
ENDBRANCH   1   3
BRANCH   1  15
ATOM     15  C   UNL d   1      -1.953   0.851   0.111  0.00  0.00     0.121 C 
ATOM     16  C   UNL d   1      -2.603  -0.541   0.209  0.00  0.00     0.171 C 
ATOM     17  S   UNL d   1      -1.308  -1.753   0.013  0.00  0.00     0.178 S 
ATOM     18  C   UNL d   1       0.011  -0.614   0.018  0.00  0.00     0.067 A 
ATOM     19  O   UNL d   1      -1.388  -2.330  -1.312  0.00  0.00    -0.223 OA
ATOM     20  O   UNL d   1      -1.212  -2.550   1.218  0.00  0.00    -0.223 OA
ATOM     21  C   UNL d   1      -0.450   0.696   0.097  0.00  0.00    -0.017 A 
ATOM     22  C   UNL d   1       1.350  -0.955  -0.072  0.00  0.00     0.024 A 
ATOM     23  C   UNL d   1       0.483   1.729   0.058  0.00  0.00     0.010 A 
ATOM     24  C   UNL d   1       1.846   1.418  -0.041  0.00  0.00     0.001 A 
ATOM     25  C   UNL d   1       2.277   0.084  -0.102  0.00  0.00     0.002 A 
ENDBRANCH   1  15
TORSDOF 4
