REMARK  4 active torsions:
REMARK  status: ('A' for Active; 'I' for Inactive)
REMARK    1  A    between atoms: C_7  and  C_1 
REMARK    2  A    between atoms: O_14  and  C_8 
REMARK    3  A    between atoms: O_15  and  C_9 
REMARK    4  A    between atoms: O_16  and  C_10 
ROOT
ATOM      1  C   UNL d   1       2.644  -0.084   0.382  0.00  0.00     0.171 C 
ATOM      2  N   UNL d   1       3.917   0.499  -0.024  0.00  0.00    -0.271 NA
ATOM      3  N   UNL d   1       1.548   0.641  -0.256  0.00  0.00    -0.271 NA
ATOM      4  C   UNL d   1       3.995   1.894   0.159  0.00  0.00     0.022 A 
ATOM      5  C   UNL d   1       1.582   2.031  -0.020  0.00  0.00     0.022 A 
ATOM      6  C   UNL d   1       2.822   2.670   0.153  0.00  0.00     0.017 A 
ATOM      7  C   UNL d   1       2.888   4.070   0.324  0.00  0.00    -0.022 A 
ATOM      8  C   UNL d   1       0.412   2.791  -0.050  0.00  0.00     0.024 A 
ATOM      9  C   UNL d   1       5.237   2.529   0.232  0.00  0.00     0.024 A 
ATOM     10  C   UNL d   1       5.314   3.913   0.394  0.00  0.00     0.003 A 
ATOM     11  C   UNL d   1       0.464   4.169   0.159  0.00  0.00     0.003 A 
ATOM     12  C   UNL d   1       1.693   4.806   0.343  0.00  0.00     0.012 A 
ATOM     13  C   UNL d   1       4.146   4.678   0.455  0.00  0.00     0.012 A 
ATOM     14  H   UNL d   1       4.729   0.002   0.310  0.00  0.00     0.129 HD
ATOM     15  H   UNL d   1       0.641   0.215  -0.153  0.00  0.00     0.129 HD
ENDROOT
BRANCH   1  16
ATOM     16  C   UNL d   1       2.478  -0.214   1.909  0.00  0.00    -0.021 A 
ATOM     17  C   UNL d   1       1.210  -0.170   2.515  0.00  0.00     0.050 A 
ATOM     18  C   UNL d   1       1.025  -0.309   3.903  0.00  0.00     0.104 A 
ATOM     19  C   UNL d   1       2.138  -0.491   4.746  0.00  0.00     0.135 A 
ATOM     20  C   UNL d   1       3.413  -0.584   4.149  0.00  0.00     0.104 A 
ATOM     21  C   UNL d   1       3.569  -0.441   2.759  0.00  0.00     0.050 A 
BRANCH  18  22
ATOM     22  O   UNL d   1      -0.228  -0.207   4.454  0.00  0.00    -0.353 OA
ATOM     23  C   UNL d   1      -1.319  -0.656   3.657  0.00  0.00     0.210 C 
ENDBRANCH  18  22
BRANCH  19  24
ATOM     24  O   UNL d   1       2.115  -0.573   6.113  0.00  0.00    -0.351 OA
ATOM     25  C   UNL d   1       0.890  -0.483   6.821  0.00  0.00     0.210 C 
ENDBRANCH  19  24
BRANCH  20  26
ATOM     26  O   UNL d   1       4.618  -0.758   4.792  0.00  0.00    -0.353 OA
ATOM     27  C   UNL d   1       4.612  -1.539   5.981  0.00  0.00     0.210 C 
ENDBRANCH  20  26
ENDBRANCH   1  16
TORSDOF 4
