REMARK  3 active torsions:
REMARK  status: ('A' for Active; 'I' for Inactive)
REMARK    1  A    between atoms: C_12  and  C_2 
REMARK    2  A    between atoms: C_13  and  C_6 
REMARK    3  A    between atoms: C_16  and  C_11 
REMARK       I    between atoms: N_17  and  C_12 
ROOT
ATOM      1  C   UNL d   1      -0.159  -1.044   0.019  0.00  0.00     0.040 A 
ATOM      2  C   UNL d   1      -2.517  -0.746  -0.066  0.00  0.00     0.101 A 
ATOM      3  C   UNL d   1      -1.470  -1.657  -0.126  0.00  0.00     0.062 A 
ATOM      4  C   UNL d   1      -0.316   0.333   0.109  0.00  0.00     0.103 A 
ATOM      5  S   UNL d   1      -1.927   0.855   0.072  0.00  0.00    -0.062 SA
ATOM      6  C   UNL d   1       1.191  -1.514   0.042  0.00  0.00     0.018 A 
ATOM      7  N   UNL d   1       1.915   0.805   0.195  0.00  0.00    -0.298 N 
ATOM      8  HN  UNL d   1       2.679   1.479   0.247  1.00  0.00     0.187 HD
ATOM      9  N   UNL d   1       0.675   1.235   0.207  0.00  0.00    -0.292 N 
ATOM     10  HN  UNL d   1       0.468   2.230   0.289  1.00  0.00     0.187 HD
ATOM     11  C   UNL d   1       2.199  -0.521   0.115  0.00  0.00     0.070 A 
ATOM     12  N   UNL d   1      -1.679  -2.986  -0.333  0.00  0.00    -0.397 N 
ATOM     13  H   UNL d   1      -2.505  -3.276  -0.857  0.00  0.00     0.156 HD
ATOM     14  H   UNL d   1      -0.893  -3.583  -0.589  0.00  0.00     0.156 HD
ENDROOT
BRANCH   6  15
ATOM     15  C   UNL d   1       1.478  -2.958  -0.043  0.00  0.00    -0.023 A 
ATOM     16  C   UNL d   1       2.242  -3.486  -1.099  0.00  0.00     0.012 A 
ATOM     17  C   UNL d   1       2.574  -4.842  -1.141  0.00  0.00     0.001 A 
ATOM     18  C   UNL d   1       2.110  -5.705  -0.152  0.00  0.00     0.000 A 
ATOM     19  C   UNL d   1       1.333  -5.210   0.891  0.00  0.00     0.001 A 
ATOM     20  C   UNL d   1       1.040  -3.845   0.957  0.00  0.00     0.012 A 
ENDBRANCH   6  15
BRANCH  11  21
ATOM     21  C   UNL d   1       3.653  -0.798   0.017  0.00  0.00    -0.007 A 
ATOM     22  C   UNL d   1       4.287  -1.806   0.765  0.00  0.00     0.014 A 
ATOM     23  C   UNL d   1       5.622  -2.151   0.530  0.00  0.00     0.001 A 
ATOM     24  C   UNL d   1       6.365  -1.461  -0.423  0.00  0.00     0.000 A 
ATOM     25  C   UNL d   1       5.783  -0.408  -1.122  0.00  0.00     0.001 A 
ATOM     26  C   UNL d   1       4.443  -0.081  -0.902  0.00  0.00     0.014 A 
ENDBRANCH  11  21
BRANCH   2  27
ATOM     27  C   UNL d   1      -3.958  -0.940  -0.110  0.00  0.00     0.258 C 
ATOM     28  O   UNL d   1      -4.790  -0.081  -0.377  0.00  0.00    -0.267 OA
ATOM     29  N   UNL d   1      -4.398  -2.196   0.217  0.00  0.00    -0.365 N 
ATOM     30  H   UNL d   1      -3.780  -2.820   0.722  0.00  0.00     0.159 HD
ATOM     31  H   UNL d   1      -5.395  -2.290   0.351  0.00  0.00     0.159 HD
ENDBRANCH   2  27
TORSDOF 3
