REMARK  7 active torsions:
REMARK  status: ('A' for Active; 'I' for Inactive)
REMARK    1  A    between atoms: C_7  and  N_1 
REMARK    2  A    between atoms: S_9  and  C_2 
REMARK    3  A    between atoms: C_20  and  S_9 
REMARK    4  A    between atoms: C_12  and  C_20 
REMARK    5  A    between atoms: O_14  and  C_15 
REMARK    6  A    between atoms: C_16  and  O_14 
REMARK    7  A    between atoms: C_19  and  C_16 
ROOT
ATOM      1  C   UNL d   1       2.093  -1.470  -0.025  0.00  0.00     0.046 A 
ATOM      2  C   UNL d   1       2.261  -2.402  -1.052  0.00  0.00     0.033 A 
ATOM      3  C   UNL d   1       3.047  -1.403   0.997  0.00  0.00     0.033 A 
ATOM      4  C   UNL d   1       4.351  -3.139  -0.062  0.00  0.00     0.069 A 
ATOM      5  C   UNL d   1       4.168  -2.236   0.983  0.00  0.00     0.039 A 
ATOM      6  C   UNL d   1       3.402  -3.209  -1.083  0.00  0.00     0.039 A 
ENDROOT
BRANCH   1   7
ATOM      7  N   UNL d   1       0.984  -0.611  -0.021  0.00  0.00    -0.241 N 
ATOM      8  C   UNL d   1       0.919   0.733   0.193  0.00  0.00     0.170 A 
ATOM      9  N   UNL d   1      -0.285   1.227   0.225  0.00  0.00    -0.275 N 
ATOM     10  N   UNL d   1      -1.087   0.144  -0.000  0.00  0.00    -0.249 N 
ATOM     11  HN  UNL d   1      -0.565   2.195   0.381  1.00  0.00     0.189 HD
ATOM     12  C   UNL d   1      -0.327  -1.009  -0.184  0.00  0.00     0.347 A 
ATOM     13  H   UNL d   1      -2.096   0.200  -0.041  0.00  0.00     0.192 HD
ATOM     14  O   UNL d   1      -0.784  -2.122  -0.400  0.00  0.00    -0.245 OA
BRANCH   8  15
ATOM     15  S   UNL d   1       2.354   1.703   0.263  0.00  0.00    -0.088 SA
BRANCH  15  16
ATOM     16  C   UNL d   1       1.688   3.251   0.907  0.00  0.00     0.108 C 
BRANCH  16  17
ATOM     17  C   UNL d   1       2.793   4.265   0.944  0.00  0.00    -0.026 C 
ATOM     18  C   UNL d   1       3.337   4.760   2.063  0.00  0.00     0.007 C 
ENDBRANCH  16  17
ENDBRANCH  15  16
ENDBRANCH   8  15
ENDBRANCH   1   7
BRANCH   4  19
ATOM     19  O   UNL d   1       5.410  -3.993  -0.195  0.00  0.00    -0.347 OA
BRANCH  19  20
ATOM     20  C   UNL d   1       6.191  -4.209   0.979  0.00  0.00     0.214 C 
BRANCH  20  21
ATOM     21  C   UNL d   1       7.080  -5.402   0.746  0.00  0.00    -0.034 A 
ATOM     22  C   UNL d   1       8.432  -5.238   0.417  0.00  0.00     0.009 A 
ATOM     23  C   UNL d   1       9.247  -6.353   0.214  0.00  0.00     0.001 A 
ATOM     24  C   UNL d   1       8.719  -7.637   0.329  0.00  0.00     0.000 A 
ATOM     25  C   UNL d   1       7.368  -7.810   0.639  0.00  0.00     0.001 A 
ATOM     26  C   UNL d   1       6.553  -6.697   0.841  0.00  0.00     0.009 A 
ENDBRANCH  20  21
ENDBRANCH  19  20
ENDBRANCH   4  19
TORSDOF 7
