REMARK  10 active torsions:
REMARK  status: ('A' for Active; 'I' for Inactive)
REMARK    1  A    between atoms: C_4  and  C_1 
REMARK       I    between atoms: C_2  and  N_5 
REMARK       I    between atoms: N_6  and  C_2 
REMARK    2  A    between atoms: N_5  and  C_3 
REMARK       I    between atoms: N_11  and  C_4 
REMARK    3  A    between atoms: C_12  and  N_6 
REMARK    4  A    between atoms: N_7  and  C_21 
REMARK    5  A    between atoms: C_27  and  N_11 
REMARK    6  A    between atoms: O_13  and  C_14 
REMARK    7  A    between atoms: C_15  and  O_13 
REMARK    8  A    between atoms: C_22  and  C_15 
REMARK    9  A    between atoms: C_21  and  C_23 
REMARK   10  A    between atoms: C_23  and  C_27 
ROOT
ATOM      1  C   UNL d   1       1.748  -4.028  -0.677  0.00  0.00     0.303 C 
ATOM      2  N   UNL d   1       1.050  -2.947  -1.078  0.00  0.00    -0.209 NA
ATOM      3  N   UNL d   1       2.697  -4.558  -1.485  0.00  0.00    -0.313 N 
ATOM      4  O   UNL d   1       1.557  -4.582   0.421  0.00  0.00    -0.253 OA
ATOM      5  H   UNL d   1       1.630  -2.388  -1.690  0.00  0.00     0.138 HD
ATOM      6  H   UNL d   1       3.169  -5.295  -0.980  0.00  0.00     0.170 HD
ENDROOT
BRANCH   2   7
ATOM      7  C   UNL d   1       0.363  -2.119  -0.145  0.00  0.00     0.032 C 
ATOM      8  C   UNL d   1       1.062  -1.185   0.646  0.00  0.00     0.053 C 
ATOM      9  C   UNL d   1       0.521   0.099   0.803  0.00  0.00     0.019 C 
ATOM     10  C   UNL d   1      -0.763   0.393   0.335  0.00  0.00     0.001 C 
ATOM     11  C   UNL d   1      -1.541  -0.615  -0.227  0.00  0.00     0.002 C 
ATOM     12  C   UNL d   1      -0.972  -1.864  -0.486  0.00  0.00     0.025 C 
BRANCH   8  13
ATOM     13  C   UNL d   1       2.314  -1.476   1.414  0.00  0.00     0.253 C 
ATOM     14  O   UNL d   1       3.178  -0.617   1.511  0.00  0.00    -0.268 OA
ATOM     15  N   UNL d   1       2.369  -2.697   2.068  0.00  0.00    -0.357 N 
ATOM     16  H   UNL d   1       1.675  -3.404   1.827  0.00  0.00     0.162 HD
BRANCH  15  17
ATOM     17  C   UNL d   1       3.538  -3.166   2.813  0.00  0.00     0.124 C 
BRANCH  17  18
ATOM     18  C   UNL d   1       3.369  -3.028   4.328  0.00  0.00     0.050 C 
BRANCH  18  19
ATOM     19  C   UNL d   1       4.521  -3.659   5.139  0.00  0.00     0.274 C 
BRANCH  19  20
ATOM     20  N   UNL d   1       5.873  -3.199   4.791  0.00  0.00     0.092 N 
ATOM     21  C   UNL d   1       6.113  -1.765   5.069  0.00  0.00     0.298 C 
ATOM     22  C   UNL d   1       6.358  -1.422   6.551  0.00  0.00     0.198 C 
ATOM     23  O   UNL d   1       7.396  -2.227   7.125  0.00  0.00    -0.388 OA
ATOM     24  C   UNL d   1       7.095  -3.618   6.974  0.00  0.00     0.198 C 
ATOM     25  C   UNL d   1       6.920  -3.983   5.490  0.00  0.00     0.298 C 
ENDBRANCH  19  20
ENDBRANCH  18  19
ENDBRANCH  17  18
ENDBRANCH  15  17
ENDBRANCH   8  13
ENDBRANCH   2   7
BRANCH   3  26
ATOM     26  C   UNL d   1       2.967  -4.541  -2.873  0.00  0.00     0.036 C 
ATOM     27  C   UNL d   1       2.451  -3.695  -3.853  0.00  0.00     0.032 C 
ATOM     28  C   UNL d   1       2.651  -3.993  -5.220  0.00  0.00     0.039 C 
ATOM     29  C   UNL d   1       3.346  -5.138  -5.620  0.00  0.00     0.069 C 
ATOM     30  C   UNL d   1       3.992  -5.887  -4.645  0.00  0.00     0.039 C 
ATOM     31  C   UNL d   1       3.806  -5.587  -3.295  0.00  0.00     0.032 C 
BRANCH  29  32
ATOM     32  O   UNL d   1       3.303  -5.445  -6.956  0.00  0.00    -0.347 OA
BRANCH  32  33
ATOM     33  C   UNL d   1       3.746  -6.756  -7.328  0.00  0.00     0.214 C 
BRANCH  33  34
ATOM     34  C   UNL d   1       2.954  -7.300  -8.496  0.00  0.00    -0.034 A 
ATOM     35  C   UNL d   1       3.520  -7.398  -9.774  0.00  0.00     0.009 A 
ATOM     36  C   UNL d   1       2.807  -7.988 -10.821  0.00  0.00     0.001 A 
ATOM     37  C   UNL d   1       1.521  -8.482 -10.602  0.00  0.00     0.000 A 
ATOM     38  C   UNL d   1       0.944  -8.382  -9.338  0.00  0.00     0.001 A 
ATOM     39  C   UNL d   1       1.655  -7.790  -8.292  0.00  0.00     0.009 A 
ENDBRANCH  33  34
ENDBRANCH  32  33
ENDBRANCH  29  32
ENDBRANCH   3  26
TORSDOF 10
