REMARK  8 active torsions:
REMARK  status: ('A' for Active; 'I' for Inactive)
REMARK    1  A    between atoms: N_2  and  C_1 
REMARK    2  A    between atoms: N_7  and  C_1 
REMARK    3  A    between atoms: C_8  and  N_2 
REMARK    4  A    between atoms: N_3  and  N_7 
REMARK    5  A    between atoms: C_5  and  C_11 
REMARK    6  A    between atoms: O_14  and  C_10 
REMARK    7  A    between atoms: C_20  and  O_14 
REMARK    8  A    between atoms: C_21  and  C_20 
ROOT
ATOM      1  N   UNL d   1       4.806   0.860  -1.105  0.00  0.00    -0.309 N 
ATOM      2  HN  UNL d   1       5.639   1.146  -1.619  1.00  0.00     0.186 HD
ATOM      3  C   UNL d   1       4.505   1.366   0.055  0.00  0.00     0.121 C 
ENDROOT
BRANCH   1   4
ATOM      4  N   UNL d   1       3.944  -0.073  -1.593  0.00  0.00    -0.276 N 
ATOM      5  H   UNL d   1       3.066  -0.263  -1.119  0.00  0.00     0.189 HD
BRANCH   4   6
ATOM      6  C   UNL d   1       4.224  -0.793  -2.736  0.00  0.00     0.191 C 
ATOM      7  S   UNL d   1       3.070  -1.861  -3.303  0.00  0.00    -0.039 SA
BRANCH   6   8
ATOM      8  N   UNL d   1       5.450  -0.492  -3.301  0.00  0.00    -0.332 N 
ATOM      9  H   UNL d   1       5.767   0.433  -3.031  0.00  0.00     0.168 HD
BRANCH   8  10
ATOM     10  C   UNL d   1       6.283  -1.259  -4.138  0.00  0.00     0.037 A 
ATOM     11  C   UNL d   1       6.260  -2.654  -4.150  0.00  0.00     0.071 A 
ATOM     12  C   UNL d   1       7.182  -3.364  -4.916  0.00  0.00     0.118 A 
ATOM     13  F   UNL d   1       7.178  -4.700  -4.880  0.00  0.00    -0.206 F 
ATOM     14  C   UNL d   1       8.129  -2.705  -5.693  0.00  0.00     0.042 A 
ATOM     15  C   UNL d   1       8.157  -1.313  -5.695  0.00  0.00     0.005 A 
ATOM     16  C   UNL d   1       7.249  -0.593  -4.908  0.00  0.00     0.029 A 
ENDBRANCH   8  10
ENDBRANCH   6   8
ENDBRANCH   4   6
ENDBRANCH   1   4
BRANCH   3  17
ATOM     17  C   UNL d   1       5.342   2.442   0.641  0.00  0.00     0.014 A 
ATOM     18  C   UNL d   1       4.973   3.137   1.805  0.00  0.00     0.080 A 
ATOM     19  C   UNL d   1       5.815   4.169   2.256  0.00  0.00     0.037 A 
ATOM     20  C   UNL d   1       6.962   4.533   1.547  0.00  0.00     0.003 A 
ATOM     21  C   UNL d   1       7.312   3.845   0.392  0.00  0.00     0.001 A 
ATOM     22  C   UNL d   1       6.514   2.797  -0.052  0.00  0.00     0.015 A 
BRANCH  18  23
ATOM     23  O   UNL d   1       3.809   2.786   2.449  0.00  0.00    -0.350 OA
BRANCH  23  24
ATOM     24  C   UNL d   1       3.301   3.757   3.375  0.00  0.00     0.175 C 
BRANCH  24  25
ATOM     25  C   UNL d   1       1.885   3.409   3.825  0.00  0.00     0.022 C 
ATOM     26  C   UNL d   1       0.925   3.241   2.660  0.00  0.00     0.007 C 
ENDBRANCH  24  25
ENDBRANCH  23  24
ENDBRANCH  18  23
ENDBRANCH   3  17
TORSDOF 8
