REMARK  5 active torsions:
REMARK  status: ('A' for Active; 'I' for Inactive)
REMARK    1  A    between atoms: C_4  and  C_1 
REMARK    2  A    between atoms: N_5  and  C_4 
REMARK       I    between atoms: C_6  and  N_5 
REMARK    3  A    between atoms: C_13  and  C_6 
REMARK    4  A    between atoms: C_8  and  O_14 
REMARK    5  A    between atoms: O_14  and  C_21 
ROOT
ATOM      1  N   UNL d   1       3.219  -2.143   0.121  0.00  0.00    -0.307 N 
ATOM      2  C   UNL d   1       3.975  -0.981   0.129  0.00  0.00     0.257 C 
ATOM      3  O   UNL d   1       5.167  -0.883  -0.138  0.00  0.00    -0.267 OA
ATOM      4  H   UNL d   1       2.261  -2.103   0.449  0.00  0.00     0.170 HD
ENDROOT
BRANCH   1   5
ATOM      5  C   UNL d   1       3.611  -3.411  -0.240  0.00  0.00     0.129 C 
ATOM      6  N   UNL d   1       4.791  -3.698  -0.661  0.00  0.00    -0.384 N 
ATOM      7  H   UNL d   1       4.905  -4.682  -0.891  0.00  0.00     0.157 HD
ATOM      8  HN  UNL d   1       5.538  -3.009  -0.755  1.00  0.00     0.157 HD
BRANCH   5   9
ATOM      9  C   UNL d   1       2.550  -4.410  -0.106  0.00  0.00     0.083 A 
ATOM     10  N   UNL d   1       1.258  -4.001   0.253  0.00  0.00    -0.351 N 
ATOM     11  C   UNL d   1       0.449  -5.040   0.301  0.00  0.00     0.047 A 
ATOM     12  HN  UNL d   1       0.983  -3.038   0.448  1.00  0.00     0.166 HD
ATOM     13  C   UNL d   1      -1.005  -4.962   0.616  0.00  0.00     0.076 C 
ATOM     14  S   UNL d   1       1.173  -6.556  -0.053  0.00  0.00    -0.087 SA
ATOM     15  C   UNL d   1       2.676  -5.774  -0.298  0.00  0.00     0.084 A 
ENDBRANCH   5   9
ENDBRANCH   1   5
BRANCH   2  16
ATOM     16  C   UNL d   1       3.250   0.253   0.555  0.00  0.00     0.032 A 
ATOM     17  C   UNL d   1       3.979   1.264   1.196  0.00  0.00     0.020 A 
ATOM     18  C   UNL d   1       3.353   2.449   1.608  0.00  0.00     0.038 A 
ATOM     19  C   UNL d   1       1.996   2.644   1.359  0.00  0.00     0.078 A 
ATOM     20  C   UNL d   1       1.269   1.632   0.720  0.00  0.00     0.038 A 
ATOM     21  C   UNL d   1       1.887   0.445   0.312  0.00  0.00     0.020 A 
BRANCH  19  22
ATOM     22  O   UNL d   1       1.262   3.753   1.661  0.00  0.00    -0.255 OA
BRANCH  22  23
ATOM     23  C   UNL d   1       1.933   4.877   2.204  0.00  0.00     0.530 C 
ATOM     24  F   UNL d   1       2.992   5.240   1.451  0.00  0.00    -0.144 F 
ATOM     25  F   UNL d   1       1.070   5.917   2.238  0.00  0.00    -0.144 F 
ATOM     26  F   UNL d   1       2.340   4.625   3.466  0.00  0.00    -0.144 F 
ENDBRANCH  22  23
ENDBRANCH  19  22
ENDBRANCH   2  16
TORSDOF 5
