REMARK  5 active torsions:
REMARK  status: ('A' for Active; 'I' for Inactive)
REMARK    1  A    between atoms: C_11  and  C_6 
REMARK    2  A    between atoms: C_12  and  C_10 
REMARK    3  A    between atoms: C_14  and  C_12 
REMARK    4  A    between atoms: O_20  and  C_14 
REMARK    5  A    between atoms: C_21  and  O_20 
ROOT
ATOM      1  N   UNL d   1      -0.338  -0.593   0.117  0.00  0.00    -0.203 N 
ATOM      2  C   UNL d   1      -0.231   0.781   0.058  0.00  0.00     0.133 A 
ATOM      3  N   UNL d   1      -1.629  -1.008   0.140  0.00  0.00    -0.288 N 
ATOM      4  HN  UNL d   1      -1.979  -1.963   0.217  1.00  0.00     0.188 HD
ATOM      5  C   UNL d   1      -1.506   1.274  -0.022  0.00  0.00     0.083 A 
ATOM      6  C   UNL d   1      -2.337   0.127   0.037  0.00  0.00     0.069 A 
ATOM      7  C   UNL d   1       0.765  -1.468   0.133  0.00  0.00     0.270 A 
ATOM      8  C   UNL d   1       2.084  -0.778   0.089  0.00  0.00     0.101 A 
ATOM      9  N   UNL d   1       0.998   1.345   0.068  0.00  0.00    -0.344 N 
ATOM     10  C   UNL d   1       2.152   0.571   0.066  0.00  0.00     0.025 A 
ATOM     11  O   UNL d   1       0.643  -2.685   0.170  0.00  0.00    -0.266 OA
ATOM     12  H   UNL d   1       1.121   2.337  -0.155  0.00  0.00     0.167 HD
ENDROOT
BRANCH  10  13
ATOM     13  C   UNL d   1       3.489   1.284   0.067  0.00  0.00     0.168 C 
BRANCH  13  14
ATOM     14  C   UNL d   1       3.682   2.113  -1.188  0.00  0.00     0.264 C 
ATOM     15  O   UNL d   1       2.798   2.738  -1.760  0.00  0.00    -0.265 OA
BRANCH  14  16
ATOM     16  O   UNL d   1       4.987   2.062  -1.574  0.00  0.00    -0.322 OA
BRANCH  16  17
ATOM     17  C   UNL d   1       5.252   2.502  -2.914  0.00  0.00     0.174 C 
ATOM     18  C   UNL d   1       5.140   1.293  -3.824  0.00  0.00     0.034 C 
ENDBRANCH  16  17
ENDBRANCH  14  16
ENDBRANCH  13  14
ENDBRANCH  10  13
BRANCH   6  19
ATOM     19  C   UNL d   1      -3.838   0.119  -0.009  0.00  0.00     0.033 A 
ATOM     20  S   UNL d   1      -4.805   1.509  -0.249  0.00  0.00    -0.100 SA
ATOM     21  C   UNL d   1      -6.249   0.595  -0.187  0.00  0.00     0.050 A 
ATOM     22  C   UNL d   1      -6.004  -0.742   0.036  0.00  0.00     0.008 A 
ATOM     23  C   UNL d   1      -4.608  -1.017   0.135  0.00  0.00     0.021 A 
ENDBRANCH   6  19
TORSDOF 5
