REMARK  2 active torsions:
REMARK  status: ('A' for Active; 'I' for Inactive)
REMARK    1  A    between atoms: C_11  and  N_5 
REMARK    2  A    between atoms: C_13  and  C_11 
ROOT
ATOM      1  C   UNL d   1       0.283  -0.730   0.004  0.00  0.00     0.069 A 
ATOM      2  C   UNL d   1       0.250   0.678   0.019  0.00  0.00     0.021 A 
ATOM      3  C   UNL d   1      -0.947  -1.501   0.002  0.00  0.00     0.275 A 
ATOM      4  C   UNL d   1       1.610  -1.118  -0.001  0.00  0.00     0.022 A 
ATOM      5  N   UNL d   1      -2.108  -0.699   0.017  0.00  0.00    -0.253 N 
ATOM      6  N   UNL d   1       2.366   0.036   0.001  0.00  0.00    -0.362 N 
ATOM      7  N   UNL d   1      -2.126   0.712   0.034  0.00  0.00    -0.306 N 
ATOM      8  HN  UNL d   1      -3.015   1.212   0.045  1.00  0.00     0.186 HD
ATOM      9  C   UNL d   1       1.548   1.145   0.014  0.00  0.00     0.018 A 
ATOM     10  C   UNL d   1      -1.005   1.373   0.036  0.00  0.00     0.121 A 
ATOM     11  O   UNL d   1      -0.959  -2.730  -0.002  0.00  0.00    -0.266 OA
ATOM     12  C   UNL d   1       2.249  -2.458  -0.006  0.00  0.00     0.069 C 
ATOM     13  C   UNL d   1       2.109   2.519   0.017  0.00  0.00     0.069 C 
ATOM     14  H   UNL d   1       3.378   0.060  -0.005  0.00  0.00     0.165 HD
ENDROOT
BRANCH   5  15
ATOM     15  C   UNL d   1      -3.409  -1.357  -0.001  0.00  0.00     0.191 C 
BRANCH  15  16
ATOM     16  C   UNL d   1      -3.919  -1.584  -1.407  0.00  0.00    -0.038 A 
ATOM     17  C   UNL d   1      -3.597  -2.761  -2.100  0.00  0.00     0.010 A 
ATOM     18  C   UNL d   1      -4.031  -2.953  -3.414  0.00  0.00     0.024 A 
ATOM     19  C   UNL d   1      -4.789  -1.968  -4.043  0.00  0.00     0.034 A 
ATOM     20  C   UNL d   1      -5.125  -0.797  -3.366  0.00  0.00     0.024 A 
ATOM     21 CL   UNL d   1      -5.303  -2.193  -5.670  0.00  0.00    -0.084 Cl
ATOM     22  C   UNL d   1      -4.687  -0.604  -2.053  0.00  0.00     0.010 A 
ENDBRANCH  15  16
ENDBRANCH   5  15
TORSDOF 2
