REMARK  3 active torsions:
REMARK  status: ('A' for Active; 'I' for Inactive)
REMARK    1  A    between atoms: C_7  and  C_1 
REMARK    2  A    between atoms: O_19  and  C_12 
REMARK    3  A    between atoms: O_20  and  C_15 
ROOT
ATOM      1  C   UNL d   1      -0.038   1.233  -0.169  0.00  0.00     0.113 C 
ATOM      2  C   UNL d   1       1.242   0.429   0.128  0.00  0.00     0.058 C 
ATOM      3  C   UNL d   1      -1.322   0.409   0.030  0.00  0.00     0.058 C 
ATOM      4  N   UNL d   1      -0.038  -1.539   0.454  0.00  0.00    -0.361 N 
ATOM      5  C   UNL d   1      -1.260  -0.918   0.290  0.00  0.00     0.023 C 
ATOM      6  C   UNL d   1       1.187  -0.899   0.375  0.00  0.00     0.023 C 
ATOM      7  C   UNL d   1      -2.579   1.072  -0.071  0.00  0.00     0.098 C 
ATOM      8  C   UNL d   1       2.482   1.131   0.079  0.00  0.00     0.098 C 
ATOM      9  N   UNL d   1       3.499   1.697   0.059  0.00  0.00    -0.192 NA
ATOM     10  N   UNL d   1      -3.608   1.611  -0.122  0.00  0.00    -0.192 NA
ATOM     11  C   UNL d   1       2.391  -1.800   0.513  0.00  0.00     0.069 C 
ATOM     12  C   UNL d   1      -2.481  -1.805   0.342  0.00  0.00     0.069 C 
ATOM     13  H   UNL d   1      -0.035  -2.536   0.661  0.00  0.00     0.165 HD
ENDROOT
BRANCH   1  14
ATOM     14  C   UNL d   1       0.003   1.810  -1.596  0.00  0.00    -0.008 A 
ATOM     15  C   UNL d   1      -0.082   3.166  -1.955  0.00  0.00     0.075 A 
ATOM     16  C   UNL d   1      -0.002   3.522  -3.314  0.00  0.00     0.040 A 
ATOM     17  C   UNL d   1       0.216   2.580  -4.319  0.00  0.00     0.039 A 
ATOM     18  C   UNL d   1       0.367   1.248  -3.980  0.00  0.00     0.068 A 
ATOM     19  C   UNL d   1       0.206   0.867  -2.647  0.00  0.00     0.047 A 
BRANCH  15  20
ATOM     20  O   UNL d   1      -0.102   4.283  -1.173  0.00  0.00    -0.355 OA
ATOM     21  C   UNL d   1      -0.842   4.333   0.029  0.00  0.00     0.210 C 
ENDBRANCH  15  20
BRANCH  18  22
ATOM     22  O   UNL d   1       0.667   0.245  -4.860  0.00  0.00    -0.356 OA
ATOM     23  C   UNL d   1       1.448   0.657  -5.981  0.00  0.00     0.210 C 
ENDBRANCH  18  22
ENDBRANCH   1  14
TORSDOF 3
