REMARK  1 active torsions:
REMARK  status: ('A' for Active; 'I' for Inactive)
REMARK    1  A    between atoms: C_2  and  C_1 
REMARK       I    between atoms: N_5  and  C_2 
ROOT
ATOM      1  C   UNL d   1       5.366  -1.771  -1.076  0.00  0.00     0.246 C 
ATOM      2  N   UNL d   1       4.916  -2.678  -0.091  0.00  0.00    -0.214 NA
ATOM      3  C   UNL d   1       5.500  -4.001  -0.141  0.00  0.00     0.024 A 
ATOM      4  O   UNL d   1       5.206  -2.010  -2.276  0.00  0.00    -0.273 OA
ATOM      5  C   UNL d   1       4.734  -5.159   0.091  0.00  0.00    -0.036 A 
ATOM      6  C   UNL d   1       3.463  -2.630   0.094  0.00  0.00     0.105 C 
ATOM      7  C   UNL d   1       6.873  -4.154  -0.390  0.00  0.00     0.024 A 
ATOM      8  C   UNL d   1       2.904  -3.745   0.962  0.00  0.00     0.020 C 
ATOM      9  C   UNL d   1       3.253  -5.080   0.335  0.00  0.00     0.041 C 
ATOM     10  C   UNL d   1       5.337  -6.428   0.013  0.00  0.00     0.009 A 
ATOM     11  C   UNL d   1       7.469  -5.416  -0.438  0.00  0.00     0.002 A 
ATOM     12  C   UNL d   1       6.699  -6.555  -0.244  0.00  0.00     0.001 A 
ENDROOT
BRANCH   1  13
ATOM     13  C   UNL d   1       5.985  -0.542  -0.625  0.00  0.00     0.090 A 
ATOM     14  S   UNL d   1       7.687  -0.480  -0.528  0.00  0.00    -0.083 SA
ATOM     15  C   UNL d   1       7.709   1.234  -0.466  0.00  0.00     0.017 A 
ATOM     16  C   UNL d   1       8.851   2.060  -0.501  0.00  0.00     0.020 A 
ATOM     17  C   UNL d   1       6.416   1.759  -0.399  0.00  0.00     0.004 A 
ATOM     18  C   UNL d   1       8.685   3.445  -0.490  0.00  0.00     0.001 A 
ATOM     19  C   UNL d   1       7.417   3.998  -0.409  0.00  0.00     0.001 A 
ATOM     20  C   UNL d   1       6.287   3.173  -0.350  0.00  0.00     0.014 A 
ATOM     21  C   UNL d   1       5.426   0.707  -0.461  0.00  0.00     0.067 A 
ATOM     22 CL   UNL d   1       3.741   1.043  -0.474  0.00  0.00    -0.082 Cl
ENDBRANCH   1  13
TORSDOF 1
