REMARK  4 active torsions:
REMARK  status: ('A' for Active; 'I' for Inactive)
REMARK    1  A    between atoms: C_2  and  C_1 
REMARK       I    between atoms: N_6  and  C_2 
REMARK    2  A    between atoms: C_4  and  N_6 
REMARK    3  A    between atoms: C_5  and  C_12 
REMARK    4  A    between atoms: N_11  and  C_9 
ROOT
ATOM      1  C   UNL d   1      -0.314   4.030   0.076  0.00  0.00     0.062 A 
ATOM      2  C   UNL d   1      -0.984   3.229   1.034  0.00  0.00     0.057 A 
ATOM      3  C   UNL d   1      -2.301   5.370  -0.306  0.00  0.00     0.050 A 
ATOM      4  C   UNL d   1      -0.953   5.098  -0.561  0.00  0.00     0.048 A 
ATOM      5  C   UNL d   1      -2.334   3.514   1.278  0.00  0.00     0.032 A 
ATOM      6  C   UNL d   1      -2.986   4.563   0.614  0.00  0.00     0.018 A 
ENDROOT
BRANCH   1   7
ATOM      7  N   UNL d   1       0.995   3.653  -0.300  0.00  0.00    -0.321 N 
ATOM      8  C   UNL d   1       2.023   4.545  -0.525  0.00  0.00     0.258 C 
ATOM      9  O   UNL d   1       1.904   5.767  -0.416  0.00  0.00    -0.267 OA
ATOM     10  H   UNL d   1       1.240   2.704  -0.037  0.00  0.00     0.169 HD
BRANCH   8  11
ATOM     11  C   UNL d   1       3.312   3.923  -0.807  0.00  0.00     0.064 A 
ATOM     12  C   UNL d   1       4.545   4.556  -0.711  0.00  0.00     0.065 A 
ATOM     13  O   UNL d   1       5.550   3.686  -1.007  0.00  0.00    -0.319 OA
ATOM     14  C   UNL d   1       4.997   5.912  -0.327  0.00  0.00     0.077 C 
ATOM     15  C   UNL d   1       4.984   2.487  -1.290  0.00  0.00     0.050 A 
ATOM     16  C   UNL d   1       3.611   2.588  -1.222  0.00  0.00     0.051 A 
ATOM     17  C   UNL d   1       5.923   1.383  -1.563  0.00  0.00     0.076 C 
ENDBRANCH   8  11
ENDBRANCH   1   7
BRANCH   2  18
ATOM     18  N   UNL d   1      -0.289   2.205   1.688  0.00  0.00    -0.375 N 
ATOM     19  C   UNL d   1      -1.012   1.079   2.308  0.00  0.00     0.149 C 
ATOM     20  C   UNL d   1      -0.011  -0.082   2.462  0.00  0.00     0.187 C 
ATOM     21  O   UNL d   1       1.136   0.296   3.249  0.00  0.00    -0.388 OA
ATOM     22  C   UNL d   1       1.797   1.445   2.686  0.00  0.00     0.187 C 
ATOM     23  C   UNL d   1       0.830   2.636   2.568  0.00  0.00     0.149 C 
ENDBRANCH   2  18
BRANCH   3  24
ATOM     24  C   UNL d   1      -3.015   6.481  -1.035  0.00  0.00     0.417 C 
ATOM     25  F   UNL d   1      -2.213   7.196  -1.872  0.00  0.00    -0.166 F 
ATOM     26  F   UNL d   1      -4.035   6.015  -1.809  0.00  0.00    -0.166 F 
ATOM     27  F   UNL d   1      -3.575   7.387  -0.188  0.00  0.00    -0.166 F 
ENDBRANCH   3  24
TORSDOF 4
