REMARK  7 active torsions:
REMARK  status: ('A' for Active; 'I' for Inactive)
REMARK    1  A    between atoms: N_2  and  C_1 
REMARK    2  A    between atoms: N_3  and  C_7 
REMARK    3  A    between atoms: C_5  and  S_9 
REMARK    4  A    between atoms: S_9  and  C_6 
REMARK    5  A    between atoms: C_8  and  C_12 
REMARK    6  A    between atoms: C_12  and  C_19 
REMARK    7  A    between atoms: C_19  and  C_25 
ROOT
ATOM      1  C   UNL d   1       3.608   2.051  -0.471  0.00  0.00     0.149 A 
ATOM      2  N   UNL d   1       4.565   2.467   0.377  0.00  0.00    -0.337 N 
ATOM      3  HN  UNL d   1       4.359   3.114   1.138  1.00  0.00     0.168 HD
ATOM      4  N   UNL d   1       3.807   1.222  -1.508  0.00  0.00    -0.346 N 
ATOM      5  HN  UNL d   1       3.050   0.953  -2.136  1.00  0.00     0.167 HD
ATOM      6  C   UNL d   1       5.809   1.988   0.174  0.00  0.00     0.035 A 
ATOM      7  C   UNL d   1       5.062   0.766  -1.670  0.00  0.00     0.092 A 
ATOM      8  C   UNL d   1       6.109   1.114  -0.850  0.00  0.00     0.046 A 
ENDROOT
BRANCH   1   9
ATOM      9  S   UNL d   1       1.932   2.517  -0.108  0.00  0.00    -0.052 SA
BRANCH   9  10
ATOM     10  C   UNL d   1       1.771   4.114  -0.895  0.00  0.00     0.041 A 
ATOM     11  C   UNL d   1       0.756   4.435  -1.813  0.00  0.00     0.122 A 
ATOM     12  C   UNL d   1       0.650   5.701  -2.413  0.00  0.00     0.073 A 
ATOM     13  C   UNL d   1       1.565   6.693  -2.053  0.00  0.00     0.105 A 
ATOM     14  C   UNL d   1       2.567   6.420  -1.112  0.00  0.00     0.037 A 
ATOM     15  C   UNL d   1       2.662   5.142  -0.541  0.00  0.00     0.024 A 
BRANCH  11  16
ATOM     16  N   UNL d   1      -0.279   3.473  -2.159  0.00  0.00    -0.114 N 
ATOM     17  O   UNL d   1      -0.397   3.190  -3.357  0.00  0.00    -0.532 OA
ATOM     18  O   UNL d   1      -1.018   3.083  -1.246  0.00  0.00    -0.532 OA
ENDBRANCH  11  16
BRANCH  13  19
ATOM     19  N   UNL d   1       1.471   8.030  -2.655  0.00  0.00    -0.116 N 
ATOM     20  O   UNL d   1       0.579   8.217  -3.493  0.00  0.00    -0.532 OA
ATOM     21  O   UNL d   1       2.286   8.886  -2.286  0.00  0.00    -0.532 OA
ENDBRANCH  13  19
ENDBRANCH   9  10
ENDBRANCH   1   9
BRANCH   6  22
ATOM     22  C   UNL d   1       6.866   2.428   1.098  0.00  0.00     0.031 C 
BRANCH  22  23
ATOM     23  C   UNL d   1       6.655   3.263   2.127  0.00  0.00     0.021 C 
BRANCH  23  24
ATOM     24  C   UNL d   1       7.732   3.670   2.963  0.00  0.00     0.010 A 
ATOM     25  C   UNL d   1       8.172   3.132   4.168  0.00  0.00    -0.044 A 
ATOM     26  C   UNL d   1       9.268   3.887   4.708  0.00  0.00     0.015 A 
ATOM     27  C   UNL d   1       7.600   1.936   4.858  0.00  0.00     0.049 C 
ATOM     28  C   UNL d   1       9.625   4.950   3.913  0.00  0.00     0.051 A 
ATOM     29  S   UNL d   1       8.652   5.056   2.519  0.00  0.00    -0.102 SA
ENDBRANCH  23  24
ENDBRANCH  22  23
ENDBRANCH   6  22
TORSDOF 7
