REMARK  8 active torsions:
REMARK  status: ('A' for Active; 'I' for Inactive)
REMARK    1  A    between atoms: O_4  and  S_1 
REMARK    2  A    between atoms: C_2  and  O_4 
REMARK    3  A    between atoms: C_3  and  N_12 
REMARK    4  A    between atoms: N_10  and  C_3 
REMARK    5  A    between atoms: O_21  and  C_5 
REMARK    6  A    between atoms: N_12  and  N_6 
REMARK    7  A    between atoms: C_16  and  N_10 
REMARK    8  A    between atoms: C_15  and  C_17 
ROOT
ATOM      1  N   UNL d   1       0.738  -4.783   6.069  0.00  0.00    -0.309 N 
ATOM      2  HN  UNL d   1       0.118  -4.034   6.376  1.00  0.00     0.186 HD
ATOM      3  C   UNL d   1       1.327  -4.752   4.921  0.00  0.00     0.118 C 
ENDROOT
BRANCH   1   4
ATOM      4  N   UNL d   1       0.991  -5.868   6.845  0.00  0.00    -0.276 N 
ATOM      5  H   UNL d   1       1.521  -6.644   6.465  0.00  0.00     0.189 HD
BRANCH   4   6
ATOM      6  C   UNL d   1       0.751  -5.849   8.194  0.00  0.00     0.191 C 
ATOM      7  S   UNL d   1       0.581  -4.466   9.129  0.00  0.00    -0.039 SA
BRANCH   6   8
ATOM      8  N   UNL d   1       0.692  -7.050   8.844  0.00  0.00    -0.332 N 
ATOM      9  H   UNL d   1       0.726  -6.936   9.852  0.00  0.00     0.168 HD
BRANCH   8  10
ATOM     10  C   UNL d   1       0.305  -8.329   8.393  0.00  0.00     0.034 A 
ATOM     11  C   UNL d   1      -0.169  -8.609   7.106  0.00  0.00     0.032 A 
ATOM     12  C   UNL d   1      -0.610  -9.896   6.778  0.00  0.00     0.044 A 
ATOM     13  C   UNL d   1      -0.600 -10.894   7.742  0.00  0.00     0.116 A 
ATOM     14  C   UNL d   1      -0.146 -10.636   9.027  0.00  0.00     0.044 A 
ATOM     15  F   UNL d   1      -1.054 -12.115   7.433  0.00  0.00    -0.206 F 
ATOM     16  C   UNL d   1       0.310  -9.355   9.350  0.00  0.00     0.032 A 
ENDBRANCH   8  10
ENDBRANCH   6   8
ENDBRANCH   4   6
ENDBRANCH   1   4
BRANCH   3  17
ATOM     17  C   UNL d   1       1.122  -3.603   4.027  0.00  0.00    -0.017 A 
ATOM     18  C   UNL d   1      -0.124  -2.982   3.938  0.00  0.00     0.016 A 
ATOM     19  C   UNL d   1      -0.279  -1.856   3.125  0.00  0.00     0.042 A 
ATOM     20  C   UNL d   1       0.823  -1.327   2.446  0.00  0.00     0.122 A 
ATOM     21  C   UNL d   1       2.087  -1.914   2.615  0.00  0.00     0.103 A 
ATOM     22  C   UNL d   1       2.225  -3.096   3.347  0.00  0.00     0.052 A 
BRANCH  20  23
ATOM     23  O   UNL d   1       0.760  -0.205   1.659  0.00  0.00    -0.230 OA
BRANCH  23  24
ATOM     24  S   UNL d   1      -0.601   0.184   0.846  0.00  0.00     0.266 S 
ATOM     25  O   UNL d   1      -1.503   0.886   1.734  0.00  0.00    -0.199 OA
ATOM     26  O   UNL d   1      -1.041  -0.948   0.053  0.00  0.00    -0.199 OA
ATOM     27  C   UNL d   1       0.129   1.372  -0.251  0.00  0.00     0.194 C 
ENDBRANCH  23  24
ENDBRANCH  20  23
BRANCH  21  28
ATOM     28  O   UNL d   1       3.170  -1.288   2.047  0.00  0.00    -0.353 OA
ATOM     29  C   UNL d   1       4.293  -1.216   2.930  0.00  0.00     0.210 C 
ENDBRANCH  21  28
ENDBRANCH   3  17
TORSDOF 8
