REMARK  4 active torsions:
REMARK  status: ('A' for Active; 'I' for Inactive)
REMARK    1  A    between atoms: N_7  and  C_1 
REMARK    2  A    between atoms: C_9  and  C_2 
REMARK    3  A    between atoms: C_10  and  C_3 
REMARK    4  A    between atoms: S_8  and  N_7 
ROOT
ATOM      1  C   UNL d   1       0.098  -1.166   0.052  0.00  0.00     0.144 A 
ATOM      2  C   UNL d   1       1.324   0.682  -0.150  0.00  0.00     0.147 A 
ATOM      3  C   UNL d   1       1.417  -0.748  -0.023  0.00  0.00     0.053 A 
ATOM      4  N   UNL d   1       0.034   1.083  -0.121  0.00  0.00    -0.292 N 
ATOM      5  HN  UNL d   1      -0.319   2.039  -0.158  1.00  0.00     0.187 HD
ATOM      6  N   UNL d   1      -0.680  -0.045  -0.035  0.00  0.00    -0.279 N 
ATOM      7  C   UNL d   1      -2.123   0.030  -0.046  0.00  0.00     0.179 C 
ENDROOT
BRANCH   1   8
ATOM      8  N   UNL d   1      -0.339  -2.472   0.114  0.00  0.00    -0.268 N 
ATOM      9  H   UNL d   1      -0.689  -2.916  -0.722  0.00  0.00     0.180 HD
BRANCH   8  10
ATOM     10  S   UNL d   1      -0.717  -3.250   1.495  0.00  0.00     0.228 S 
ATOM     11  O   UNL d   1      -2.076  -2.885   1.855  0.00  0.00    -0.206 OA
ATOM     12  O   UNL d   1      -0.392  -4.651   1.311  0.00  0.00    -0.206 OA
ATOM     13  C   UNL d   1       0.331  -2.645   2.791  0.00  0.00     0.186 C 
ENDBRANCH   8  10
ENDBRANCH   1   8
BRANCH   3  14
ATOM     14  C   UNL d   1       2.574  -1.639   0.040  0.00  0.00    -0.020 A 
ATOM     15  C   UNL d   1       3.719  -1.273   0.762  0.00  0.00     0.012 A 
ATOM     16  C   UNL d   1       4.817  -2.135   0.849  0.00  0.00     0.001 A 
ATOM     17  C   UNL d   1       4.774  -3.389   0.244  0.00  0.00     0.000 A 
ATOM     18  C   UNL d   1       3.644  -3.773  -0.466  0.00  0.00     0.001 A 
ATOM     19  C   UNL d   1       2.562  -2.897  -0.585  0.00  0.00     0.012 A 
ENDBRANCH   3  14
BRANCH   2  20
ATOM     20  C   UNL d   1       2.437   1.699  -0.294  0.00  0.00     0.434 C 
ATOM     21  F   UNL d   1       3.590   1.152  -0.757  0.00  0.00    -0.165 F 
ATOM     22  F   UNL d   1       2.120   2.701  -1.155  0.00  0.00    -0.165 F 
ATOM     23  F   UNL d   1       2.734   2.276   0.900  0.00  0.00    -0.165 F 
ENDBRANCH   2  20
TORSDOF 4
