REMARK  3 active torsions:
REMARK  status: ('A' for Active; 'I' for Inactive)
REMARK    1  A    between atoms: C_3  and  C_1 
REMARK    2  A    between atoms: C_6  and  C_2 
REMARK    3  A    between atoms: O_7  and  C_3 
ROOT
ATOM      1  C   UNL d   1       0.032  -1.303   0.543  0.00  0.00     0.046 C 
ATOM      2  C   UNL d   1       0.068   1.250   0.493  0.00  0.00    -0.036 C 
ATOM      3  C   UNL d   1      -0.001  -0.010   1.381  0.00  0.00     0.030 C 
ATOM      4  C   UNL d   1      -1.208  -1.373  -0.364  0.00  0.00     0.020 C 
ATOM      5  C   UNL d   1       1.347  -1.344  -0.262  0.00  0.00     0.020 C 
ATOM      6  C   UNL d   1      -1.187   1.265  -0.421  0.00  0.00     0.010 C 
ATOM      7  C   UNL d   1       1.364   1.192  -0.359  0.00  0.00     0.010 C 
ATOM      8  C   UNL d   1      -1.765  -0.061  -0.908  0.00  0.00     0.002 C 
ATOM      9  C   UNL d   1       1.570  -0.110  -1.126  0.00  0.00     0.002 C 
ENDROOT
BRANCH   1  10
ATOM     10  C   UNL d   1       0.018  -2.511   1.491  0.00  0.00     0.148 C 
ATOM     11  O   UNL d   1       0.034  -2.443   2.715  0.00  0.00    -0.649 OA
BRANCH  10  12
ATOM     12  O   UNL d   1      -0.009  -3.712   0.863  0.00  0.00    -0.776 OA
ATOM     13  H   UNL d   1      -0.024  -3.666  -0.109  0.00  0.00     0.167 HD
ENDBRANCH  10  12
ENDBRANCH   1  10
BRANCH   2  14
ATOM     14  C   UNL d   1       0.043   2.559   1.385  0.00  0.00    -0.014 C 
ATOM     15  C   UNL d   1       1.196   2.686   2.393  0.00  0.00     0.010 C 
ATOM     16  C   UNL d   1      -0.014   3.862   0.567  0.00  0.00     0.010 C 
ENDBRANCH   2  14
TORSDOF 3
