REMARK  5 active torsions:
REMARK  status: ('A' for Active; 'I' for Inactive)
REMARK    1  A    between atoms: N_9  and  C_1 
REMARK    2  A    between atoms: C_13  and  N_4 
REMARK    3  A    between atoms: C_11  and  C_6 
REMARK    4  A    between atoms: C_12  and  C_6 
REMARK    5  A    between atoms: N_7  and  N_9 
ROOT
ATOM      1  C   UNL d   1      -0.268  -1.202   0.067  0.00  0.00     0.121 A 
ATOM      2  C   UNL d   1       1.134  -0.675   0.058  0.00  0.00     0.291 A 
ATOM      3  N   UNL d   1      -0.323   1.075   0.330  0.00  0.00    -0.289 N 
ATOM      4  N   UNL d   1       1.049   0.709   0.157  0.00  0.00    -0.217 N 
ATOM      5  C   UNL d   1      -1.052  -0.118   0.177  0.00  0.00     0.053 A 
ATOM      6  O   UNL d   1       2.107  -1.421  -0.002  0.00  0.00    -0.264 OA
ATOM      7  C   UNL d   1      -0.771   2.355  -0.211  0.00  0.00     0.178 C 
ATOM      8  C   UNL d   1      -2.544  -0.198   0.167  0.00  0.00     0.072 C 
ENDROOT
BRANCH   1   9
ATOM      9  N   UNL d   1      -0.490  -2.560  -0.058  0.00  0.00    -0.198 NA
ATOM     10  H   UNL d   1       0.317  -2.994   0.400  0.00  0.00     0.153 HD
BRANCH   9  11
ATOM     11  N   UNL d   1      -0.738  -3.034  -1.322  0.00  0.00    -0.310 N 
ATOM     12  C   UNL d   1      -0.594  -4.304  -1.587  0.00  0.00     0.134 C 
ATOM     13  HN  UNL d   1      -1.037  -2.392  -2.056  1.00  0.00     0.181 HD
BRANCH  12  14
ATOM     14  C   UNL d   1      -0.226  -5.368  -0.585  0.00  0.00     0.176 C 
ATOM     15  O   UNL d   1      -1.038  -6.264  -0.378  0.00  0.00    -0.291 OA
ATOM     16  C   UNL d   1       1.133  -5.323   0.050  0.00  0.00     0.098 C 
ENDBRANCH  12  14
BRANCH  12  17
ATOM     17  C   UNL d   1      -0.853  -4.711  -3.017  0.00  0.00     0.176 C 
ATOM     18  O   UNL d   1      -0.040  -5.436  -3.576  0.00  0.00    -0.291 OA
ATOM     19  C   UNL d   1      -2.102  -4.187  -3.666  0.00  0.00     0.098 C 
ENDBRANCH  12  17
ENDBRANCH   9  11
ENDBRANCH   1   9
BRANCH   4  20
ATOM     20  C   UNL d   1       2.140   1.607   0.110  0.00  0.00     0.060 A 
ATOM     21  C   UNL d   1       3.275   1.283  -0.652  0.00  0.00     0.031 A 
ATOM     22  C   UNL d   1       4.349   2.170  -0.758  0.00  0.00     0.002 A 
ATOM     23  C   UNL d   1       4.315   3.386  -0.085  0.00  0.00     0.000 A 
ATOM     24  C   UNL d   1       3.213   3.707   0.703  0.00  0.00     0.002 A 
ATOM     25  C   UNL d   1       2.134   2.822   0.801  0.00  0.00     0.031 A 
ENDBRANCH   4  20
TORSDOF 5
