REMARK  6 active torsions:
REMARK  status: ('A' for Active; 'I' for Inactive)
REMARK    1  A    between atoms: C_4  and  C_1 
REMARK       I    between atoms: N_7  and  C_4 
REMARK    2  A    between atoms: C_6  and  N_7 
REMARK    3  A    between atoms: N_10  and  C_9 
REMARK    4  A    between atoms: C_11  and  C_12 
REMARK    5  A    between atoms: O_19  and  C_11 
REMARK    6  A    between atoms: C_24  and  O_19 
ROOT
ATOM      1  C   UNL d   1       4.102  -2.491  -0.253  0.00  0.00     0.062 A 
ATOM      2  C   UNL d   1       4.429  -3.428   0.755  0.00  0.00     0.057 A 
ATOM      3  C   UNL d   1       2.564  -4.037  -1.331  0.00  0.00     0.041 A 
ATOM      4  C   UNL d   1       3.192  -2.795  -1.284  0.00  0.00     0.049 A 
ATOM      5  C   UNL d   1       3.791  -4.678   0.660  0.00  0.00     0.033 A 
ATOM      6  C   UNL d   1       2.873  -4.985  -0.357  0.00  0.00     0.020 A 
ENDROOT
BRANCH   1   7
ATOM      7  N   UNL d   1       4.606  -1.171  -0.196  0.00  0.00    -0.320 N 
ATOM      8  C   UNL d   1       5.176  -0.548  -1.299  0.00  0.00     0.264 C 
ATOM      9  O   UNL d   1       5.261  -1.091  -2.401  0.00  0.00    -0.267 OA
ATOM     10  H   UNL d   1       4.888  -0.854   0.726  0.00  0.00     0.169 HD
BRANCH   8  11
ATOM     11  C   UNL d   1       5.742   0.764  -1.044  0.00  0.00     0.096 A 
ATOM     12  S   UNL d   1       7.228   1.157  -1.794  0.00  0.00    -0.082 SA
ATOM     13  C   UNL d   1       7.168   2.786  -1.258  0.00  0.00     0.017 A 
ATOM     14  C   UNL d   1       8.098   3.803  -1.551  0.00  0.00     0.020 A 
ATOM     15  C   UNL d   1       6.032   3.026  -0.479  0.00  0.00     0.004 A 
ATOM     16  C   UNL d   1       7.852   5.097  -1.091  0.00  0.00     0.001 A 
ATOM     17  C   UNL d   1       6.717   5.374  -0.343  0.00  0.00     0.001 A 
ATOM     18  C   UNL d   1       5.819   4.352  -0.022  0.00  0.00     0.014 A 
ATOM     19  C   UNL d   1       5.257   1.821  -0.305  0.00  0.00     0.068 A 
ATOM     20 CL   UNL d   1       3.823   1.798   0.643  0.00  0.00    -0.082 Cl
ENDBRANCH   8  11
ENDBRANCH   1   7
BRANCH   2  21
ATOM     21  N   UNL d   1       5.337  -3.153   1.790  0.00  0.00    -0.379 N 
ATOM     22  C   UNL d   1       5.294  -3.928   3.043  0.00  0.00     0.123 C 
ATOM     23  C   UNL d   1       6.424  -4.957   3.078  0.00  0.00     0.020 C 
ATOM     24  C   UNL d   1       7.772  -4.258   2.937  0.00  0.00     0.003 C 
ATOM     25  C   UNL d   1       7.812  -3.447   1.650  0.00  0.00     0.020 C 
ATOM     26  C   UNL d   1       6.626  -2.490   1.525  0.00  0.00     0.123 C 
ENDBRANCH   2  21
BRANCH   3  27
ATOM     27  C   UNL d   1       1.602  -4.406  -2.403  0.00  0.00     0.293 C 
ATOM     28  O   UNL d   1       1.116  -5.520  -2.519  0.00  0.00    -0.259 OA
BRANCH  27  29
ATOM     29  O   UNL d   1       1.404  -3.356  -3.236  0.00  0.00    -0.318 OA
BRANCH  29  30
ATOM     30  C   UNL d   1       0.757  -3.658  -4.479  0.00  0.00     0.174 C 
ATOM     31  C   UNL d   1       1.817  -4.071  -5.483  0.00  0.00     0.034 C 
ENDBRANCH  29  30
ENDBRANCH  27  29
ENDBRANCH   3  27
TORSDOF 6
