REMARK  5 active torsions:
REMARK  status: ('A' for Active; 'I' for Inactive)
REMARK    1  A    between atoms: N_7  and  C_1 
REMARK    2  A    between atoms: C_9  and  C_2 
REMARK    3  A    between atoms: S_14  and  C_4 
REMARK    4  A    between atoms: O_20  and  C_9 
REMARK    5  A    between atoms: C_25  and  O_20 
ROOT
ATOM      1  C   UNL d   1       1.740   1.763  -0.105  0.00  0.00     0.062 A 
ATOM      2  C   UNL d   1       3.098   1.337  -0.135  0.00  0.00     0.100 A 
ATOM      3  C   UNL d   1       0.744   0.732  -0.002  0.00  0.00     0.020 A 
ATOM      4  C   UNL d   1       3.399  -0.023   0.020  0.00  0.00     0.088 A 
ATOM      5  N   UNL d   1       2.445  -0.963   0.187  0.00  0.00    -0.349 N 
ATOM      6  HN  UNL d   1       2.704  -1.937   0.348  1.00  0.00     0.166 HD
ATOM      7  C   UNL d   1       1.165  -0.607   0.140  0.00  0.00     0.045 A 
ATOM      8  C   UNL d   1      -0.654   0.964  -0.094  0.00  0.00     0.040 A 
ATOM      9  C   UNL d   1       0.231  -1.632   0.198  0.00  0.00     0.032 A 
ATOM     10  C   UNL d   1      -1.577  -0.078  -0.028  0.00  0.00     0.035 A 
ATOM     11  C   UNL d   1      -1.138  -1.382   0.117  0.00  0.00     0.026 A 
ATOM     12 CL   UNL d   1      -3.260   0.254  -0.138  0.00  0.00    -0.084 Cl
ENDROOT
BRANCH   1  13
ATOM     13  N   UNL d   1       1.276   3.098  -0.204  0.00  0.00    -0.376 N 
ATOM     14  C   UNL d   1       2.006   4.090  -1.018  0.00  0.00     0.153 C 
ATOM     15  C   UNL d   1       1.135   5.342  -1.271  0.00  0.00     0.291 C 
ATOM     16  N   UNL d   1       0.672   5.960  -0.009  0.00  0.00     0.087 N 
ATOM     17  C   UNL d   1      -0.093   4.953   0.756  0.00  0.00     0.291 C 
ATOM     18  C   UNL d   1      -0.121   7.154  -0.282  0.00  0.00     0.310 C 
ATOM     19  C   UNL d   1       0.755   3.687   1.061  0.00  0.00     0.153 C 
ENDBRANCH   1  13
BRANCH   2  20
ATOM     20  C   UNL d   1       4.220   2.219  -0.469  0.00  0.00     0.298 C 
ATOM     21  O   UNL d   1       4.438   2.597  -1.612  0.00  0.00    -0.259 OA
BRANCH  20  22
ATOM     22  O   UNL d   1       4.968   2.486   0.625  0.00  0.00    -0.318 OA
BRANCH  22  23
ATOM     23  C   UNL d   1       6.168   3.247   0.388  0.00  0.00     0.174 C 
ATOM     24  C   UNL d   1       6.029   4.587   1.079  0.00  0.00     0.034 C 
ENDBRANCH  22  23
ENDBRANCH  20  22
ENDBRANCH   2  20
BRANCH   4  25
ATOM     25  S   UNL d   1       5.076  -0.680  -0.032  0.00  0.00    -0.116 SA
ATOM     26  C   UNL d   1       4.755  -2.459   0.149  0.00  0.00     0.097 C 
ENDBRANCH   4  25
TORSDOF 5
