REMARK  5 active torsions:
REMARK  status: ('A' for Active; 'I' for Inactive)
REMARK    1  A    between atoms: C_8  and  C_1 
REMARK       I    between atoms: C_5  and  N_9 
REMARK    2  A    between atoms: C_7  and  C_5 
REMARK    3  A    between atoms: O_17  and  C_8 
REMARK    4  A    between atoms: N_9  and  C_12 
REMARK    5  A    between atoms: C_22  and  O_17 
ROOT
ATOM      1  C   UNL d   1       2.229  -0.086   0.114  0.00  0.00     0.087 C 
ATOM      2  S   UNL d   1       1.322  -1.540   0.099  0.00  0.00    -0.083 SA
ATOM      3  C   UNL d   1       1.408   1.018   0.316  0.00  0.00    -0.027 C 
ATOM      4  C   UNL d   1       0.006   0.652   0.300  0.00  0.00    -0.009 A 
ATOM      5  C   UNL d   1      -0.178  -0.719   0.155  0.00  0.00     0.016 A 
ATOM      6  C   UNL d   1      -1.152   1.472   0.357  0.00  0.00     0.043 A 
ATOM      7  C   UNL d   1      -2.434   0.936   0.220  0.00  0.00     0.035 A 
ATOM      8  C   UNL d   1      -1.463  -1.287   0.060  0.00  0.00     0.022 A 
ATOM      9  C   UNL d   1      -2.578  -0.441   0.079  0.00  0.00     0.031 A 
ATOM     10  C   UNL d   1       1.874   2.440   0.424  0.00  0.00     0.050 C 
ENDROOT
BRANCH   7  11
ATOM     11  N   UNL d   1      -3.600   1.730   0.157  0.00  0.00    -0.323 N 
ATOM     12  C   UNL d   1      -3.683   3.103   0.281  0.00  0.00     0.257 C 
ATOM     13  O   UNL d   1      -2.767   3.863   0.584  0.00  0.00    -0.267 OA
ATOM     14  H   UNL d   1      -4.464   1.229  -0.018  0.00  0.00     0.169 HD
BRANCH  12  15
ATOM     15  C   UNL d   1      -4.994   3.722  -0.061  0.00  0.00     0.054 A 
ATOM     16  C   UNL d   1      -6.248   3.160   0.215  0.00  0.00     0.049 A 
ATOM     17 CL   UNL d   1      -6.461   1.666   1.057  0.00  0.00    -0.083 Cl
ATOM     18  C   UNL d   1      -7.413   3.833  -0.177  0.00  0.00     0.025 A 
ATOM     19  C   UNL d   1      -7.337   5.061  -0.835  0.00  0.00     0.002 A 
ATOM     20  C   UNL d   1      -6.095   5.632  -1.100  0.00  0.00     0.001 A 
ATOM     21  C   UNL d   1      -4.933   4.968  -0.712  0.00  0.00     0.019 A 
ENDBRANCH  12  15
ENDBRANCH   7  11
BRANCH   1  22
ATOM     22  C   UNL d   1       3.667  -0.093  -0.130  0.00  0.00     0.300 C 
ATOM     23  O   UNL d   1       4.376   0.905  -0.206  0.00  0.00    -0.259 OA
BRANCH  22  24
ATOM     24  O   UNL d   1       4.118  -1.357  -0.384  0.00  0.00    -0.317 OA
BRANCH  24  25
ATOM     25  C   UNL d   1       5.374  -1.442  -1.068  0.00  0.00     0.174 C 
ATOM     26  C   UNL d   1       5.114  -1.339  -2.561  0.00  0.00     0.034 C 
ENDBRANCH  24  25
ENDBRANCH  22  24
ENDBRANCH   1  22
TORSDOF 5
