REMARK  19 active torsions:
REMARK  status: ('A' for Active; 'I' for Inactive)
REMARK    1  A    between atoms: C_2  and  C_1 
REMARK    2  A    between atoms: C_3  and  C_1 
REMARK    3  A    between atoms: C_1  and  O_4 
REMARK    4  A    between atoms: C_2  and  O_5 
REMARK    5  A    between atoms: C_8  and  C_2 
REMARK    6  A    between atoms: O_9  and  C_3 
REMARK    7  A    between atoms: C_6  and  O_4 
REMARK    8  A    between atoms: C_7  and  O_5 
REMARK    9  A    between atoms: C_14  and  C_6 
REMARK   10  A    between atoms: C_13  and  C_7 
REMARK   11  A    between atoms: O_18  and  C_8 
REMARK   12  A    between atoms: C_17  and  O_9 
REMARK   13  A    between atoms: N_16  and  C_19 
REMARK   14  A    between atoms: C_22  and  N_16 
REMARK   15  A    between atoms: C_23  and  C_17 
REMARK   16  A    between atoms: C_17  and  C_19 
REMARK   17  A    between atoms: O_20  and  C_23 
REMARK   18  A    between atoms: C_24  and  O_20 
REMARK   19  A    between atoms: C_21  and  C_24 
ROOT
ATOM      1  C   UNL d   1       0.546   1.786   0.315  0.00  0.00     0.271 C 
ENDROOT
BRANCH   1   2
ATOM      2  C   UNL d   1       1.550   0.993  -0.540  0.00  0.00     0.268 C 
BRANCH   2   3
ATOM      3  O   UNL d   1       2.780   1.789  -0.681  0.00  0.00    -0.298 OA
BRANCH   3   4
ATOM      4  C   UNL d   1       2.885   2.648  -1.714  0.00  0.00     0.294 C 
ATOM      5  O   UNL d   1       2.020   2.836  -2.554  0.00  0.00    -0.259 OA
BRANCH   4   6
ATOM      6  C   UNL d   1       4.205   3.344  -1.705  0.00  0.00     0.039 A 
ATOM      7  C   UNL d   1       5.013   3.414  -0.553  0.00  0.00     0.017 A 
ATOM      8  C   UNL d   1       6.230   4.103  -0.588  0.00  0.00     0.001 A 
ATOM      9  C   UNL d   1       6.660   4.715  -1.766  0.00  0.00     0.000 A 
ATOM     10  C   UNL d   1       5.869   4.649  -2.912  0.00  0.00     0.001 A 
ATOM     11  C   UNL d   1       4.645   3.970  -2.879  0.00  0.00     0.017 A 
ENDBRANCH   4   6
ENDBRANCH   3   4
ENDBRANCH   2   3
BRANCH   2  12
ATOM     12  C   UNL d   1       2.081  -0.305   0.070  0.00  0.00     0.173 C 
ATOM     13  O   UNL d   1       3.071  -0.387   0.786  0.00  0.00    -0.648 OA
BRANCH  12  14
ATOM     14  O   UNL d   1       1.430  -1.427  -0.309  0.00  0.00    -0.774 OA
ATOM     15  H   UNL d   1       0.517  -1.272  -0.653  0.00  0.00     0.167 HD
ENDBRANCH  12  14
ENDBRANCH   2  12
ENDBRANCH   1   2
BRANCH   1  16
ATOM     16  C   UNL d   1       0.982   1.983   1.773  0.00  0.00     0.292 C 
ATOM     17  O   UNL d   1       2.146   2.158   2.112  0.00  0.00    -0.262 OA
BRANCH  16  18
ATOM     18  O   UNL d   1      -0.088   2.118   2.625  0.00  0.00    -0.310 OA
BRANCH  18  19
ATOM     19  C   UNL d   1       0.257   2.512   3.977  0.00  0.00     0.183 C 
BRANCH  19  20
ATOM     20  C   UNL d   1      -0.688   3.612   4.528  0.00  0.00     0.202 C 
BRANCH  20  21
ATOM     21  O   UNL d   1      -2.075   3.299   4.714  0.00  0.00    -0.384 OA
BRANCH  21  22
ATOM     22  C   UNL d   1      -2.796   4.496   5.112  0.00  0.00     0.206 C 
BRANCH  22  23
ATOM     23  C   UNL d   1      -4.250   4.270   5.472  0.00  0.00    -0.035 A 
ATOM     24  C   UNL d   1      -4.816   2.991   5.484  0.00  0.00     0.009 A 
ATOM     25  C   UNL d   1      -6.146   2.802   5.866  0.00  0.00     0.001 A 
ATOM     26  C   UNL d   1      -6.935   3.884   6.242  0.00  0.00     0.000 A 
ATOM     27  C   UNL d   1      -6.394   5.167   6.232  0.00  0.00     0.001 A 
ATOM     28  C   UNL d   1      -5.064   5.360   5.843  0.00  0.00     0.009 A 
ENDBRANCH  22  23
ENDBRANCH  21  22
ENDBRANCH  20  21
ENDBRANCH  19  20
BRANCH  19  29
ATOM     29  C   UNL d   1       0.611   1.291   4.865  0.00  0.00     0.304 C 
BRANCH  29  30
ATOM     30  N   UNL d   1      -0.387   0.318   5.307  0.00  0.00     0.089 N 
ATOM     31  H   UNL d   1      -1.108   0.783   5.856  0.00  0.00     0.316 HD
BRANCH  30  32
ATOM     32  C   UNL d   1      -1.011  -0.526   4.285  0.00  0.00     0.212 C 
ATOM     33  C   UNL d   1      -0.042  -1.304   3.388  0.00  0.00     0.042 C 
ATOM     34  C   UNL d   1      -1.904  -1.542   5.010  0.00  0.00     0.042 C 
ENDBRANCH  30  32
ENDBRANCH  29  30
ENDBRANCH  19  29
ENDBRANCH  18  19
ENDBRANCH  16  18
ENDBRANCH   1  16
BRANCH   1  35
ATOM     35  O   UNL d   1      -0.873   1.530   0.182  0.00  0.00    -0.299 OA
BRANCH  35  36
ATOM     36  C   UNL d   1      -1.435   0.306   0.256  0.00  0.00     0.294 C 
ATOM     37  O   UNL d   1      -0.890  -0.735  -0.050  0.00  0.00    -0.259 OA
BRANCH  36  38
ATOM     38  C   UNL d   1      -2.833   0.447   0.789  0.00  0.00     0.039 A 
ATOM     39  C   UNL d   1      -3.639  -0.685   0.973  0.00  0.00     0.017 A 
ATOM     40  C   UNL d   1      -4.924  -0.547   1.520  0.00  0.00     0.001 A 
ATOM     41  C   UNL d   1      -5.405   0.712   1.888  0.00  0.00     0.000 A 
ATOM     42  C   UNL d   1      -4.607   1.836   1.712  0.00  0.00     0.001 A 
ATOM     43  C   UNL d   1      -3.331   1.704   1.166  0.00  0.00     0.017 A 
ENDBRANCH  36  38
ENDBRANCH  35  36
ENDBRANCH   1  35
TORSDOF 19
