REMARK  4 active torsions:
REMARK  status: ('A' for Active; 'I' for Inactive)
REMARK    1  A    between atoms: C_4  and  C_1 
REMARK    2  A    between atoms: N_2  and  C_3 
REMARK       I    between atoms: N_10  and  C_4 
REMARK    3  A    between atoms: N_5  and  C_15 
REMARK    4  A    between atoms: C_8  and  N_14 
ROOT
ATOM      1  C   UNL d   1       4.564  -6.562   0.257  0.00  0.00     0.063 C 
ATOM      2  C   UNL d   1       4.248  -5.583  -0.741  0.00  0.00     0.038 C 
ATOM      3  C   UNL d   1       5.725  -7.349   0.042  0.00  0.00     0.068 C 
ATOM      4  C   UNL d   1       6.439  -7.342  -1.164  0.00  0.00     0.105 C 
ATOM      5  C   UNL d   1       5.097  -5.525  -1.893  0.00  0.00     0.028 C 
ATOM      6  C   UNL d   1       6.136  -6.416  -2.139  0.00  0.00     0.038 C 
ENDROOT
BRANCH   2   7
ATOM      7  N   UNL d   1       3.150  -4.700  -0.715  0.00  0.00    -0.278 NA
ATOM      8  C   UNL d   1       2.635  -4.265  -2.031  0.00  0.00     0.115 C 
ATOM      9  C   UNL d   1       1.184  -3.837  -1.897  0.00  0.00     0.141 C 
ATOM     10  N   UNL d   1       0.905  -2.878  -0.829  0.00  0.00    -0.345 N 
ATOM     11  C   UNL d   1      -0.377  -2.322  -0.627  0.00  0.00     0.263 C 
ATOM     12  C   UNL d   1       1.848  -2.820   0.319  0.00  0.00     0.141 C 
ATOM     13  O   UNL d   1      -0.625  -1.795   0.463  0.00  0.00    -0.267 OA
ATOM     14  C   UNL d   1       3.233  -3.531   0.188  0.00  0.00     0.115 C 
BRANCH  11  15
ATOM     15  C   UNL d   1      -1.362  -2.261  -1.700  0.00  0.00     0.110 C 
ATOM     16  C   UNL d   1      -2.248  -1.228  -1.996  0.00  0.00     0.043 C 
ATOM     17  N   UNL d   1      -3.046  -1.435  -3.124  0.00  0.00    -0.296 N 
ATOM     18  C   UNL d   1      -2.444   0.058  -1.273  0.00  0.00     0.071 C 
ATOM     19  N   UNL d   1      -2.870  -2.644  -3.630  0.00  0.00    -0.061 NA
ATOM     20  HN  UNL d   1      -3.685  -0.740  -3.509  1.00  0.00     0.183 HD
ATOM     21  S   UNL d   1      -1.814  -3.559  -2.724  0.00  0.00     0.007 SA
ENDBRANCH  11  15
ENDBRANCH   2   7
BRANCH   1  22
ATOM     22  N   UNL d   1       3.817  -6.823   1.490  0.00  0.00    -0.318 N 
ATOM     23  C   UNL d   1       4.188  -7.640   2.580  0.00  0.00     0.013 C 
ATOM     24  C   UNL d   1       3.651  -7.059   3.715  0.00  0.00     0.027 C 
ATOM     25  C   UNL d   1       4.921  -8.945   2.574  0.00  0.00     0.068 C 
ATOM     26  C   UNL d   1       2.616  -6.210   3.280  0.00  0.00     0.027 C 
ATOM     27  C   UNL d   1       2.573  -6.341   1.902  0.00  0.00     0.013 C 
ATOM     28  C   UNL d   1       1.363  -6.199   1.054  0.00  0.00     0.068 C 
ENDBRANCH   1  22
BRANCH   4  29
ATOM     29  N   UNL d   1       7.481  -8.347  -1.413  0.00  0.00    -0.116 N 
ATOM     30  O   UNL d   1       7.653  -9.224  -0.552  0.00  0.00    -0.532 OA
ATOM     31  O   UNL d   1       8.106  -8.278  -2.479  0.00  0.00    -0.532 OA
ENDBRANCH   4  29
TORSDOF 4
