REMARK  3 active torsions:
REMARK  status: ('A' for Active; 'I' for Inactive)
REMARK    1  A    between atoms: C_4  and  C_1 
REMARK    2  A    between atoms: C_5  and  C_4 
REMARK    3  A    between atoms: N_8  and  C_5 
ROOT
ATOM      1  C   UNL d   1       1.963  -0.005   0.038  0.00  0.00    -0.004 C 
ATOM      2  S   UNL d   1       0.742   0.099   1.231  0.00  0.00    -0.093 SA
ATOM      3  C   UNL d   1       1.428  -0.335  -1.203  0.00  0.00    -0.037 C 
ATOM      4  C   UNL d   1      -0.024  -0.296  -1.189  0.00  0.00    -0.012 A 
ATOM      5  C   UNL d   1      -0.524  -0.098   0.097  0.00  0.00     0.016 A 
ATOM      6  C   UNL d   1       2.216  -0.652  -2.437  0.00  0.00     0.050 C 
ATOM      7  C   UNL d   1      -0.962  -0.434  -2.244  0.00  0.00     0.013 A 
ATOM      8  C   UNL d   1      -1.907  -0.071   0.362  0.00  0.00     0.019 A 
ATOM      9  C   UNL d   1      -2.336  -0.374  -1.993  0.00  0.00     0.001 A 
ATOM     10  C   UNL d   1      -2.803  -0.205  -0.699  0.00  0.00     0.001 A 
ENDROOT
BRANCH   1  11
ATOM     11  C   UNL d   1       3.410   0.187   0.440  0.00  0.00     0.116 C 
BRANCH  11  12
ATOM     12  C   UNL d   1       3.852   1.657   0.265  0.00  0.00     0.080 C 
ATOM     13  S   UNL d   1       4.435   2.104  -1.266  0.00  0.00    -0.065 SA
BRANCH  12  14
ATOM     14  N   UNL d   1       3.783   2.538   1.354  0.00  0.00    -0.371 N 
ATOM     15  C   UNL d   1       3.426   2.123   2.723  0.00  0.00     0.149 C 
ATOM     16  C   UNL d   1       2.665   3.225   3.469  0.00  0.00     0.187 C 
ATOM     17  O   UNL d   1       3.424   4.439   3.501  0.00  0.00    -0.388 OA
ATOM     18  C   UNL d   1       3.652   4.908   2.166  0.00  0.00     0.187 C 
ATOM     19  C   UNL d   1       4.419   3.876   1.330  0.00  0.00     0.149 C 
ENDBRANCH  12  14
ENDBRANCH  11  12
ENDBRANCH   1  11
TORSDOF 3
