REMARK  5 active torsions:
REMARK  status: ('A' for Active; 'I' for Inactive)
REMARK    1  A    between atoms: C_2  and  C_1 
REMARK    2  A    between atoms: C_10  and  C_1 
REMARK    3  A    between atoms: C_13  and  C_2 
REMARK    4  A    between atoms: N_5  and  N_3 
REMARK    5  A    between atoms: C_7  and  C_9 
ROOT
ATOM      1  C   UNL d   1       0.806  -0.133   0.213  0.00  0.00     0.109 C 
ATOM      2  N   UNL d   1       0.295   1.055   0.416  0.00  0.00    -0.296 N 
ATOM      3  HN  UNL d   1       0.880   1.887   0.497  1.00  0.00     0.187 HD
ENDROOT
BRANCH   1   4
ATOM      4  C   UNL d   1       2.335  -0.128   0.091  0.00  0.00     0.210 C 
ATOM      5  O   UNL d   1       3.008  -0.977   0.659  0.00  0.00    -0.285 OA
BRANCH   4   6
ATOM      6  C   UNL d   1       3.020   0.987  -0.623  0.00  0.00     0.016 A 
ATOM      7  C   UNL d   1       4.301   1.361  -0.191  0.00  0.00     0.015 A 
ATOM      8  C   UNL d   1       4.956   2.444  -0.780  0.00  0.00     0.001 A 
ATOM      9  C   UNL d   1       4.343   3.147  -1.815  0.00  0.00     0.000 A 
ATOM     10  C   UNL d   1       3.079   2.760  -2.272  0.00  0.00     0.001 A 
ATOM     11  C   UNL d   1       2.420   1.679  -1.681  0.00  0.00     0.015 A 
ENDBRANCH   4   6
ENDBRANCH   1   4
BRANCH   1  12
ATOM     12  C   UNL d   1       0.049  -1.440   0.155  0.00  0.00    -0.004 A 
ATOM     13  C   UNL d   1       0.584  -2.613   0.706  0.00  0.00     0.014 A 
ATOM     14  C   UNL d   1      -0.183  -3.782   0.796  0.00  0.00     0.001 A 
ATOM     15  C   UNL d   1      -1.501  -3.795   0.352  0.00  0.00     0.000 A 
ATOM     16  C   UNL d   1      -2.037  -2.656  -0.237  0.00  0.00     0.001 A 
ATOM     17  C   UNL d   1      -1.256  -1.501  -0.363  0.00  0.00     0.014 A 
ENDBRANCH   1  12
BRANCH   2  18
ATOM     18  N   UNL d   1      -1.080   1.115   0.515  0.00  0.00    -0.310 N 
ATOM     19  C   UNL d   1      -1.512   2.192   1.086  0.00  0.00     0.126 C 
ATOM     20  HN  UNL d   1      -1.697   0.380   0.169  1.00  0.00     0.186 HD
BRANCH  19  21
ATOM     21  C   UNL d   1      -2.936   2.407   1.177  0.00  0.00     0.021 A 
ATOM     22  S   UNL d   1      -3.539   3.778   1.995  0.00  0.00    -0.101 SA
ATOM     23  C   UNL d   1      -5.159   3.349   1.646  0.00  0.00     0.050 A 
ATOM     24  C   UNL d   1      -5.241   2.180   0.919  0.00  0.00     0.008 A 
ATOM     25  C   UNL d   1      -3.955   1.634   0.656  0.00  0.00     0.021 A 
ENDBRANCH  19  21
ENDBRANCH   2  18
TORSDOF 5
