REMARK  6 active torsions:
REMARK  status: ('A' for Active; 'I' for Inactive)
REMARK    1  A    between atoms: O_6  and  C_1 
REMARK    2  A    between atoms: C_3  and  C_2 
REMARK       I    between atoms: N_4  and  C_3 
REMARK    3  A    between atoms: N_5  and  N_4 
REMARK    4  A    between atoms: C_7  and  N_5 
REMARK    5  A    between atoms: C_12  and  O_6 
REMARK    6  A    between atoms: O_14  and  C_11 
ROOT
ATOM      1  C   UNL d   1      -0.641   0.701   0.946  0.00  0.00     0.164 A 
ATOM      2  C   UNL d   1       0.512   1.360   0.542  0.00  0.00     0.085 A 
ATOM      3  N   UNL d   1      -0.845  -0.641   0.763  0.00  0.00    -0.346 N 
ATOM      4  HN  UNL d   1      -1.682  -1.094   1.129  1.00  0.00     0.167 HD
ATOM      5  C   UNL d   1       1.445   0.566  -0.168  0.00  0.00     0.023 A 
ATOM      6  C   UNL d   1       0.079  -1.350   0.092  0.00  0.00     0.090 A 
ATOM      7  C   UNL d   1       1.230  -0.789  -0.406  0.00  0.00     0.018 A 
ENDROOT
BRANCH   2   8
ATOM      8  C   UNL d   1       0.961   2.760   0.802  0.00  0.00     0.274 C 
ATOM      9  N   UNL d   1       0.210   3.847   1.188  0.00  0.00    -0.265 N 
ATOM     10  H   UNL d   1       0.756   4.686   1.370  0.00  0.00     0.190 HD
ATOM     11  O   UNL d   1       2.167   2.995   0.646  0.00  0.00    -0.266 OA
BRANCH   9  12
ATOM     12  N   UNL d   1      -1.120   3.949   1.511  0.00  0.00    -0.295 N 
ATOM     13  H   UNL d   1      -1.630   3.098   1.749  0.00  0.00     0.187 HD
BRANCH  12  14
ATOM     14  C   UNL d   1      -1.911   4.822   0.727  0.00  0.00     0.081 A 
ATOM     15  C   UNL d   1      -3.266   5.017   1.068  0.00  0.00     0.096 A 
ATOM     16  C   UNL d   1      -4.109   5.805   0.280  0.00  0.00     0.039 A 
ATOM     17  C   UNL d   1      -3.595   6.476  -0.826  0.00  0.00     0.003 A 
ATOM     18  C   UNL d   1      -2.238   6.377  -1.124  0.00  0.00     0.002 A 
ATOM     19  C   UNL d   1      -1.401   5.571  -0.344  0.00  0.00     0.034 A 
BRANCH  15  20
ATOM     20  O   UNL d   1      -3.841   4.398   2.152  0.00  0.00    -0.354 OA
ATOM     21  C   UNL d   1      -3.402   4.982   3.382  0.00  0.00     0.210 C 
ENDBRANCH  15  20
ENDBRANCH  12  14
ENDBRANCH   9  12
ENDBRANCH   2   8
BRANCH   1  22
ATOM     22  O   UNL d   1      -1.653   1.364   1.609  0.00  0.00    -0.293 OA
BRANCH  22  23
ATOM     23  C   UNL d   1      -2.948   0.947   1.352  0.00  0.00     0.077 A 
ATOM     24  C   UNL d   1      -3.828   0.929   2.434  0.00  0.00     0.037 A 
ATOM     25  C   UNL d   1      -5.152   0.527   2.243  0.00  0.00     0.003 A 
ATOM     26  C   UNL d   1      -5.595   0.157   0.976  0.00  0.00     0.000 A 
ATOM     27  C   UNL d   1      -4.727   0.205  -0.113  0.00  0.00     0.003 A 
ATOM     28  C   UNL d   1      -3.407   0.619   0.071  0.00  0.00     0.037 A 
ENDBRANCH  22  23
ENDBRANCH   1  22
TORSDOF 6
