REMARK  6 active torsions:
REMARK  status: ('A' for Active; 'I' for Inactive)
REMARK    1  A    between atoms: C_16  and  C_1 
REMARK    2  A    between atoms: C_4  and  C_21 
REMARK       I    between atoms: N_10  and  C_4 
REMARK    3  A    between atoms: C_17  and  N_10 
REMARK    4  A    between atoms: S_14  and  C_16 
REMARK    5  A    between atoms: C_21  and  S_14 
REMARK    6  A    between atoms: C_15  and  C_17 
ROOT
ATOM      1  C   UNL d   1      -2.546   5.743   0.021  0.00  0.00     0.227 C 
ATOM      2  N   UNL d   1      -3.718   5.047   0.221  0.00  0.00    -0.356 N 
ATOM      3  O   UNL d   1      -2.514   6.965  -0.120  0.00  0.00    -0.273 OA
ATOM      4  H   UNL d   1      -3.678   4.035   0.147  0.00  0.00     0.162 HD
ENDROOT
BRANCH   1   5
ATOM      5  C   UNL d   1      -1.256   4.940   0.067  0.00  0.00     0.176 C 
BRANCH   5   6
ATOM      6  S   UNL d   1      -1.409   3.232  -0.533  0.00  0.00    -0.155 SA
BRANCH   6   7
ATOM      7  C   UNL d   1      -1.614   3.534  -2.331  0.00  0.00     0.117 C 
BRANCH   7   8
ATOM      8  C   UNL d   1      -1.724   2.220  -3.065  0.00  0.00     0.011 A 
ATOM      9  C   UNL d   1      -2.903   1.452  -3.083  0.00  0.00     0.044 A 
ATOM     10 CL   UNL d   1      -4.359   2.003  -2.329  0.00  0.00    -0.084 Cl
ATOM     11  C   UNL d   1      -2.935   0.202  -3.712  0.00  0.00     0.024 A 
ATOM     12  C   UNL d   1      -1.797  -0.303  -4.342  0.00  0.00     0.005 A 
ATOM     13  C   UNL d   1      -0.627   0.450  -4.348  0.00  0.00     0.043 A 
ATOM     14  C   UNL d   1      -0.602   1.694  -3.714  0.00  0.00     0.125 A 
ATOM     15  F   UNL d   1       0.545   2.389  -3.734  0.00  0.00    -0.205 F 
ENDBRANCH   7   8
ENDBRANCH   6   7
ENDBRANCH   5   6
ENDBRANCH   1   5
BRANCH   2  16
ATOM     16  C   UNL d   1      -5.004   5.694   0.067  0.00  0.00     0.161 C 
BRANCH  16  17
ATOM     17  C   UNL d   1      -6.031   5.382   1.132  0.00  0.00    -0.038 A 
ATOM     18  C   UNL d   1      -7.297   5.990   1.005  0.00  0.00     0.048 A 
ATOM     19  C   UNL d   1      -8.252   5.746   1.971  0.00  0.00     0.105 A 
ATOM     20  O   UNL d   1      -9.509   6.263   1.992  0.00  0.00    -0.323 OA
ATOM     21  C   UNL d   1      -7.999   4.929   3.045  0.00  0.00     0.105 A 
ATOM     22  C   UNL d   1     -10.026   5.664   3.198  0.00  0.00     0.352 A 
ATOM     23  O   UNL d   1      -9.067   4.825   3.878  0.00  0.00    -0.323 OA
ATOM     24  C   UNL d   1      -6.776   4.316   3.210  0.00  0.00     0.040 A 
ATOM     25  C   UNL d   1      -5.784   4.548   2.244  0.00  0.00     0.012 A 
ENDBRANCH  16  17
ENDBRANCH   2  16
TORSDOF 6
