REMARK  4 active torsions:
REMARK  status: ('A' for Active; 'I' for Inactive)
REMARK    1  A    between atoms: C_7  and  C_1 
REMARK    2  A    between atoms: N_10  and  C_2 
REMARK    3  A    between atoms: C_6  and  C_7 
REMARK    4  A    between atoms: C_14  and  N_10 
ROOT
ATOM      1  C   UNL d   1       1.332  -1.155   0.125  0.00  0.00     0.087 A 
ATOM      2  C   UNL d   1       0.544   1.227   0.174  0.00  0.00     0.098 A 
ATOM      3  C   UNL d   1      -0.497   0.310   0.159  0.00  0.00     0.106 A 
ATOM      4  S   UNL d   1       2.047   0.394   0.233  0.00  0.00    -0.064 SA
ATOM      5  C   UNL d   1      -0.047  -1.052   0.107  0.00  0.00     0.071 A 
ATOM      6  C   UNL d   1      -1.875   0.714   0.142  0.00  0.00     0.104 C 
ATOM      7  N   UNL d   1      -2.981   1.058   0.122  0.00  0.00    -0.191 NA
ATOM      8  N   UNL d   1      -0.866  -2.127   0.046  0.00  0.00    -0.397 N 
ATOM      9  H   UNL d   1      -1.876  -2.067  -0.070  0.00  0.00     0.156 HD
ATOM     10  H   UNL d   1      -0.501  -3.060  -0.162  0.00  0.00     0.156 HD
ENDROOT
BRANCH   2  11
ATOM     11  N   UNL d   1       0.460   2.594   0.216  0.00  0.00    -0.349 N 
ATOM     12  H   UNL d   1      -0.438   3.031   0.418  0.00  0.00     0.166 HD
BRANCH  11  13
ATOM     13  C   UNL d   1       1.359   3.526  -0.367  0.00  0.00     0.039 A 
ATOM     14  C   UNL d   1       1.510   4.818   0.183  0.00  0.00    -0.034 A 
ATOM     15  C   UNL d   1       2.429   5.718  -0.397  0.00  0.00     0.032 A 
ATOM     16  C   UNL d   1       0.737   5.309   1.378  0.00  0.00     0.050 C 
ATOM     17  C   UNL d   1       3.209   5.339  -1.487  0.00  0.00     0.034 A 
ATOM     18  C   UNL d   1       3.079   4.070  -2.027  0.00  0.00     0.026 A 
ATOM     19 CL   UNL d   1       4.335   6.447  -2.166  0.00  0.00    -0.084 Cl
ATOM     20  C   UNL d   1       2.154   3.181  -1.477  0.00  0.00     0.031 A 
ENDBRANCH  11  13
ENDBRANCH   2  11
BRANCH   1  21
ATOM     21  C   UNL d   1       2.149  -2.361  -0.019  0.00  0.00     0.225 C 
ATOM     22  O   UNL d   1       1.758  -3.340  -0.656  0.00  0.00    -0.284 OA
BRANCH  21  23
ATOM     23  C   UNL d   1       3.458  -2.345   0.613  0.00  0.00     0.128 A 
ATOM     24  O   UNL d   1       3.640  -1.657   1.783  0.00  0.00    -0.306 OA
ATOM     25  C   UNL d   1       4.939  -1.800   2.146  0.00  0.00     0.086 A 
ATOM     26  C   UNL d   1       5.525  -1.218   3.267  0.00  0.00     0.040 A 
ATOM     27  C   UNL d   1       5.609  -2.610   1.239  0.00  0.00     0.002 A 
ATOM     28  C   UNL d   1       6.883  -1.487   3.467  0.00  0.00     0.026 A 
ATOM     29  C   UNL d   1       7.591  -2.298   2.577  0.00  0.00     0.035 A 
ATOM     30  C   UNL d   1       6.974  -2.871   1.455  0.00  0.00     0.038 A 
ATOM     31 CL   UNL d   1       9.262  -2.605   2.865  0.00  0.00    -0.084 Cl
ATOM     32  C   UNL d   1       4.641  -2.977   0.266  0.00  0.00     0.055 A 
ENDBRANCH  21  23
ENDBRANCH   1  21
TORSDOF 4
