REMARK  4 active torsions:
REMARK  status: ('A' for Active; 'I' for Inactive)
REMARK    1  A    between atoms: C_14  and  N_3 
REMARK    2  A    between atoms: C_15  and  C_10 
REMARK    3  A    between atoms: S_16  and  C_11 
REMARK    4  A    between atoms: C_17  and  C_14 
ROOT
ATOM      1  C   UNL d   1      -0.474  -1.245   0.129  0.00  0.00     0.105 A 
ATOM      2  C   UNL d   1      -0.879  -2.611   0.083  0.00  0.00     0.193 A 
ATOM      3  N   UNL d   1       0.818  -0.773   0.107  0.00  0.00    -0.284 N 
ATOM      4  N   UNL d   1       0.874   0.584   0.107  0.00  0.00    -0.301 N 
ATOM      5  HN  UNL d   1       1.708   1.170   0.110  1.00  0.00     0.187 HD
ATOM      6  C   UNL d   1      -1.278  -0.126   0.153  0.00  0.00     0.063 A 
ATOM      7  O   UNL d   1      -2.199  -3.000   0.101  0.00  0.00    -0.266 OA
ATOM      8  N   UNL d   1      -0.074  -3.646  -0.038  0.00  0.00    -0.275 N 
ATOM      9  HN  UNL d   1       0.946  -3.618  -0.069  1.00  0.00     0.189 HD
ATOM     10  C   UNL d   1      -0.403   0.987   0.102  0.00  0.00     0.036 A 
ATOM     11  C   UNL d   1      -2.109  -4.356  -0.036  0.00  0.00     0.201 A 
ATOM     12  N   UNL d   1      -0.864  -4.773  -0.115  0.00  0.00    -0.272 N 
ATOM     13  HN  UNL d   1      -0.546  -5.737  -0.214  1.00  0.00     0.189 HD
ENDROOT
BRANCH   3  14
ATOM     14  C   UNL d   1       2.067  -1.520  -0.041  0.00  0.00     0.187 C 
BRANCH  14  15
ATOM     15  C   UNL d   1       2.632  -1.992   1.276  0.00  0.00    -0.038 A 
ATOM     16  C   UNL d   1       2.788  -3.365   1.537  0.00  0.00     0.015 A 
ATOM     17  C   UNL d   1       3.265  -3.817   2.775  0.00  0.00    -0.061 A 
ATOM     18  C   UNL d   1       3.347  -5.285   3.081  0.00  0.00     0.048 C 
ATOM     19  C   UNL d   1       3.644  -2.880   3.742  0.00  0.00     0.007 A 
ATOM     20  C   UNL d   1       3.535  -1.515   3.481  0.00  0.00     0.001 A 
ATOM     21  C   UNL d   1       3.026  -1.075   2.260  0.00  0.00     0.009 A 
ENDBRANCH  14  15
ENDBRANCH   3  14
BRANCH  10  22
ATOM     22  C   UNL d   1      -0.765   2.466   0.048  0.00  0.00    -0.007 C 
ATOM     23  C   UNL d   1      -0.900   3.028   1.474  0.00  0.00     0.021 C 
ATOM     24  C   UNL d   1       0.309   3.281  -0.707  0.00  0.00     0.021 C 
ATOM     25  C   UNL d   1      -2.105   2.684  -0.691  0.00  0.00     0.021 C 
ENDBRANCH  10  22
BRANCH  11  26
ATOM     26  S   UNL d   1      -3.499  -5.382  -0.138  0.00  0.00    -0.098 SA
ATOM     27  H   UNL d   1      -4.413  -4.403  -0.161  0.00  0.00     0.110 HD
ENDBRANCH  11  26
TORSDOF 4
