REMARK  4 active torsions:
REMARK  status: ('A' for Active; 'I' for Inactive)
REMARK    1  A    between atoms: C_17  and  N_7 
REMARK    2  A    between atoms: C_19  and  C_10 
REMARK    3  A    between atoms: C_20  and  C_16 
REMARK    4  A    between atoms: C_21  and  C_17 
ROOT
ATOM      1  C   UNL d   1      -1.137   0.965   0.197  0.00  0.00     0.102 A 
ATOM      2  C   UNL d   1      -0.737  -0.344   0.199  0.00  0.00     0.070 A 
ATOM      3  C   UNL d   1       0.690  -0.531   0.101  0.00  0.00     0.041 A 
ATOM      4  C   UNL d   1       1.274   0.733   0.076  0.00  0.00     0.103 A 
ATOM      5  S   UNL d   1       0.170   2.031   0.171  0.00  0.00    -0.062 SA
ATOM      6  C   UNL d   1      -2.517   1.371   0.182  0.00  0.00     0.268 A 
ATOM      7  N   UNL d   1      -3.386   0.293   0.085  0.00  0.00    -0.305 N 
ATOM      8  N   UNL d   1      -1.679  -1.380   0.226  0.00  0.00    -0.350 N 
ATOM      9  HN  UNL d   1      -1.409  -2.361   0.302  1.00  0.00     0.166 HD
ATOM     10  C   UNL d   1       1.583  -1.649   0.024  0.00  0.00     0.018 A 
ATOM     11  N   UNL d   1       3.406  -0.033  -0.123  0.00  0.00    -0.298 N 
ATOM     12  HN  UNL d   1       4.407   0.143  -0.215  1.00  0.00     0.187 HD
ATOM     13  C   UNL d   1      -2.914  -1.005   0.146  0.00  0.00     0.187 A 
ATOM     14  N   UNL d   1       2.586   0.988  -0.021  0.00  0.00    -0.292 N 
ATOM     15  HN  UNL d   1       2.937   1.945  -0.016  1.00  0.00     0.187 HD
ATOM     16  C   UNL d   1       2.958  -1.320  -0.108  0.00  0.00     0.070 A 
ATOM     17  O   UNL d   1      -2.901   2.537   0.249  0.00  0.00    -0.266 OA
ENDROOT
BRANCH   7  18
ATOM     18  C   UNL d   1      -4.819   0.523   0.024  0.00  0.00     0.171 C 
BRANCH  18  19
ATOM     19  C   UNL d   1      -5.474   0.232   1.357  0.00  0.00    -0.040 A 
ATOM     20  C   UNL d   1      -5.216   1.063   2.460  0.00  0.00     0.010 A 
ATOM     21  C   UNL d   1      -5.719   0.740   3.720  0.00  0.00     0.024 A 
ATOM     22  C   UNL d   1      -6.495  -0.403   3.882  0.00  0.00     0.034 A 
ATOM     23  C   UNL d   1      -6.788  -1.222   2.791  0.00  0.00     0.024 A 
ATOM     24 CL   UNL d   1      -7.080  -0.827   5.441  0.00  0.00    -0.084 Cl
ATOM     25  C   UNL d   1      -6.276  -0.901   1.530  0.00  0.00     0.010 A 
ENDBRANCH  18  19
ENDBRANCH   7  18
BRANCH  10  26
ATOM     26  C   UNL d   1       1.058  -3.035   0.112  0.00  0.00    -0.023 A 
ATOM     27  C   UNL d   1       0.010  -3.482  -0.713  0.00  0.00     0.012 A 
ATOM     28  C   UNL d   1      -0.514  -4.775  -0.607  0.00  0.00     0.001 A 
ATOM     29  C   UNL d   1       0.066  -5.689   0.263  0.00  0.00     0.000 A 
ATOM     30  C   UNL d   1       1.147  -5.300   1.046  0.00  0.00     0.001 A 
ATOM     31  C   UNL d   1       1.610  -3.980   0.998  0.00  0.00     0.012 A 
ENDBRANCH  10  26
BRANCH  16  32
ATOM     32  C   UNL d   1       4.077  -2.296  -0.220  0.00  0.00    -0.007 A 
ATOM     33  C   UNL d   1       3.992  -3.472  -0.987  0.00  0.00     0.014 A 
ATOM     34  C   UNL d   1       5.019  -4.422  -0.985  0.00  0.00     0.001 A 
ATOM     35  C   UNL d   1       6.186  -4.188  -0.266  0.00  0.00     0.000 A 
ATOM     36  C   UNL d   1       6.333  -2.999   0.441  0.00  0.00     0.001 A 
ATOM     37  C   UNL d   1       5.289  -2.069   0.466  0.00  0.00     0.014 A 
ENDBRANCH  16  32
TORSDOF 4
