REMARK  5 active torsions:
REMARK  status: ('A' for Active; 'I' for Inactive)
REMARK    1  A    between atoms: C_3  and  C_1 
REMARK    2  A    between atoms: C_6  and  C_2 
REMARK       I    between atoms: N_7  and  C_3 
REMARK    3  A    between atoms: C_10  and  N_7 
REMARK    4  A    between atoms: O_20  and  C_13 
REMARK    5  A    between atoms: O_21  and  C_15 
ROOT
ATOM      1  C   UNL d   1       0.496  -2.473   0.150  0.00  0.00     0.261 C 
ATOM      2  N   UNL d   1      -0.257  -3.494  -0.394  0.00  0.00    -0.320 N 
ATOM      3  O   UNL d   1       1.554  -2.627   0.745  0.00  0.00    -0.267 OA
ATOM      4  H   UNL d   1      -0.907  -3.270  -1.140  0.00  0.00     0.169 HD
ENDROOT
BRANCH   1   5
ATOM      5  C   UNL d   1      -0.134  -1.171   0.048  0.00  0.00     0.093 A 
ATOM      6  C   UNL d   1       0.311   0.102  -0.451  0.00  0.00     0.085 A 
ATOM      7  N   UNL d   1      -0.596   1.040  -0.122  0.00  0.00    -0.259 N 
ATOM      8  O   UNL d   1      -1.652   0.407   0.472  0.00  0.00    -0.241 OA
ATOM      9  HN  UNL d   1      -0.512   2.043  -0.287  1.00  0.00     0.195 HD
ATOM     10  C   UNL d   1      -1.386  -0.911   0.575  0.00  0.00     0.090 A 
ATOM     11  C   UNL d   1      -2.420  -1.728   1.244  0.00  0.00     0.080 C 
BRANCH   6  12
ATOM     12  C   UNL d   1       1.517   0.496  -1.209  0.00  0.00     0.015 A 
ATOM     13  C   UNL d   1       1.522   1.561  -2.143  0.00  0.00     0.046 A 
ATOM     14 CL   UNL d   1       0.115   2.469  -2.602  0.00  0.00    -0.083 Cl
ATOM     15  C   UNL d   1       2.698   1.928  -2.816  0.00  0.00     0.025 A 
ATOM     16  C   UNL d   1       3.882   1.232  -2.604  0.00  0.00     0.002 A 
ATOM     17  C   UNL d   1       3.895   0.170  -1.709  0.00  0.00     0.001 A 
ATOM     18  C   UNL d   1       2.732  -0.185  -1.011  0.00  0.00     0.015 A 
ENDBRANCH   6  12
ENDBRANCH   1   5
BRANCH   2  19
ATOM     19  C   UNL d   1      -0.294  -4.841   0.042  0.00  0.00     0.071 A 
ATOM     20  C   UNL d   1       0.241  -5.252   1.267  0.00  0.00     0.071 A 
ATOM     21  C   UNL d   1       0.039  -6.557   1.761  0.00  0.00     0.092 A 
ATOM     22  C   UNL d   1      -0.713  -7.455   0.994  0.00  0.00     0.070 A 
ATOM     23  C   UNL d   1      -1.211  -7.060  -0.257  0.00  0.00     0.065 A 
ATOM     24 CL   UNL d   1      -1.180  -9.040   1.502  0.00  0.00    -0.081 Cl
ATOM     25  C   UNL d   1      -1.004  -5.764  -0.738  0.00  0.00     0.096 A 
BRANCH  21  26
ATOM     26  O   UNL d   1       0.572  -6.714   3.011  0.00  0.00    -0.354 OA
ATOM     27  C   UNL d   1       0.878  -8.016   3.486  0.00  0.00     0.210 C 
ENDBRANCH  21  26
BRANCH  25  28
ATOM     28  O   UNL d   1      -1.503  -5.302  -1.933  0.00  0.00    -0.354 OA
ATOM     29  C   UNL d   1      -1.672  -6.293  -2.946  0.00  0.00     0.210 C 
ENDBRANCH  25  28
ENDBRANCH   2  19
TORSDOF 5
