REMARK  2 active torsions:
REMARK  status: ('A' for Active; 'I' for Inactive)
REMARK    1  A    between atoms: C_2  and  S_1 
REMARK    2  A    between atoms: C_5  and  S_1 
ROOT
ATOM      1  C   UNL d   1       0.310   1.263   0.915  0.00  0.00     0.167 C 
ATOM      2  C   UNL d   1       0.250   1.324   2.262  0.00  0.00     0.069 C 
ATOM      3  C   UNL d   1      -0.260   2.247   0.071  0.00  0.00     0.114 C 
ATOM      4  N   UNL d   1      -0.719   3.041  -0.638  0.00  0.00    -0.191 NA
ATOM      5  S   UNL d   1      -0.636   2.601   3.095  0.00  0.00    -0.120 SA
ATOM      6  S   UNL d   1       0.983   0.173   3.359  0.00  0.00    -0.120 SA
ATOM      7  C   UNL d   1      -0.331   2.018   4.793  0.00  0.00     0.090 C 
ATOM      8  C   UNL d   1      -0.125   0.517   4.751  0.00  0.00     0.090 C 
ENDROOT
BRANCH   1   9
ATOM      9  S   UNL d   1       1.101  -0.067   0.136  0.00  0.00     0.218 S 
ATOM     10  O   UNL d   1       0.481  -1.317   0.543  0.00  0.00    -0.216 OA
ATOM     11  O   UNL d   1       2.541   0.100   0.239  0.00  0.00    -0.216 OA
BRANCH   9  12
ATOM     12  C   UNL d   1       0.723   0.070  -1.612  0.00  0.00     0.065 A 
ATOM     13  C   UNL d   1       1.632   0.693  -2.473  0.00  0.00     0.025 A 
ATOM     14  C   UNL d   1       1.373   0.714  -3.845  0.00  0.00     0.025 A 
ATOM     15  C   UNL d   1       0.222   0.104  -4.347  0.00  0.00     0.034 A 
ATOM     16  C   UNL d   1      -0.680  -0.524  -3.488  0.00  0.00     0.025 A 
ATOM     17 CL   UNL d   1      -0.075   0.105  -6.042  0.00  0.00    -0.084 Cl
ATOM     18  C   UNL d   1      -0.429  -0.549  -2.115  0.00  0.00     0.025 A 
ENDBRANCH   9  12
ENDBRANCH   1   9
TORSDOF 2
