REMARK  5 active torsions:
REMARK  status: ('A' for Active; 'I' for Inactive)
REMARK    1  A    between atoms: N_7  and  S_1 
REMARK    2  A    between atoms: C_14  and  S_1 
REMARK    3  A    between atoms: C_2  and  C_6 
REMARK    4  A    between atoms: C_11  and  C_5 
REMARK       I    between atoms: C_6  and  N_9 
REMARK    5  A    between atoms: N_9  and  N_7 
ROOT
ATOM      1  C   UNL d   1       0.596  -0.502  -3.893  0.00  0.00     0.287 C 
ATOM      2  N   UNL d   1       0.868  -0.117  -2.597  0.00  0.00    -0.255 N 
ATOM      3  O   UNL d   1       1.098   0.052  -4.869  0.00  0.00    -0.264 OA
ATOM      4  H   UNL d   1       0.469  -0.613  -1.801  0.00  0.00     0.191 HD
ENDROOT
BRANCH   1   5
ATOM      5  C   UNL d   1      -0.292  -1.660  -4.001  0.00  0.00     0.110 A 
ATOM      6  N   UNL d   1      -0.841  -2.306  -2.887  0.00  0.00    -0.345 N 
ATOM      7  C   UNL d   1      -1.558  -3.351  -3.269  0.00  0.00     0.086 A 
ATOM      8  HN  UNL d   1      -0.708  -2.013  -1.919  1.00  0.00     0.167 HD
ATOM      9  S   UNL d   1      -1.640  -3.578  -4.979  0.00  0.00    -0.081 SA
ATOM     10  C   UNL d   1      -0.634  -2.224  -5.215  0.00  0.00     0.087 A 
BRANCH   7  11
ATOM     11  C   UNL d   1      -2.287  -4.251  -2.363  0.00  0.00     0.013 A 
ATOM     12  C   UNL d   1      -2.564  -5.583  -2.671  0.00  0.00     0.101 A 
ATOM     13  N   UNL d   1      -3.247  -6.439  -1.867  0.00  0.00    -0.374 N 
ATOM     14  C   UNL d   1      -3.678  -5.948  -0.688  0.00  0.00     0.087 A 
ATOM     15  HN  UNL d   1      -3.424  -7.405  -2.142  1.00  0.00     0.164 HD
ATOM     16  C   UNL d   1      -3.451  -4.647  -0.274  0.00  0.00     0.018 A 
ATOM     17  C   UNL d   1      -2.742  -3.794  -1.121  0.00  0.00     0.017 A 
ENDBRANCH   7  11
ENDBRANCH   1   5
BRANCH   2  18
ATOM     18  N   UNL d   1       1.849   0.927  -2.389  0.00  0.00    -0.220 N 
ATOM     19  H   UNL d   1       2.259   1.397  -3.203  0.00  0.00     0.200 HD
BRANCH  18  20
ATOM     20  S   UNL d   1       2.613   1.138  -0.910  0.00  0.00     0.276 S 
ATOM     21  O   UNL d   1       1.602   1.076   0.124  0.00  0.00    -0.199 OA
ATOM     22  O   UNL d   1       3.517   2.263  -1.042  0.00  0.00    -0.199 OA
BRANCH  20  23
ATOM     23  C   UNL d   1       3.592  -0.344  -0.804  0.00  0.00     0.081 A 
ATOM     24  C   UNL d   1       4.858  -0.382  -1.399  0.00  0.00     0.025 A 
ATOM     25  C   UNL d   1       5.652  -1.521  -1.252  0.00  0.00     0.002 A 
ATOM     26  C   UNL d   1       5.184  -2.609  -0.512  0.00  0.00     0.000 A 
ATOM     27  C   UNL d   1       3.919  -2.568   0.076  0.00  0.00     0.002 A 
ATOM     28  C   UNL d   1       3.119  -1.435  -0.067  0.00  0.00     0.025 A 
ENDBRANCH  20  23
ENDBRANCH  18  20
ENDBRANCH   2  18
TORSDOF 5
