REMARK  5 active torsions:
REMARK  status: ('A' for Active; 'I' for Inactive)
REMARK    1  A    between atoms: C_2  and  C_1 
REMARK    2  A    between atoms: C_9  and  C_2 
REMARK    3  A    between atoms: C_3  and  C_10 
REMARK    4  A    between atoms: C_12  and  C_4 
REMARK    5  A    between atoms: C_11  and  C_5 
ROOT
ATOM      1  C   UNL d   1       0.897   0.807   0.335  0.00  0.00     0.096 C 
ATOM      2  C   UNL d   1       0.243  -0.024   1.174  0.00  0.00     0.038 C 
ATOM      3  C   UNL d   1       0.204   1.664  -0.567  0.00  0.00     0.103 C 
ATOM      4  N   UNL d   1      -0.354   2.388  -1.282  0.00  0.00    -0.191 NA
ENDROOT
BRANCH   1   5
ATOM      5  C   UNL d   1       2.393   0.757   0.348  0.00  0.00     0.202 C 
ATOM      6  O   UNL d   1       2.987  -0.234   0.773  0.00  0.00    -0.286 OA
BRANCH   5   7
ATOM      7  C   UNL d   1       3.196   1.899  -0.179  0.00  0.00     0.015 A 
ATOM      8  C   UNL d   1       2.777   3.233  -0.085  0.00  0.00     0.015 A 
ATOM      9  C   UNL d   1       3.566   4.258  -0.615  0.00  0.00     0.001 A 
ATOM     10  C   UNL d   1       4.794   3.964  -1.204  0.00  0.00     0.000 A 
ATOM     11  C   UNL d   1       5.242   2.646  -1.258  0.00  0.00     0.001 A 
ATOM     12  C   UNL d   1       4.447   1.617  -0.748  0.00  0.00     0.015 A 
ENDBRANCH   5   7
ENDBRANCH   1   5
BRANCH   2  13
ATOM     13  C   UNL d   1      -1.219  -0.085   1.271  0.00  0.00    -0.035 A 
ATOM     14  C   UNL d   1      -1.951  -0.916   0.417  0.00  0.00     0.013 A 
ATOM     15  C   UNL d   1      -3.348  -0.914   0.462  0.00  0.00     0.021 A 
ATOM     16  C   UNL d   1      -4.019  -0.083   1.362  0.00  0.00     0.018 A 
ATOM     17  C   UNL d   1      -3.290   0.741   2.221  0.00  0.00     0.021 A 
ATOM     18  C   UNL d   1      -1.893   0.741   2.178  0.00  0.00     0.013 A 
BRANCH  16  19
ATOM     19  C   UNL d   1      -5.449  -0.081   1.411  0.00  0.00    -0.061 C 
ATOM     20  C   UNL d   1      -6.649  -0.084   1.480  0.00  0.00    -0.061 C 
BRANCH  20  21
ATOM     21  C   UNL d   1      -8.074  -0.100   1.603  0.00  0.00     0.018 A 
ATOM     22  C   UNL d   1      -8.839  -0.962   0.814  0.00  0.00     0.020 A 
ATOM     23  C   UNL d   1     -10.228  -0.996   0.961  0.00  0.00     0.001 A 
ATOM     24  C   UNL d   1     -10.852  -0.169   1.895  0.00  0.00     0.000 A 
ATOM     25  C   UNL d   1     -10.091   0.699   2.678  0.00  0.00     0.001 A 
ATOM     26  C   UNL d   1      -8.702   0.734   2.531  0.00  0.00     0.020 A 
ENDBRANCH  20  21
ENDBRANCH  16  19
ENDBRANCH   2  13
TORSDOF 5
