REMARK  3 active torsions:
REMARK  status: ('A' for Active; 'I' for Inactive)
REMARK    1  A    between atoms: N_2  and  S_1 
REMARK    2  A    between atoms: C_4  and  S_1 
REMARK    3  A    between atoms: C_3  and  C_6 
ROOT
ATOM      1  S   UNL d   1       1.135   0.045   0.010  0.00  0.00     0.261 S 
ATOM      2  O   UNL d   1       1.055  -1.275   0.599  0.00  0.00    -0.200 OA
ATOM      3  O   UNL d   1       2.409   0.625  -0.356  0.00  0.00    -0.200 OA
ENDROOT
BRANCH   1   4
ATOM      4  N   UNL d   1       0.329   1.122   1.023  0.00  0.00    -0.302 N 
ATOM      5  C   UNL d   1       0.654   2.554   0.895  0.00  0.00     0.174 C 
ATOM      6  C   UNL d   1      -0.369   3.514   1.462  0.00  0.00    -0.033 A 
ATOM      7  C   UNL d   1      -0.001   4.824   1.799  0.00  0.00     0.009 A 
ATOM      8  C   UNL d   1      -1.716   3.131   1.555  0.00  0.00    -0.049 A 
ATOM      9  C   UNL d   1      -0.965   5.745   2.209  0.00  0.00     0.001 A 
ATOM     10  C   UNL d   1      -2.304   5.366   2.281  0.00  0.00     0.001 A 
ATOM     11  C   UNL d   1      -2.682   4.063   1.956  0.00  0.00     0.008 A 
ATOM     12  C   UNL d   1      -2.085   1.724   1.171  0.00  0.00     0.060 C 
ATOM     13  C   UNL d   1      -0.981   0.755   1.599  0.00  0.00     0.140 C 
ENDBRANCH   1   4
BRANCH   1  14
ATOM     14  C   UNL d   1       0.115   0.022  -1.454  0.00  0.00     0.080 A 
ATOM     15  C   UNL d   1      -0.877  -0.959  -1.591  0.00  0.00     0.041 A 
ATOM     16  C   UNL d   1      -1.677  -0.995  -2.744  0.00  0.00     0.049 A 
ATOM     17  C   UNL d   1      -1.478  -0.021  -3.737  0.00  0.00     0.016 A 
ATOM     18  C   UNL d   1      -0.458   0.927  -3.613  0.00  0.00     0.002 A 
ATOM     19  C   UNL d   1       0.356   0.936  -2.480  0.00  0.00     0.025 A 
BRANCH  16  20
ATOM     20  C   UNL d   1      -2.720  -2.069  -2.947  0.00  0.00     0.417 C 
ATOM     21  F   UNL d   1      -2.761  -2.986  -1.942  0.00  0.00    -0.166 F 
ATOM     22  F   UNL d   1      -3.979  -1.561  -3.042  0.00  0.00    -0.166 F 
ATOM     23  F   UNL d   1      -2.515  -2.778  -4.092  0.00  0.00    -0.166 F 
ENDBRANCH  16  20
ENDBRANCH   1  14
TORSDOF 3
