REMARK  6 active torsions:
REMARK  status: ('A' for Active; 'I' for Inactive)
REMARK    1  A    between atoms: C_5  and  S_1 
REMARK    2  A    between atoms: N_6  and  S_1 
REMARK    3  A    between atoms: S_2  and  C_11 
REMARK    4  A    between atoms: N_3  and  S_2 
REMARK    5  A    between atoms: C_4  and  N_3 
REMARK    6  A    between atoms: C_20  and  N_6 
ROOT
ATOM      1  C   UNL d   1       1.450  -5.277   1.311  0.00  0.00     0.075 A 
ATOM      2  C   UNL d   1       0.886  -2.551   1.215  0.00  0.00     0.042 A 
ATOM      3  C   UNL d   1       0.151  -4.827   1.568  0.00  0.00     0.027 A 
ATOM      4  C   UNL d   1       2.477  -4.365   1.046  0.00  0.00     0.027 A 
ATOM      5  C   UNL d   1      -0.131  -3.459   1.511  0.00  0.00     0.031 A 
ATOM      6  C   UNL d   1       2.186  -3.001   0.983  0.00  0.00     0.031 A 
ENDROOT
BRANCH   1   7
ATOM      7  S   UNL d   1       1.827  -7.012   1.435  0.00  0.00     0.248 S 
ATOM      8  O   UNL d   1       3.233  -7.107   1.771  0.00  0.00    -0.205 OA
ATOM      9  O   UNL d   1       0.833  -7.633   2.287  0.00  0.00    -0.205 OA
BRANCH   7  10
ATOM     10  N   UNL d   1       1.700  -7.569  -0.135  0.00  0.00    -0.151 NA
ATOM     11  H   UNL d   1       2.390  -8.295  -0.294  0.00  0.00     0.149 HD
BRANCH  10  12
ATOM     12  C   UNL d   1       0.427  -7.997  -0.497  0.00  0.00     0.171 A 
ATOM     13  N   UNL d   1      -0.448  -7.072  -0.894  0.00  0.00    -0.336 N 
ATOM     14  C   UNL d   1      -1.641  -7.545  -1.310  0.00  0.00     0.009 A 
ATOM     15  HN  UNL d   1      -0.231  -6.075  -0.884  1.00  0.00     0.168 HD
ATOM     16  C   UNL d   1      -2.630  -6.557  -1.850  0.00  0.00     0.068 C 
ATOM     17  C   UNL d   1      -1.958  -8.893  -1.276  0.00  0.00     0.049 A 
ATOM     18  C   UNL d   1      -0.975  -9.753  -0.820  0.00  0.00     0.009 A 
ATOM     19  N   UNL d   1       0.247  -9.319  -0.453  0.00  0.00    -0.336 N 
ATOM     20  C   UNL d   1      -1.245 -11.226  -0.729  0.00  0.00     0.068 C 
ATOM     21  HN  UNL d   1       0.986  -9.958  -0.162  1.00  0.00     0.168 HD
ENDBRANCH  10  12
ENDBRANCH   7  10
ENDBRANCH   1   7
BRANCH   2  22
ATOM     22  N   UNL d   1       0.585  -1.188   1.009  0.00  0.00    -0.281 N 
ATOM     23  H   UNL d   1       0.319  -0.855   0.085  0.00  0.00     0.179 HD
BRANCH  22  24
ATOM     24  S   UNL d   1       0.451  -0.095   2.263  0.00  0.00     0.264 S 
ATOM     25  O   UNL d   1       0.050   1.169   1.681  0.00  0.00    -0.200 OA
ATOM     26  O   UNL d   1      -0.347  -0.704   3.307  0.00  0.00    -0.200 OA
BRANCH  24  27
ATOM     27  C   UNL d   1       2.102   0.110   2.875  0.00  0.00     0.101 A 
ATOM     28  C   UNL d   1       3.153   0.519   2.050  0.00  0.00     0.057 A 
ATOM     29 CL   UNL d   1       2.993   0.841   0.361  0.00  0.00    -0.083 Cl
ATOM     30  C   UNL d   1       4.433   0.680   2.599  0.00  0.00     0.025 A 
ATOM     31  C   UNL d   1       4.658   0.454   3.959  0.00  0.00     0.002 A 
ATOM     32  C   UNL d   1       3.605   0.065   4.781  0.00  0.00     0.002 A 
ATOM     33  C   UNL d   1       2.329  -0.110   4.243  0.00  0.00     0.027 A 
ENDBRANCH  24  27
ENDBRANCH  22  24
ENDBRANCH   2  22
TORSDOF 6
