REMARK  2 active torsions:
REMARK  status: ('A' for Active; 'I' for Inactive)
REMARK    1  A    between atoms: C_5  and  C_1 
REMARK    2  A    between atoms: C_8  and  C_2 
ROOT
ATOM      1  C   UNL d   1      -1.291  -0.923   0.261  0.00  0.00     0.084 A 
ATOM      2  C   UNL d   1       0.048  -1.381  -0.024  0.00  0.00     0.062 A 
ATOM      3  N   UNL d   1      -1.276   0.364   0.641  0.00  0.00    -0.259 N 
ATOM      4  HN  UNL d   1      -2.074   0.917   0.954  1.00  0.00     0.195 HD
ATOM      5  O   UNL d   1       0.019   0.790   0.526  0.00  0.00    -0.241 OA
ATOM      6  C   UNL d   1       0.813  -0.230   0.120  0.00  0.00     0.088 A 
ATOM      7  C   UNL d   1       2.224   0.155  -0.090  0.00  0.00     0.080 C 
ENDROOT
BRANCH   1   8
ATOM      8  C   UNL d   1      -2.577  -1.630   0.199  0.00  0.00     0.037 A 
ATOM      9  C   UNL d   1      -2.809  -2.823   0.910  0.00  0.00     0.048 A 
ATOM     10 CL   UNL d   1      -1.654  -3.517   1.997  0.00  0.00    -0.083 Cl
ATOM     11  C   UNL d   1      -4.034  -3.500   0.808  0.00  0.00     0.025 A 
ATOM     12  C   UNL d   1      -5.072  -2.977   0.046  0.00  0.00     0.003 A 
ATOM     13  C   UNL d   1      -4.883  -1.776  -0.628  0.00  0.00     0.025 A 
ATOM     14  C   UNL d   1      -3.648  -1.116  -0.570  0.00  0.00     0.048 A 
ATOM     15 CL   UNL d   1      -3.526   0.328  -1.525  0.00  0.00    -0.083 Cl
ENDBRANCH   1   8
BRANCH   2  16
ATOM     16  C   UNL d   1       0.504  -2.699  -0.409  0.00  0.00     0.109 C 
ATOM     17  S   UNL d   1       1.867  -3.369   0.266  0.00  0.00    -0.060 SA
ATOM     18  N   UNL d   1      -0.241  -3.411  -1.301  0.00  0.00    -0.389 N 
ATOM     19  H   UNL d   1      -1.060  -3.039  -1.767  0.00  0.00     0.157 HD
ATOM     20  H   UNL d   1       0.055  -4.350  -1.536  0.00  0.00     0.157 HD
ENDBRANCH   2  16
TORSDOF 2
