REMARK  8 active torsions:
REMARK  status: ('A' for Active; 'I' for Inactive)
REMARK    1  A    between atoms: C_3  and  N_1 
REMARK    2  A    between atoms: C_2  and  C_8 
REMARK       I    between atoms: N_17  and  C_2 
REMARK       I    between atoms: C_5  and  N_6 
REMARK    3  A    between atoms: N_6  and  C_9 
REMARK    4  A    between atoms: C_22  and  N_17 
REMARK    5  A    between atoms: C_18  and  O_20 
REMARK    6  A    between atoms: C_19  and  C_22 
REMARK    7  A    between atoms: C_25  and  C_19 
REMARK    8  A    between atoms: O_20  and  C_25 
ROOT
ATOM      1  C   UNL d   1      -0.979  -8.187  -2.717  0.00  0.00     0.046 C 
ENDROOT
BRANCH   1   2
ATOM      2  C   UNL d   1      -1.719  -6.907  -3.104  0.00  0.00     0.125 C 
BRANCH   2   3
ATOM      3  N   UNL d   1      -3.137  -6.961  -2.787  0.00  0.00    -0.357 N 
ATOM      4  C   UNL d   1      -3.613  -6.603  -1.542  0.00  0.00     0.251 C 
ATOM      5  O   UNL d   1      -2.879  -6.168  -0.660  0.00  0.00    -0.268 OA
ATOM      6  H   UNL d   1      -3.748  -7.362  -3.482  0.00  0.00     0.162 HD
BRANCH   4   7
ATOM      7  C   UNL d   1      -5.079  -6.765  -1.272  0.00  0.00     0.032 A 
ATOM      8  C   UNL d   1      -5.546  -6.393   0.002  0.00  0.00     0.019 A 
ATOM      9  C   UNL d   1      -6.897  -6.518   0.342  0.00  0.00     0.037 A 
ATOM     10  C   UNL d   1      -7.798  -7.022  -0.601  0.00  0.00     0.102 A 
ATOM     11  C   UNL d   1      -7.353  -7.396  -1.875  0.00  0.00     0.037 A 
ATOM     12  C   UNL d   1      -5.997  -7.266  -2.208  0.00  0.00     0.019 A 
BRANCH  10  13
ATOM     13  N   UNL d   1      -9.218  -7.161  -0.253  0.00  0.00    -0.116 N 
ATOM     14  O   UNL d   1      -9.980  -7.614  -1.119  0.00  0.00    -0.532 OA
ATOM     15  O   UNL d   1      -9.569  -6.817   0.884  0.00  0.00    -0.532 OA
ENDBRANCH  10  13
ENDBRANCH   4   7
ENDBRANCH   2   3
ENDBRANCH   1   2
BRANCH   1  16
ATOM     16  C   UNL d   1      -1.531  -9.387  -3.476  0.00  0.00     0.177 C 
BRANCH  16  17
ATOM     17  O   UNL d   1      -0.779 -10.565  -3.170  0.00  0.00    -0.351 OA
BRANCH  17  18
ATOM     18  C   UNL d   1      -1.238 -11.716  -3.764  0.00  0.00     0.070 A 
ATOM     19  C   UNL d   1      -2.332 -11.787  -4.634  0.00  0.00     0.066 A 
ATOM     20  C   UNL d   1      -2.747 -13.000  -5.186  0.00  0.00     0.037 A 
ATOM     21  C   UNL d   1      -2.031 -14.159  -4.875  0.00  0.00     0.029 A 
ATOM     22  C   UNL d   1      -0.932 -14.101  -4.011  0.00  0.00     0.005 A 
ATOM     23  C   UNL d   1      -0.540 -12.882  -3.455  0.00  0.00     0.037 A 
BRANCH  20  24
ATOM     24  N   UNL d   1      -3.862 -13.112  -6.048  0.00  0.00    -0.327 N 
ATOM     25  C   UNL d   1      -4.729 -12.100  -6.432  0.00  0.00     0.218 C 
ATOM     26  O   UNL d   1      -4.684 -10.920  -6.096  0.00  0.00    -0.274 OA
ATOM     27  C   UNL d   1      -5.821 -12.569  -7.359  0.00  0.00     0.117 C 
ATOM     28  H   UNL d   1      -4.054 -14.043  -6.395  0.00  0.00     0.169 HD
ENDBRANCH  20  24
ENDBRANCH  17  18
ENDBRANCH  16  17
ENDBRANCH   1  16
TORSDOF 8
