REMARK  6 active torsions:
REMARK  status: ('A' for Active; 'I' for Inactive)
REMARK    1  A    between atoms: C_5  and  C_1 
REMARK    2  A    between atoms: C_2  and  C_7 
REMARK       I    between atoms: C_3  and  N_6 
REMARK       I    between atoms: N_9  and  C_3 
REMARK    3  A    between atoms: O_8  and  C_4 
REMARK    4  A    between atoms: N_6  and  C_5 
REMARK    5  A    between atoms: C_18  and  O_8 
REMARK    6  A    between atoms: C_17  and  N_9 
ROOT
ATOM      1  C   UNL d   1      -3.092   2.040  -1.236  0.00  0.00     0.320 C 
ATOM      2  N   UNL d   1      -2.292   2.111  -0.123  0.00  0.00    -0.338 N 
ATOM      3  N   UNL d   1      -4.406   1.832  -0.879  0.00  0.00    -0.309 N 
ATOM      4  O   UNL d   1      -2.639   2.088  -2.377  0.00  0.00    -0.247 OA
ATOM      5  H   UNL d   1      -2.716   2.059   0.786  0.00  0.00     0.164 HD
ATOM      6  H   UNL d   1      -4.649   2.044   0.074  0.00  0.00     0.170 HD
ENDROOT
BRANCH   2   7
ATOM      7  C   UNL d   1      -0.852   2.222  -0.183  0.00  0.00     0.167 C 
BRANCH   7   8
ATOM      8  C   UNL d   1       0.043   0.995  -0.073  0.00  0.00     0.015 A 
ATOM      9  C   UNL d   1       1.458   1.145   0.066  0.00  0.00     0.085 A 
ATOM     10  C   UNL d   1       2.303   0.011   0.091  0.00  0.00     0.038 A 
ATOM     11  C   UNL d   1       1.805  -1.276  -0.016  0.00  0.00     0.004 A 
ATOM     12  C   UNL d   1       0.439  -1.446  -0.131  0.00  0.00     0.024 A 
ATOM     13  C   UNL d   1      -0.433  -0.341  -0.148  0.00  0.00     0.044 A 
ATOM     14 CL   UNL d   1      -2.100  -0.805  -0.231  0.00  0.00    -0.084 Cl
BRANCH   9  15
ATOM     15  O   UNL d   1       2.264   2.272   0.141  0.00  0.00    -0.310 OA
BRANCH  15  16
ATOM     16  C   UNL d   1       1.782   3.537   0.282  0.00  0.00     0.076 C 
ATOM     17  C   UNL d   1       1.176   3.970   1.460  0.00  0.00     0.037 C 
ATOM     18  C   UNL d   1       0.615   5.247   1.510  0.00  0.00     0.003 C 
ATOM     19  C   UNL d   1       0.763   6.117   0.428  0.00  0.00     0.000 C 
ATOM     20  C   UNL d   1       1.501   5.725  -0.689  0.00  0.00     0.003 C 
ATOM     21  C   UNL d   1       2.014   4.432  -0.761  0.00  0.00     0.037 C 
ENDBRANCH  15  16
ENDBRANCH   9  15
ENDBRANCH   7   8
ENDBRANCH   2   7
BRANCH   3  22
ATOM     22  C   UNL d   1      -5.394   1.174  -1.644  0.00  0.00     0.036 A 
ATOM     23  C   UNL d   1      -5.170   0.681  -2.927  0.00  0.00     0.030 A 
ATOM     24  C   UNL d   1      -6.113  -0.151  -3.539  0.00  0.00     0.018 A 
ATOM     25  C   UNL d   1      -7.299  -0.494  -2.880  0.00  0.00     0.048 A 
ATOM     26  C   UNL d   1      -7.558   0.071  -1.623  0.00  0.00     0.018 A 
ATOM     27  C   UNL d   1      -6.615   0.904  -1.013  0.00  0.00     0.030 A 
BRANCH  25  28
ATOM     28  C   UNL d   1      -8.243  -1.517  -3.462  0.00  0.00     0.417 C 
ATOM     29  F   UNL d   1      -7.997  -1.806  -4.771  0.00  0.00    -0.166 F 
ATOM     30  F   UNL d   1      -8.177  -2.706  -2.800  0.00  0.00    -0.166 F 
ATOM     31  F   UNL d   1      -9.547  -1.131  -3.402  0.00  0.00    -0.166 F 
ENDBRANCH  25  28
ENDBRANCH   3  22
TORSDOF 6
