REMARK  3 active torsions:
REMARK  status: ('A' for Active; 'I' for Inactive)
REMARK    1  A    between atoms: C_5  and  C_1 
REMARK    2  A    between atoms: O_8  and  C_2 
REMARK    3  A    between atoms: O_10  and  C_5 
ROOT
ATOM      1  C   UNL d   1       1.057  -0.731  -0.004  0.00  0.00     0.114 A 
ATOM      2  C   UNL d   1       0.976   0.651  -0.000  0.00  0.00     0.106 A 
ATOM      3  S   UNL d   1      -0.510  -1.436  -0.005  0.00  0.00    -0.092 SA
ATOM      4  C   UNL d   1      -0.363   1.113   0.001  0.00  0.00     0.052 A 
ATOM      5  C   UNL d   1      -1.280   0.092  -0.001  0.00  0.00     0.072 A 
ATOM      6 BR   UNL d   1      -0.824   2.944   0.005  0.00  0.00    -0.048 Br
ENDROOT
BRANCH   1   7
ATOM      7  C   UNL d   1       2.270  -1.524  -0.007  0.00  0.00     0.302 C 
ATOM      8  O   UNL d   1       3.396  -1.035  -0.007  0.00  0.00    -0.259 OA
BRANCH   7   9
ATOM      9  O   UNL d   1       2.011  -2.862  -0.009  0.00  0.00    -0.322 OA
ATOM     10  C   UNL d   1       3.174  -3.689  -0.014  0.00  0.00     0.213 C 
ENDBRANCH   7   9
ENDBRANCH   1   7
BRANCH   2  11
ATOM     11  O   UNL d   1       2.064   1.454   0.002  0.00  0.00    -0.358 OA
ATOM     12  H   UNL d   1       2.892   0.931  -0.000  0.00  0.00     0.217 HD
ENDBRANCH   2  11
TORSDOF 3
