REMARK  0 active torsions:
REMARK  status: ('A' for Active; 'I' for Inactive)
ROOT
ATOM      1  N   UNL d   1       1.217  -1.391  -0.019  0.00  0.00    -0.356 N 
ATOM      2  HN  UNL d   1       1.236  -2.410  -0.005  1.00  0.00     0.166 HD
ATOM      3  N   UNL d   1       1.172   1.419  -0.030  0.00  0.00    -0.356 N 
ATOM      4  HN  UNL d   1       1.157   2.439  -0.026  1.00  0.00     0.166 HD
ATOM      5  C   UNL d   1       0.056  -0.712  -0.003  0.00  0.00     0.061 A 
ATOM      6  C   UNL d   1       0.034   0.702  -0.013  0.00  0.00     0.059 A 
ATOM      7  C   UNL d   1       2.363  -0.665  -0.055  0.00  0.00     0.028 A 
ATOM      8  C   UNL d   1       2.341   0.730  -0.053  0.00  0.00     0.028 A 
ATOM      9  C   UNL d   1      -1.142  -1.411   0.012  0.00  0.00     0.055 A 
ATOM     10  C   UNL d   1      -1.188   1.360  -0.018  0.00  0.00     0.033 A 
ATOM     11  C   UNL d   1      -2.360  -0.737  -0.000  0.00  0.00     0.036 A 
ATOM     12  C   UNL d   1      -2.392   0.651  -0.017  0.00  0.00     0.026 A 
ATOM     13 CL   UNL d   1      -3.832  -1.626  -0.005  0.00  0.00    -0.084 Cl
ATOM     14  C   UNL d   1       3.643  -1.441  -0.120  0.00  0.00     0.070 C 
ATOM     15  C   UNL d   1       3.596   1.547  -0.096  0.00  0.00     0.070 C 
ENDROOT
TORSDOF 0
