REMARK  4 active torsions:
REMARK  status: ('A' for Active; 'I' for Inactive)
REMARK    1  A    between atoms: C_2  and  S_1 
REMARK    2  A    between atoms: C_12  and  S_1 
REMARK    3  A    between atoms: C_3  and  C_5 
REMARK    4  A    between atoms: C_4  and  C_6 
ROOT
ATOM      1  C   UNL d   1       0.386  -0.768  -1.394  0.00  0.00     0.065 A 
ATOM      2  C   UNL d   1       0.302  -2.805  -2.711  0.00  0.00     0.050 A 
ATOM      3  C   UNL d   1      -0.896  -0.796  -3.454  0.00  0.00     0.050 A 
ATOM      4  C   UNL d   1       0.749  -2.105  -1.579  0.00  0.00     0.040 A 
ATOM      5  C   UNL d   1      -0.414  -0.105  -2.332  0.00  0.00     0.040 A 
ATOM      6  C   UNL d   1      -0.517  -2.139  -3.641  0.00  0.00     0.032 A 
ENDROOT
BRANCH   1   7
ATOM      7  S   UNL d   1       0.989   0.121   0.030  0.00  0.00     0.206 S 
ATOM      8  O   UNL d   1       1.210   1.491  -0.399  0.00  0.00    -0.217 OA
ATOM      9  O   UNL d   1       2.077  -0.656   0.594  0.00  0.00    -0.217 OA
BRANCH   7  10
ATOM     10  C   UNL d   1      -0.331   0.129   1.220  0.00  0.00     0.064 A 
ATOM     11  C   UNL d   1      -0.449  -0.931   2.126  0.00  0.00     0.024 A 
ATOM     12  C   UNL d   1      -1.460  -0.902   3.087  0.00  0.00     0.002 A 
ATOM     13  C   UNL d   1      -2.341   0.180   3.144  0.00  0.00     0.000 A 
ATOM     14  C   UNL d   1      -2.211   1.240   2.244  0.00  0.00     0.002 A 
ATOM     15  C   UNL d   1      -1.202   1.221   1.282  0.00  0.00     0.024 A 
ENDBRANCH   7  10
ENDBRANCH   1   7
BRANCH   2  16
ATOM     16  C   UNL d   1       0.674  -4.256  -2.924  0.00  0.00     0.417 C 
ATOM     17  F   UNL d   1       1.426  -4.777  -1.916  0.00  0.00    -0.166 F 
ATOM     18  F   UNL d   1      -0.423  -5.055  -3.023  0.00  0.00    -0.166 F 
ATOM     19  F   UNL d   1       1.386  -4.448  -4.067  0.00  0.00    -0.166 F 
ENDBRANCH   2  16
BRANCH   3  20
ATOM     20  C   UNL d   1      -1.843  -0.133  -4.432  0.00  0.00     0.417 C 
ATOM     21  F   UNL d   1      -2.158   1.148  -4.097  0.00  0.00    -0.166 F 
ATOM     22  F   UNL d   1      -1.345  -0.085  -5.697  0.00  0.00    -0.166 F 
ATOM     23  F   UNL d   1      -3.028  -0.797  -4.517  0.00  0.00    -0.166 F 
ENDBRANCH   3  20
TORSDOF 4
