REMARK  6 active torsions:
REMARK  status: ('A' for Active; 'I' for Inactive)
REMARK    1  A    between atoms: C_2  and  C_1 
REMARK       I    between atoms: C_3  and  N_6 
REMARK       I    between atoms: N_12  and  C_3 
REMARK    2  A    between atoms: N_6  and  C_10 
REMARK    3  A    between atoms: C_16  and  C_7 
REMARK    4  A    between atoms: C_21  and  N_12 
REMARK    5  A    between atoms: S_13  and  C_16 
REMARK    6  A    between atoms: C_14  and  S_13 
ROOT
ATOM      1  C   UNL d   1      -1.751  -5.429  -7.392  0.00  0.00     0.053 C 
ATOM      2  C   UNL d   1      -0.914  -5.393  -6.255  0.00  0.00     0.027 C 
ATOM      3  C   UNL d   1      -1.892  -6.617  -8.123  0.00  0.00     0.031 C 
ATOM      4  C   UNL d   1      -0.486  -6.618  -5.728  0.00  0.00     0.021 C 
ATOM      5  C   UNL d   1      -1.418  -7.818  -7.611  0.00  0.00     0.002 C 
ATOM      6  C   UNL d   1      -0.766  -7.824  -6.384  0.00  0.00     0.002 C 
ENDROOT
BRANCH   2   7
ATOM      7  S   UNL d   1      -0.430  -3.783  -5.616  0.00  0.00    -0.122 SA
BRANCH   7   8
ATOM      8  C   UNL d   1       0.377  -4.114  -4.008  0.00  0.00     0.138 C 
BRANCH   8   9
ATOM      9  C   UNL d   1      -0.569  -4.155  -2.825  0.00  0.00     0.040 A 
ATOM     10  N   UNL d   1      -1.871  -4.477  -3.064  0.00  0.00    -0.366 N 
ATOM     11  C   UNL d   1      -2.738  -4.483  -2.027  0.00  0.00     0.104 A 
ATOM     12  HN  UNL d   1      -2.186  -4.708  -4.006  1.00  0.00     0.165 HD
ATOM     13  C   UNL d   1      -2.371  -4.219  -0.720  0.00  0.00     0.064 A 
ATOM     14  C   UNL d   1      -1.026  -3.926  -0.473  0.00  0.00     0.043 A 
ATOM     15  C   UNL d   1      -0.113  -3.899  -1.529  0.00  0.00     0.058 A 
ATOM     16 CL   UNL d   1       1.538  -3.559  -1.165  0.00  0.00    -0.082 Cl
BRANCH  13  17
ATOM     17  C   UNL d   1      -3.406  -4.254   0.359  0.00  0.00     0.418 C 
ATOM     18  F   UNL d   1      -2.884  -4.140   1.611  0.00  0.00    -0.166 F 
ATOM     19  F   UNL d   1      -4.120  -5.413   0.358  0.00  0.00    -0.166 F 
ATOM     20  F   UNL d   1      -4.317  -3.251   0.240  0.00  0.00    -0.166 F 
ENDBRANCH  13  17
ENDBRANCH   8   9
ENDBRANCH   7   8
ENDBRANCH   2   7
BRANCH   1  21
ATOM     21  N   UNL d   1      -2.491  -4.270  -7.738  0.00  0.00    -0.307 N 
ATOM     22  C   UNL d   1      -3.845  -4.172  -8.021  0.00  0.00     0.325 C 
ATOM     23  N   UNL d   1      -4.539  -5.353  -8.046  0.00  0.00    -0.309 N 
ATOM     24  O   UNL d   1      -4.331  -3.056  -8.175  0.00  0.00    -0.247 OA
ATOM     25  H   UNL d   1      -4.017  -6.175  -7.808  0.00  0.00     0.170 HD
ATOM     26  H   UNL d   1      -2.143  -3.400  -7.350  0.00  0.00     0.170 HD
BRANCH  23  27
ATOM     27  C   UNL d   1      -5.904  -5.600  -8.254  0.00  0.00     0.036 A 
ATOM     28  C   UNL d   1      -6.891  -4.619  -8.259  0.00  0.00     0.029 A 
ATOM     29  C   UNL d   1      -8.230  -4.983  -8.428  0.00  0.00     0.002 A 
ATOM     30  C   UNL d   1      -8.586  -6.319  -8.617  0.00  0.00     0.000 A 
ATOM     31  C   UNL d   1      -7.601  -7.302  -8.627  0.00  0.00     0.002 A 
ATOM     32  C   UNL d   1      -6.270  -6.944  -8.433  0.00  0.00     0.029 A 
ENDBRANCH  23  27
ENDBRANCH   1  21
TORSDOF 6
