REMARK  3 active torsions:
REMARK  status: ('A' for Active; 'I' for Inactive)
REMARK    1  A    between atoms: N_2  and  C_1 
REMARK    2  A    between atoms: C_7  and  N_2 
REMARK    3  A    between atoms: C_5  and  C_7 
ROOT
ATOM      1  C   UNL d   1      -0.831   0.970   1.237  0.00  0.00     0.252 C 
ATOM      2  C   UNL d   1      -1.397  -0.048   0.183  0.00  0.00     0.040 C 
ATOM      3  C   UNL d   1       0.739   0.719   1.264  0.00  0.00     0.040 C 
ATOM      4  C   UNL d   1      -1.383   0.672   2.590  0.00  0.00     0.102 C 
ATOM      5  N   UNL d   1      -1.791   0.388   3.645  0.00  0.00    -0.194 NA
ATOM      6  C   UNL d   1       0.761  -0.046  -1.152  0.00  0.00    -0.013 C 
ATOM      7  C   UNL d   1       0.436  -1.732   0.680  0.00  0.00    -0.013 C 
ATOM      8  C   UNL d   1      -0.759   0.186  -1.208  0.00  0.00     0.013 C 
ATOM      9  C   UNL d   1      -1.081  -1.508   0.598  0.00  0.00     0.013 C 
ATOM     10  C   UNL d   1       1.385   0.921  -0.133  0.00  0.00     0.013 C 
ATOM     11  C   UNL d   1       1.061  -0.743   1.677  0.00  0.00     0.013 C 
ATOM     12  C   UNL d   1       1.040  -1.493  -0.712  0.00  0.00     0.009 C 
ENDROOT
BRANCH   1  13
ATOM     13  N   UNL d   1      -1.079   2.407   0.926  0.00  0.00     0.116 N 
ATOM     14  H   UNL d   1      -0.441   2.703   0.193  0.00  0.00     0.319 HD
BRANCH  13  15
ATOM     15  C   UNL d   1      -2.447   2.818   0.539  0.00  0.00     0.252 C 
ATOM     16  C   UNL d   1      -2.285   4.074  -0.353  0.00  0.00     0.048 C 
BRANCH  15  17
ATOM     17  C   UNL d   1      -3.406   3.252   1.654  0.00  0.00    -0.020 C 
ATOM     18  C   UNL d   1      -4.814   3.155   1.506  0.00  0.00    -0.053 C 
ATOM     19  C   UNL d   1      -5.651   4.008   2.259  0.00  0.00     0.014 C 
ATOM     20  C   UNL d   1      -5.513   2.160   0.619  0.00  0.00     0.049 C 
ATOM     21  C   UNL d   1      -5.125   4.923   3.174  0.00  0.00    -0.061 C 
ATOM     22  C   UNL d   1      -3.761   4.877   3.449  0.00  0.00     0.007 C 
ATOM     23  C   UNL d   1      -6.009   5.926   3.853  0.00  0.00     0.048 C 
ATOM     24  C   UNL d   1      -2.912   4.057   2.698  0.00  0.00     0.010 C 
ENDBRANCH  15  17
ENDBRANCH  13  15
ENDBRANCH   1  13
TORSDOF 3
