REMARK  9 active torsions:
REMARK  status: ('A' for Active; 'I' for Inactive)
REMARK    1  A    between atoms: N_2  and  C_1 
REMARK    2  A    between atoms: N_9  and  C_1 
REMARK    3  A    between atoms: C_3  and  N_2 
REMARK    4  A    between atoms: O_14  and  C_6 
REMARK    5  A    between atoms: O_15  and  C_8 
REMARK    6  A    between atoms: N_11  and  N_9 
REMARK    7  A    between atoms: C_13  and  N_9 
REMARK    8  A    between atoms: C_17  and  C_13 
REMARK    9  A    between atoms: O_16  and  C_17 
ROOT
ATOM      1  N   UNL d   1       0.413  -0.941  -0.765  0.00  0.00    -0.330 N 
ATOM      2  H   UNL d   1       0.877  -0.471   0.012  0.00  0.00     0.168 HD
ENDROOT
BRANCH   1   3
ATOM      3  C   UNL d   1      -0.913  -0.588  -0.926  0.00  0.00     0.189 C 
ATOM      4  S   UNL d   1      -2.182  -1.699  -1.040  0.00  0.00    -0.039 SA
BRANCH   3   5
ATOM      5  N   UNL d   1      -1.128   0.811  -0.895  0.00  0.00    -0.289 N 
BRANCH   5   6
ATOM      6  N   UNL d   1      -2.466   1.319  -0.865  0.00  0.00    -0.245 NA
ATOM      7  H   UNL d   1      -2.982   0.728  -0.203  0.00  0.00     0.143 HD
ATOM      8  H   UNL d   1      -2.889   1.087  -1.769  0.00  0.00     0.143 HD
ENDBRANCH   5   6
BRANCH   5   9
ATOM      9  C   UNL d   1      -0.093   1.804  -1.247  0.00  0.00     0.171 C 
BRANCH   9  10
ATOM     10  C   UNL d   1       0.137   2.841  -0.151  0.00  0.00     0.185 C 
BRANCH  10  11
ATOM     11  O   UNL d   1       0.832   2.255   0.950  0.00  0.00    -0.399 OA
ATOM     12  H   UNL d   1       0.757   2.888   1.686  0.00  0.00     0.209 HD
ENDBRANCH  10  11
ENDBRANCH   9  10
ENDBRANCH   5   9
ENDBRANCH   3   5
ENDBRANCH   1   3
BRANCH   1  13
ATOM     13  C   UNL d   1       1.087  -2.089  -1.248  0.00  0.00     0.070 A 
ATOM     14  C   UNL d   1       0.759  -2.660  -2.480  0.00  0.00     0.071 A 
ATOM     15  C   UNL d   1       1.474  -3.746  -3.010  0.00  0.00     0.092 A 
ATOM     16  C   UNL d   1       2.536  -4.266  -2.260  0.00  0.00     0.070 A 
ATOM     17  C   UNL d   1       2.877  -3.686  -1.022  0.00  0.00     0.065 A 
ATOM     18 CL   UNL d   1       3.536  -5.596  -2.733  0.00  0.00    -0.081 Cl
ATOM     19  C   UNL d   1       2.175  -2.587  -0.520  0.00  0.00     0.096 A 
BRANCH  15  20
ATOM     20  O   UNL d   1       0.989  -4.098  -4.239  0.00  0.00    -0.354 OA
ATOM     21  C   UNL d   1       1.512  -5.210  -4.943  0.00  0.00     0.210 C 
ENDBRANCH  15  20
BRANCH  19  22
ATOM     22  O   UNL d   1       2.446  -1.954   0.667  0.00  0.00    -0.354 OA
ATOM     23  C   UNL d   1       3.641  -2.328   1.345  0.00  0.00     0.210 C 
ENDBRANCH  19  22
ENDBRANCH   1  13
TORSDOF 9
