REMARK  4 active torsions:
REMARK  status: ('A' for Active; 'I' for Inactive)
REMARK    1  A    between atoms: C_3  and  C_1 
REMARK    2  A    between atoms: C_18  and  C_7 
REMARK    3  A    between atoms: C_19  and  N_8 
REMARK    4  A    between atoms: C_20  and  C_14 
ROOT
ATOM      1  C   UNL d   1      -0.377   1.215   0.086  0.00  0.00     0.017 A 
ATOM      2  N   UNL d   1       0.986  -0.612  -0.016  0.00  0.00    -0.293 N 
ATOM      3  HN  UNL d   1       1.810  -1.212  -0.032  1.00  0.00     0.187 HD
ATOM      4  C   UNL d   1       0.968   0.731   0.080  0.00  0.00     0.069 A 
ATOM      5  N   UNL d   1      -0.301  -1.007  -0.087  0.00  0.00    -0.267 N 
ATOM      6  C   UNL d   1      -1.140   0.072  -0.103  0.00  0.00     0.128 A 
ENDROOT
BRANCH   1   7
ATOM      7  C   UNL d   1      -1.004   2.559   0.289  0.00  0.00     0.188 C 
ATOM      8  N   UNL d   1      -0.440   3.382   1.367  0.00  0.00    -0.110 N 
ATOM      9  C   UNL d   1      -0.583   4.752   1.372  0.00  0.00     0.701 A 
ATOM     10  N   UNL d   1      -0.132   2.924   2.599  0.00  0.00    -0.278 N 
ATOM     11  N   UNL d   1      -0.302   5.214   2.564  0.00  0.00    -0.185 N 
ATOM     12  N   UNL d   1      -1.020   5.372   0.257  0.00  0.00    -0.190 N 
ATOM     13  C   UNL d   1      -0.027   4.075   3.274  0.00  0.00     0.215 A 
ATOM     14  HN  UNL d   1      -0.291   6.183   2.884  1.00  0.00     0.185 HD
ATOM     15  C   UNL d   1      -1.305   4.699  -0.911  0.00  0.00     0.058 C 
ATOM     16  H   UNL d   1      -1.190   6.374   0.271  0.00  0.00     0.184 HD
ATOM     17  C   UNL d   1      -1.244   3.353  -0.983  0.00  0.00     0.036 C 
ATOM     18  HN  UNL d   1      -0.013   1.965   2.926  1.00  0.00     0.188 HD
BRANCH  15  19
ATOM     19  C   UNL d   1      -1.791   5.481  -2.054  0.00  0.00    -0.009 A 
ATOM     20  C   UNL d   1      -3.171   5.656  -2.236  0.00  0.00     0.013 A 
ATOM     21  C   UNL d   1      -3.655   6.401  -3.312  0.00  0.00     0.001 A 
ATOM     22  C   UNL d   1      -2.760   6.977  -4.213  0.00  0.00     0.000 A 
ATOM     23  C   UNL d   1      -1.387   6.810  -4.037  0.00  0.00     0.001 A 
ATOM     24  C   UNL d   1      -0.900   6.065  -2.961  0.00  0.00     0.013 A 
ENDBRANCH  15  19
ENDBRANCH   1   7
BRANCH   4  25
ATOM     25  C   UNL d   1       2.255   1.431   0.141  0.00  0.00    -0.007 A 
ATOM     26  C   UNL d   1       2.480   2.625  -0.552  0.00  0.00     0.015 A 
ATOM     27  C   UNL d   1       3.761   3.197  -0.584  0.00  0.00     0.024 A 
ATOM     28  C   UNL d   1       4.823   2.576   0.069  0.00  0.00     0.034 A 
ATOM     29  C   UNL d   1       4.615   1.396   0.776  0.00  0.00     0.024 A 
ATOM     30 CL   UNL d   1       6.400   3.256  -0.022  0.00  0.00    -0.084 Cl
ATOM     31  C   UNL d   1       3.339   0.830   0.810  0.00  0.00     0.015 A 
ENDBRANCH   4  25
BRANCH   5  32
ATOM     32  C   UNL d   1      -0.662  -2.383  -0.110  0.00  0.00     0.056 A 
ATOM     33  C   UNL d   1      -1.998  -2.775  -0.289  0.00  0.00     0.031 A 
ATOM     34  C   UNL d   1      -2.340  -4.128  -0.279  0.00  0.00     0.002 A 
ATOM     35  C   UNL d   1      -1.357  -5.097  -0.086  0.00  0.00     0.000 A 
ATOM     36  C   UNL d   1      -0.029  -4.715   0.092  0.00  0.00     0.002 A 
ATOM     37  C   UNL d   1       0.323  -3.364   0.073  0.00  0.00     0.031 A 
ENDBRANCH   5  32
TORSDOF 4
