REMARK  5 active torsions:
REMARK  status: ('A' for Active; 'I' for Inactive)
REMARK    1  A    between atoms: C_11  and  N_1 
REMARK    2  A    between atoms: C_4  and  O_10 
REMARK    3  A    between atoms: C_13  and  C_4 
REMARK    4  A    between atoms: O_10  and  N_6 
REMARK    5  A    between atoms: C_14  and  C_11 
ROOT
ATOM      1  N   UNL d   1      -0.076   0.026   1.363  0.00  0.00     0.102 N 
ATOM      2  C   UNL d   1      -0.088  -1.201   0.550  0.00  0.00     0.229 C 
ATOM      3  C   UNL d   1       0.002   1.197   0.475  0.00  0.00     0.229 C 
ATOM      4  C   UNL d   1      -1.783   0.025  -0.955  0.00  0.00     0.015 C 
ATOM      5  N   UNL d   1      -2.807  -0.048  -1.752  0.00  0.00    -0.265 N 
ATOM      6  HN  UNL d   1      -3.196  -0.927  -2.092  1.00  0.00     0.194 HD
ATOM      7  C   UNL d   1      -1.196   1.334  -0.473  0.00  0.00     0.090 C 
ATOM      8  C   UNL d   1      -1.265  -1.294  -0.421  0.00  0.00     0.090 C 
ATOM      9  C   UNL d   1       1.352   1.194  -0.269  0.00  0.00     0.036 C 
ATOM     10  C   UNL d   1       1.273  -1.340  -0.161  0.00  0.00     0.036 C 
ATOM     11  C   UNL d   1       1.682  -0.117  -0.973  0.00  0.00     0.004 C 
ENDROOT
BRANCH   5  12
ATOM     12  O   UNL d   1      -3.320   1.218  -2.096  0.00  0.00    -0.195 OA
BRANCH  12  13
ATOM     13  C   UNL d   1      -4.442   1.065  -2.862  0.00  0.00     0.315 C 
ATOM     14  O   UNL d   1      -4.946   0.019  -3.262  0.00  0.00    -0.257 OA
BRANCH  13  15
ATOM     15  C   UNL d   1      -4.983   2.393  -3.235  0.00  0.00     0.041 A 
ATOM     16  C   UNL d   1      -4.849   3.517  -2.408  0.00  0.00     0.017 A 
ATOM     17  C   UNL d   1      -5.384   4.744  -2.811  0.00  0.00     0.001 A 
ATOM     18  C   UNL d   1      -6.050   4.853  -4.033  0.00  0.00     0.000 A 
ATOM     19  C   UNL d   1      -6.199   3.733  -4.850  0.00  0.00     0.001 A 
ATOM     20  C   UNL d   1      -5.674   2.504  -4.449  0.00  0.00     0.017 A 
ENDBRANCH  13  15
ENDBRANCH  12  13
ENDBRANCH   5  12
BRANCH   1  21
ATOM     21  C   UNL d   1      -1.198   0.134   2.316  0.00  0.00     0.312 C 
BRANCH  21  22
ATOM     22  C   UNL d   1      -1.260  -0.971   3.349  0.00  0.00    -0.030 A 
ATOM     23  C   UNL d   1      -0.186  -1.206   4.220  0.00  0.00     0.009 A 
ATOM     24  C   UNL d   1      -0.268  -2.208   5.189  0.00  0.00     0.001 A 
ATOM     25  C   UNL d   1      -1.422  -2.981   5.301  0.00  0.00     0.000 A 
ATOM     26  C   UNL d   1      -2.496  -2.757   4.443  0.00  0.00     0.001 A 
ATOM     27  C   UNL d   1      -2.416  -1.757   3.472  0.00  0.00     0.009 A 
ENDBRANCH  21  22
ENDBRANCH   1  21
TORSDOF 5
