REMARK  7 active torsions:
REMARK  status: ('A' for Active; 'I' for Inactive)
REMARK    1  A    between atoms: N_4  and  C_9 
REMARK    2  A    between atoms: C_7  and  C_10 
REMARK    3  A    between atoms: S_19  and  C_8 
REMARK    4  A    between atoms: C_10  and  O_20 
REMARK    5  A    between atoms: C_24  and  S_19 
REMARK    6  A    between atoms: O_20  and  C_25 
REMARK    7  A    between atoms: C_25  and  C_24 
ROOT
ATOM      1  S   UNL d   1      -3.396   0.608  -2.181  0.00  0.00     0.177 S 
ATOM      2  C   UNL d   1      -3.465  -0.720  -1.053  0.00  0.00     0.069 A 
ATOM      3  C   UNL d   1      -2.271   1.616  -1.225  0.00  0.00     0.165 A 
ATOM      4  C   UNL d   1      -2.677  -0.478   0.070  0.00  0.00    -0.022 A 
ATOM      5  C   UNL d   1      -4.201  -1.878  -1.247  0.00  0.00     0.060 A 
ATOM      6  C   UNL d   1      -1.971   0.855   0.075  0.00  0.00     0.096 A 
ATOM      7  C   UNL d   1      -4.125  -2.851  -0.246  0.00  0.00     0.104 A 
ATOM      8  O   UNL d   1      -2.723   0.133  -3.369  0.00  0.00    -0.223 OA
ATOM      9  O   UNL d   1      -4.702   1.229  -2.196  0.00  0.00    -0.223 OA
ATOM     10  C   UNL d   1      -2.591  -1.465   1.050  0.00  0.00     0.012 A 
ATOM     11  C   UNL d   1      -3.319  -2.653   0.894  0.00  0.00     0.037 A 
ENDROOT
BRANCH   6  12
ATOM     12  S   UNL d   1      -2.317   1.867   1.562  0.00  0.00    -0.156 SA
BRANCH  12  13
ATOM     13  C   UNL d   1      -4.139   2.057   1.457  0.00  0.00     0.101 C 
BRANCH  13  14
ATOM     14  C   UNL d   1      -4.692   2.804   2.677  0.00  0.00     0.189 C 
BRANCH  14  15
ATOM     15  O   UNL d   1      -4.372   2.192   3.941  0.00  0.00    -0.317 OA
BRANCH  15  16
ATOM     16  C   UNL d   1      -4.899   0.974   4.185  0.00  0.00     0.295 C 
ATOM     17  O   UNL d   1      -5.660   0.370   3.443  0.00  0.00    -0.259 OA
BRANCH  16  18
ATOM     18  C   UNL d   1      -4.533   0.471   5.533  0.00  0.00     0.061 A 
ATOM     19  C   UNL d   1      -3.335   0.747   6.207  0.00  0.00     0.050 A 
ATOM     20 CL   UNL d   1      -2.032   1.666   5.541  0.00  0.00    -0.083 Cl
ATOM     21  C   UNL d   1      -3.121   0.218   7.489  0.00  0.00     0.025 A 
ATOM     22  C   UNL d   1      -4.079  -0.595   8.096  0.00  0.00     0.002 A 
ATOM     23  C   UNL d   1      -5.257  -0.896   7.422  0.00  0.00     0.001 A 
ATOM     24  C   UNL d   1      -5.481  -0.370   6.148  0.00  0.00     0.019 A 
ENDBRANCH  16  18
ENDBRANCH  15  16
ENDBRANCH  14  15
ENDBRANCH  13  14
ENDBRANCH  12  13
ENDBRANCH   6  12
BRANCH   7  25
ATOM     25  N   UNL d   1      -4.890  -4.097  -0.389  0.00  0.00    -0.116 N 
ATOM     26  O   UNL d   1      -5.587  -4.232  -1.403  0.00  0.00    -0.532 OA
ATOM     27  O   UNL d   1      -4.790  -4.940   0.515  0.00  0.00    -0.532 OA
ENDBRANCH   7  25
TORSDOF 7
