REMARK  3 active torsions:
REMARK  status: ('A' for Active; 'I' for Inactive)
REMARK    1  A    between atoms: C_11  and  N_2 
REMARK    2  A    between atoms: C_7  and  N_3 
REMARK    3  A    between atoms: C_15  and  C_11 
ROOT
ATOM      1  C   UNL d   1       1.255  -0.763   0.132  0.00  0.00     0.336 A 
ATOM      2  N   UNL d   1       1.219   0.627  -0.029  0.00  0.00    -0.266 N 
ATOM      3  N   UNL d   1       0.003  -1.406   0.167  0.00  0.00    -0.274 N 
ATOM      4  C   UNL d   1       0.060   1.381  -0.058  0.00  0.00     0.252 A 
ATOM      5  C   UNL d   1      -1.178  -0.693   0.114  0.00  0.00     0.107 A 
ATOM      6  C   UNL d   1      -1.203   0.634   0.023  0.00  0.00     0.092 A 
ATOM      7  O   UNL d   1       2.329  -1.370   0.196  0.00  0.00    -0.246 OA
ATOM      8  O   UNL d   1       0.017   2.604  -0.160  0.00  0.00    -0.268 OA
ENDROOT
BRANCH   3   9
ATOM      9  C   UNL d   1      -0.010  -2.836   0.251  0.00  0.00     0.049 A 
ATOM     10  C   UNL d   1      -0.600  -3.644  -0.744  0.00  0.00    -0.035 A 
ATOM     11  C   UNL d   1      -1.217  -3.112  -2.008  0.00  0.00     0.050 C 
ATOM     12  C   UNL d   1      -0.547  -5.044  -0.598  0.00  0.00     0.009 A 
ATOM     13  C   UNL d   1       0.083  -5.633   0.498  0.00  0.00     0.001 A 
ATOM     14  C   UNL d   1       0.666  -4.833   1.474  0.00  0.00     0.002 A 
ATOM     15  C   UNL d   1       0.621  -3.446   1.350  0.00  0.00     0.031 A 
ENDBRANCH   3   9
BRANCH   2  16
ATOM     16  C   UNL d   1       2.489   1.322  -0.220  0.00  0.00     0.137 C 
BRANCH  16  17
ATOM     17  C   UNL d   1       3.056   1.952   1.056  0.00  0.00     0.016 C 
ATOM     18  C   UNL d   1       3.464   0.936   2.111  0.00  0.00     0.006 C 
ENDBRANCH  16  17
ENDBRANCH   2  16
TORSDOF 3
