REMARK  1 active torsions:
REMARK  status: ('A' for Active; 'I' for Inactive)
REMARK    1  A    between atoms: N_2  and  C_1 
REMARK       I    between atoms: C_4  and  N_2 
ROOT
ATOM      1  C   UNL d   1      -0.380   1.481  -0.016  0.00  0.00     0.041 A 
ATOM      2  C   UNL d   1       0.772   0.670  -0.094  0.00  0.00    -0.029 A 
ATOM      3  C   UNL d   1       0.631  -0.739   0.047  0.00  0.00    -0.054 A 
ATOM      4  C   UNL d   1      -1.647   0.868   0.040  0.00  0.00     0.030 A 
ATOM      5  C   UNL d   1      -1.782  -0.515   0.103  0.00  0.00     0.003 A 
ATOM      6  C   UNL d   1       2.141   1.230  -0.387  0.00  0.00     0.051 C 
ATOM      7  C   UNL d   1      -0.648  -1.312   0.125  0.00  0.00     0.007 A 
ATOM      8  C   UNL d   1       1.805  -1.686   0.055  0.00  0.00     0.049 C 
ENDROOT
BRANCH   1   9
ATOM      9  N   UNL d   1      -0.423   2.898  -0.023  0.00  0.00    -0.327 N 
ATOM     10  C   UNL d   1       0.511   3.783   0.485  0.00  0.00     0.218 C 
ATOM     11  O   UNL d   1       1.552   3.515   1.071  0.00  0.00    -0.274 OA
ATOM     12  C   UNL d   1       0.101   5.220   0.262  0.00  0.00     0.117 C 
ATOM     13  H   UNL d   1      -1.341   3.295  -0.173  0.00  0.00     0.169 HD
ENDBRANCH   1   9
TORSDOF 1
