REMARK  4 active torsions:
REMARK  status: ('A' for Active; 'I' for Inactive)
REMARK    1  A    between atoms: C_5  and  C_1 
REMARK    2  A    between atoms: C_8  and  C_4 
REMARK       I    between atoms: N_10  and  C_5 
REMARK       I    between atoms: C_9  and  N_11 
REMARK    3  A    between atoms: C_16  and  C_9 
REMARK    4  A    between atoms: N_11  and  N_10 
ROOT
ATOM      1  C   UNL d   1       2.381   1.753  -0.034  0.00  0.00     0.287 C 
ATOM      2  N   UNL d   1       2.114   3.104  -0.059  0.00  0.00    -0.262 N 
ATOM      3  O   UNL d   1       3.529   1.305  -0.072  0.00  0.00    -0.264 OA
ATOM      4  H   UNL d   1       1.165   3.471   0.020  0.00  0.00     0.190 HD
ENDROOT
BRANCH   1   5
ATOM      5  C   UNL d   1       1.193   0.899   0.030  0.00  0.00     0.110 A 
ATOM      6  N   UNL d   1      -0.108   1.411   0.014  0.00  0.00    -0.345 N 
ATOM      7  C   UNL d   1      -0.989   0.432   0.120  0.00  0.00     0.086 A 
ATOM      8  HN  UNL d   1      -0.344   2.400  -0.069  1.00  0.00     0.167 HD
ATOM      9  S   UNL d   1      -0.305  -1.151   0.170  0.00  0.00    -0.081 SA
ATOM     10  C   UNL d   1       1.262  -0.480   0.101  0.00  0.00     0.087 A 
BRANCH   7  11
ATOM     11  C   UNL d   1      -2.444   0.613   0.161  0.00  0.00     0.013 A 
ATOM     12  C   UNL d   1      -3.043   1.647  -0.555  0.00  0.00     0.101 A 
ATOM     13  N   UNL d   1      -4.378   1.896  -0.579  0.00  0.00    -0.374 N 
ATOM     14  C   UNL d   1      -5.161   1.084   0.161  0.00  0.00     0.087 A 
ATOM     15  HN  UNL d   1      -4.770   2.660  -1.129  1.00  0.00     0.164 HD
ATOM     16  C   UNL d   1      -4.674   0.033   0.919  0.00  0.00     0.018 A 
ATOM     17  C   UNL d   1      -3.299  -0.202   0.915  0.00  0.00     0.017 A 
ENDBRANCH   7  11
ENDBRANCH   1   5
BRANCH   2  18
ATOM     18  N   UNL d   1       3.181   4.004  -0.164  0.00  0.00    -0.263 N 
ATOM     19  C   UNL d   1       3.015   5.297   0.292  0.00  0.00     0.270 C 
ATOM     20  O   UNL d   1       1.962   5.727   0.752  0.00  0.00    -0.266 OA
ATOM     21  H   UNL d   1       4.105   3.589  -0.274  0.00  0.00     0.190 HD
BRANCH  19  22
ATOM     22  C   UNL d   1       4.220   6.167   0.199  0.00  0.00     0.033 A 
ATOM     23  C   UNL d   1       5.140   6.022  -0.848  0.00  0.00     0.017 A 
ATOM     24  C   UNL d   1       6.243   6.875  -0.933  0.00  0.00     0.001 A 
ATOM     25  C   UNL d   1       6.429   7.873   0.023  0.00  0.00     0.000 A 
ATOM     26  C   UNL d   1       5.512   8.024   1.063  0.00  0.00     0.001 A 
ATOM     27  C   UNL d   1       4.404   7.178   1.149  0.00  0.00     0.017 A 
ENDBRANCH  19  22
ENDBRANCH   2  18
TORSDOF 4
