REMARK  4 active torsions:
REMARK  status: ('A' for Active; 'I' for Inactive)
REMARK    1  A    between atoms: S_4  and  C_3 
REMARK    2  A    between atoms: O_16  and  S_4 
REMARK    3  A    between atoms: N_17  and  C_7 
REMARK    4  A    between atoms: N_18  and  C_8 
ROOT
ATOM      1  C   UNL d   1       1.254   0.734  -0.002  0.00  0.00     0.053 A 
ATOM      2  C   UNL d   1       1.274  -0.674   0.000  0.00  0.00     0.052 A 
ATOM      3  C   UNL d   1       3.672   0.776  -0.004  0.00  0.00     0.096 A 
ATOM      4  C   UNL d   1      -0.054   1.439   0.042  0.00  0.00     0.196 A 
ATOM      5  C   UNL d   1      -0.008  -1.435   0.029  0.00  0.00     0.196 A 
ATOM      6  C   UNL d   1       2.461   1.485   0.008  0.00  0.00     0.045 A 
ATOM      7  C   UNL d   1       2.508  -1.363   0.019  0.00  0.00     0.022 A 
ATOM      8  C   UNL d   1       3.695  -0.624   0.004  0.00  0.00     0.051 A 
ATOM      9  C   UNL d   1      -1.311   0.680  -0.006  0.00  0.00     0.029 A 
ATOM     10  C   UNL d   1      -1.292  -0.708  -0.010  0.00  0.00     0.029 A 
ATOM     11  O   UNL d   1      -0.110   2.660   0.156  0.00  0.00    -0.287 OA
ATOM     12  O   UNL d   1      -0.023  -2.659   0.128  0.00  0.00    -0.287 OA
ATOM     13  C   UNL d   1      -2.501  -1.418  -0.018  0.00  0.00     0.016 A 
ATOM     14  C   UNL d   1      -2.533   1.368  -0.014  0.00  0.00     0.016 A 
ATOM     15  C   UNL d   1      -3.734   0.662  -0.022  0.00  0.00     0.001 A 
ATOM     16  C   UNL d   1      -3.719  -0.731  -0.023  0.00  0.00     0.001 A 
ENDROOT
BRANCH   3  17
ATOM     17  S   UNL d   1       5.227   1.632  -0.009  0.00  0.00     0.131 S 
ATOM     18  O   UNL d   1       5.056   2.880   0.706  0.00  0.00    -0.598 OA
ATOM     19  O   UNL d   1       6.266   0.694   0.363  0.00  0.00    -0.598 OA
BRANCH  17  20
ATOM     20  O   UNL d   1       5.452   2.032  -1.556  0.00  0.00    -0.292 OA
ATOM     21  H   UNL d   1       5.153   2.959  -1.674  0.00  0.00     0.232 HD
ENDBRANCH  17  20
ENDBRANCH   3  17
BRANCH   6  22
ATOM     22  N   UNL d   1       2.442   2.884  -0.211  0.00  0.00    -0.301 NA
ATOM     23  H   UNL d   1       3.175   3.395   0.289  0.00  0.00     0.124 HD
ATOM     24  H   UNL d   1       1.519   3.291   0.007  0.00  0.00     0.124 HD
ENDBRANCH   6  22
BRANCH   7  25
ATOM     25  N   UNL d   1       2.604  -2.749  -0.192  0.00  0.00    -0.302 NA
ATOM     26  H   UNL d   1       1.730  -3.247   0.021  0.00  0.00     0.124 HD
ATOM     27  H   UNL d   1       3.420  -3.206   0.201  0.00  0.00     0.124 HD
ENDBRANCH   7  25
TORSDOF 4
