REMARK  4 active torsions:
REMARK  status: ('A' for Active; 'I' for Inactive)
REMARK    1  A    between atoms: C_10  and  C_1 
REMARK    2  A    between atoms: C_6  and  C_15 
REMARK    3  A    between atoms: C_16  and  C_9 
REMARK       I    between atoms: N_14  and  C_10 
REMARK    4  A    between atoms: C_22  and  N_14 
ROOT
ATOM      1  C   UNL d   1       4.851  -3.381   0.916  0.00  0.00    -0.002 A 
ATOM      2  C   UNL d   1       4.012  -2.290   1.171  0.00  0.00     0.016 A 
ATOM      3  C   UNL d   1       4.311  -4.473   0.226  0.00  0.00     0.016 A 
ATOM      4  C   UNL d   1       2.105  -3.433   0.194  0.00  0.00     0.035 A 
ATOM      5  C   UNL d   1       2.658  -2.321   0.825  0.00  0.00     0.030 A 
ATOM      6  C   UNL d   1       2.946  -4.503  -0.123  0.00  0.00     0.030 A 
ENDROOT
BRANCH   4   7
ATOM      7  N   UNL d   1       0.721  -3.541  -0.089  0.00  0.00    -0.322 N 
ATOM      8  C   UNL d   1      -0.230  -2.539   0.072  0.00  0.00     0.274 C 
ATOM      9  O   UNL d   1       0.055  -1.372   0.310  0.00  0.00    -0.266 OA
ATOM     10  H   UNL d   1       0.407  -4.430  -0.450  0.00  0.00     0.169 HD
BRANCH   8  11
ATOM     11  C   UNL d   1      -1.610  -2.959  -0.101  0.00  0.00     0.120 C 
ATOM     12  N   UNL d   1      -2.706  -2.122  -0.065  0.00  0.00    -0.291 N 
ATOM     13  N   UNL d   1      -3.861  -2.736  -0.390  0.00  0.00    -0.302 N 
ATOM     14  C   UNL d   1      -2.802  -0.730   0.312  0.00  0.00     0.178 C 
ATOM     15  C   UNL d   1      -3.538  -4.021  -0.543  0.00  0.00     0.036 C 
ATOM     16  HN  UNL d   1      -4.782  -2.311  -0.495  1.00  0.00     0.186 HD
ATOM     17  C   UNL d   1      -2.157  -4.218  -0.297  0.00  0.00     0.064 C 
BRANCH  15  18
ATOM     18  C   UNL d   1      -4.574  -5.058  -0.938  0.00  0.00    -0.007 C 
ATOM     19  C   UNL d   1      -4.848  -6.005   0.245  0.00  0.00     0.021 C 
ATOM     20  C   UNL d   1      -5.913  -4.414  -1.362  0.00  0.00     0.021 C 
ATOM     21  C   UNL d   1      -4.055  -5.882  -2.135  0.00  0.00     0.021 C 
ENDBRANCH  15  18
ENDBRANCH   8  11
ENDBRANCH   4   7
BRANCH   1  22
ATOM     22  C   UNL d   1       6.245  -3.393   1.394  0.00  0.00     0.085 A 
ATOM     23  N   UNL d   1       7.248  -4.036   0.828  0.00  0.00    -0.349 N 
ATOM     24  C   UNL d   1       8.418  -3.825   1.549  0.00  0.00     0.050 A 
ATOM     25  HN  UNL d   1       7.176  -4.605  -0.016  1.00  0.00     0.166 HD
ATOM     26  C   UNL d   1       9.698  -4.322   1.233  0.00  0.00     0.031 A 
ATOM     27  C   UNL d   1       8.282  -3.043   2.695  0.00  0.00     0.034 A 
ATOM     28  C   UNL d   1      10.790  -4.024   2.063  0.00  0.00     0.009 A 
ATOM     29  C   UNL d   1      10.631  -3.240   3.208  0.00  0.00    -0.061 A 
ATOM     30  C   UNL d   1       9.365  -2.737   3.535  0.00  0.00     0.028 A 
ATOM     31  C   UNL d   1      11.811  -2.938   4.087  0.00  0.00     0.048 C 
ATOM     32  S   UNL d   1       6.647  -2.572   2.859  0.00  0.00    -0.070 SA
ENDBRANCH   1  22
TORSDOF 4
