REMARK  7 active torsions:
REMARK  status: ('A' for Active; 'I' for Inactive)
REMARK    1  A    between atoms: C_2  and  C_1 
REMARK    2  A    between atoms: C_7  and  C_2 
REMARK    3  A    between atoms: N_8  and  C_3 
REMARK    4  A    between atoms: C_10  and  N_6 
REMARK    5  A    between atoms: C_17  and  N_8 
REMARK    6  A    between atoms: C_21  and  C_10 
REMARK    7  A    between atoms: O_22  and  C_18 
ROOT
ATOM      1  C   UNL d   1      -0.141  -1.418   0.006  0.00  0.00     0.110 C 
ATOM      2  C   UNL d   1      -0.941  -0.836   0.923  0.00  0.00     0.110 C 
ATOM      3  C   UNL d   1       0.686  -0.614  -0.828  0.00  0.00     0.105 C 
ATOM      4  N   UNL d   1       1.317   0.071  -1.521  0.00  0.00    -0.191 NA
ENDROOT
BRANCH   1   5
ATOM      5  C   UNL d   1      -0.136  -2.909  -0.128  0.00  0.00     0.204 C 
ATOM      6  O   UNL d   1      -0.445  -3.646   0.805  0.00  0.00    -0.286 OA
BRANCH   5   7
ATOM      7  C   UNL d   1       0.263  -3.515  -1.440  0.00  0.00     0.016 A 
ATOM      8  C   UNL d   1       0.950  -4.736  -1.451  0.00  0.00     0.018 A 
ATOM      9  C   UNL d   1       1.398  -5.286  -2.663  0.00  0.00     0.037 A 
ATOM     10  C   UNL d   1       1.152  -4.627  -3.868  0.00  0.00     0.068 A 
ATOM     11  C   UNL d   1       0.417  -3.441  -3.856  0.00  0.00     0.037 A 
ATOM     12  C   UNL d   1      -0.047  -2.900  -2.655  0.00  0.00     0.018 A 
BRANCH  10  13
ATOM     13  O   UNL d   1       1.558  -5.020  -5.111  0.00  0.00    -0.356 OA
ATOM     14  C   UNL d   1       2.311  -6.221  -5.201  0.00  0.00     0.210 C 
ENDBRANCH  10  13
ENDBRANCH   5   7
ENDBRANCH   1   5
BRANCH   2  15
ATOM     15  N   UNL d   1      -1.140   0.519   1.120  0.00  0.00    -0.393 N 
ATOM     16  H   UNL d   1      -0.610   1.146   0.514  0.00  0.00     0.159 HD
BRANCH  15  17
ATOM     17  C   UNL d   1      -1.999   1.183   2.104  0.00  0.00     0.084 C 
ATOM     18  C   UNL d   1      -3.463   0.779   1.961  0.00  0.00     0.055 C 
ATOM     19  C   UNL d   1      -4.073   1.310   0.664  0.00  0.00     0.275 C 
ATOM     20  N   UNL d   1      -3.952   2.775   0.533  0.00  0.00     0.092 N 
ATOM     21  C   UNL d   1      -2.548   3.202   0.654  0.00  0.00     0.275 C 
ATOM     22  C   UNL d   1      -1.889   2.704   1.946  0.00  0.00     0.055 C 
BRANCH  20  23
ATOM     23  C   UNL d   1      -4.529   3.178  -0.773  0.00  0.00     0.311 C 
BRANCH  23  24
ATOM     24  C   UNL d   1      -4.523   4.669  -1.040  0.00  0.00    -0.030 A 
ATOM     25  C   UNL d   1      -3.800   5.194  -2.124  0.00  0.00     0.009 A 
ATOM     26  C   UNL d   1      -3.758   6.571  -2.350  0.00  0.00     0.001 A 
ATOM     27  C   UNL d   1      -4.453   7.437  -1.509  0.00  0.00     0.000 A 
ATOM     28  C   UNL d   1      -5.203   6.926  -0.451  0.00  0.00     0.001 A 
ATOM     29  C   UNL d   1      -5.237   5.550  -0.215  0.00  0.00     0.009 A 
ENDBRANCH  23  24
ENDBRANCH  20  23
ENDBRANCH  15  17
ENDBRANCH   2  15
TORSDOF 7
