REMARK  8 active torsions:
REMARK  status: ('A' for Active; 'I' for Inactive)
REMARK    1  A    between atoms: C_9  and  N_1 
REMARK    2  A    between atoms: N_2  and  C_10 
REMARK    3  A    between atoms: O_3  and  C_5 
REMARK    4  A    between atoms: C_7  and  O_3 
REMARK    5  A    between atoms: O_4  and  C_8 
REMARK    6  A    between atoms: C_6  and  O_4 
REMARK    7  A    between atoms: C_5  and  C_13 
REMARK    8  A    between atoms: C_14  and  C_6 
ROOT
ATOM      1  C   UNL d   1      -3.811   0.252   3.581  0.00  0.00     0.325 C 
ATOM      2  C   UNL d   1      -3.260  -0.707   4.683  0.00  0.00     0.325 C 
ATOM      3  O   UNL d   1      -5.247   0.282   3.568  0.00  0.00    -0.354 OA
ATOM      4  O   UNL d   1      -3.773  -2.040   4.452  0.00  0.00    -0.354 OA
ATOM      5  C   UNL d   1      -5.762  -1.039   3.370  0.00  0.00     0.197 C 
ATOM      6  C   UNL d   1      -5.205  -2.052   4.376  0.00  0.00     0.197 C 
ENDROOT
BRANCH   1   7
ATOM      7  O   UNL d   1      -3.272   1.581   3.603  0.00  0.00    -0.281 OA
BRANCH   7   8
ATOM      8  C   UNL d   1      -2.163   1.700   2.831  0.00  0.00     0.295 C 
ATOM      9  O   UNL d   1      -1.470   0.778   2.429  0.00  0.00    -0.259 OA
BRANCH   8  10
ATOM     10  C   UNL d   1      -1.982   3.096   2.362  0.00  0.00     0.039 A 
ATOM     11  C   UNL d   1      -2.351   4.200   3.138  0.00  0.00     0.020 A 
ATOM     12  C   UNL d   1      -2.171   5.497   2.639  0.00  0.00     0.037 A 
ATOM     13  C   UNL d   1      -1.633   5.683   1.356  0.00  0.00     0.102 A 
ATOM     14  C   UNL d   1      -1.263   4.583   0.573  0.00  0.00     0.037 A 
ATOM     15  C   UNL d   1      -1.432   3.292   1.083  0.00  0.00     0.020 A 
BRANCH  13  16
ATOM     16  N   UNL d   1      -1.458   7.044   0.823  0.00  0.00    -0.116 N 
ATOM     17  O   UNL d   1      -1.050   7.160  -0.339  0.00  0.00    -0.532 OA
ATOM     18  O   UNL d   1      -1.729   7.991   1.570  0.00  0.00    -0.532 OA
ENDBRANCH  13  16
ENDBRANCH   8  10
ENDBRANCH   7   8
ENDBRANCH   1   7
BRANCH   2  19
ATOM     19  O   UNL d   1      -3.330  -0.387   6.094  0.00  0.00    -0.281 OA
BRANCH  19  20
ATOM     20  C   UNL d   1      -4.456   0.069   6.671  0.00  0.00     0.295 C 
ATOM     21  O   UNL d   1      -5.353   0.704   6.151  0.00  0.00    -0.259 OA
BRANCH  20  22
ATOM     22  C   UNL d   1      -4.578  -0.476   8.059  0.00  0.00     0.039 A 
ATOM     23  C   UNL d   1      -5.856  -0.501   8.644  0.00  0.00     0.020 A 
ATOM     24  C   UNL d   1      -6.057  -1.073   9.906  0.00  0.00     0.037 A 
ATOM     25  C   UNL d   1      -4.968  -1.621  10.594  0.00  0.00     0.102 A 
ATOM     26  C   UNL d   1      -3.685  -1.592  10.028  0.00  0.00     0.037 A 
ATOM     27  C   UNL d   1      -3.493  -1.022   8.761  0.00  0.00     0.020 A 
BRANCH  25  28
ATOM     28  N   UNL d   1      -5.178  -2.241  11.911  0.00  0.00    -0.116 N 
ATOM     29  O   UNL d   1      -6.336  -2.286  12.350  0.00  0.00    -0.532 OA
ATOM     30  O   UNL d   1      -4.182  -2.685  12.502  0.00  0.00    -0.532 OA
ENDBRANCH  25  28
ENDBRANCH  20  22
ENDBRANCH  19  20
ENDBRANCH   2  19
TORSDOF 8
