REMARK  6 active torsions:
REMARK  status: ('A' for Active; 'I' for Inactive)
REMARK    1  A    between atoms: N_9  and  C_1 
REMARK    2  A    between atoms: C_7  and  C_11 
REMARK    3  A    between atoms: C_8  and  C_10 
REMARK       I    between atoms: C_13  and  N_9 
REMARK    4  A    between atoms: C_26  and  C_13 
REMARK    5  A    between atoms: C_16  and  S_17 
REMARK    6  A    between atoms: S_17  and  C_26 
ROOT
ATOM      1  C   UNL d   1       5.244  -8.582   0.746  0.00  0.00     0.050 A 
ATOM      2  C   UNL d   1       6.605  -6.830  -0.268  0.00  0.00     0.050 A 
ATOM      3  C   UNL d   1       6.490  -8.097   0.326  0.00  0.00     0.032 A 
ATOM      4  C   UNL d   1       4.105  -7.785   0.547  0.00  0.00     0.034 A 
ATOM      5  C   UNL d   1       5.446  -6.053  -0.458  0.00  0.00     0.034 A 
ATOM      6  C   UNL d   1       4.191  -6.523  -0.056  0.00  0.00     0.002 A 
ENDROOT
BRANCH   6   7
ATOM      7  S   UNL d   1       2.657  -5.651  -0.338  0.00  0.00    -0.121 SA
BRANCH   7   8
ATOM      8  C   UNL d   1       3.149  -3.899  -0.183  0.00  0.00     0.182 C 
BRANCH   8   9
ATOM      9  C   UNL d   1       1.923  -2.999  -0.079  0.00  0.00     0.232 C 
ATOM     10  N   UNL d   1       1.010  -3.192  -1.102  0.00  0.00    -0.310 N 
ATOM     11  H   UNL d   1       1.119  -4.001  -1.699  0.00  0.00     0.170 HD
ATOM     12  O   UNL d   1       1.852  -2.176   0.830  0.00  0.00    -0.272 OA
BRANCH  10  13
ATOM     13  C   UNL d   1      -0.161  -2.476  -1.261  0.00  0.00     0.141 A 
ATOM     14  C   UNL d   1      -1.208  -2.798  -2.158  0.00  0.00     0.073 A 
ATOM     15  C   UNL d   1      -2.184  -1.855  -1.974  0.00  0.00     0.132 A 
ATOM     16 BR   UNL d   1      -1.254  -4.259  -3.324  0.00  0.00    -0.045 Br
ATOM     17  N   UNL d   1      -1.688  -1.019  -1.019  0.00  0.00    -0.305 N 
ATOM     18  N   UNL d   1      -0.467  -1.365  -0.585  0.00  0.00    -0.283 N 
ATOM     19  C   UNL d   1      -2.348   0.135  -0.456  0.00  0.00     0.177 C 
ATOM     20  HN  UNL d   1       0.105  -0.884   0.111  1.00  0.00     0.189 HD
ENDBRANCH  10  13
ENDBRANCH   8   9
ENDBRANCH   7   8
ENDBRANCH   6   7
BRANCH   1  21
ATOM     21  C   UNL d   1       5.108  -9.935   1.405  0.00  0.00     0.417 C 
ATOM     22  F   UNL d   1       6.285 -10.615   1.492  0.00  0.00    -0.166 F 
ATOM     23  F   UNL d   1       4.634  -9.844   2.678  0.00  0.00    -0.166 F 
ATOM     24  F   UNL d   1       4.250 -10.755   0.741  0.00  0.00    -0.166 F 
ENDBRANCH   1  21
BRANCH   2  25
ATOM     25  C   UNL d   1       7.952  -6.299  -0.705  0.00  0.00     0.417 C 
ATOM     26  F   UNL d   1       8.981  -7.156  -0.460  0.00  0.00    -0.166 F 
ATOM     27  F   UNL d   1       7.996  -6.031  -2.038  0.00  0.00    -0.166 F 
ATOM     28  F   UNL d   1       8.275  -5.135  -0.077  0.00  0.00    -0.166 F 
ENDBRANCH   2  25
TORSDOF 6
