REMARK  5 active torsions:
REMARK  status: ('A' for Active; 'I' for Inactive)
REMARK    1  A    between atoms: C_9  and  C_1 
REMARK    2  A    between atoms: N_4  and  C_2 
REMARK    3  A    between atoms: O_15  and  C_7 
REMARK    4  A    between atoms: O_16  and  C_9 
REMARK    5  A    between atoms: C_18  and  O_16 
ROOT
ATOM      1  C   UNL d   1      -0.808   1.304  -0.024  0.00  0.00     0.099 A 
ATOM      2  C   UNL d   1      -1.462   0.066  -0.016  0.00  0.00     0.142 A 
ATOM      3  C   UNL d   1       0.593   1.331  -0.001  0.00  0.00     0.114 A 
ATOM      4  N   UNL d   1       0.633  -1.091   0.017  0.00  0.00    -0.337 N 
ATOM      5  HN  UNL d   1       1.175  -1.954   0.027  1.00  0.00     0.168 HD
ATOM      6  C   UNL d   1       1.240   0.109   0.018  0.00  0.00     0.162 A 
ATOM      7  C   UNL d   1      -0.727  -1.118  -0.000  0.00  0.00     0.041 A 
ATOM      8  C   UNL d   1       1.352   2.538   0.063  0.00  0.00     0.105 C 
ATOM      9  N   UNL d   1       1.967   3.517   0.157  0.00  0.00    -0.191 NA
ATOM     10  C   UNL d   1      -1.308  -2.501  -0.019  0.00  0.00     0.071 C 
ENDROOT
BRANCH   1  11
ATOM     11  C   UNL d   1      -1.535   2.588  -0.064  0.00  0.00     0.297 C 
ATOM     12  O   UNL d   1      -1.254   3.485  -0.834  0.00  0.00    -0.259 OA
BRANCH  11  13
ATOM     13  O   UNL d   1      -2.405   2.631   0.968  0.00  0.00    -0.318 OA
BRANCH  13  14
ATOM     14  C   UNL d   1      -2.891   3.941   1.316  0.00  0.00     0.174 C 
ATOM     15  C   UNL d   1      -4.109   4.354   0.510  0.00  0.00     0.034 C 
ENDBRANCH  13  14
ENDBRANCH  11  13
ENDBRANCH   1  11
BRANCH   6  16
ATOM     16  O   UNL d   1       2.590   0.009   0.053  0.00  0.00    -0.345 OA
ATOM     17  H   UNL d   1       2.716  -0.958   0.057  0.00  0.00     0.219 HD
ENDBRANCH   6  16
BRANCH   2  18
ATOM     18  N   UNL d   1      -2.899   0.013  -0.058  0.00  0.00    -0.113 N 
ATOM     19  O   UNL d   1      -3.438   0.399  -1.101  0.00  0.00    -0.532 OA
ATOM     20  O   UNL d   1      -3.474  -0.435   0.941  0.00  0.00    -0.532 OA
ENDBRANCH   2  18
TORSDOF 5
