REMARK  4 active torsions:
REMARK  status: ('A' for Active; 'I' for Inactive)
REMARK    1  A    between atoms: C_5  and  C_1 
REMARK       I    between atoms: N_8  and  C_1 
REMARK    2  A    between atoms: O_2  and  C_5 
REMARK    3  A    between atoms: C_3  and  O_2 
REMARK    4  A    between atoms: N_12  and  N_8 
ROOT
ATOM      1  O   UNL d   1      -0.203  -1.668  -0.244  0.00  0.00    -0.335 OA
ENDROOT
BRANCH   1   2
ATOM      2  C   UNL d   1       0.315  -1.004   0.909  0.00  0.00     0.218 C 
ATOM      3  C   UNL d   1       1.072  -2.043   1.732  0.00  0.00     0.050 C 
BRANCH   2   4
ATOM      4  C   UNL d   1       1.263   0.156   0.562  0.00  0.00     0.260 C 
ATOM      5  O   UNL d   1       1.191   1.253   1.118  0.00  0.00    -0.269 OA
ATOM      6  N   UNL d   1       2.222  -0.153  -0.393  0.00  0.00    -0.292 N 
ATOM      7  H   UNL d   1       2.163  -1.033  -0.907  0.00  0.00     0.183 HD
BRANCH   6   8
ATOM      8  N   UNL d   1       3.128   0.839  -0.822  0.00  0.00    -0.247 NA
ATOM      9  H   UNL d   1       3.500   1.294   0.021  0.00  0.00     0.143 HD
ATOM     10  H   UNL d   1       2.581   1.586  -1.265  0.00  0.00     0.143 HD
ENDBRANCH   6   8
ENDBRANCH   2   4
ENDBRANCH   1   2
BRANCH   1  11
ATOM     11  C   UNL d   1      -1.003  -0.940  -1.088  0.00  0.00     0.091 A 
ATOM     12  C   UNL d   1      -0.990  -1.289  -2.448  0.00  0.00     0.069 A 
ATOM     13  C   UNL d   1      -1.775  -0.597  -3.373  0.00  0.00     0.050 A 
ATOM     14 CL   UNL d   1       0.027  -2.558  -3.035  0.00  0.00    -0.081 Cl
ATOM     15  C   UNL d   1      -2.591   0.441  -2.935  0.00  0.00     0.035 A 
ATOM     16  C   UNL d   1      -2.633   0.784  -1.586  0.00  0.00     0.026 A 
ATOM     17 CL   UNL d   1      -3.558   1.308  -4.065  0.00  0.00    -0.084 Cl
ATOM     18  C   UNL d   1      -1.844   0.093  -0.662  0.00  0.00     0.040 A 
ENDBRANCH   1  11
TORSDOF 4
