REMARK  5 active torsions:
REMARK  status: ('A' for Active; 'I' for Inactive)
REMARK    1  A    between atoms: C_2  and  S_1 
REMARK    2  A    between atoms: O_5  and  S_1 
REMARK    3  A    between atoms: C_12  and  O_5 
REMARK    4  A    between atoms: O_11  and  C_16 
REMARK    5  A    between atoms: C_17  and  O_11 
ROOT
ATOM      1  C   UNL d   1       0.871  -2.579  -0.573  0.00  0.00     0.089 A 
ATOM      2  C   UNL d   1       1.445  -4.593  -2.407  0.00  0.00     0.076 A 
ATOM      3  C   UNL d   1       2.179  -2.751  -1.028  0.00  0.00     0.041 A 
ATOM      4  C   UNL d   1      -0.126  -3.483  -0.941  0.00  0.00     0.041 A 
ATOM      5  C   UNL d   1       0.163  -4.492  -1.864  0.00  0.00     0.040 A 
ATOM      6  C   UNL d   1       2.469  -3.767  -1.937  0.00  0.00     0.040 A 
ENDROOT
BRANCH   1   7
ATOM      7  O   UNL d   1       0.513  -1.531   0.239  0.00  0.00    -0.229 OA
BRANCH   7   8
ATOM      8  S   UNL d   1       0.919  -0.021  -0.223  0.00  0.00     0.304 S 
ATOM      9  O   UNL d   1       2.306   0.211   0.143  0.00  0.00    -0.193 OA
ATOM     10  O   UNL d   1       0.466   0.192  -1.585  0.00  0.00    -0.193 OA
BRANCH   8  11
ATOM     11  C   UNL d   1       0.004   1.158   0.741  0.00  0.00     0.110 A 
ATOM     12  C   UNL d   1       0.323   2.505   0.467  0.00  0.00     0.053 A 
ATOM     13  C   UNL d   1      -0.316   3.543   1.147  0.00  0.00     0.057 A 
ATOM     14 CL   UNL d   1       0.130   5.162   0.751  0.00  0.00    -0.083 Cl
ATOM     15  C   UNL d   1      -1.280   3.240   2.108  0.00  0.00     0.057 A 
ATOM     16  C   UNL d   1      -1.595   1.902   2.379  0.00  0.00     0.051 A 
ATOM     17 CL   UNL d   1      -2.117   4.462   2.997  0.00  0.00    -0.082 Cl
ATOM     18  C   UNL d   1      -0.959   0.853   1.696  0.00  0.00     0.059 A 
ATOM     19 CL   UNL d   1      -1.460  -0.734   2.127  0.00  0.00    -0.083 Cl
ENDBRANCH   8  11
ENDBRANCH   7   8
ENDBRANCH   1   7
BRANCH   2  20
ATOM     20  O   UNL d   1       1.645  -5.546  -3.379  0.00  0.00    -0.311 OA
BRANCH  20  21
ATOM     21  C   UNL d   1       2.362  -5.192  -4.505  0.00  0.00     0.076 A 
ATOM     22  C   UNL d   1       3.049  -6.227  -5.144  0.00  0.00     0.037 A 
ATOM     23  C   UNL d   1       3.818  -5.963  -6.279  0.00  0.00     0.003 A 
ATOM     24  C   UNL d   1       3.898  -4.665  -6.783  0.00  0.00     0.000 A 
ATOM     25  C   UNL d   1       3.186  -3.636  -6.170  0.00  0.00     0.003 A 
ATOM     26  C   UNL d   1       2.401  -3.902  -5.046  0.00  0.00     0.037 A 
ENDBRANCH  20  21
ENDBRANCH   2  20
TORSDOF 5
