REMARK  8 active torsions:
REMARK  status: ('A' for Active; 'I' for Inactive)
REMARK    1  A    between atoms: C_12  and  C_1 
REMARK    2  A    between atoms: N_15  and  C_3 
REMARK    3  A    between atoms: C_14  and  C_8 
REMARK    4  A    between atoms: S_13  and  C_9 
REMARK    5  A    between atoms: O_17  and  C_12 
REMARK    6  A    between atoms: C_18  and  S_13 
REMARK    7  A    between atoms: C_22  and  O_17 
REMARK    8  A    between atoms: C_19  and  C_18 
ROOT
ATOM      1  C   UNL d   1      -2.439  -0.655   0.064  0.00  0.00     0.109 C 
ATOM      2  C   UNL d   1      -0.078  -0.889   0.045  0.00  0.00     0.053 A 
ATOM      3  C   UNL d   1      -1.373  -1.529   0.195  0.00  0.00     0.064 C 
ATOM      4  C   UNL d   1      -0.250   0.486   0.005  0.00  0.00     0.091 A 
ATOM      5  S   UNL d   1      -1.885   0.961  -0.023  0.00  0.00    -0.063 SA
ATOM      6  N   UNL d   1       0.711   1.422  -0.042  0.00  0.00    -0.330 N 
ATOM      7  HN  UNL d   1       0.512   2.422  -0.060  1.00  0.00     0.168 HD
ATOM      8  C   UNL d   1       1.266  -1.311  -0.077  0.00  0.00     0.059 A 
ATOM      9  C   UNL d   1       1.950   0.927  -0.064  0.00  0.00     0.145 A 
ATOM     10  N   UNL d   1       2.265  -0.375  -0.095  0.00  0.00    -0.335 N 
ATOM     11  HN  UNL d   1       3.241  -0.667  -0.131  1.00  0.00     0.168 HD
ENDROOT
BRANCH   9  12
ATOM     12  S   UNL d   1       3.259   2.139   0.025  0.00  0.00    -0.089 SA
BRANCH  12  13
ATOM     13  C   UNL d   1       4.610   1.289  -0.850  0.00  0.00     0.121 C 
BRANCH  13  14
ATOM     14  C   UNL d   1       5.862   2.142  -0.930  0.00  0.00    -0.049 A 
ATOM     15  C   UNL d   1       6.840   2.084   0.079  0.00  0.00     0.008 A 
ATOM     16  C   UNL d   1       8.001   2.856  -0.000  0.00  0.00     0.001 A 
ATOM     17  C   UNL d   1       8.203   3.709  -1.083  0.00  0.00     0.000 A 
ATOM     18  C   UNL d   1       7.241   3.792  -2.086  0.00  0.00     0.001 A 
ATOM     19  C   UNL d   1       6.077   3.017  -2.009  0.00  0.00     0.008 A 
ENDBRANCH  13  14
ENDBRANCH  12  13
ENDBRANCH   9  12
BRANCH   8  20
ATOM     20  C   UNL d   1       1.684  -2.711  -0.279  0.00  0.00    -0.008 A 
ATOM     21  C   UNL d   1       0.916  -3.623  -1.027  0.00  0.00     0.014 A 
ATOM     22  C   UNL d   1       1.297  -4.958  -1.186  0.00  0.00     0.001 A 
ATOM     23  C   UNL d   1       2.513  -5.393  -0.677  0.00  0.00     0.000 A 
ATOM     24  C   UNL d   1       3.334  -4.497   0.003  0.00  0.00     0.001 A 
ATOM     25  C   UNL d   1       2.917  -3.177   0.212  0.00  0.00     0.014 A 
ENDBRANCH   8  20
BRANCH   1  26
ATOM     26  C   UNL d   1      -3.857  -1.004   0.024  0.00  0.00     0.302 C 
ATOM     27  O   UNL d   1      -4.293  -2.145   0.061  0.00  0.00    -0.259 OA
BRANCH  26  28
ATOM     28  O   UNL d   1      -4.646   0.108  -0.064  0.00  0.00    -0.317 OA
BRANCH  28  29
ATOM     29  C   UNL d   1      -6.060  -0.130  -0.105  0.00  0.00     0.174 C 
ATOM     30  C   UNL d   1      -6.602  -0.329   1.299  0.00  0.00     0.034 C 
ENDBRANCH  28  29
ENDBRANCH  26  28
ENDBRANCH   1  26
BRANCH   3  31
ATOM     31  N   UNL d   1      -1.572  -2.849   0.413  0.00  0.00    -0.397 N 
ATOM     32  H   UNL d   1      -0.851  -3.487   0.744  0.00  0.00     0.156 HD
ATOM     33  H   UNL d   1      -2.513  -3.252   0.452  0.00  0.00     0.156 HD
ENDBRANCH   3  31
TORSDOF 8
