REMARK  3 active torsions:
REMARK  status: ('A' for Active; 'I' for Inactive)
REMARK    1  A    between atoms: C_2  and  S_1 
REMARK    2  A    between atoms: C_7  and  S_1 
REMARK    3  A    between atoms: C_4  and  C_3 
ROOT
ATOM      1  C   UNL d   1       0.636   1.575  -0.844  0.00  0.00     0.145 C 
ATOM      2  C   UNL d   1      -0.387   1.337  -1.688  0.00  0.00     0.050 C 
ATOM      3  C   UNL d   1       1.538   0.591  -0.378  0.00  0.00     0.112 C 
ATOM      4  N   UNL d   1       2.285  -0.218  -0.016  0.00  0.00    -0.191 NA
ENDROOT
BRANCH   1   5
ATOM      5  S   UNL d   1       0.819   3.201  -0.255  0.00  0.00     0.216 S 
ATOM      6  O   UNL d   1       0.216   3.281   1.063  0.00  0.00    -0.216 OA
ATOM      7  O   UNL d   1       0.419   4.144  -1.287  0.00  0.00    -0.216 OA
BRANCH   5   8
ATOM      8  C   UNL d   1       2.574   3.465  -0.045  0.00  0.00     0.065 A 
ATOM      9  C   UNL d   1       3.418   3.417  -1.163  0.00  0.00     0.027 A 
ATOM     10  C   UNL d   1       4.782   3.669  -1.001  0.00  0.00     0.044 A 
ATOM     11  C   UNL d   1       5.283   3.981   0.260  0.00  0.00     0.116 A 
ATOM     12  C   UNL d   1       4.445   4.051   1.369  0.00  0.00     0.044 A 
ATOM     13  F   UNL d   1       6.590   4.231   0.406  0.00  0.00    -0.206 F 
ATOM     14  C   UNL d   1       3.080   3.794   1.220  0.00  0.00     0.027 A 
ENDBRANCH   5   8
ENDBRANCH   1   5
BRANCH   2  15
ATOM     15  C   UNL d   1      -0.715   0.051  -2.338  0.00  0.00     0.009 A 
ATOM     16  C   UNL d   1      -1.501  -0.927  -1.700  0.00  0.00     0.046 A 
ATOM     17 CL   UNL d   1      -2.083  -0.712  -0.085  0.00  0.00    -0.083 Cl
ATOM     18  C   UNL d   1      -1.863  -2.106  -2.365  0.00  0.00     0.025 A 
ATOM     19  C   UNL d   1      -1.450  -2.327  -3.678  0.00  0.00     0.003 A 
ATOM     20  C   UNL d   1      -0.665  -1.375  -4.324  0.00  0.00     0.025 A 
ATOM     21  C   UNL d   1      -0.298  -0.199  -3.659  0.00  0.00     0.046 A 
ATOM     22 CL   UNL d   1       0.676   0.938  -4.531  0.00  0.00    -0.083 Cl
ENDBRANCH   2  15
TORSDOF 3
