REMARK  10 active torsions:
REMARK  status: ('A' for Active; 'I' for Inactive)
REMARK    1  A    between atoms: N_3  and  C_1 
REMARK    2  A    between atoms: N_4  and  C_1 
REMARK    3  A    between atoms: O_15  and  C_2 
REMARK    4  A    between atoms: C_9  and  N_3 
REMARK    5  A    between atoms: C_19  and  N_3 
REMARK    6  A    between atoms: C_12  and  N_4 
REMARK    7  A    between atoms: O_17  and  C_5 
REMARK    8  A    between atoms: O_16  and  C_6 
REMARK    9  A    between atoms: C_7  and  C_9 
REMARK   10  A    between atoms: S_18  and  C_14 
ROOT
ATOM      1  N   UNL d   1       0.487  -0.359   1.276  0.00  0.00    -0.354 N 
ENDROOT
BRANCH   1   2
ATOM      2  C   UNL d   1       1.225  -0.011   0.123  0.00  0.00     0.174 C 
ATOM      3  S   UNL d   1       0.554   0.455  -1.345  0.00  0.00    -0.041 SA
BRANCH   2   4
ATOM      4  N   UNL d   1       2.594  -0.179   0.318  0.00  0.00    -0.333 N 
ATOM      5  H   UNL d   1       2.828  -1.097   0.679  0.00  0.00     0.168 HD
BRANCH   4   6
ATOM      6  C   UNL d   1       3.641   0.561  -0.271  0.00  0.00     0.035 A 
ATOM      7  C   UNL d   1       4.831  -0.094  -0.614  0.00  0.00     0.048 A 
ATOM      8  C   UNL d   1       5.897   0.621  -1.178  0.00  0.00     0.002 A 
ATOM      9  C   UNL d   1       5.776   2.006  -1.342  0.00  0.00     0.018 A 
ATOM     10  C   UNL d   1       4.609   2.668  -0.960  0.00  0.00     0.004 A 
ATOM     11  C   UNL d   1       3.540   1.945  -0.437  0.00  0.00     0.029 A 
BRANCH   8  12
ATOM     12  S   UNL d   1       7.378  -0.154  -1.813  0.00  0.00    -0.134 SA
ATOM     13  C   UNL d   1       7.733  -1.399  -0.550  0.00  0.00     0.095 C 
ENDBRANCH   8  12
ENDBRANCH   4   6
ENDBRANCH   2   4
ENDBRANCH   1   2
BRANCH   1  14
ATOM     14  C   UNL d   1      -0.951  -0.709   1.228  0.00  0.00     0.164 C 
BRANCH  14  15
ATOM     15  C   UNL d   1      -1.224  -2.093   1.784  0.00  0.00    -0.035 A 
ATOM     16  C   UNL d   1      -1.438  -2.292   3.158  0.00  0.00     0.048 A 
ATOM     17  C   UNL d   1      -1.631  -3.580   3.676  0.00  0.00     0.104 A 
ATOM     18  C   UNL d   1      -1.618  -4.692   2.821  0.00  0.00     0.135 A 
ATOM     19  C   UNL d   1      -1.441  -4.499   1.443  0.00  0.00     0.104 A 
ATOM     20  C   UNL d   1      -1.256  -3.207   0.933  0.00  0.00     0.048 A 
BRANCH  17  21
ATOM     21  O   UNL d   1      -1.796  -3.812   5.019  0.00  0.00    -0.353 OA
ATOM     22  C   UNL d   1      -2.656  -2.882   5.673  0.00  0.00     0.210 C 
ENDBRANCH  17  21
BRANCH  18  23
ATOM     23  O   UNL d   1      -1.694  -5.935   3.395  0.00  0.00    -0.351 OA
ATOM     24  C   UNL d   1      -2.832  -6.691   2.993  0.00  0.00     0.210 C 
ENDBRANCH  18  23
BRANCH  19  25
ATOM     25  O   UNL d   1      -1.536  -5.501   0.515  0.00  0.00    -0.353 OA
ATOM     26  C   UNL d   1      -0.502  -6.474   0.621  0.00  0.00     0.210 C 
ENDBRANCH  19  25
ENDBRANCH  14  15
ENDBRANCH   1  14
BRANCH   1  27
ATOM     27  C   UNL d   1       0.993   0.125   2.575  0.00  0.00     0.121 C 
ATOM     28  C   UNL d   1       0.732   1.617   2.760  0.00  0.00     0.026 C 
ENDBRANCH   1  27
TORSDOF 10
