REMARK  5 active torsions:
REMARK  status: ('A' for Active; 'I' for Inactive)
REMARK    1  A    between atoms: C_2  and  C_1 
REMARK       I    between atoms: N_4  and  C_1 
REMARK    2  A    between atoms: C_3  and  N_5 
REMARK    3  A    between atoms: N_5  and  N_4 
REMARK    4  A    between atoms: C_6  and  C_17 
REMARK    5  A    between atoms: C_17  and  N_9 
ROOT
ATOM      1  C   UNL d   1      -1.973   1.250  -2.515  0.00  0.00     0.186 C 
ATOM      2  S   UNL d   1      -1.201   1.391  -1.040  0.00  0.00    -0.040 SA
ATOM      3  N   UNL d   1      -3.326   1.069  -2.535  0.00  0.00    -0.360 N 
ATOM      4  H   UNL d   1      -3.755   1.093  -1.615  0.00  0.00     0.162 HD
ENDROOT
BRANCH   1   5
ATOM      5  N   UNL d   1      -1.371   1.377  -3.744  0.00  0.00    -0.274 N 
ATOM      6  H   UNL d   1      -1.749   0.840  -4.524  0.00  0.00     0.189 HD
BRANCH   5   7
ATOM      7  N   UNL d   1      -0.004   1.671  -3.851  0.00  0.00    -0.260 N 
ATOM      8  C   UNL d   1       0.637   1.392  -5.053  0.00  0.00     0.343 C 
ATOM      9  O   UNL d   1       0.097   0.707  -5.925  0.00  0.00    -0.262 OA
ATOM     10  H   UNL d   1       0.384   2.329  -3.172  0.00  0.00     0.190 HD
BRANCH   8  11
ATOM     11  C   UNL d   1       2.044   1.999  -5.162  0.00  0.00     0.473 C 
ATOM     12  F   UNL d   1       2.226   3.016  -4.267  0.00  0.00    -0.162 F 
ATOM     13  F   UNL d   1       3.026   1.093  -4.909  0.00  0.00    -0.162 F 
ATOM     14  F   UNL d   1       2.298   2.525  -6.391  0.00  0.00    -0.162 F 
ENDBRANCH   8  11
ENDBRANCH   5   7
ENDBRANCH   1   5
BRANCH   3  15
ATOM     15  C   UNL d   1      -4.192   1.465  -3.631  0.00  0.00     0.187 C 
BRANCH  15  16
ATOM     16  C   UNL d   1      -5.609   1.314  -3.230  0.00  0.00     0.070 A 
ATOM     17  O   UNL d   1      -5.991   1.951  -2.083  0.00  0.00    -0.325 OA
ATOM     18  C   UNL d   1      -7.318   1.708  -1.918  0.00  0.00     0.142 A 
ATOM     19  C   UNL d   1      -7.794   0.925  -2.943  0.00  0.00     0.027 A 
ATOM     20  C   UNL d   1      -6.690   0.667  -3.791  0.00  0.00     0.036 A 
ENDBRANCH  15  16
ENDBRANCH   3  15
TORSDOF 5
