REMARK  6 active torsions:
REMARK  status: ('A' for Active; 'I' for Inactive)
REMARK    1  A    between atoms: N_2  and  C_1 
REMARK    2  A    between atoms: N_3  and  C_1 
REMARK    3  A    between atoms: C_7  and  N_2 
REMARK    4  A    between atoms: C_5  and  N_3 
REMARK    5  A    between atoms: C_12  and  C_7 
REMARK    6  A    between atoms: O_10  and  C_12 
ROOT
ATOM      1  C   UNL d   1       0.980  -0.131   0.057  0.00  0.00     0.172 C 
ATOM      2  S   UNL d   1       0.071  -0.190   1.461  0.00  0.00    -0.041 SA
ENDROOT
BRANCH   1   3
ATOM      3  N   UNL d   1       0.469   0.593  -0.976  0.00  0.00    -0.356 N 
ATOM      4  H   UNL d   1      -0.343   1.127  -0.674  0.00  0.00     0.162 HD
BRANCH   3   5
ATOM      5  C   UNL d   1       1.094   1.132  -2.210  0.00  0.00     0.046 C 
ATOM      6  C   UNL d   1       2.450   1.792  -1.907  0.00  0.00     0.040 C 
ATOM      7  C   UNL d   1       1.254   0.044  -3.282  0.00  0.00     0.040 C 
BRANCH   5   8
ATOM      8  C   UNL d   1       0.131   2.216  -2.783  0.00  0.00     0.194 C 
BRANCH   8   9
ATOM      9  O   UNL d   1      -0.137   3.211  -1.795  0.00  0.00    -0.398 OA
ATOM     10  H   UNL d   1      -0.691   3.893  -2.212  0.00  0.00     0.209 HD
ENDBRANCH   8   9
ENDBRANCH   5   8
ENDBRANCH   3   5
ENDBRANCH   1   3
BRANCH   1  11
ATOM     11  N   UNL d   1       2.167  -0.766  -0.164  0.00  0.00    -0.333 N 
ATOM     12  H   UNL d   1       2.226  -1.256  -1.044  0.00  0.00     0.168 HD
BRANCH  11  13
ATOM     13  C   UNL d   1       3.229  -0.978   0.742  0.00  0.00     0.037 A 
ATOM     14  C   UNL d   1       3.454  -0.150   1.845  0.00  0.00     0.071 A 
ATOM     15  C   UNL d   1       4.562  -0.368   2.657  0.00  0.00     0.118 A 
ATOM     16  F   UNL d   1       4.785   0.444   3.700  0.00  0.00    -0.206 F 
ATOM     17  C   UNL d   1       5.458  -1.396   2.393  0.00  0.00     0.042 A 
ATOM     18  C   UNL d   1       5.249  -2.216   1.288  0.00  0.00     0.005 A 
ATOM     19  C   UNL d   1       4.145  -1.998   0.456  0.00  0.00     0.029 A 
ENDBRANCH  11  13
ENDBRANCH   1  11
TORSDOF 6
