REMARK  4 active torsions:
REMARK  status: ('A' for Active; 'I' for Inactive)
REMARK    1  A    between atoms: C_6  and  C_1 
REMARK    2  A    between atoms: C_7  and  C_2 
REMARK    3  A    between atoms: S_11  and  C_5 
REMARK    4  A    between atoms: O_13  and  C_7 
ROOT
ATOM      1  C   UNL d   1      -0.098  -1.384  -0.029  0.00  0.00     0.022 C 
ATOM      2  C   UNL d   1       1.282  -1.289  -0.186  0.00  0.00     0.094 C 
ATOM      3  C   UNL d   1      -0.670  -0.087   0.258  0.00  0.00     0.081 C 
ATOM      4  S   UNL d   1       1.808   0.345  -0.192  0.00  0.00    -0.075 SA
ATOM      5  C   UNL d   1       0.240   0.939   0.111  0.00  0.00     0.063 C 
ATOM      6  C   UNL d   1      -2.033   0.138   0.654  0.00  0.00     0.102 C 
ATOM      7  N   UNL d   1      -3.131   0.313   0.977  0.00  0.00    -0.191 NA
ENDROOT
BRANCH   1   8
ATOM      8  C   UNL d   1      -0.816  -2.670  -0.057  0.00  0.00    -0.001 A 
ATOM      9  C   UNL d   1      -1.913  -2.901  -0.912  0.00  0.00     0.045 A 
ATOM     10 CL   UNL d   1      -2.452  -1.739  -2.080  0.00  0.00    -0.083 Cl
ATOM     11  C   UNL d   1      -2.596  -4.122  -0.880  0.00  0.00     0.024 A 
ATOM     12  C   UNL d   1      -2.168  -5.145  -0.035  0.00  0.00     0.002 A 
ATOM     13  C   UNL d   1      -1.068  -4.943   0.792  0.00  0.00     0.001 A 
ATOM     14  C   UNL d   1      -0.411  -3.709   0.799  0.00  0.00     0.014 A 
ENDBRANCH   1   8
BRANCH   5  15
ATOM     15  S   UNL d   1      -0.040   2.674   0.245  0.00  0.00    -0.126 SA
ATOM     16  C   UNL d   1      -0.945   2.973  -1.295  0.00  0.00     0.096 C 
ENDBRANCH   5  15
BRANCH   2  17
ATOM     17  C   UNL d   1       2.268  -2.340  -0.367  0.00  0.00     0.300 C 
ATOM     18  O   UNL d   1       2.115  -3.363  -1.022  0.00  0.00    -0.259 OA
BRANCH  17  19
ATOM     19  O   UNL d   1       3.363  -2.082   0.409  0.00  0.00    -0.322 OA
ATOM     20  C   UNL d   1       4.320  -3.138   0.461  0.00  0.00     0.213 C 
ENDBRANCH  17  19
ENDBRANCH   2  17
TORSDOF 4
