REMARK  4 active torsions:
REMARK  status: ('A' for Active; 'I' for Inactive)
REMARK    1  A    between atoms: C_2  and  S_1 
REMARK    2  A    between atoms: O_3  and  S_1 
REMARK    3  A    between atoms: C_9  and  O_3 
REMARK    4  A    between atoms: C_8  and  C_9 
ROOT
ATOM      1  S   UNL d   1       0.960  -0.066  -0.161  0.00  0.00     0.298 S 
ATOM      2  O   UNL d   1       2.262   0.025   0.477  0.00  0.00    -0.193 OA
ATOM      3  O   UNL d   1       0.768   0.305  -1.549  0.00  0.00    -0.193 OA
ENDROOT
BRANCH   1   4
ATOM      4  C   UNL d   1      -0.153   0.927   0.812  0.00  0.00     0.086 A 
ATOM      5  C   UNL d   1      -0.787   0.378   1.928  0.00  0.00     0.026 A 
ATOM      6  C   UNL d   1      -1.591   1.194   2.730  0.00  0.00     0.008 A 
ATOM      7  C   UNL d   1      -1.761   2.552   2.425  0.00  0.00    -0.062 A 
ATOM      8  C   UNL d   1      -1.161   3.073   1.269  0.00  0.00     0.008 A 
ATOM      9  C   UNL d   1      -2.570   3.429   3.335  0.00  0.00     0.048 C 
ATOM     10  C   UNL d   1      -0.361   2.263   0.457  0.00  0.00     0.026 A 
ENDBRANCH   1   4
BRANCH   1  11
ATOM     11  O   UNL d   1       0.417  -1.591   0.015  0.00  0.00    -0.271 OA
BRANCH  11  12
ATOM     12  C   UNL d   1       1.137  -2.641  -0.612  0.00  0.00     0.198 C 
BRANCH  12  13
ATOM     13  C   UNL d   1       0.457  -3.993  -0.296  0.00  0.00    -0.029 C 
ATOM     14  C   UNL d   1      -0.988  -3.981  -0.824  0.00  0.00     0.016 C 
ATOM     15  C   UNL d   1       1.222  -5.147  -0.966  0.00  0.00     0.016 C 
ATOM     16  C   UNL d   1       0.441  -4.226   1.225  0.00  0.00     0.016 C 
ENDBRANCH  12  13
ENDBRANCH  11  12
ENDBRANCH   1  11
TORSDOF 4
