REMARK  5 active torsions:
REMARK  status: ('A' for Active; 'I' for Inactive)
REMARK    1  A    between atoms: N_3  and  C_1 
REMARK    2  A    between atoms: S_4  and  C_1 
REMARK    3  A    between atoms: C_2  and  C_5 
REMARK    4  A    between atoms: C_9  and  S_4 
REMARK    5  A    between atoms: C_5  and  C_9 
ROOT
ATOM      1  C   UNL d   1      -0.338   1.951   3.424  0.00  0.00     0.175 C 
ATOM      2  O   UNL d   1      -0.913   1.070   4.063  0.00  0.00    -0.291 OA
ENDROOT
BRANCH   1   3
ATOM      3  C   UNL d   1      -0.278   3.308   4.027  0.00  0.00     0.087 A 
ATOM      4  C   UNL d   1      -0.318   4.466   3.250  0.00  0.00     0.133 A 
ATOM      5  F   UNL d   1      -0.361   4.404   1.913  0.00  0.00    -0.205 F 
ATOM      6  C   UNL d   1      -0.355   5.733   3.838  0.00  0.00     0.043 A 
ATOM      7  C   UNL d   1      -0.347   5.860   5.225  0.00  0.00     0.006 A 
ATOM      8  C   UNL d   1      -0.288   4.715   6.015  0.00  0.00     0.043 A 
ATOM      9  C   UNL d   1      -0.253   3.452   5.417  0.00  0.00     0.133 A 
ATOM     10  F   UNL d   1      -0.171   2.387   6.225  0.00  0.00    -0.205 F 
ENDBRANCH   1   3
BRANCH   1  11
ATOM     11  C   UNL d   1       0.291   1.729   2.051  0.00  0.00     0.165 C 
BRANCH  11  12
ATOM     12  S   UNL d   1       0.218  -0.025   1.556  0.00  0.00    -0.093 SA
BRANCH  12  13
ATOM     13  C   UNL d   1       1.033   0.034  -0.011  0.00  0.00     0.137 C 
ATOM     14  S   UNL d   1       2.693   0.322  -0.046  0.00  0.00    -0.053 SA
BRANCH  13  15
ATOM     15  N   UNL d   1       0.242  -0.265  -1.133  0.00  0.00    -0.367 N 
ATOM     16  C   UNL d   1       0.825  -0.637  -2.434  0.00  0.00     0.124 C 
ATOM     17  C   UNL d   1       0.263  -1.976  -2.916  0.00  0.00     0.020 C 
ATOM     18  C   UNL d   1      -1.263  -1.960  -2.960  0.00  0.00     0.003 C 
ATOM     19  C   UNL d   1      -1.845  -1.506  -1.623  0.00  0.00     0.020 C 
ATOM     20  C   UNL d   1      -1.228  -0.186  -1.168  0.00  0.00     0.124 C 
ENDBRANCH  13  15
ENDBRANCH  12  13
ENDBRANCH  11  12
ENDBRANCH   1  11
TORSDOF 5
