REMARK  8 active torsions:
REMARK  status: ('A' for Active; 'I' for Inactive)
REMARK    1  A    between atoms: C_9  and  C_2 
REMARK    2  A    between atoms: S_11  and  C_5 
REMARK    3  A    between atoms: C_8  and  C_14 
REMARK    4  A    between atoms: C_10  and  C_22 
REMARK    5  A    between atoms: C_29  and  S_11 
REMARK    6  A    between atoms: O_21  and  C_15 
REMARK    7  A    between atoms: C_22  and  O_21 
REMARK    8  A    between atoms: C_31  and  C_29 
ROOT
ATOM      1  N   UNL d   1       0.826   0.007  -0.013  0.00  0.00    -0.315 N 
ATOM      2  C   UNL d   1      -0.011   1.106  -0.071  0.00  0.00     0.135 A 
ATOM      3  N   UNL d   1      -1.259   0.663  -0.057  0.00  0.00    -0.283 N 
ATOM      4  HN  UNL d   1      -2.095   1.246  -0.018  1.00  0.00     0.188 HD
ATOM      5  C   UNL d   1       0.009  -1.090  -0.105  0.00  0.00     0.162 A 
ATOM      6  N   UNL d   1      -1.244  -0.710  -0.105  0.00  0.00    -0.278 N 
ATOM      7  HN  UNL d   1      -2.060  -1.321  -0.135  1.00  0.00     0.189 HD
ATOM      8  C   UNL d   1       2.257  -0.017   0.155  0.00  0.00     0.160 C 
ENDROOT
BRANCH   2   9
ATOM      9  C   UNL d   1       0.363   2.519  -0.138  0.00  0.00     0.025 A 
ATOM     10  C   UNL d   1       1.436   2.981  -0.889  0.00  0.00     0.105 A 
ATOM     11  N   UNL d   1       1.806   4.280  -0.992  0.00  0.00    -0.346 N 
ATOM     12  C   UNL d   1       1.056   5.195  -0.350  0.00  0.00     0.142 A 
ATOM     13  HN  UNL d   1       2.624   4.555  -1.537  1.00  0.00     0.167 HD
ATOM     14  C   UNL d   1      -0.069   4.851   0.385  0.00  0.00     0.057 A 
ATOM     15  C   UNL d   1      -0.411   3.497   0.495  0.00  0.00     0.021 A 
BRANCH  12  16
ATOM     16  O   UNL d   1       1.490   6.470  -0.554  0.00  0.00    -0.327 OA
BRANCH  16  17
ATOM     17  C   UNL d   1       1.271   7.393   0.515  0.00  0.00     0.294 C 
BRANCH  17  18
ATOM     18  C   UNL d   1       2.350   8.473   0.545  0.00  0.00     0.408 C 
ATOM     19  F   UNL d   1       3.319   8.290  -0.376  0.00  0.00    -0.169 F 
ATOM     20  F   UNL d   1       1.814   9.698   0.335  0.00  0.00    -0.169 F 
ATOM     21  F   UNL d   1       2.952   8.508   1.761  0.00  0.00    -0.169 F 
ENDBRANCH  17  18
ENDBRANCH  16  17
ENDBRANCH  12  16
ENDBRANCH   2   9
BRANCH   5  22
ATOM     22  S   UNL d   1       0.591  -2.715  -0.211  0.00  0.00    -0.088 SA
BRANCH  22  23
ATOM     23  C   UNL d   1      -0.854  -3.538  -0.945  0.00  0.00     0.121 C 
BRANCH  23  24
ATOM     24  C   UNL d   1      -0.621  -5.024  -1.114  0.00  0.00    -0.048 A 
ATOM     25  C   UNL d   1      -0.992  -5.919  -0.101  0.00  0.00     0.009 A 
ATOM     26  C   UNL d   1      -0.779  -7.294  -0.249  0.00  0.00     0.017 A 
ATOM     27  C   UNL d   1      -0.189  -7.802  -1.413  0.00  0.00     0.047 A 
ATOM     28  C   UNL d   1       0.190  -6.907  -2.425  0.00  0.00     0.017 A 
ATOM     29  C   UNL d   1      -0.020  -5.532  -2.276  0.00  0.00     0.009 A 
BRANCH  27  30
ATOM     30  C   UNL d   1       0.047  -9.283  -1.587  0.00  0.00     0.417 C 
ATOM     31  F   UNL d   1      -0.377 -10.032  -0.530  0.00  0.00    -0.166 F 
ATOM     32  F   UNL d   1      -0.591  -9.788  -2.679  0.00  0.00    -0.166 F 
ATOM     33  F   UNL d   1       1.366  -9.587  -1.752  0.00  0.00    -0.166 F 
ENDBRANCH  27  30
ENDBRANCH  23  24
ENDBRANCH  22  23
ENDBRANCH   5  22
TORSDOF 8
