REMARK  2 active torsions:
REMARK  status: ('A' for Active; 'I' for Inactive)
REMARK    1  A    between atoms: N_4  and  C_1 
REMARK    2  A    between atoms: C_8  and  C_5 
ROOT
ATOM      1  C   UNL d   1       2.535  -0.520   0.036  0.00  0.00     0.045 A 
ATOM      2  N   UNL d   1       0.531   1.458  -0.063  0.00  0.00    -0.350 N 
ATOM      3  HN  UNL d   1      -0.183   2.184  -0.111  1.00  0.00     0.166 HD
ATOM      4  C   UNL d   1       1.767   1.755   0.390  0.00  0.00     0.119 A 
ATOM      5  C   UNL d   1       0.241   0.198  -0.452  0.00  0.00     0.067 A 
ATOM      6  C   UNL d   1       1.201  -0.843  -0.375  0.00  0.00     0.019 A 
ATOM      7  C   UNL d   1       2.783   0.807   0.415  0.00  0.00     0.064 A 
ATOM      8  C   UNL d   1      -1.041  -0.107  -0.936  0.00  0.00     0.061 A 
ATOM      9 CL   UNL d   1      -2.253   1.130  -1.084  0.00  0.00    -0.082 Cl
ATOM     10  C   UNL d   1       0.770  -2.160  -0.684  0.00  0.00     0.016 A 
ATOM     11  C   UNL d   1      -0.504  -2.433  -1.179  0.00  0.00     0.003 A 
ATOM     12  C   UNL d   1      -1.409  -1.397  -1.322  0.00  0.00     0.026 A 
ENDROOT
BRANCH   1  13
ATOM     13  N   UNL d   1       3.568  -1.479   0.050  0.00  0.00    -0.376 N 
ATOM     14  C   UNL d   1       4.676  -1.378   1.035  0.00  0.00     0.162 C 
ATOM     15  C   UNL d   1       6.003  -1.934   0.541  0.00  0.00    -0.034 A 
ATOM     16  C   UNL d   1       7.220  -1.448   1.041  0.00  0.00     0.009 A 
ATOM     17  C   UNL d   1       6.025  -2.974  -0.404  0.00  0.00    -0.049 A 
ATOM     18  C   UNL d   1       8.430  -1.992   0.605  0.00  0.00     0.001 A 
ATOM     19  C   UNL d   1       8.437  -3.048  -0.306  0.00  0.00     0.001 A 
ATOM     20  C   UNL d   1       7.236  -3.546  -0.806  0.00  0.00     0.008 A 
ATOM     21  C   UNL d   1       4.713  -3.386  -1.008  0.00  0.00     0.059 C 
ATOM     22  C   UNL d   1       3.906  -2.102  -1.250  0.00  0.00     0.128 C 
ENDBRANCH   1  13
BRANCH   4  23
ATOM     23  C   UNL d   1       2.064   3.161   0.898  0.00  0.00     0.432 C 
ATOM     24  F   UNL d   1       1.013   4.025   0.826  0.00  0.00    -0.165 F 
ATOM     25  F   UNL d   1       2.455   3.162   2.208  0.00  0.00    -0.165 F 
ATOM     26  F   UNL d   1       3.086   3.758   0.217  0.00  0.00    -0.165 F 
ENDBRANCH   4  23
TORSDOF 2
