REMARK  13 active torsions:
REMARK  status: ('A' for Active; 'I' for Inactive)
REMARK    1  A    between atoms: C_3  and  C_1 
REMARK       I    between atoms: N_5  and  C_1 
REMARK       I    between atoms: C_2  and  N_6 
REMARK    2  A    between atoms: C_4  and  C_2 
REMARK    3  A    between atoms: N_9  and  N_5 
REMARK    4  A    between atoms: N_6  and  N_10 
REMARK       I    between atoms: C_12  and  N_9 
REMARK       I    between atoms: N_10  and  C_11 
REMARK    5  A    between atoms: C_11  and  C_23 
REMARK    6  A    between atoms: C_24  and  C_12 
REMARK    7  A    between atoms: C_23  and  C_26 
REMARK    8  A    between atoms: C_25  and  C_24 
REMARK    9  A    between atoms: C_30  and  C_25 
REMARK   10  A    between atoms: C_26  and  C_29 
REMARK   11  A    between atoms: C_27  and  C_30 
REMARK   12  A    between atoms: C_28  and  C_27 
REMARK   13  A    between atoms: C_29  and  C_28 
ROOT
ATOM      1  C   UNL d   1      -5.763  -4.269  -3.522  0.00  0.00     0.000 C 
ENDROOT
BRANCH   1   2
ATOM      2  C   UNL d   1      -5.088  -3.936  -4.853  0.00  0.00     0.000 C 
BRANCH   2   3
ATOM      3  C   UNL d   1      -3.570  -3.843  -4.680  0.00  0.00     0.009 C 
BRANCH   3   4
ATOM      4  C   UNL d   1      -2.854  -3.555  -6.000  0.00  0.00     0.104 C 
BRANCH   4   5
ATOM      5  C   UNL d   1      -1.348  -3.552  -5.825  0.00  0.00     0.236 C 
ATOM      6  N   UNL d   1      -0.655  -3.256  -6.980  0.00  0.00    -0.267 N 
ATOM      7  H   UNL d   1      -1.093  -2.922  -7.839  0.00  0.00     0.190 HD
ATOM      8  O   UNL d   1      -0.780  -3.804  -4.765  0.00  0.00    -0.272 OA
BRANCH   6   9
ATOM      9  N   UNL d   1       0.735  -3.173  -6.899  0.00  0.00    -0.262 N 
ATOM     10  C   UNL d   1       1.492  -2.883  -8.016  0.00  0.00     0.293 C 
ATOM     11  O   UNL d   1       0.973  -2.659  -9.113  0.00  0.00    -0.264 OA
ATOM     12  H   UNL d   1       1.173  -3.390  -6.002  0.00  0.00     0.190 HD
BRANCH  10  13
ATOM     13  C   UNL d   1       2.917  -2.862  -7.772  0.00  0.00     0.144 A 
ATOM     14  O   UNL d   1       3.383  -3.077  -6.500  0.00  0.00    -0.317 OA
ATOM     15  C   UNL d   1       4.738  -2.989  -6.548  0.00  0.00     0.143 A 
ATOM     16  C   UNL d   1       5.161  -2.725  -7.829  0.00  0.00     0.027 A 
ATOM     17  C   UNL d   1       3.989  -2.646  -8.619  0.00  0.00     0.045 A 
ENDBRANCH  10  13
ENDBRANCH   6   9
ENDBRANCH   4   5
ENDBRANCH   3   4
ENDBRANCH   2   3
ENDBRANCH   1   2
BRANCH   1  18
ATOM     18  C   UNL d   1      -7.289  -4.296  -3.594  0.00  0.00     0.000 C 
BRANCH  18  19
ATOM     19  C   UNL d   1      -7.873  -5.393  -4.492  0.00  0.00     0.000 C 
BRANCH  19  20
ATOM     20  C   UNL d   1      -9.400  -5.335  -4.426  0.00  0.00     0.009 C 
BRANCH  20  21
ATOM     21  C   UNL d   1     -10.106  -6.365  -5.308  0.00  0.00     0.104 C 
BRANCH  21  22
ATOM     22  C   UNL d   1     -11.613  -6.215  -5.179  0.00  0.00     0.236 C 
ATOM     23  N   UNL d   1     -12.334  -7.129  -5.914  0.00  0.00    -0.267 N 
ATOM     24  H   UNL d   1     -11.929  -7.780  -6.583  0.00  0.00     0.190 HD
ATOM     25  O   UNL d   1     -12.159  -5.369  -4.473  0.00  0.00    -0.272 OA
BRANCH  23  26
ATOM     26  N   UNL d   1     -13.730  -7.064  -5.845  0.00  0.00    -0.262 N 
ATOM     27  C   UNL d   1     -14.501  -7.523  -6.895  0.00  0.00     0.293 C 
ATOM     28  O   UNL d   1     -13.998  -8.042  -7.892  0.00  0.00    -0.264 OA
ATOM     29  H   UNL d   1     -14.138  -6.492  -5.105  0.00  0.00     0.190 HD
BRANCH  27  30
ATOM     30  C   UNL d   1     -15.926  -7.358  -6.697  0.00  0.00     0.144 A 
ATOM     31  O   UNL d   1     -16.391  -6.886  -5.495  0.00  0.00    -0.317 OA
ATOM     32  C   UNL d   1     -17.748  -6.888  -5.560  0.00  0.00     0.143 A 
ATOM     33  C   UNL d   1     -18.171  -7.335  -6.789  0.00  0.00     0.027 A 
ATOM     34  C   UNL d   1     -16.999  -7.631  -7.526  0.00  0.00     0.045 A 
ENDBRANCH  27  30
ENDBRANCH  23  26
ENDBRANCH  21  22
ENDBRANCH  20  21
ENDBRANCH  19  20
ENDBRANCH  18  19
ENDBRANCH   1  18
TORSDOF 13
