REMARK  0 active torsions:
REMARK  status: ('A' for Active; 'I' for Inactive)
ROOT
ATOM      1  N   UNL d   1      -0.008  -1.636   0.000  0.00  0.00    -0.353 N 
ATOM      2  C   UNL d   1      -0.718   0.474   0.000  0.00  0.00     0.006 A 
ATOM      3  C   UNL d   1       0.715   0.470   0.000  0.00  0.00     0.006 A 
ATOM      4  C   UNL d   1      -1.140  -0.856   0.000  0.00  0.00     0.061 A 
ATOM      5  C   UNL d   1       1.129  -0.863   0.000  0.00  0.00     0.061 A 
ATOM      6  C   UNL d   1       2.480  -1.230  -0.000  0.00  0.00     0.039 A 
ATOM      7  C   UNL d   1      -2.493  -1.215   0.000  0.00  0.00     0.039 A 
ATOM      8  C   UNL d   1       3.443  -0.221  -0.001  0.00  0.00     0.040 A 
ATOM      9  C   UNL d   1      -3.450  -0.200   0.000  0.00  0.00     0.040 A 
ATOM     10  C   UNL d   1      -1.697   1.491   0.000  0.00  0.00     0.033 A 
ATOM     11  C   UNL d   1       1.700   1.480  -0.000  0.00  0.00     0.033 A 
ATOM     12  C   UNL d   1       3.052   1.114  -0.001  0.00  0.00     0.013 A 
ATOM     13  C   UNL d   1      -3.051   1.133   0.000  0.00  0.00     0.013 A 
ATOM     14 BR   UNL d   1       3.000  -3.046   0.000  0.00  0.00    -0.049 Br
ATOM     15 BR   UNL d   1      -3.026  -3.027  -0.000  0.00  0.00    -0.049 Br
ATOM     16 BR   UNL d   1       4.376   2.468  -0.002  0.00  0.00    -0.051 Br
ATOM     17 BR   UNL d   1      -4.368   2.493  -0.000  0.00  0.00    -0.051 Br
ATOM     18  H   UNL d   1      -0.011  -2.647   0.000  0.00  0.00     0.166 HD
ENDROOT
TORSDOF 0
