REMARK  1 active torsions:
REMARK  status: ('A' for Active; 'I' for Inactive)
REMARK    1  A    between atoms: C_12  and  C_5 
ROOT
ATOM      1  C   UNL d   1      -0.375  -0.529  -0.106  0.00  0.00    -0.013 A 
ATOM      2  C   UNL d   1       0.462   0.616  -0.052  0.00  0.00    -0.014 A 
ATOM      3  C   UNL d   1       1.898   0.471   0.004  0.00  0.00    -0.014 A 
ATOM      4  C   UNL d   1       0.261  -1.774  -0.274  0.00  0.00     0.021 A 
ATOM      5  C   UNL d   1       1.657  -1.931  -0.347  0.00  0.00    -0.046 A 
ATOM      6  C   UNL d   1       2.490  -0.813  -0.134  0.00  0.00    -0.019 A 
ATOM      7  C   UNL d   1      -1.811  -0.398  -0.011  0.00  0.00    -0.015 A 
ATOM      8  C   UNL d   1      -0.181   1.874  -0.057  0.00  0.00     0.014 A 
ATOM      9  C   UNL d   1      -2.391   0.892  -0.009  0.00  0.00    -0.025 A 
ATOM     10  C   UNL d   1      -1.569   2.011  -0.061  0.00  0.00     0.013 A 
ATOM     11  C   UNL d   1       2.779   1.568   0.212  0.00  0.00     0.013 A 
ATOM     12  C   UNL d   1       3.900  -0.931  -0.050  0.00  0.00     0.013 A 
ATOM     13  C   UNL d   1      -2.714  -1.490   0.100  0.00  0.00     0.013 A 
ATOM     14  C   UNL d   1      -3.785   1.060   0.057  0.00  0.00     0.012 A 
ATOM     15  C   UNL d   1       4.165   1.422   0.302  0.00  0.00     0.001 A 
ATOM     16  C   UNL d   1       4.727   0.169   0.170  0.00  0.00     0.001 A 
ATOM     17  C   UNL d   1      -4.098  -1.313   0.193  0.00  0.00     0.001 A 
ATOM     18  C   UNL d   1      -4.635  -0.037   0.161  0.00  0.00     0.001 A 
ENDROOT
BRANCH   5  19
ATOM     19  C   UNL d   1       2.182  -3.319  -0.659  0.00  0.00     0.035 C 
ATOM     20  C   UNL d   1       2.383  -4.170   0.584  0.00  0.00     0.010 C 
ENDBRANCH   5  19
TORSDOF 1
