REMARK  1 active torsions:
REMARK  status: ('A' for Active; 'I' for Inactive)
REMARK    1  A    between atoms: S_10  and  C_2 
ROOT
ATOM      1  C   UNL d   1       0.853   0.321  -0.027  0.00  0.00     0.084 A 
ATOM      2  C   UNL d   1       0.019   1.448  -0.037  0.00  0.00     0.091 A 
ATOM      3  N   UNL d   1      -1.337   1.353  -0.026  0.00  0.00    -0.353 N 
ATOM      4  HN  UNL d   1      -1.920   2.190  -0.033  1.00  0.00     0.166 HD
ATOM      5  C   UNL d   1       0.262  -0.956  -0.011  0.00  0.00    -0.037 A 
ATOM      6  C   UNL d   1       2.280   0.464  -0.030  0.00  0.00     0.103 C 
ATOM      7  N   UNL d   1       3.437   0.536  -0.028  0.00  0.00    -0.191 NA
ATOM      8  C   UNL d   1      -1.896   0.118  -0.008  0.00  0.00     0.006 A 
ATOM      9  C   UNL d   1      -1.134  -1.044  -0.001  0.00  0.00     0.033 A 
ATOM     10  C   UNL d   1       1.051  -2.237  -0.008  0.00  0.00     0.050 C 
ATOM     11  C   UNL d   1      -3.394   0.043   0.007  0.00  0.00     0.068 C 
ENDROOT
BRANCH   2  12
ATOM     12  S   UNL d   1       0.718   3.106  -0.067  0.00  0.00    -0.115 SA
ATOM     13  C   UNL d   1      -0.765   4.141  -0.084  0.00  0.00     0.097 C 
ENDBRANCH   2  12
TORSDOF 1
