REMARK  3 active torsions:
REMARK  status: ('A' for Active; 'I' for Inactive)
REMARK    1  A    between atoms: C_9  and  C_3 
REMARK    2  A    between atoms: C_6  and  C_9 
REMARK    3  A    between atoms: O_16  and  C_6 
ROOT
ATOM      1  C   UNL d   1       0.728   0.812   1.106  0.00  0.00     0.021 C 
ATOM      2  C   UNL d   1      -1.511   0.336   0.092  0.00  0.00     0.021 C 
ATOM      3  C   UNL d   1       0.215  -1.516   0.242  0.00  0.00    -0.028 C 
ATOM      4  C   UNL d   1      -0.778   1.103   1.204  0.00  0.00     0.042 C 
ATOM      5  C   UNL d   1       0.527   0.447  -1.368  0.00  0.00    -0.011 C 
ATOM      6  C   UNL d   1      -1.298  -1.174   0.283  0.00  0.00     0.031 C 
ATOM      7  C   UNL d   1       0.977  -0.690   1.312  0.00  0.00     0.031 C 
ATOM      8  C   UNL d   1       1.260   1.236  -0.271  0.00  0.00     0.026 C 
ATOM      9  C   UNL d   1      -0.976   0.761  -1.283  0.00  0.00     0.026 C 
ATOM     10  C   UNL d   1       0.750  -1.064  -1.152  0.00  0.00     0.014 C 
ATOM     11 BR   UNL d   1      -3.422   0.731   0.182  0.00  0.00    -0.085 Br
ATOM     12 BR   UNL d   1       1.673   1.815   2.490  0.00  0.00    -0.085 Br
ENDROOT
BRANCH   3  13
ATOM     13  C   UNL d   1       0.457  -3.034   0.415  0.00  0.00     0.119 C 
BRANCH  13  14
ATOM     14  C   UNL d   1       0.006  -3.635   1.740  0.00  0.00     0.140 C 
ATOM     15  O   UNL d   1      -0.533  -3.041   2.655  0.00  0.00    -0.650 OA
BRANCH  14  16
ATOM     16  O   UNL d   1       0.270  -4.962   1.813  0.00  0.00    -0.776 OA
ATOM     17  H   UNL d   1       0.700  -5.327   1.017  0.00  0.00     0.167 HD
ENDBRANCH  14  16
ENDBRANCH  13  14
ENDBRANCH   3  13
TORSDOF 3
