REMARK  6 active torsions:
REMARK  status: ('A' for Active; 'I' for Inactive)
REMARK    1  A    between atoms: C_12  and  C_1 
REMARK    2  A    between atoms: S_15  and  C_5 
REMARK    3  A    between atoms: C_8  and  C_9 
REMARK    4  A    between atoms: C_13  and  C_23 
REMARK       I    between atoms: N_16  and  C_13 
REMARK    5  A    between atoms: C_23  and  S_15 
REMARK    6  A    between atoms: C_24  and  N_16 
ROOT
ATOM      1  C   UNL d   1      -0.343  -0.595  -1.002  0.00  0.00     0.192 A 
ATOM      2  O   UNL d   1      -0.893   0.647  -0.864  0.00  0.00    -0.266 OA
ATOM      3  N   UNL d   1       0.153  -1.057   0.129  0.00  0.00    -0.275 N 
ATOM      4  HN  UNL d   1       0.619  -1.953   0.274  1.00  0.00     0.189 HD
ATOM      5  C   UNL d   1      -0.725   0.896   0.465  0.00  0.00     0.204 A 
ATOM      6  N   UNL d   1      -0.088  -0.078   1.081  0.00  0.00    -0.272 N 
ATOM      7  HN  UNL d   1       0.176  -0.108   2.066  1.00  0.00     0.189 HD
ENDROOT
BRANCH   5   8
ATOM      8  S   UNL d   1      -1.321   2.343   1.211  0.00  0.00    -0.075 SA
BRANCH   8   9
ATOM      9  C   UNL d   1      -2.646   2.759   0.029  0.00  0.00     0.186 C 
BRANCH   9  10
ATOM     10  C   UNL d   1      -3.742   1.701   0.059  0.00  0.00     0.231 C 
ATOM     11  N   UNL d   1      -3.905   1.017  -1.139  0.00  0.00    -0.327 N 
ATOM     12  H   UNL d   1      -3.205   1.163  -1.860  0.00  0.00     0.169 HD
ATOM     13  O   UNL d   1      -4.384   1.502   1.091  0.00  0.00    -0.272 OA
BRANCH  11  14
ATOM     14  C   UNL d   1      -4.822  -0.031  -1.385  0.00  0.00     0.034 A 
ATOM     15  C   UNL d   1      -5.876  -0.356  -0.526  0.00  0.00     0.029 A 
ATOM     16  C   UNL d   1      -6.697  -1.456  -0.789  0.00  0.00     0.002 A 
ATOM     17  C   UNL d   1      -6.481  -2.237  -1.920  0.00  0.00     0.000 A 
ATOM     18  C   UNL d   1      -5.463  -1.898  -2.807  0.00  0.00     0.002 A 
ATOM     19  C   UNL d   1      -4.645  -0.793  -2.547  0.00  0.00     0.029 A 
ENDBRANCH  11  14
ENDBRANCH   9  10
ENDBRANCH   8   9
ENDBRANCH   5   8
BRANCH   1  20
ATOM     20  C   UNL d   1      -0.423  -1.179  -2.332  0.00  0.00     0.085 A 
ATOM     21  N   UNL d   1      -0.939  -0.371  -3.300  0.00  0.00    -0.362 N 
ATOM     22  C   UNL d   1      -1.016  -0.869  -4.554  0.00  0.00     0.104 A 
ATOM     23  HN  UNL d   1      -1.256   0.575  -3.086  1.00  0.00     0.165 HD
ATOM     24  C   UNL d   1      -0.627  -2.153  -4.902  0.00  0.00     0.063 A 
ATOM     25  C   UNL d   1      -0.117  -2.970  -3.886  0.00  0.00     0.020 A 
ATOM     26  C   UNL d   1      -0.006  -2.479  -2.586  0.00  0.00     0.035 A 
BRANCH  24  27
ATOM     27  C   UNL d   1      -0.757  -2.630  -6.315  0.00  0.00     0.418 C 
ATOM     28  F   UNL d   1      -1.269  -1.691  -7.157  0.00  0.00    -0.166 F 
ATOM     29  F   UNL d   1       0.436  -3.003  -6.850  0.00  0.00    -0.166 F 
ATOM     30  F   UNL d   1      -1.575  -3.712  -6.423  0.00  0.00    -0.166 F 
ENDBRANCH  24  27
ENDBRANCH   1  20
TORSDOF 6
