REMARK  4 active torsions:
REMARK  status: ('A' for Active; 'I' for Inactive)
REMARK    1  A    between atoms: C_4  and  C_3 
REMARK    2  A    between atoms: N_10  and  C_5 
REMARK       I    between atoms: C_7  and  N_11 
REMARK       I    between atoms: N_12  and  C_7 
REMARK    3  A    between atoms: N_11  and  N_10 
REMARK    4  A    between atoms: C_17  and  N_12 
ROOT
ATOM      1  N   UNL d   1      -1.189   1.169  -0.754  0.00  0.00    -0.352 N 
ATOM      2  HN  UNL d   1      -1.289   2.131  -1.075  1.00  0.00     0.166 HD
ATOM      3  C   UNL d   1      -0.525   0.255  -1.510  0.00  0.00     0.118 A 
ATOM      4  C   UNL d   1      -0.930  -1.490   0.108  0.00  0.00     0.037 A 
ATOM      5  C   UNL d   1      -0.372  -1.066  -1.102  0.00  0.00     0.060 A 
ATOM      6  C   UNL d   1      -1.709   0.787   0.421  0.00  0.00     0.044 A 
ATOM      7  C   UNL d   1      -1.614  -0.534   0.912  0.00  0.00     0.013 A 
ATOM      8  C   UNL d   1      -2.188  -0.824   2.176  0.00  0.00     0.015 A 
ATOM      9  C   UNL d   1      -2.358   1.749   1.183  0.00  0.00     0.030 A 
ATOM     10  C   UNL d   1      -2.837   0.160   2.922  0.00  0.00     0.001 A 
ATOM     11  C   UNL d   1      -2.922   1.451   2.423  0.00  0.00     0.002 A 
ENDROOT
BRANCH   4  12
ATOM     12  N   UNL d   1      -0.757  -2.823   0.592  0.00  0.00    -0.218 NA
ATOM     13  H   UNL d   1      -1.668  -3.205   0.891  0.00  0.00     0.147 HD
BRANCH  12  14
ATOM     14  N   UNL d   1      -0.124  -3.723  -0.303  0.00  0.00    -0.172 NA
ATOM     15  C   UNL d   1      -0.801  -4.926  -0.511  0.00  0.00     0.312 C 
ATOM     16  N   UNL d   1      -0.063  -5.793  -1.294  0.00  0.00    -0.313 N 
ATOM     17  O   UNL d   1      -1.927  -5.109  -0.056  0.00  0.00    -0.252 OA
ATOM     18  H   UNL d   1       0.846  -5.464  -1.582  0.00  0.00     0.170 HD
ATOM     19  H   UNL d   1       0.875  -3.788  -0.140  0.00  0.00     0.152 HD
BRANCH  16  20
ATOM     20  C   UNL d   1      -0.468  -7.045  -1.802  0.00  0.00     0.036 A 
ATOM     21  C   UNL d   1      -1.731  -7.600  -1.584  0.00  0.00     0.031 A 
ATOM     22  C   UNL d   1      -2.082  -8.826  -2.164  0.00  0.00     0.026 A 
ATOM     23  C   UNL d   1      -1.165  -9.506  -2.959  0.00  0.00     0.034 A 
ATOM     24  C   UNL d   1       0.104  -8.976  -3.172  0.00  0.00     0.026 A 
ATOM     25 CL   UNL d   1      -1.605 -11.001  -3.686  0.00  0.00    -0.084 Cl
ATOM     26  C   UNL d   1       0.450  -7.749  -2.595  0.00  0.00     0.031 A 
ENDBRANCH  16  20
ENDBRANCH  12  14
ENDBRANCH   4  12
BRANCH   3  27
ATOM     27  C   UNL d   1       0.074   0.680  -2.843  0.00  0.00     0.432 C 
ATOM     28  F   UNL d   1      -0.089   1.998  -3.145  0.00  0.00    -0.165 F 
ATOM     29  F   UNL d   1       1.420   0.450  -2.901  0.00  0.00    -0.165 F 
ATOM     30  F   UNL d   1      -0.454  -0.012  -3.895  0.00  0.00    -0.165 F 
ENDBRANCH   3  27
TORSDOF 4
