REMARK  8 active torsions:
REMARK  status: ('A' for Active; 'I' for Inactive)
REMARK    1  A    between atoms: C_3  and  S_1 
REMARK    2  A    between atoms: O_5  and  S_1 
REMARK    3  A    between atoms: S_2  and  O_6 
REMARK    4  A    between atoms: C_4  and  S_2 
REMARK    5  A    between atoms: C_17  and  O_5 
REMARK    6  A    between atoms: O_6  and  C_16 
REMARK    7  A    between atoms: C_11  and  C_17 
REMARK    8  A    between atoms: C_16  and  C_11 
ROOT
ATOM      1  C   UNL d   1       0.319   0.717  -3.800  0.00  0.00    -0.002 C 
ATOM      2  C   UNL d   1      -1.221   0.742  -3.775  0.00  0.00     0.019 C 
ATOM      3  C   UNL d   1       0.825   1.856  -4.704  0.00  0.00     0.019 C 
ENDROOT
BRANCH   1   4
ATOM      4  C   UNL d   1       0.879   0.915  -2.372  0.00  0.00     0.201 C 
BRANCH   4   5
ATOM      5  O   UNL d   1       0.435   2.157  -1.828  0.00  0.00    -0.271 OA
BRANCH   5   6
ATOM      6  S   UNL d   1       0.956   2.543  -0.332  0.00  0.00     0.298 S 
ATOM      7  O   UNL d   1       0.346   1.608   0.593  0.00  0.00    -0.193 OA
ATOM      8  O   UNL d   1       2.394   2.715  -0.390  0.00  0.00    -0.193 OA
BRANCH   6   9
ATOM      9  C   UNL d   1       0.266   4.146   0.006  0.00  0.00     0.086 A 
ATOM     10  C   UNL d   1      -0.020   4.499   1.329  0.00  0.00     0.026 A 
ATOM     11  C   UNL d   1      -0.550   5.760   1.608  0.00  0.00     0.008 A 
ATOM     12  C   UNL d   1      -0.809   6.668   0.573  0.00  0.00    -0.062 A 
ATOM     13  C   UNL d   1      -0.529   6.297  -0.750  0.00  0.00     0.008 A 
ATOM     14  C   UNL d   1      -1.371   8.023   0.895  0.00  0.00     0.048 C 
ATOM     15  C   UNL d   1       0.007   5.037  -1.038  0.00  0.00     0.026 A 
ENDBRANCH   6   9
ENDBRANCH   5   6
ENDBRANCH   4   5
ENDBRANCH   1   4
BRANCH   1  16
ATOM     16  C   UNL d   1       0.777  -0.644  -4.373  0.00  0.00     0.201 C 
BRANCH  16  17
ATOM     17  O   UNL d   1       2.196  -0.708  -4.450  0.00  0.00    -0.271 OA
BRANCH  17  18
ATOM     18  S   UNL d   1       2.841  -2.069  -5.080  0.00  0.00     0.298 S 
ATOM     19  O   UNL d   1       2.549  -3.161  -4.171  0.00  0.00    -0.193 OA
ATOM     20  O   UNL d   1       2.455  -2.128  -6.476  0.00  0.00    -0.193 OA
BRANCH  18  21
ATOM     21  C   UNL d   1       4.597  -1.815  -5.025  0.00  0.00     0.086 A 
ATOM     22  C   UNL d   1       5.159  -0.994  -4.046  0.00  0.00     0.026 A 
ATOM     23  C   UNL d   1       6.545  -0.822  -4.012  0.00  0.00     0.008 A 
ATOM     24  C   UNL d   1       7.367  -1.452  -4.959  0.00  0.00    -0.062 A 
ATOM     25  C   UNL d   1       6.785  -2.261  -5.943  0.00  0.00     0.008 A 
ATOM     26  C   UNL d   1       8.856  -1.263  -4.902  0.00  0.00     0.048 C 
ATOM     27  C   UNL d   1       5.401  -2.443  -5.980  0.00  0.00     0.026 A 
ENDBRANCH  18  21
ENDBRANCH  17  18
ENDBRANCH  16  17
ENDBRANCH   1  16
TORSDOF 8
