REMARK  3 active torsions:
REMARK  status: ('A' for Active; 'I' for Inactive)
REMARK    1  A    between atoms: C_4  and  N_1 
REMARK    2  A    between atoms: C_6  and  C_3 
REMARK    3  A    between atoms: O_11  and  C_5 
ROOT
ATOM      1  N   UNL d   1       0.982   0.161   0.174  0.00  0.00    -0.365 N 
ATOM      2  HN  UNL d   1       0.526  -0.574   0.714  1.00  0.00     0.165 HD
ATOM      3  C   UNL d   1       0.271   1.056  -0.433  0.00  0.00     0.099 C 
ENDROOT
BRANCH   1   4
ATOM      4  C   UNL d   1       2.385   0.205   0.088  0.00  0.00     0.032 A 
ATOM      5  C   UNL d   1       3.127   1.393   0.097  0.00  0.00     0.032 A 
ATOM      6  C   UNL d   1       4.528   1.372   0.087  0.00  0.00     0.039 A 
ATOM      7  C   UNL d   1       5.209   0.155   0.091  0.00  0.00     0.068 A 
ATOM      8  C   UNL d   1       4.477  -1.032   0.109  0.00  0.00     0.039 A 
ATOM      9  C   UNL d   1       3.080  -1.006   0.099  0.00  0.00     0.032 A 
BRANCH   7  10
ATOM     10  O   UNL d   1       6.567   0.006   0.135  0.00  0.00    -0.356 OA
ATOM     11  C   UNL d   1       7.330   1.085  -0.393  0.00  0.00     0.210 C 
ENDBRANCH   7  10
ENDBRANCH   1   4
BRANCH   3  12
ATOM     12  C   UNL d   1      -1.202   1.087  -0.323  0.00  0.00    -0.021 A 
ATOM     13  C   UNL d   1      -1.897   0.063   0.327  0.00  0.00     0.013 A 
ATOM     14  C   UNL d   1      -3.287   0.129   0.436  0.00  0.00     0.001 A 
ATOM     15  C   UNL d   1      -3.979   1.217  -0.098  0.00  0.00     0.000 A 
ATOM     16  C   UNL d   1      -3.284   2.239  -0.746  0.00  0.00     0.001 A 
ATOM     17  C   UNL d   1      -1.895   2.176  -0.863  0.00  0.00     0.013 A 
ENDBRANCH   3  12
TORSDOF 3
