REMARK  3 active torsions:
REMARK  status: ('A' for Active; 'I' for Inactive)
REMARK       I    between atoms: C_3  and  N_1 
REMARK    1  A    between atoms: C_7  and  C_3 
REMARK    2  A    between atoms: C_10  and  N_8 
REMARK    3  A    between atoms: O_19  and  C_14 
ROOT
ATOM      1  N   UNL d   1      -2.681   0.222  -0.052  0.00  0.00    -0.279 N 
ATOM      2  C   UNL d   1      -2.120  -0.799  -0.849  0.00  0.00     0.155 C 
ATOM      3  C   UNL d   1      -3.837   0.120   0.745  0.00  0.00     0.262 C 
ATOM      4  S   UNL d   1      -0.456  -0.402  -1.233  0.00  0.00    -0.056 SA
ATOM      5  C   UNL d   1      -2.009   1.575  -0.203  0.00  0.00     0.075 C 
ATOM      6  C   UNL d   1      -0.715   1.280  -0.991  0.00  0.00     0.005 C 
ATOM      7  N   UNL d   1      -2.758  -1.847  -1.255  0.00  0.00    -0.334 N 
ATOM      8  HN  UNL d   1      -3.693  -2.017  -0.885  1.00  0.00     0.168 HD
ATOM      9  O   UNL d   1      -4.257   1.033   1.452  0.00  0.00    -0.267 OA
ATOM     10  C   UNL d   1       0.161   2.165  -1.497  0.00  0.00     0.029 C 
ATOM     11  C   UNL d   1      -2.893   2.514  -1.076  0.00  0.00     0.037 C 
ATOM     12  C   UNL d   1      -1.563   2.244   1.129  0.00  0.00     0.037 C 
ATOM     13  C   UNL d   1      -3.948   3.315  -0.323  0.00  0.00     0.003 C 
ATOM     14  C   UNL d   1      -2.526   3.221   1.806  0.00  0.00     0.003 C 
ATOM     15  C   UNL d   1      -3.355   4.074   0.855  0.00  0.00     0.000 C 
ENDROOT
BRANCH   7  16
ATOM     16  C   UNL d   1      -2.225  -2.772  -2.188  0.00  0.00     0.067 A 
ATOM     17  C   UNL d   1      -2.309  -4.167  -2.009  0.00  0.00     0.094 A 
ATOM     18  C   UNL d   1      -1.795  -5.044  -2.980  0.00  0.00     0.039 A 
ATOM     19  C   UNL d   1      -1.205  -4.563  -4.140  0.00  0.00     0.003 A 
ATOM     20  C   UNL d   1      -1.185  -3.195  -4.377  0.00  0.00     0.002 A 
ATOM     21  C   UNL d   1      -1.719  -2.321  -3.425  0.00  0.00     0.032 A 
BRANCH  17  22
ATOM     22  O   UNL d   1      -3.000  -4.809  -1.012  0.00  0.00    -0.354 OA
ATOM     23  C   UNL d   1      -2.666  -4.410   0.305  0.00  0.00     0.210 C 
ENDBRANCH  17  22
ENDBRANCH   7  16
BRANCH   3  24
ATOM     24  C   UNL d   1      -4.679  -1.087   0.817  0.00  0.00     0.054 A 
ATOM     25  C   UNL d   1      -4.944  -1.695   2.054  0.00  0.00     0.049 A 
ATOM     26 CL   UNL d   1      -4.116  -1.261   3.509  0.00  0.00    -0.083 Cl
ATOM     27  C   UNL d   1      -5.905  -2.708   2.140  0.00  0.00     0.025 A 
ATOM     28  C   UNL d   1      -6.588  -3.127   0.999  0.00  0.00     0.002 A 
ATOM     29  C   UNL d   1      -6.333  -2.519  -0.229  0.00  0.00     0.001 A 
ATOM     30  C   UNL d   1      -5.408  -1.478  -0.314  0.00  0.00     0.019 A 
ENDBRANCH   3  24
TORSDOF 3
