REMARK  5 active torsions:
REMARK  status: ('A' for Active; 'I' for Inactive)
REMARK    1  A    between atoms: N_13  and  N_5 
REMARK    2  A    between atoms: O_21  and  C_8 
REMARK    3  A    between atoms: C_9  and  C_10 
REMARK       I    between atoms: C_10  and  N_13 
REMARK    4  A    between atoms: O_22  and  C_11 
REMARK    5  A    between atoms: O_23  and  C_12 
ROOT
ATOM      1  C   UNL d   1       1.710   4.478   0.167  0.00  0.00     0.270 C 
ATOM      2  N   UNL d   1       1.196   3.879  -0.974  0.00  0.00    -0.265 N 
ATOM      3  O   UNL d   1       1.195   4.491   1.279  0.00  0.00    -0.266 OA
ATOM      4  H   UNL d   1       1.569   4.150  -1.870  0.00  0.00     0.190 HD
ENDROOT
BRANCH   2   5
ATOM      5  N   UNL d   1       0.007   3.230  -0.919  0.00  0.00    -0.292 N 
ATOM      6  C   UNL d   1      -0.434   2.579  -1.949  0.00  0.00     0.129 A 
ATOM      7  C   UNL d   1      -1.827   1.914  -1.914  0.00  0.00     0.275 A 
ATOM      8  C   UNL d   1       0.117   2.278  -3.284  0.00  0.00     0.026 A 
ATOM      9  N   UNL d   1      -1.988   1.335  -3.152  0.00  0.00    -0.321 N 
ATOM     10  O   UNL d   1      -2.614   1.914  -0.993  0.00  0.00    -0.266 OA
ATOM     11  C   UNL d   1      -0.869   1.540  -3.947  0.00  0.00     0.048 A 
ATOM     12  H   UNL d   1      -2.821   0.825  -3.404  0.00  0.00     0.169 HD
ATOM     13  C   UNL d   1      -0.706   1.075  -5.238  0.00  0.00     0.032 A 
ATOM     14  C   UNL d   1       0.498   1.369  -5.881  0.00  0.00     0.021 A 
ATOM     15  C   UNL d   1       1.500   2.096  -5.215  0.00  0.00     0.011 A 
ATOM     16  C   UNL d   1       1.324   2.551  -3.901  0.00  0.00     0.035 A 
ATOM     17 BR   UNL d   1       3.123   2.473  -6.112  0.00  0.00    -0.051 Br
ATOM     18  HN  UNL d   1      -0.544   3.254  -0.061  1.00  0.00     0.187 HD
ENDBRANCH   2   5
BRANCH   1  19
ATOM     19  C   UNL d   1       3.001   5.182  -0.035  0.00  0.00     0.039 A 
ATOM     20  C   UNL d   1       3.250   6.349   0.684  0.00  0.00     0.057 A 
ATOM     21  C   UNL d   1       4.468   7.032   0.540  0.00  0.00     0.105 A 
ATOM     22  C   UNL d   1       5.459   6.538  -0.345  0.00  0.00     0.135 A 
ATOM     23  C   UNL d   1       5.184   5.369  -1.089  0.00  0.00     0.105 A 
ATOM     24  C   UNL d   1       3.968   4.694  -0.911  0.00  0.00     0.057 A 
BRANCH  21  25
ATOM     25  O   UNL d   1       4.679   8.227   1.184  0.00  0.00    -0.353 OA
ATOM     26  C   UNL d   1       4.046   8.377   2.454  0.00  0.00     0.210 C 
ENDBRANCH  21  25
BRANCH  22  27
ATOM     27  O   UNL d   1       6.683   7.114  -0.561  0.00  0.00    -0.351 OA
ATOM     28  C   UNL d   1       7.208   8.046   0.373  0.00  0.00     0.210 C 
ENDBRANCH  22  27
BRANCH  23  29
ATOM     29  O   UNL d   1       5.952   4.736  -2.034  0.00  0.00    -0.353 OA
ATOM     30  C   UNL d   1       7.268   5.191  -2.302  0.00  0.00     0.210 C 
ENDBRANCH  23  29
ENDBRANCH   1  19
TORSDOF 5
