REMARK  5 active torsions:
REMARK  status: ('A' for Active; 'I' for Inactive)
REMARK    1  A    between atoms: C_4  and  C_2 
REMARK    2  A    between atoms: C_13  and  C_4 
REMARK    3  A    between atoms: C_6  and  C_14 
REMARK    4  A    between atoms: O_15  and  C_6 
REMARK    5  A    between atoms: C_14  and  C_13 
ROOT
ATOM      1  C   UNL d   1       0.297  -0.707   0.087  0.00  0.00     0.102 A 
ATOM      2  C   UNL d   1       2.728  -0.696   0.076  0.00  0.00     0.013 A 
ATOM      3  C   UNL d   1       1.516  -1.390   0.179  0.00  0.00     0.054 A 
ATOM      4  C   UNL d   1       0.287   0.688  -0.062  0.00  0.00     0.102 A 
ATOM      5  O   UNL d   1      -0.823  -1.498   0.156  0.00  0.00    -0.348 OA
ATOM      6  O   UNL d   1      -0.827   1.484  -0.119  0.00  0.00    -0.348 OA
ATOM      7  C   UNL d   1       2.712   0.686  -0.133  0.00  0.00     0.018 A 
ATOM      8  C   UNL d   1       1.496   1.371  -0.199  0.00  0.00     0.040 A 
ATOM      9  C   UNL d   1      -2.741  -0.013  -0.073  0.00  0.00     0.053 C 
ATOM     10  C   UNL d   1      -1.865  -1.071  -0.724  0.00  0.00     0.178 C 
ATOM     11  C   UNL d   1      -1.918   1.020   0.676  0.00  0.00     0.178 C 
ENDROOT
BRANCH   2  12
ATOM     12  C   UNL d   1       4.003  -1.466   0.136  0.00  0.00     0.160 C 
ATOM     13  O   UNL d   1       4.032  -2.639  -0.245  0.00  0.00    -0.292 OA
BRANCH  12  14
ATOM     14  C   UNL d   1       5.251  -0.803   0.692  0.00  0.00     0.094 C 
BRANCH  14  15
ATOM     15  C   UNL d   1       6.509  -1.437   0.114  0.00  0.00     0.117 C 
BRANCH  15  16
ATOM     16  C   UNL d   1       6.567  -1.240  -1.380  0.00  0.00     0.139 C 
ATOM     17  O   UNL d   1       7.058  -0.257  -1.912  0.00  0.00    -0.650 OA
BRANCH  16  18
ATOM     18  O   UNL d   1       5.968  -2.228  -2.080  0.00  0.00    -0.776 OA
ATOM     19  H   UNL d   1       5.454  -2.852  -1.514  0.00  0.00     0.167 HD
ENDBRANCH  16  18
ENDBRANCH  15  16
ENDBRANCH  14  15
ENDBRANCH  12  14
ENDBRANCH   2  12
TORSDOF 5
