REMARK  6 active torsions:
REMARK  status: ('A' for Active; 'I' for Inactive)
REMARK    1  A    between atoms: N_4  and  C_1 
REMARK    2  A    between atoms: N_8  and  C_3 
REMARK    3  A    between atoms: O_12  and  C_5 
REMARK    4  A    between atoms: O_13  and  C_7 
REMARK       I    between atoms: C_9  and  N_8 
REMARK    5  A    between atoms: C_19  and  O_12 
REMARK    6  A    between atoms: C_20  and  O_13 
ROOT
ATOM      1  C   UNL d   1       1.493  -0.151   0.145  0.00  0.00     0.067 A 
ATOM      2  C   UNL d   1       0.616  -1.265   0.265  0.00  0.00     0.071 A 
ATOM      3  C   UNL d   1      -1.346   0.107  -0.076  0.00  0.00     0.071 A 
ATOM      4  C   UNL d   1       0.888   1.110  -0.037  0.00  0.00     0.097 A 
ATOM      5  C   UNL d   1      -0.504   1.207  -0.191  0.00  0.00     0.071 A 
ATOM      6  C   UNL d   1      -0.778  -1.149   0.171  0.00  0.00     0.097 A 
ENDROOT
BRANCH   1   7
ATOM      7  N   UNL d   1       2.862  -0.371   0.195  0.00  0.00    -0.374 N 
ATOM      8  C   UNL d   1       3.832   0.449  -0.550  0.00  0.00     0.149 C 
ATOM      9  C   UNL d   1       4.715   1.254   0.413  0.00  0.00     0.187 C 
ATOM     10  O   UNL d   1       5.364   0.389   1.365  0.00  0.00    -0.388 OA
ATOM     11  C   UNL d   1       4.378  -0.304   2.147  0.00  0.00     0.187 C 
ATOM     12  C   UNL d   1       3.455  -1.174   1.276  0.00  0.00     0.149 C 
ENDBRANCH   1   7
BRANCH   4  13
ATOM     13  O   UNL d   1       1.672   2.251  -0.010  0.00  0.00    -0.349 OA
BRANCH  13  14
ATOM     14  C   UNL d   1       0.958   3.458   0.296  0.00  0.00     0.171 C 
ATOM     15  C   UNL d   1       1.920   4.559   0.687  0.00  0.00     0.034 C 
ENDBRANCH  13  14
ENDBRANCH   4  13
BRANCH   6  16
ATOM     16  O   UNL d   1      -1.664  -2.193   0.280  0.00  0.00    -0.349 OA
BRANCH  16  17
ATOM     17  C   UNL d   1      -1.128  -3.511   0.133  0.00  0.00     0.171 C 
ATOM     18  C   UNL d   1      -2.290  -4.452  -0.132  0.00  0.00     0.034 C 
ENDBRANCH  16  17
ENDBRANCH   6  16
BRANCH   3  19
ATOM     19  N   UNL d   1      -2.752   0.248  -0.171  0.00  0.00    -0.325 N 
ATOM     20  C   UNL d   1      -3.421   1.352  -0.682  0.00  0.00     0.218 C 
ATOM     21  O   UNL d   1      -2.928   2.335  -1.236  0.00  0.00    -0.274 OA
ATOM     22  C   UNL d   1      -4.920   1.277  -0.551  0.00  0.00     0.117 C 
ATOM     23  H   UNL d   1      -3.280  -0.580   0.078  0.00  0.00     0.169 HD
ENDBRANCH   3  19
TORSDOF 6
