REMARK  5 active torsions:
REMARK  status: ('A' for Active; 'I' for Inactive)
REMARK    1  A    between atoms: C_22  and  N_3 
REMARK    2  A    between atoms: C_8  and  C_4 
REMARK       I    between atoms: N_13  and  C_8 
REMARK    3  A    between atoms: C_9  and  O_11 
REMARK    4  A    between atoms: O_11  and  C_12 
REMARK    5  A    between atoms: C_17  and  N_13 
ROOT
ATOM      1  C   UNL d   1      -2.151   2.551  -1.221  0.00  0.00     0.176 A 
ATOM      2  C   UNL d   1      -2.772   2.259  -0.003  0.00  0.00     0.087 A 
ATOM      3  N   UNL d   1      -1.801   3.809  -1.589  0.00  0.00    -0.345 N 
ATOM      4  HN  UNL d   1      -1.282   3.992  -2.448  1.00  0.00     0.167 HD
ATOM      5  C   UNL d   1      -3.161   3.319   0.816  0.00  0.00     0.035 A 
ATOM      6  C   UNL d   1      -2.177   4.809  -0.759  0.00  0.00     0.090 A 
ATOM      7  C   UNL d   1      -2.866   4.620   0.429  0.00  0.00     0.019 A 
ENDROOT
BRANCH   2   8
ATOM      8  N   UNL d   1      -2.969   0.942   0.449  0.00  0.00    -0.318 N 
ATOM      9  C   UNL d   1      -2.339   0.380   1.555  0.00  0.00     0.276 C 
ATOM     10  O   UNL d   1      -2.712  -0.729   1.941  0.00  0.00    -0.266 OA
ATOM     11  H   UNL d   1      -3.301   0.251  -0.213  0.00  0.00     0.169 HD
BRANCH   9  12
ATOM     12  C   UNL d   1      -1.205   1.080   2.192  0.00  0.00     0.141 A 
ATOM     13  N   UNL d   1      -0.417   1.959   1.541  0.00  0.00    -0.272 N 
ATOM     14  N   UNL d   1       0.440   2.382   2.498  0.00  0.00    -0.196 N 
ATOM     15  HN  UNL d   1      -0.457   2.238   0.561  1.00  0.00     0.189 HD
ATOM     16  N   UNL d   1       0.326   1.770   3.701  0.00  0.00    -0.281 N 
ATOM     17  C   UNL d   1      -0.682   0.910   3.499  0.00  0.00     0.057 A 
ATOM     18  HN  UNL d   1       0.871   1.924   4.549  1.00  0.00     0.189 HD
ATOM     19  C   UNL d   1      -1.090  -0.006   4.586  0.00  0.00     0.072 C 
BRANCH  14  20
ATOM     20  C   UNL d   1       1.399   3.402   2.257  0.00  0.00     0.074 A 
ATOM     21  C   UNL d   1       1.568   3.929   0.968  0.00  0.00     0.033 A 
ATOM     22  C   UNL d   1       2.532   4.916   0.741  0.00  0.00     0.002 A 
ATOM     23  C   UNL d   1       3.311   5.391   1.796  0.00  0.00     0.000 A 
ATOM     24  C   UNL d   1       3.132   4.883   3.082  0.00  0.00     0.002 A 
ATOM     25  C   UNL d   1       2.182   3.887   3.315  0.00  0.00     0.033 A 
ENDBRANCH  14  20
ENDBRANCH   9  12
ENDBRANCH   2   8
BRANCH   1  26
ATOM     26  O   UNL d   1      -1.669   1.476  -1.953  0.00  0.00    -0.274 OA
BRANCH  26  27
ATOM     27  C   UNL d   1      -1.665   1.598  -3.336  0.00  0.00     0.163 A 
ATOM     28  C   UNL d   1      -0.719   0.836  -4.034  0.00  0.00     0.042 A 
ATOM     29  C   UNL d   1      -0.847   0.885  -5.429  0.00  0.00     0.049 A 
ATOM     30  C   UNL d   1       0.292   0.039  -3.443  0.00  0.00     0.020 A 
ATOM     31  C   UNL d   1       0.020   0.123  -6.202  0.00  0.00     0.054 A 
ATOM     32  N   UNL d   1      -1.781   1.623  -6.040  0.00  0.00    -0.351 N 
ATOM     33  C   UNL d   1       0.999  -0.679  -5.618  0.00  0.00     0.036 A 
ATOM     34  C   UNL d   1       1.151  -0.722  -4.241  0.00  0.00     0.025 A 
ATOM     35 CL   UNL d   1       2.029  -1.635  -6.617  0.00  0.00    -0.084 Cl
ATOM     36  C   UNL d   1      -2.634   2.301  -5.258  0.00  0.00     0.182 A 
ATOM     37  HN  UNL d   1      -1.842   1.669  -7.058  1.00  0.00     0.166 HD
ATOM     38  N   UNL d   1      -2.655   2.295  -3.924  0.00  0.00    -0.332 N 
ATOM     39  HN  UNL d   1      -3.371   2.784  -3.387  1.00  0.00     0.168 HD
ENDBRANCH  26  27
ENDBRANCH   1  26
TORSDOF 5
