REMARK  5 active torsions:
REMARK  status: ('A' for Active; 'I' for Inactive)
REMARK    1  A    between atoms: C_4  and  N_8 
REMARK       I    between atoms: C_7  and  N_8 
REMARK    2  A    between atoms: C_17  and  C_7 
REMARK    3  A    between atoms: C_9  and  C_10 
REMARK    4  A    between atoms: S_13  and  C_17 
REMARK    5  A    between atoms: C_18  and  S_13 
ROOT
ATOM      1  C   UNL d   1      -2.266   4.746  -0.510  0.00  0.00     0.227 C 
ATOM      2  N   UNL d   1      -1.608   5.753   0.172  0.00  0.00    -0.356 N 
ATOM      3  O   UNL d   1      -1.728   3.954  -1.276  0.00  0.00    -0.273 OA
ATOM      4  H   UNL d   1      -2.228   6.500   0.469  0.00  0.00     0.162 HD
ENDROOT
BRANCH   1   5
ATOM      5  C   UNL d   1      -3.744   4.669  -0.156  0.00  0.00     0.182 C 
BRANCH   5   6
ATOM      6  S   UNL d   1      -4.514   6.276  -0.546  0.00  0.00    -0.121 SA
BRANCH   6   7
ATOM      7  C   UNL d   1      -6.191   6.109   0.005  0.00  0.00     0.001 A 
ATOM      8  C   UNL d   1      -6.742   4.990   0.635  0.00  0.00     0.019 A 
ATOM      9  C   UNL d   1      -8.096   4.980   1.012  0.00  0.00     0.009 A 
ATOM     10  C   UNL d   1      -8.934   6.087   0.770  0.00  0.00    -0.051 A 
ATOM     11  C   UNL d   1      -8.367   7.198   0.150  0.00  0.00     0.009 A 
ATOM     12  C   UNL d   1      -7.019   7.208  -0.223  0.00  0.00     0.019 A 
BRANCH  10  13
ATOM     13  C   UNL d   1     -10.429   6.031   1.157  0.00  0.00    -0.024 C 
ATOM     14  C   UNL d   1     -11.200   7.327   0.815  0.00  0.00     0.019 C 
ATOM     15  C   UNL d   1     -11.120   4.877   0.399  0.00  0.00     0.019 C 
ATOM     16  C   UNL d   1     -10.576   5.800   2.674  0.00  0.00     0.019 C 
ENDBRANCH  10  13
ENDBRANCH   6   7
ENDBRANCH   5   6
ENDBRANCH   1   5
BRANCH   2  17
ATOM     17  C   UNL d   1      -0.218   6.135  -0.074  0.00  0.00     0.088 C 
ATOM     18  C   UNL d   1       0.115   7.404   0.755  0.00  0.00     0.061 C 
ATOM     19  C   UNL d   1       0.673   7.082   2.152  0.00  0.00     0.225 C 
ATOM     20  N   UNL d   1       1.834   6.244   1.864  0.00  0.00     0.093 N 
ATOM     21  C   UNL d   1      -0.278   6.202   2.975  0.00  0.00     0.038 C 
ATOM     22  C   UNL d   1       1.277   4.913   1.645  0.00  0.00     0.225 C 
ATOM     23  C   UNL d   1       2.969   6.362   2.746  0.00  0.00     0.310 C 
ATOM     24  C   UNL d   1       0.784   4.984   0.189  0.00  0.00     0.061 C 
ATOM     25  C   UNL d   1       0.151   4.771   2.666  0.00  0.00     0.038 C 
ENDBRANCH   2  17
TORSDOF 5
