REMARK  1 active torsions:
REMARK  status: ('A' for Active; 'I' for Inactive)
REMARK       I    between atoms: N_2  and  C_1 
REMARK    1  A    between atoms: C_11  and  C_1 
ROOT
ATOM      1  C   UNL d   1       1.107  -0.105  -0.204  0.00  0.00     0.253 C 
ATOM      2  N   UNL d   1       0.298  -1.237  -0.013  0.00  0.00    -0.348 N 
ATOM      3  C   UNL d   1      -1.872  -3.085   0.517  0.00  0.00     0.167 C 
ATOM      4  C   UNL d   1      -1.972  -2.042  -0.592  0.00  0.00     0.088 C 
ATOM      5  C   UNL d   1      -0.962  -2.591   1.633  0.00  0.00     0.088 C 
ATOM      6  C   UNL d   1       0.398  -2.183   1.099  0.00  0.00     0.131 C 
ATOM      7  C   UNL d   1      -0.591  -1.643  -1.103  0.00  0.00     0.131 C 
ATOM      8  O   UNL d   1      -3.173  -3.318   1.087  0.00  0.00    -0.353 OA
ATOM      9  O   UNL d   1      -1.364  -4.318  -0.022  0.00  0.00    -0.353 OA
ATOM     10  O   UNL d   1       0.966   0.665  -1.151  0.00  0.00    -0.267 OA
ATOM     11  C   UNL d   1      -2.179  -5.334   0.560  0.00  0.00     0.197 C 
ATOM     12  C   UNL d   1      -3.510  -4.656   0.728  0.00  0.00     0.197 C 
ENDROOT
BRANCH   1  13
ATOM     13  C   UNL d   1       2.163   0.228   0.791  0.00  0.00     0.032 A 
ATOM     14  C   UNL d   1       3.067  -0.733   1.264  0.00  0.00     0.017 A 
ATOM     15  C   UNL d   1       3.967  -0.409   2.279  0.00  0.00     0.001 A 
ATOM     16  C   UNL d   1       4.026   0.895   2.767  0.00  0.00     0.000 A 
ATOM     17  C   UNL d   1       3.196   1.880   2.231  0.00  0.00     0.001 A 
ATOM     18  C   UNL d   1       2.262   1.548   1.246  0.00  0.00     0.017 A 
ENDBRANCH   1  13
TORSDOF 1
