REMARK  4 active torsions:
REMARK  status: ('A' for Active; 'I' for Inactive)
REMARK    1  A    between atoms: C_2  and  S_1 
REMARK    2  A    between atoms: N_4  and  S_1 
REMARK    3  A    between atoms: C_11  and  N_4 
REMARK    4  A    between atoms: C_14  and  C_11 
ROOT
ATOM      1  S   UNL d   1       0.937  -0.060  -0.007  0.00  0.00     0.260 S 
ATOM      2  O   UNL d   1       0.432  -0.767  -1.165  0.00  0.00    -0.200 OA
ATOM      3  O   UNL d   1       2.356   0.018   0.258  0.00  0.00    -0.200 OA
ENDROOT
BRANCH   1   4
ATOM      4  C   UNL d   1       0.136  -0.745   1.424  0.00  0.00     0.096 A 
ATOM      5  C   UNL d   1      -1.257  -0.857   1.540  0.00  0.00     0.031 A 
ATOM      6  C   UNL d   1      -1.804  -1.495   2.664  0.00  0.00     0.043 A 
ATOM      7  I   UNL d   1      -2.674  -0.137   0.160  0.00  0.00    -0.043 I 
ATOM      8  C   UNL d   1      -0.973  -2.015   3.655  0.00  0.00     0.035 A 
ATOM      9  C   UNL d   1       0.408  -1.889   3.555  0.00  0.00     0.025 A 
ATOM     10 CL   UNL d   1      -1.662  -2.828   5.005  0.00  0.00    -0.084 Cl
ATOM     11  C   UNL d   1       0.964  -1.254   2.442  0.00  0.00     0.028 A 
ENDBRANCH   1   4
BRANCH   1  12
ATOM     12  N   UNL d   1       0.343   1.496  -0.068  0.00  0.00    -0.311 N 
ATOM     13  H   UNL d   1      -0.216   1.705  -0.894  0.00  0.00     0.172 HD
BRANCH  12  14
ATOM     14  C   UNL d   1       1.106   2.570   0.553  0.00  0.00     0.170 C 
BRANCH  14  15
ATOM     15  C   UNL d   1       0.517   3.925   0.238  0.00  0.00    -0.040 A 
ATOM     16  C   UNL d   1      -0.005   4.734   1.256  0.00  0.00     0.009 A 
ATOM     17  C   UNL d   1      -0.507   6.003   0.964  0.00  0.00     0.001 A 
ATOM     18  C   UNL d   1      -0.502   6.474  -0.348  0.00  0.00     0.000 A 
ATOM     19  C   UNL d   1       0.001   5.674  -1.372  0.00  0.00     0.001 A 
ATOM     20  C   UNL d   1       0.509   4.407  -1.081  0.00  0.00     0.009 A 
ENDBRANCH  14  15
ENDBRANCH  12  14
ENDBRANCH   1  12
TORSDOF 4
