REMARK  5 active torsions:
REMARK  status: ('A' for Active; 'I' for Inactive)
REMARK    1  A    between atoms: N_2  and  S_1 
REMARK    2  A    between atoms: C_3  and  S_1 
REMARK    3  A    between atoms: C_8  and  N_2 
REMARK    4  A    between atoms: C_13  and  N_2 
REMARK    5  A    between atoms: C_11  and  C_13 
ROOT
ATOM      1  N   UNL d   1       2.718   1.654  -3.293  0.00  0.00    -0.197 NA
ATOM      2  C   UNL d   1       2.462   2.065  -2.235  0.00  0.00     0.060 C 
ATOM      3  C   UNL d   1       2.130   2.604  -0.913  0.00  0.00     0.144 C 
ENDROOT
BRANCH   3   4
ATOM      4  C   UNL d   1       0.663   2.360  -0.541  0.00  0.00     0.150 C 
BRANCH   4   5
ATOM      5  N   UNL d   1       0.188   0.948  -0.724  0.00  0.00    -0.301 N 
BRANCH   5   6
ATOM      6  S   UNL d   1       0.812  -0.128   0.477  0.00  0.00     0.261 S 
ATOM      7  O   UNL d   1      -0.051  -0.058   1.633  0.00  0.00    -0.200 OA
ATOM      8  O   UNL d   1       2.231   0.144   0.618  0.00  0.00    -0.200 OA
BRANCH   6   9
ATOM      9  C   UNL d   1       0.729  -1.785  -0.148  0.00  0.00     0.079 A 
ATOM     10  C   UNL d   1       0.625  -2.074  -1.509  0.00  0.00     0.026 A 
ATOM     11  C   UNL d   1       0.630  -3.410  -1.926  0.00  0.00     0.020 A 
ATOM     12  C   UNL d   1       0.769  -4.438  -0.989  0.00  0.00     0.011 A 
ATOM     13  C   UNL d   1       0.891  -4.148   0.369  0.00  0.00     0.020 A 
ATOM     14 BR   UNL d   1       0.820  -6.238  -1.564  0.00  0.00    -0.051 Br
ATOM     15  C   UNL d   1       0.863  -2.820   0.791  0.00  0.00     0.026 A 
ENDBRANCH   6   9
ENDBRANCH   5   6
BRANCH   5  16
ATOM     16  C   UNL d   1      -1.275   0.794  -1.117  0.00  0.00     0.096 C 
ATOM     17  C   UNL d   1      -1.585   1.414  -2.502  0.00  0.00     0.026 C 
ATOM     18  C   UNL d   1      -2.132   2.850  -2.520  0.00  0.00     0.002 C 
ATOM     19  C   UNL d   1      -3.141   3.142  -1.418  0.00  0.00     0.000 C 
ATOM     20  C   UNL d   1      -2.652   2.689  -0.052  0.00  0.00     0.002 C 
ATOM     21  C   UNL d   1      -2.302   1.209  -0.059  0.00  0.00     0.026 C 
ENDBRANCH   5  16
ENDBRANCH   4   5
ENDBRANCH   3   4
TORSDOF 5
