REMARK  4 active torsions:
REMARK  status: ('A' for Active; 'I' for Inactive)
REMARK    1  A    between atoms: C_7  and  N_1 
REMARK    2  A    between atoms: C_13  and  N_2 
REMARK    3  A    between atoms: C_18  and  C_13 
REMARK    4  A    between atoms: O_20  and  C_16 
ROOT
ATOM      1  N   UNL d   1       0.922  -1.385  -0.015  0.00  0.00    -0.246 N 
ATOM      2  N   UNL d   1       2.103   0.701  -0.099  0.00  0.00    -0.260 N 
ATOM      3  C   UNL d   1       2.152  -0.711  -0.038  0.00  0.00     0.338 A 
ATOM      4  C   UNL d   1      -0.259  -0.681  -0.070  0.00  0.00     0.150 A 
ATOM      5  C   UNL d   1      -0.246   0.682  -0.110  0.00  0.00     0.147 A 
ATOM      6  C   UNL d   1       0.936   1.467  -0.131  0.00  0.00     0.282 A 
ATOM      7  N   UNL d   1      -1.540  -1.155  -0.041  0.00  0.00    -0.336 N 
ATOM      8  HN  UNL d   1      -1.842  -2.129  -0.012  1.00  0.00     0.168 HD
ATOM      9  N   UNL d   1      -1.554   1.068  -0.096  0.00  0.00    -0.345 N 
ATOM     10  C   UNL d   1      -2.301  -0.079  -0.056  0.00  0.00     0.182 A 
ATOM     11  O   UNL d   1       3.236  -1.305  -0.030  0.00  0.00    -0.246 OA
ATOM     12  O   UNL d   1       0.898   2.692  -0.183  0.00  0.00    -0.265 OA
ATOM     13  H   UNL d   1      -1.897   2.021  -0.097  0.00  0.00     0.167 HD
ENDROOT
BRANCH   1  14
ATOM     14  C   UNL d   1       0.857  -2.800   0.107  0.00  0.00     0.054 A 
ATOM     15  C   UNL d   1       1.373  -3.473   1.255  0.00  0.00    -0.001 A 
ATOM     16  C   UNL d   1       1.435  -4.881   1.228  0.00  0.00     0.076 A 
ATOM     17  C   UNL d   1       1.779  -2.652   2.451  0.00  0.00     0.054 C 
ATOM     18  C   UNL d   1       0.963  -5.573   0.096  0.00  0.00     0.037 A 
ATOM     19  C   UNL d   1       0.410  -4.908  -0.994  0.00  0.00     0.005 A 
ATOM     20  C   UNL d   1       0.349  -3.524  -0.984  0.00  0.00     0.031 A 
BRANCH  16  21
ATOM     21  O   UNL d   1       1.897  -5.769   2.160  0.00  0.00    -0.355 OA
ATOM     22  C   UNL d   1       2.458  -5.348   3.386  0.00  0.00     0.210 C 
ENDBRANCH  16  21
ENDBRANCH   1  14
BRANCH   2  23
ATOM     23  C   UNL d   1       3.373   1.413  -0.114  0.00  0.00     0.175 C 
BRANCH  23  24
ATOM     24  C   UNL d   1       3.852   1.750   1.282  0.00  0.00    -0.040 A 
ATOM     25  C   UNL d   1       4.698   0.875   1.979  0.00  0.00     0.009 A 
ATOM     26  C   UNL d   1       5.092   1.162   3.288  0.00  0.00     0.001 A 
ATOM     27  C   UNL d   1       4.643   2.324   3.913  0.00  0.00     0.000 A 
ATOM     28  C   UNL d   1       3.813   3.207   3.227  0.00  0.00     0.001 A 
ATOM     29  C   UNL d   1       3.422   2.924   1.918  0.00  0.00     0.009 A 
ENDBRANCH  23  24
ENDBRANCH   2  23
TORSDOF 4
