REMARK  8 active torsions:
REMARK  status: ('A' for Active; 'I' for Inactive)
REMARK    1  A    between atoms: C_9  and  N_1 
REMARK    2  A    between atoms: S_10  and  C_5 
REMARK    3  A    between atoms: C_15  and  S_10 
REMARK    4  A    between atoms: C_12  and  C_15 
REMARK    5  A    between atoms: C_13  and  C_12 
REMARK    6  A    between atoms: O_23  and  C_24 
REMARK    7  A    between atoms: C_26  and  O_23 
REMARK    8  A    between atoms: C_32  and  C_26 
ROOT
ATOM      1  N   UNL d   1      -0.283  -1.286   0.030  0.00  0.00    -0.273 N 
ATOM      2  C   UNL d   1       0.965  -0.659   0.031  0.00  0.00     0.163 A 
ATOM      3  N   UNL d   1       0.812   0.651   0.060  0.00  0.00    -0.281 N 
ATOM      4  HN  UNL d   1       1.564   1.339   0.096  1.00  0.00     0.188 HD
ATOM      5  C   UNL d   1      -1.176  -0.212   0.024  0.00  0.00     0.168 A 
ATOM      6  N   UNL d   1      -0.527   0.929   0.034  0.00  0.00    -0.278 N 
ATOM      7  HN  UNL d   1      -0.947   1.859   0.024  1.00  0.00     0.189 HD
ATOM      8  C   UNL d   1       2.255  -1.282  -0.056  0.00  0.00     0.120 A 
ATOM      9  O   UNL d   1       2.500  -2.434  -0.761  0.00  0.00    -0.319 OA
ATOM     10  C   UNL d   1       3.446  -0.875   0.531  0.00  0.00     0.043 A 
ATOM     11  C   UNL d   1       3.799  -2.777  -0.574  0.00  0.00     0.142 A 
ATOM     12  C   UNL d   1       4.425  -1.850   0.221  0.00  0.00     0.027 A 
ENDROOT
BRANCH   1  13
ATOM     13  C   UNL d   1      -0.548  -2.693   0.064  0.00  0.00     0.043 A 
ATOM     14  C   UNL d   1       0.305  -3.557   0.768  0.00  0.00     0.033 A 
ATOM     15  C   UNL d   1       0.117  -4.945   0.740  0.00  0.00     0.039 A 
ATOM     16  C   UNL d   1      -0.947  -5.495   0.032  0.00  0.00     0.069 A 
ATOM     17  C   UNL d   1      -1.832  -4.637  -0.624  0.00  0.00     0.039 A 
ATOM     18  C   UNL d   1      -1.632  -3.249  -0.624  0.00  0.00     0.033 A 
BRANCH  16  19
ATOM     19  O   UNL d   1      -1.244  -6.828  -0.050  0.00  0.00    -0.347 OA
BRANCH  19  20
ATOM     20  C   UNL d   1      -0.142  -7.731   0.087  0.00  0.00     0.214 C 
BRANCH  20  21
ATOM     21  C   UNL d   1      -0.613  -9.168   0.028  0.00  0.00    -0.034 A 
ATOM     22  C   UNL d   1       0.201 -10.153  -0.553  0.00  0.00     0.009 A 
ATOM     23  C   UNL d   1      -0.182 -11.496  -0.534  0.00  0.00     0.001 A 
ATOM     24  C   UNL d   1      -1.378 -11.873   0.074  0.00  0.00     0.000 A 
ATOM     25  C   UNL d   1      -2.193 -10.907   0.660  0.00  0.00     0.001 A 
ATOM     26  C   UNL d   1      -1.811  -9.564   0.641  0.00  0.00     0.009 A 
ENDBRANCH  20  21
ENDBRANCH  19  20
ENDBRANCH  16  19
ENDBRANCH   1  13
BRANCH   5  27
ATOM     27  S   UNL d   1      -2.897  -0.332   0.228  0.00  0.00    -0.084 SA
BRANCH  27  28
ATOM     28  C   UNL d   1      -3.455   1.406   0.100  0.00  0.00     0.166 C 
BRANCH  28  29
ATOM     29  C   UNL d   1      -4.965   1.500   0.326  0.00  0.00     0.169 C 
ATOM     30  O   UNL d   1      -5.678   0.519   0.553  0.00  0.00    -0.291 OA
BRANCH  29  31
ATOM     31  C   UNL d   1      -5.642   2.840   0.273  0.00  0.00     0.011 A 
ATOM     32  C   UNL d   1      -4.963   4.033  -0.001  0.00  0.00     0.017 A 
ATOM     33  C   UNL d   1      -5.665   5.250  -0.034  0.00  0.00     0.025 A 
ATOM     34  C   UNL d   1      -7.040   5.278   0.207  0.00  0.00     0.034 A 
ATOM     35  C   UNL d   1      -7.725   4.100   0.479  0.00  0.00     0.025 A 
ATOM     36 CL   UNL d   1      -7.889   6.772   0.169  0.00  0.00    -0.084 Cl
ATOM     37  C   UNL d   1      -7.028   2.887   0.511  0.00  0.00     0.017 A 
ENDBRANCH  29  31
ENDBRANCH  28  29
ENDBRANCH  27  28
ENDBRANCH   5  27
TORSDOF 8
