REMARK  5 active torsions:
REMARK  status: ('A' for Active; 'I' for Inactive)
REMARK    1  A    between atoms: C_3  and  S_1 
REMARK    2  A    between atoms: C_5  and  S_1 
REMARK    3  A    between atoms: C_6  and  C_2 
REMARK    4  A    between atoms: C_7  and  C_4 
REMARK    5  A    between atoms: O_15  and  C_6 
REMARK       I    between atoms: N_13  and  C_7 
ROOT
ATOM      1  S   UNL d   1       1.062   0.118   0.145  0.00  0.00     0.087 S 
ATOM      2  O   UNL d   1       2.429  -0.411   0.470  0.00  0.00    -0.247 OA
ENDROOT
BRANCH   1   3
ATOM      3  C   UNL d   1       1.287   1.861  -0.185  0.00  0.00     0.053 A 
ATOM      4  C   UNL d   1       0.298   2.807   0.166  0.00  0.00     0.058 A 
ATOM      5  C   UNL d   1       0.546   4.177  -0.038  0.00  0.00     0.043 A 
ATOM      6  C   UNL d   1       1.785   4.599  -0.519  0.00  0.00     0.035 A 
ATOM      7  C   UNL d   1       2.789   3.678  -0.797  0.00  0.00     0.025 A 
ATOM      8 CL   UNL d   1       2.075   6.277  -0.768  0.00  0.00    -0.084 Cl
ATOM      9  C   UNL d   1       2.541   2.315  -0.631  0.00  0.00     0.024 A 
BRANCH   4  10
ATOM     10  C   UNL d   1      -1.038   2.370   0.684  0.00  0.00     0.177 C 
ATOM     11  O   UNL d   1      -1.579   1.319   0.398  0.00  0.00    -0.646 OA
BRANCH  10  12
ATOM     12  O   UNL d   1      -1.583   3.227   1.577  0.00  0.00    -0.773 OA
ATOM     13  H   UNL d   1      -1.024   3.966   1.872  0.00  0.00     0.167 HD
ENDBRANCH  10  12
ENDBRANCH   4  10
ENDBRANCH   1   3
BRANCH   1  14
ATOM     14  C   UNL d   1       0.638  -0.648  -1.448  0.00  0.00     0.052 A 
ATOM     15  C   UNL d   1       0.195  -0.112  -2.670  0.00  0.00     0.051 A 
ATOM     16  C   UNL d   1      -0.227  -0.988  -3.705  0.00  0.00     0.018 A 
ATOM     17  C   UNL d   1      -0.152  -2.373  -3.580  0.00  0.00     0.001 A 
ATOM     18  C   UNL d   1       0.339  -2.914  -2.407  0.00  0.00     0.002 A 
ATOM     19  C   UNL d   1       0.713  -2.064  -1.364  0.00  0.00     0.022 A 
BRANCH  15  20
ATOM     20  C   UNL d   1       0.103   1.323  -3.048  0.00  0.00     0.252 C 
ATOM     21  O   UNL d   1      -0.521   2.136  -2.385  0.00  0.00    -0.268 OA
ATOM     22  N   UNL d   1       0.704   1.640  -4.256  0.00  0.00    -0.361 N 
ATOM     23  C   UNL d   1       0.554   2.944  -4.852  0.00  0.00     0.149 C 
ATOM     24  H   UNL d   1       1.104   0.904  -4.823  0.00  0.00     0.162 HD
ENDBRANCH  15  20
ENDBRANCH   1  14
TORSDOF 5
