REMARK  4 active torsions:
REMARK  status: ('A' for Active; 'I' for Inactive)
REMARK    1  A    between atoms: C_4  and  C_1 
REMARK    2  A    between atoms: C_5  and  C_2 
REMARK    3  A    between atoms: O_16  and  C_4 
REMARK    4  A    between atoms: O_15  and  C_5 
ROOT
ATOM      1  C   UNL d   1       0.741   0.778   1.152  0.00  0.00     0.050 C 
ATOM      2  C   UNL d   1      -1.541   0.293   0.113  0.00  0.00     0.050 C 
ATOM      3  C   UNL d   1      -0.779   1.042   1.239  0.00  0.00     0.039 C 
ATOM      4  C   UNL d   1       0.977  -0.748   1.267  0.00  0.00     0.024 C 
ATOM      5  C   UNL d   1      -0.996   0.780  -1.249  0.00  0.00     0.024 C 
ATOM      6  C   UNL d   1      -1.262  -1.220   0.256  0.00  0.00     0.024 C 
ATOM      7  C   UNL d   1       1.251   1.250  -0.227  0.00  0.00     0.024 C 
ATOM      8  C   UNL d   1       0.245  -1.499   0.148  0.00  0.00    -0.012 C 
ATOM      9  C   UNL d   1       0.514   0.505  -1.354  0.00  0.00    -0.012 C 
ATOM     10  C   UNL d   1       0.762  -1.006  -1.212  0.00  0.00     0.009 C 
ENDROOT
BRANCH   1  11
ATOM     11  C   UNL d   1       1.489   1.488   2.281  0.00  0.00     0.267 C 
ATOM     12  O   UNL d   1       2.173   0.918   3.123  0.00  0.00    -0.264 OA
BRANCH  11  13
ATOM     13  O   UNL d   1       1.308   2.838   2.232  0.00  0.00    -0.326 OA
ATOM     14  C   UNL d   1       1.990   3.547   3.270  0.00  0.00     0.213 C 
ENDBRANCH  11  13
ENDBRANCH   1  11
BRANCH   2  15
ATOM     15  C   UNL d   1      -3.042   0.559   0.220  0.00  0.00     0.267 C 
ATOM     16  O   UNL d   1      -3.566   1.252   1.084  0.00  0.00    -0.264 OA
BRANCH  15  17
ATOM     17  O   UNL d   1      -3.726  -0.085  -0.768  0.00  0.00    -0.326 OA
ATOM     18  C   UNL d   1      -5.143   0.096  -0.716  0.00  0.00     0.213 C 
ENDBRANCH  15  17
ENDBRANCH   2  15
TORSDOF 4
