REMARK  5 active torsions:
REMARK  status: ('A' for Active; 'I' for Inactive)
REMARK    1  A    between atoms: C_7  and  C_1 
REMARK    2  A    between atoms: C_2  and  S_3 
REMARK    3  A    between atoms: S_3  and  C_5 
REMARK    4  A    between atoms: C_8  and  C_6 
REMARK    5  A    between atoms: O_13  and  C_7 
REMARK       I    between atoms: N_12  and  C_8 
ROOT
ATOM      1  C   UNL d   1       3.157  -2.913   2.180  0.00  0.00     0.017 C 
ATOM      2  C   UNL d   1       4.283  -2.116   2.593  0.00  0.00     0.007 C 
ATOM      3  C   UNL d   1       4.361  -1.221   3.706  0.00  0.00     0.044 C 
ATOM      4  C   UNL d   1       5.436  -2.170   1.767  0.00  0.00    -0.024 C 
ATOM      5  C   UNL d   1       3.301  -3.889   1.180  0.00  0.00     0.020 C 
ATOM      6  C   UNL d   1       5.397  -0.277   3.829  0.00  0.00     0.018 C 
ATOM      7  C   UNL d   1       4.508  -4.029   0.506  0.00  0.00     0.002 C 
ATOM      8  C   UNL d   1       6.426  -0.252   2.905  0.00  0.00     0.002 C 
ATOM      9  C   UNL d   1       5.547  -3.142   0.765  0.00  0.00     0.012 C 
ATOM     10  C   UNL d   1       6.470  -1.228   1.915  0.00  0.00     0.012 C 
ENDROOT
BRANCH   1  11
ATOM     11  S   UNL d   1       1.491  -2.270   2.483  0.00  0.00    -0.089 SA
BRANCH  11  12
ATOM     12  C   UNL d   1       0.407  -3.669   2.723  0.00  0.00     0.022 A 
ATOM     13  C   UNL d   1      -0.460  -4.236   1.759  0.00  0.00     0.054 A 
ATOM     14  C   UNL d   1      -1.455  -5.140   2.189  0.00  0.00     0.020 A 
ATOM     15  C   UNL d   1      -1.590  -5.490   3.531  0.00  0.00     0.001 A 
ATOM     16  C   UNL d   1      -0.710  -4.968   4.468  0.00  0.00     0.001 A 
ATOM     17  C   UNL d   1       0.275  -4.066   4.067  0.00  0.00     0.020 A 
BRANCH  13  18
ATOM     18  C   UNL d   1      -0.447  -4.004   0.272  0.00  0.00     0.177 C 
ATOM     19  O   UNL d   1      -1.014  -4.754  -0.504  0.00  0.00    -0.646 OA
BRANCH  18  20
ATOM     20  O   UNL d   1       0.230  -2.923  -0.156  0.00  0.00    -0.773 OA
ATOM     21  H   UNL d   1       0.620  -2.366   0.546  0.00  0.00     0.167 HD
ENDBRANCH  18  20
ENDBRANCH  13  18
ENDBRANCH  11  12
ENDBRANCH   1  11
BRANCH   3  22
ATOM     22  C   UNL d   1       3.546  -1.351   4.946  0.00  0.00     0.252 C 
ATOM     23  O   UNL d   1       3.005  -0.365   5.433  0.00  0.00    -0.268 OA
ATOM     24  N   UNL d   1       3.647  -2.577   5.580  0.00  0.00    -0.361 N 
ATOM     25  C   UNL d   1       3.432  -2.699   7.006  0.00  0.00     0.149 C 
ATOM     26  H   UNL d   1       4.203  -3.299   5.139  0.00  0.00     0.162 HD
ENDBRANCH   3  22
TORSDOF 5
