REMARK  4 active torsions:
REMARK  status: ('A' for Active; 'I' for Inactive)
REMARK    1  A    between atoms: N_2  and  C_1 
REMARK    2  A    between atoms: N_4  and  C_10 
REMARK    3  A    between atoms: N_8  and  N_13 
REMARK    4  A    between atoms: N_13  and  C_12 
ROOT
ATOM      1  N   UNL d   1       3.736   0.836  -0.046  0.00  0.00    -0.298 N 
ATOM      2  H   UNL d   1       4.677   0.600  -0.372  0.00  0.00     0.187 HD
ENDROOT
BRANCH   1   3
ATOM      3  N   UNL d   1       3.190   2.046  -0.312  0.00  0.00    -0.308 N 
ATOM      4  C   UNL d   1       3.974   3.029  -0.619  0.00  0.00     0.013 C 
ATOM      5  C   UNL d   1       3.444   4.447  -0.847  0.00  0.00     0.003 C 
ATOM      6  C   UNL d   1       5.479   3.027  -0.785  0.00  0.00     0.060 C 
ATOM      7  C   UNL d   1       4.434   4.930  -1.942  0.00  0.00    -0.031 C 
ATOM      8  C   UNL d   1       3.906   5.203   0.425  0.00  0.00     0.016 C 
ATOM      9  C   UNL d   1       1.965   4.552  -1.138  0.00  0.00     0.022 C 
ATOM     10  C   UNL d   1       4.333   6.433  -2.273  0.00  0.00     0.016 C 
ATOM     11  C   UNL d   1       4.332   4.180  -3.285  0.00  0.00     0.016 C 
ATOM     12  C   UNL d   1       5.675   4.539  -1.089  0.00  0.00    -0.000 C 
ATOM     13  C   UNL d   1       5.435   5.305   0.234  0.00  0.00     0.007 C 
ATOM     14  HN  UNL d   1       2.180   2.181  -0.272  1.00  0.00     0.186 HD
ENDBRANCH   1   3
BRANCH   1  15
ATOM     15  C   UNL d   1       2.861  -0.271   0.034  0.00  0.00     0.081 A 
ATOM     16  C   UNL d   1       3.197  -1.446   0.730  0.00  0.00     0.133 A 
ATOM     17  C   UNL d   1       2.341  -2.557   0.814  0.00  0.00     0.074 A 
ATOM     18  C   UNL d   1       1.096  -2.482   0.189  0.00  0.00     0.105 A 
ATOM     19  C   UNL d   1       0.700  -1.315  -0.471  0.00  0.00     0.038 A 
ATOM     20  C   UNL d   1       1.575  -0.220  -0.534  0.00  0.00     0.036 A 
BRANCH  16  21
ATOM     21  N   UNL d   1       4.450  -1.515   1.456  0.00  0.00    -0.113 N 
ATOM     22  O   UNL d   1       4.383  -1.746   2.671  0.00  0.00    -0.532 OA
ATOM     23  O   UNL d   1       5.490  -1.372   0.799  0.00  0.00    -0.532 OA
ENDBRANCH  16  21
BRANCH  18  24
ATOM     24  N   UNL d   1       0.192  -3.640   0.223  0.00  0.00    -0.116 N 
ATOM     25  O   UNL d   1       0.602  -4.666   0.784  0.00  0.00    -0.532 OA
ATOM     26  O   UNL d   1      -0.915  -3.522  -0.313  0.00  0.00    -0.532 OA
ENDBRANCH  18  24
ENDBRANCH   1  15
TORSDOF 4
