REMARK  3 active torsions:
REMARK  status: ('A' for Active; 'I' for Inactive)
REMARK    1  A    between atoms: C_7  and  C_6 
REMARK    2  A    between atoms: O_11  and  C_7 
REMARK    3  A    between atoms: C_16  and  O_11 
ROOT
ATOM      1  C   UNL d   1      -0.666   0.807   0.006  0.00  0.00     0.006 A 
ATOM      2  C   UNL d   1      -1.149  -0.517  -0.094  0.00  0.00     0.027 A 
ATOM      3  C   UNL d   1       0.005  -1.434  -0.113  0.00  0.00     0.194 A 
ATOM      4  C   UNL d   1       0.795   0.754  -0.005  0.00  0.00    -0.010 A 
ATOM      5  C   UNL d   1       1.208  -0.591  -0.055  0.00  0.00     0.026 A 
ATOM      6  C   UNL d   1      -1.608   1.828   0.095  0.00  0.00     0.051 A 
ATOM      7  O   UNL d   1      -0.036  -2.646  -0.172  0.00  0.00    -0.287 OA
ATOM      8  C   UNL d   1      -2.486  -0.870  -0.145  0.00  0.00     0.016 A 
ATOM      9  C   UNL d   1       1.775   1.733  -0.017  0.00  0.00     0.013 A 
ATOM     10  C   UNL d   1       2.530  -1.002  -0.077  0.00  0.00     0.016 A 
ATOM     11  C   UNL d   1      -2.983   1.489   0.033  0.00  0.00     0.018 A 
ATOM     12  C   UNL d   1      -3.415   0.158  -0.094  0.00  0.00     0.002 A 
ATOM     13  C   UNL d   1       3.126   1.347  -0.041  0.00  0.00     0.001 A 
ATOM     14  C   UNL d   1       3.501  -0.007  -0.064  0.00  0.00     0.001 A 
ENDROOT
BRANCH   6  15
ATOM     15  C   UNL d   1      -1.257   3.236   0.394  0.00  0.00     0.294 C 
ATOM     16  O   UNL d   1      -0.364   3.578   1.150  0.00  0.00    -0.259 OA
BRANCH  15  17
ATOM     17  O   UNL d   1      -2.152   4.058  -0.212  0.00  0.00    -0.318 OA
BRANCH  17  18
ATOM     18  C   UNL d   1      -2.156   5.417   0.250  0.00  0.00     0.174 C 
ATOM     19  C   UNL d   1      -3.019   5.517   1.497  0.00  0.00     0.034 C 
ENDBRANCH  17  18
ENDBRANCH  15  17
ENDBRANCH   6  15
TORSDOF 3
