REMARK  3 active torsions:
REMARK  status: ('A' for Active; 'I' for Inactive)
REMARK    1  A    between atoms: O_5  and  N_1 
REMARK    2  A    between atoms: C_3  and  O_5 
REMARK    3  A    between atoms: C_7  and  C_3 
ROOT
ATOM      1  N   UNL d   1       2.280   1.597   0.014  0.00  0.00    -0.261 N 
ATOM      2  HN  UNL d   1       1.825   2.510   0.042  1.00  0.00     0.194 HD
ATOM      3  C   UNL d   1       1.629   0.482  -0.021  0.00  0.00     0.043 C 
ATOM      4  C   UNL d   1       0.173   0.437  -0.019  0.00  0.00    -0.005 A 
ATOM      5  C   UNL d   1      -0.223  -0.894   0.000  0.00  0.00    -0.046 A 
ATOM      6  C   UNL d   1       2.175  -0.920  -0.085  0.00  0.00     0.064 C 
ATOM      7  C   UNL d   1       0.940  -1.831   0.061  0.00  0.00     0.045 C 
ATOM      8  C   UNL d   1      -0.727   1.489  -0.038  0.00  0.00     0.014 A 
ATOM      9  C   UNL d   1      -1.574  -1.210   0.001  0.00  0.00     0.008 A 
ATOM     10  C   UNL d   1      -2.086   1.176  -0.040  0.00  0.00     0.001 A 
ATOM     11  C   UNL d   1      -2.506  -0.165  -0.022  0.00  0.00     0.001 A 
ENDROOT
BRANCH   1  12
ATOM     12  O   UNL d   1       3.681   1.431   0.009  0.00  0.00    -0.195 OA
BRANCH  12  13
ATOM     13  C   UNL d   1       4.255   2.675   0.002  0.00  0.00     0.315 C 
ATOM     14  O   UNL d   1       3.672   3.754  -0.046  0.00  0.00    -0.257 OA
BRANCH  13  15
ATOM     15  C   UNL d   1       5.742   2.622   0.067  0.00  0.00     0.044 A 
ATOM     16  C   UNL d   1       6.472   1.433   0.143  0.00  0.00     0.059 A 
ATOM     17  C   UNL d   1       7.864   1.494   0.214  0.00  0.00     0.117 A 
ATOM     18  F   UNL d   1       8.567   0.356   0.290  0.00  0.00    -0.206 F 
ATOM     19  C   UNL d   1       8.545   2.709   0.211  0.00  0.00     0.042 A 
ATOM     20  C   UNL d   1       7.825   3.896   0.133  0.00  0.00     0.004 A 
ATOM     21  C   UNL d   1       6.431   3.851   0.061  0.00  0.00     0.018 A 
ENDBRANCH  13  15
ENDBRANCH  12  13
ENDBRANCH   1  12
TORSDOF 3
