REMARK  3 active torsions:
REMARK  status: ('A' for Active; 'I' for Inactive)
REMARK    1  A    between atoms: C_6  and  C_1 
REMARK       I    between atoms: N_8  and  C_6 
REMARK    2  A    between atoms: C_13  and  N_8 
REMARK    3  A    between atoms: C_14  and  C_13 
ROOT
ATOM      1  C   UNL d   1      -2.487  -0.112  -0.214  0.00  0.00     0.102 A 
ATOM      2  N   UNL d   1      -1.657   0.986  -0.141  0.00  0.00    -0.351 N 
ATOM      3  C   UNL d   1      -1.671  -1.220  -0.067  0.00  0.00     0.049 A 
ATOM      4  C   UNL d   1      -0.337   0.608  -0.083  0.00  0.00     0.044 A 
ATOM      5  C   UNL d   1      -0.312  -0.784  -0.026  0.00  0.00    -0.001 A 
ATOM      6  C   UNL d   1       0.934  -1.452   0.024  0.00  0.00    -0.049 A 
ATOM      7  C   UNL d   1       0.822   1.393  -0.100  0.00  0.00     0.037 A 
ATOM      8  C   UNL d   1       2.104  -0.663  -0.014  0.00  0.00     0.014 A 
ATOM      9  C   UNL d   1       2.057   0.734  -0.078  0.00  0.00    -0.059 A 
ATOM     10  C   UNL d   1       1.080  -2.948   0.055  0.00  0.00     0.049 C 
ATOM     11  C   UNL d   1       3.339   1.513  -0.169  0.00  0.00     0.048 C 
ATOM     12  H   UNL d   1      -1.989   1.939  -0.210  0.00  0.00     0.166 HD
ENDROOT
BRANCH   1  13
ATOM     13  C   UNL d   1      -3.905   0.036  -0.443  0.00  0.00     0.268 C 
ATOM     14  N   UNL d   1      -4.601  -1.136  -0.623  0.00  0.00    -0.351 N 
ATOM     15  H   UNL d   1      -4.148  -2.020  -0.453  0.00  0.00     0.163 HD
ATOM     16  O   UNL d   1      -4.442   1.138  -0.510  0.00  0.00    -0.266 OA
BRANCH  14  17
ATOM     17  C   UNL d   1      -6.012  -1.134  -0.925  0.00  0.00     0.161 C 
BRANCH  17  18
ATOM     18  C   UNL d   1      -6.430  -2.390  -1.646  0.00  0.00    -0.041 A 
ATOM     19  C   UNL d   1      -7.454  -3.199  -1.137  0.00  0.00     0.009 A 
ATOM     20  C   UNL d   1      -7.874  -4.336  -1.832  0.00  0.00     0.001 A 
ATOM     21  C   UNL d   1      -7.274  -4.676  -3.043  0.00  0.00     0.000 A 
ATOM     22  C   UNL d   1      -6.253  -3.882  -3.560  0.00  0.00     0.001 A 
ATOM     23  C   UNL d   1      -5.834  -2.744  -2.868  0.00  0.00     0.009 A 
ENDBRANCH  17  18
ENDBRANCH  14  17
ENDBRANCH   1  13
TORSDOF 3
