REMARK  5 active torsions:
REMARK  status: ('A' for Active; 'I' for Inactive)
REMARK    1  A    between atoms: C_8  and  N_1 
REMARK    2  A    between atoms: S_12  and  C_5 
REMARK    3  A    between atoms: C_31  and  S_12 
REMARK    4  A    between atoms: C_13  and  N_15 
REMARK    5  A    between atoms: C_14  and  C_31 
REMARK       I    between atoms: N_15  and  C_14 
ROOT
ATOM      1  N   UNL d   1      -0.195  -1.422   0.164  0.00  0.00    -0.273 N 
ATOM      2  C   UNL d   1       1.003  -0.723   0.024  0.00  0.00     0.163 A 
ATOM      3  N   UNL d   1       0.774   0.576   0.080  0.00  0.00    -0.281 N 
ATOM      4  HN  UNL d   1       1.477   1.310  -0.011  1.00  0.00     0.188 HD
ATOM      5  C   UNL d   1      -1.120  -0.412   0.384  0.00  0.00     0.168 A 
ATOM      6  N   UNL d   1      -0.562   0.770   0.282  0.00  0.00    -0.278 N 
ATOM      7  HN  UNL d   1      -1.038   1.670   0.343  1.00  0.00     0.189 HD
ATOM      8  C   UNL d   1       2.313  -1.264  -0.171  0.00  0.00     0.120 A 
ATOM      9  O   UNL d   1       2.565  -2.443  -0.826  0.00  0.00    -0.319 OA
ATOM     10  C   UNL d   1       3.520  -0.749   0.276  0.00  0.00     0.043 A 
ATOM     11  C   UNL d   1       3.890  -2.709  -0.715  0.00  0.00     0.142 A 
ATOM     12  C   UNL d   1       4.525  -1.692  -0.048  0.00  0.00     0.027 A 
ENDROOT
BRANCH   5  13
ATOM     13  S   UNL d   1      -2.699  -0.588   1.087  0.00  0.00    -0.083 SA
BRANCH  13  14
ATOM     14  C   UNL d   1      -2.289  -1.277   2.710  0.00  0.00     0.185 C 
BRANCH  14  15
ATOM     15  C   UNL d   1      -1.497  -0.403   3.668  0.00  0.00     0.231 C 
ATOM     16  N   UNL d   1      -1.157   0.871   3.261  0.00  0.00    -0.326 N 
ATOM     17  H   UNL d   1      -1.529   1.186   2.370  0.00  0.00     0.169 HD
ATOM     18  O   UNL d   1      -1.220  -0.876   4.776  0.00  0.00    -0.272 OA
BRANCH  16  19
ATOM     19  C   UNL d   1      -0.430   1.826   4.008  0.00  0.00     0.037 A 
ATOM     20  C   UNL d   1       0.301   1.511   5.157  0.00  0.00     0.053 A 
ATOM     21  C   UNL d   1       0.909   2.520   5.907  0.00  0.00     0.037 A 
ATOM     22 CL   UNL d   1       1.781   2.113   7.334  0.00  0.00    -0.084 Cl
ATOM     23  C   UNL d   1       0.805   3.851   5.520  0.00  0.00     0.048 A 
ATOM     24  C   UNL d   1       0.124   4.159   4.346  0.00  0.00     0.037 A 
ATOM     25  C   UNL d   1      -0.474   3.157   3.579  0.00  0.00     0.053 A 
ATOM     26 CL   UNL d   1      -0.012   5.805   3.857  0.00  0.00    -0.084 Cl
ENDBRANCH  16  19
ENDBRANCH  14  15
ENDBRANCH  13  14
ENDBRANCH   5  13
BRANCH   1  27
ATOM     27  C   UNL d   1      -0.412  -2.830   0.149  0.00  0.00     0.046 A 
ATOM     28  C   UNL d   1      -1.573  -3.362  -0.433  0.00  0.00     0.069 A 
ATOM     29  C   UNL d   1      -1.743  -4.748  -0.498  0.00  0.00     0.104 A 
ATOM     30  O   UNL d   1      -2.908  -5.200  -1.064  0.00  0.00    -0.346 OA
ATOM     31  C   UNL d   1      -0.747  -5.606  -0.024  0.00  0.00     0.102 A 
ATOM     32  C   UNL d   1      -3.116  -6.590  -0.782  0.00  0.00     0.202 C 
ATOM     33  C   UNL d   1      -1.842  -7.380  -1.031  0.00  0.00     0.202 C 
ATOM     34  O   UNL d   1      -0.817  -6.972  -0.118  0.00  0.00    -0.346 OA
ATOM     35  C   UNL d   1       0.383  -5.085   0.592  0.00  0.00     0.042 A 
ATOM     36  C   UNL d   1       0.539  -3.702   0.699  0.00  0.00     0.033 A 
ENDBRANCH   1  27
TORSDOF 5
