REMARK  5 active torsions:
REMARK  status: ('A' for Active; 'I' for Inactive)
REMARK    1  A    between atoms: O_4  and  C_1 
REMARK       I    between atoms: C_2  and  N_3 
REMARK       I    between atoms: N_6  and  C_2 
REMARK    2  A    between atoms: N_3  and  C_10 
REMARK    3  A    between atoms: C_11  and  O_4 
REMARK    4  A    between atoms: C_16  and  N_6 
REMARK    5  A    between atoms: C_17  and  C_16 
ROOT
ATOM      1  C   UNL d   1       1.833  -5.010  -0.511  0.00  0.00     0.036 A 
ATOM      2  C   UNL d   1       0.820  -2.492   0.284  0.00  0.00     0.078 A 
ATOM      3  C   UNL d   1       2.594  -3.844  -0.648  0.00  0.00     0.032 A 
ATOM      4  C   UNL d   1       0.525  -4.891  -0.036  0.00  0.00     0.032 A 
ATOM      5  C   UNL d   1       0.024  -3.639   0.353  0.00  0.00     0.039 A 
ATOM      6  C   UNL d   1       2.091  -2.593  -0.268  0.00  0.00     0.039 A 
ENDROOT
BRANCH   1   7
ATOM      7  N   UNL d   1       2.320  -6.297  -0.832  0.00  0.00    -0.309 N 
ATOM      8  C   UNL d   1       3.624  -6.614  -1.136  0.00  0.00     0.320 C 
ATOM      9  O   UNL d   1       4.580  -5.843  -1.127  0.00  0.00    -0.247 OA
ATOM     10  N   UNL d   1       3.785  -7.949  -1.460  0.00  0.00    -0.343 N 
ATOM     11  H   UNL d   1       2.988  -8.385  -1.901  0.00  0.00     0.164 HD
ATOM     12  H   UNL d   1       1.702  -7.080  -0.659  0.00  0.00     0.170 HD
BRANCH  10  13
ATOM     13  C   UNL d   1       5.101  -8.352  -1.923  0.00  0.00     0.124 C 
BRANCH  13  14
ATOM     14  C   UNL d   1       5.249  -9.848  -2.154  0.00  0.00     0.015 C 
ATOM     15  C   UNL d   1       5.079 -10.663  -0.883  0.00  0.00     0.006 C 
ENDBRANCH  13  14
ENDBRANCH  10  13
ENDBRANCH   1   7
BRANCH   2  16
ATOM     16  O   UNL d   1       0.242  -1.357   0.763  0.00  0.00    -0.255 OA
BRANCH  16  17
ATOM     17  C   UNL d   1       1.075  -0.301   1.223  0.00  0.00     0.530 C 
ATOM     18  F   UNL d   1       2.317  -0.697   1.575  0.00  0.00    -0.144 F 
ATOM     19  F   UNL d   1       0.499   0.248   2.317  0.00  0.00    -0.144 F 
ATOM     20  F   UNL d   1       1.168   0.656   0.274  0.00  0.00    -0.144 F 
ENDBRANCH  16  17
ENDBRANCH   2  16
TORSDOF 5
