REMARK  7 active torsions:
REMARK  status: ('A' for Active; 'I' for Inactive)
REMARK    1  A    between atoms: C_8  and  C_2 
REMARK    2  A    between atoms: S_10  and  C_5 
REMARK    3  A    between atoms: C_9  and  C_17 
REMARK    4  A    between atoms: C_22  and  S_10 
REMARK    5  A    between atoms: O_16  and  C_13 
REMARK    6  A    between atoms: C_17  and  O_16 
REMARK    7  A    between atoms: C_25  and  C_22 
ROOT
ATOM      1  N   UNL d   1       0.847  -0.001   0.007  0.00  0.00    -0.315 N 
ATOM      2  C   UNL d   1       0.008   1.091  -0.110  0.00  0.00     0.135 A 
ATOM      3  N   UNL d   1      -1.237   0.642  -0.145  0.00  0.00    -0.283 N 
ATOM      4  HN  UNL d   1      -2.076   1.221  -0.171  1.00  0.00     0.188 HD
ATOM      5  C   UNL d   1       0.038  -1.105  -0.065  0.00  0.00     0.162 A 
ATOM      6  N   UNL d   1      -1.214  -0.731  -0.141  0.00  0.00    -0.278 N 
ATOM      7  HN  UNL d   1      -2.026  -1.347  -0.188  1.00  0.00     0.189 HD
ATOM      8  C   UNL d   1       2.274  -0.011   0.206  0.00  0.00     0.160 C 
ENDROOT
BRANCH   2   9
ATOM      9  C   UNL d   1       0.377   2.505  -0.170  0.00  0.00     0.025 A 
ATOM     10  C   UNL d   1       1.467   2.973  -0.895  0.00  0.00     0.105 A 
ATOM     11  N   UNL d   1       1.835   4.275  -0.976  0.00  0.00    -0.346 N 
ATOM     12  C   UNL d   1       1.071   5.183  -0.340  0.00  0.00     0.142 A 
ATOM     13  HN  UNL d   1       2.662   4.557  -1.502  1.00  0.00     0.167 HD
ATOM     14  C   UNL d   1      -0.070   4.829   0.368  0.00  0.00     0.057 A 
ATOM     15  C   UNL d   1      -0.412   3.475   0.455  0.00  0.00     0.021 A 
BRANCH  12  16
ATOM     16  O   UNL d   1       1.506   6.463  -0.512  0.00  0.00    -0.327 OA
BRANCH  16  17
ATOM     17  C   UNL d   1       1.272   7.356   0.580  0.00  0.00     0.294 C 
BRANCH  17  18
ATOM     18  C   UNL d   1       2.332   8.454   0.639  0.00  0.00     0.408 C 
ATOM     19  F   UNL d   1       3.337   8.276  -0.243  0.00  0.00    -0.169 F 
ATOM     20  F   UNL d   1       1.784   9.668   0.396  0.00  0.00    -0.169 F 
ATOM     21  F   UNL d   1       2.886   8.510   1.875  0.00  0.00    -0.169 F 
ENDBRANCH  17  18
ENDBRANCH  16  17
ENDBRANCH  12  16
ENDBRANCH   2   9
BRANCH   5  22
ATOM     22  S   UNL d   1       0.626  -2.731  -0.052  0.00  0.00    -0.088 SA
BRANCH  22  23
ATOM     23  C   UNL d   1      -0.783  -3.599  -0.805  0.00  0.00     0.121 C 
BRANCH  23  24
ATOM     24  C   UNL d   1      -0.556  -5.093  -0.846  0.00  0.00    -0.048 A 
ATOM     25  C   UNL d   1      -1.029  -5.910   0.194  0.00  0.00     0.009 A 
ATOM     26  C   UNL d   1      -0.825  -7.291   0.160  0.00  0.00     0.024 A 
ATOM     27  C   UNL d   1      -0.142  -7.865  -0.908  0.00  0.00     0.034 A 
ATOM     28  C   UNL d   1       0.344  -7.069  -1.944  0.00  0.00     0.024 A 
ATOM     29 CL   UNL d   1       0.101  -9.567  -0.953  0.00  0.00    -0.084 Cl
ATOM     30  C   UNL d   1       0.141  -5.687  -1.910  0.00  0.00     0.009 A 
ENDBRANCH  23  24
ENDBRANCH  22  23
ENDBRANCH   5  22
TORSDOF 7
