REMARK  8 active torsions:
REMARK  status: ('A' for Active; 'I' for Inactive)
REMARK    1  A    between atoms: N_4  and  C_1 
REMARK    2  A    between atoms: N_7  and  C_1 
REMARK    3  A    between atoms: N_2  and  N_7 
REMARK    4  A    between atoms: C_10  and  N_4 
REMARK    5  A    between atoms: C_5  and  C_9 
REMARK    6  A    between atoms: O_17  and  C_8 
REMARK    7  A    between atoms: C_20  and  O_17 
REMARK    8  A    between atoms: C_21  and  C_20 
ROOT
ATOM      1  N   UNL d   1       4.768  -0.999   0.504  0.00  0.00    -0.309 N 
ATOM      2  HN  UNL d   1       5.581  -1.466   0.905  1.00  0.00     0.186 HD
ATOM      3  C   UNL d   1       4.539  -0.996  -0.777  0.00  0.00     0.121 C 
ENDROOT
BRANCH   1   4
ATOM      4  N   UNL d   1       3.859  -0.343   1.278  0.00  0.00    -0.276 N 
ATOM      5  H   UNL d   1       3.028   0.056   0.851  0.00  0.00     0.189 HD
BRANCH   4   6
ATOM      6  C   UNL d   1       3.844  -0.492   2.655  0.00  0.00     0.191 C 
ATOM      7  S   UNL d   1       2.510   0.087   3.482  0.00  0.00    -0.039 SA
BRANCH   6   8
ATOM      8  N   UNL d   1       4.987  -1.072   3.170  0.00  0.00    -0.332 N 
ATOM      9  H   UNL d   1       5.774  -0.963   2.537  0.00  0.00     0.168 HD
BRANCH   8  10
ATOM     10  C   UNL d   1       5.245  -1.558   4.468  0.00  0.00     0.034 A 
ATOM     11  C   UNL d   1       4.267  -2.208   5.232  0.00  0.00     0.032 A 
ATOM     12  C   UNL d   1       4.568  -2.692   6.511  0.00  0.00     0.044 A 
ATOM     13  C   UNL d   1       5.846  -2.522   7.021  0.00  0.00     0.116 A 
ATOM     14  C   UNL d   1       6.838  -1.904   6.271  0.00  0.00     0.044 A 
ATOM     15  F   UNL d   1       6.131  -2.968   8.255  0.00  0.00    -0.206 F 
ATOM     16  C   UNL d   1       6.541  -1.445   4.981  0.00  0.00     0.032 A 
ENDBRANCH   8  10
ENDBRANCH   6   8
ENDBRANCH   4   6
ENDBRANCH   1   4
BRANCH   3  17
ATOM     17  C   UNL d   1       5.387  -1.801  -1.693  0.00  0.00     0.014 A 
ATOM     18  C   UNL d   1       5.145  -1.891  -3.078  0.00  0.00     0.080 A 
ATOM     19  C   UNL d   1       5.957  -2.760  -3.829  0.00  0.00     0.037 A 
ATOM     20  C   UNL d   1       6.983  -3.501  -3.235  0.00  0.00     0.003 A 
ATOM     21  C   UNL d   1       7.225  -3.389  -1.873  0.00  0.00     0.001 A 
ATOM     22  C   UNL d   1       6.429  -2.545  -1.106  0.00  0.00     0.015 A 
BRANCH  18  23
ATOM     23  O   UNL d   1       4.130  -1.138  -3.634  0.00  0.00    -0.350 OA
BRANCH  23  24
ATOM     24  C   UNL d   1       3.990  -1.247  -5.060  0.00  0.00     0.175 C 
BRANCH  24  25
ATOM     25  C   UNL d   1       2.940  -0.291  -5.622  0.00  0.00     0.022 C 
ATOM     26  C   UNL d   1       1.529  -0.611  -5.158  0.00  0.00     0.007 C 
ENDBRANCH  24  25
ENDBRANCH  23  24
ENDBRANCH  18  23
ENDBRANCH   3  17
TORSDOF 8
