REMARK  5 active torsions:
REMARK  status: ('A' for Active; 'I' for Inactive)
REMARK    1  A    between atoms: C_10  and  C_1 
REMARK    2  A    between atoms: C_9  and  C_2 
REMARK    3  A    between atoms: C_3  and  C_13 
REMARK    4  A    between atoms: C_14  and  C_4 
REMARK       I    between atoms: C_13  and  N_17 
REMARK       I    between atoms: N_18  and  C_14 
REMARK    5  A    between atoms: N_17  and  N_18 
ROOT
ATOM      1  C   UNL d   1      -2.634  -4.502  -0.207  0.00  0.00     0.275 C 
ATOM      2  N   UNL d   1      -1.777  -3.461  -0.544  0.00  0.00    -0.263 N 
ATOM      3  O   UNL d   1      -2.265  -5.459   0.473  0.00  0.00    -0.266 OA
ATOM      4  H   UNL d   1      -1.984  -2.825  -1.312  0.00  0.00     0.190 HD
ENDROOT
BRANCH   2   5
ATOM      5  N   UNL d   1      -0.420  -3.604  -0.206  0.00  0.00    -0.263 N 
ATOM      6  C   UNL d   1       0.544  -2.804  -0.792  0.00  0.00     0.275 C 
ATOM      7  O   UNL d   1       0.287  -1.941  -1.628  0.00  0.00    -0.266 OA
ATOM      8  H   UNL d   1      -0.179  -4.455   0.301  0.00  0.00     0.190 HD
BRANCH   6   9
ATOM      9  C   UNL d   1       1.897  -3.102  -0.344  0.00  0.00     0.094 A 
ATOM     10  C   UNL d   1       3.143  -3.107  -1.061  0.00  0.00     0.086 A 
ATOM     11  N   UNL d   1       4.130  -3.534  -0.249  0.00  0.00    -0.259 N 
ATOM     12  O   UNL d   1       3.590  -3.681   1.000  0.00  0.00    -0.241 OA
ATOM     13  HN  UNL d   1       5.098  -3.714  -0.516  1.00  0.00     0.195 HD
ATOM     14  C   UNL d   1       2.264  -3.411   0.959  0.00  0.00     0.090 A 
ATOM     15  C   UNL d   1       1.576  -3.481   2.263  0.00  0.00     0.080 C 
BRANCH  10  16
ATOM     16  C   UNL d   1       3.483  -2.799  -2.458  0.00  0.00     0.037 A 
ATOM     17  C   UNL d   1       4.566  -1.938  -2.760  0.00  0.00     0.048 A 
ATOM     18 CL   UNL d   1       5.441  -1.046  -1.552  0.00  0.00    -0.083 Cl
ATOM     19  C   UNL d   1       4.997  -1.740  -4.081  0.00  0.00     0.025 A 
ATOM     20  C   UNL d   1       4.338  -2.360  -5.134  0.00  0.00     0.003 A 
ATOM     21  C   UNL d   1       3.252  -3.188  -4.865  0.00  0.00     0.025 A 
ATOM     22  C   UNL d   1       2.838  -3.424  -3.542  0.00  0.00     0.048 A 
ATOM     23 CL   UNL d   1       1.568  -4.586  -3.347  0.00  0.00    -0.083 Cl
ENDBRANCH  10  16
ENDBRANCH   6   9
ENDBRANCH   2   5
BRANCH   1  24
ATOM     24  C   UNL d   1      -3.960  -4.405  -0.768  0.00  0.00     0.094 A 
ATOM     25  C   UNL d   1      -4.757  -5.423  -1.390  0.00  0.00     0.086 A 
ATOM     26  N   UNL d   1      -5.924  -4.901  -1.803  0.00  0.00    -0.259 N 
ATOM     27  O   UNL d   1      -5.933  -3.585  -1.408  0.00  0.00    -0.241 OA
ATOM     28  HN  UNL d   1      -6.661  -5.388  -2.313  1.00  0.00     0.195 HD
ATOM     29  C   UNL d   1      -4.764  -3.283  -0.792  0.00  0.00     0.090 A 
ATOM     30  C   UNL d   1      -4.635  -1.901  -0.292  0.00  0.00     0.080 C 
BRANCH  25  31
ATOM     31  C   UNL d   1      -4.436  -6.834  -1.650  0.00  0.00     0.037 A 
ATOM     32  C   UNL d   1      -5.328  -7.871  -1.295  0.00  0.00     0.048 A 
ATOM     33 CL   UNL d   1      -6.861  -7.594  -0.532  0.00  0.00    -0.083 Cl
ATOM     34  C   UNL d   1      -5.005  -9.216  -1.532  0.00  0.00     0.025 A 
ATOM     35  C   UNL d   1      -3.781  -9.560  -2.097  0.00  0.00     0.003 A 
ATOM     36  C   UNL d   1      -2.897  -8.555  -2.470  0.00  0.00     0.025 A 
ATOM     37  C   UNL d   1      -3.231  -7.207  -2.281  0.00  0.00     0.048 A 
ATOM     38 CL   UNL d   1      -2.118  -6.060  -2.957  0.00  0.00    -0.083 Cl
ENDBRANCH  25  31
ENDBRANCH   1  24
TORSDOF 5
