REMARK  4 active torsions:
REMARK  status: ('A' for Active; 'I' for Inactive)
REMARK    1  A    between atoms: N_2  and  S_1 
REMARK    2  A    between atoms: C_7  and  S_1 
REMARK    3  A    between atoms: C_5  and  N_4 
REMARK    4  A    between atoms: O_28  and  C_24 
ROOT
ATOM      1  N   UNL d   1       0.616  -0.074   1.233  0.00  0.00    -0.203 NA
ATOM      2  N   UNL d   1       2.680  -0.281   3.233  0.00  0.00    -0.378 N 
ATOM      3  C   UNL d   1       1.098   1.132   1.989  0.00  0.00     0.127 C 
ATOM      4  C   UNL d   1       0.855  -1.338   2.005  0.00  0.00     0.127 C 
ATOM      5  C   UNL d   1       2.572   0.968   2.445  0.00  0.00     0.138 C 
ATOM      6  C   UNL d   1       2.325  -1.475   2.441  0.00  0.00     0.138 C 
ENDROOT
BRANCH   2   7
ATOM      7  C   UNL d   1       3.589  -0.360   4.288  0.00  0.00     0.044 A 
ATOM      8  C   UNL d   1       3.529   0.536   5.401  0.00  0.00     0.017 A 
ATOM      9  C   UNL d   1       4.489   0.389   6.431  0.00  0.00     0.046 A 
ATOM     10  C   UNL d   1       2.542   1.541   5.564  0.00  0.00     0.018 A 
ATOM     11  C   UNL d   1       4.481   1.267   7.505  0.00  0.00     0.054 A 
ATOM     12  N   UNL d   1       5.415  -0.579   6.433  0.00  0.00    -0.365 N 
ATOM     13  C   UNL d   1       3.543   2.291   7.601  0.00  0.00     0.036 A 
ATOM     14  C   UNL d   1       2.562   2.430   6.636  0.00  0.00     0.025 A 
ATOM     15 CL   UNL d   1       3.583   3.377   8.934  0.00  0.00    -0.084 Cl
ATOM     16  C   UNL d   1       5.427  -1.438   5.398  0.00  0.00     0.090 A 
ATOM     17  HN  UNL d   1       6.088  -0.663   7.194  1.00  0.00     0.165 HD
ATOM     18  C   UNL d   1       4.563  -1.364   4.322  0.00  0.00     0.047 A 
ENDBRANCH   2   7
BRANCH   1  19
ATOM     19  S   UNL d   1       1.007  -0.127  -0.419  0.00  0.00     0.243 S 
ATOM     20  O   UNL d   1       0.805  -1.470  -0.905  0.00  0.00    -0.206 OA
ATOM     21  O   UNL d   1       2.263   0.565  -0.610  0.00  0.00    -0.206 OA
BRANCH  19  22
ATOM     22  C   UNL d   1      -0.289   0.872  -1.114  0.00  0.00     0.074 A 
ATOM     23  C   UNL d   1       0.010   2.045  -1.810  0.00  0.00     0.027 A 
ATOM     24  C   UNL d   1      -1.028   2.786  -2.384  0.00  0.00     0.038 A 
ATOM     25  C   UNL d   1      -2.352   2.357  -2.257  0.00  0.00     0.068 A 
ATOM     26  C   UNL d   1      -2.636   1.173  -1.572  0.00  0.00     0.038 A 
ATOM     27  C   UNL d   1      -1.609   0.430  -0.991  0.00  0.00     0.027 A 
BRANCH  25  28
ATOM     28  O   UNL d   1      -3.441   2.984  -2.798  0.00  0.00    -0.356 OA
ATOM     29  C   UNL d   1      -3.315   4.389  -2.977  0.00  0.00     0.210 C 
ENDBRANCH  25  28
ENDBRANCH  19  22
ENDBRANCH   1  19
TORSDOF 4
