REMARK  4 active torsions:
REMARK  status: ('A' for Active; 'I' for Inactive)
REMARK    1  A    between atoms: C_2  and  N_1 
REMARK    2  A    between atoms: N_3  and  C_2 
REMARK    3  A    between atoms: C_8  and  N_3 
REMARK    4  A    between atoms: O_13  and  C_12 
ROOT
ATOM      1  C   UNL d   1       1.127   2.317  -1.079  0.00  0.00     0.174 C 
ATOM      2  S   UNL d   1       0.206   3.675  -1.471  0.00  0.00    -0.041 SA
ENDROOT
BRANCH   1   3
ATOM      3  N   UNL d   1       0.610   1.175  -0.443  0.00  0.00    -0.353 N 
ATOM      4  C   UNL d   1       1.420   0.020   0.001  0.00  0.00     0.157 C 
ATOM      5  C   UNL d   1       0.732  -1.324  -0.321  0.00  0.00     0.136 C 
ATOM      6  C   UNL d   1       1.489  -2.497   0.286  0.00  0.00     0.041 C 
ATOM      7  O   UNL d   1      -0.606  -1.357   0.209  0.00  0.00    -0.378 OA
ATOM      8  C   UNL d   1      -1.398  -0.305  -0.361  0.00  0.00     0.136 C 
ATOM      9  C   UNL d   1      -0.801   1.069  -0.016  0.00  0.00     0.157 C 
ATOM     10  C   UNL d   1      -2.811  -0.435   0.192  0.00  0.00     0.041 C 
ENDBRANCH   1   3
BRANCH   1  11
ATOM     11  N   UNL d   1       2.493   2.261  -1.304  0.00  0.00    -0.333 N 
ATOM     12  H   UNL d   1       3.041   1.997  -0.497  0.00  0.00     0.168 HD
BRANCH  11  13
ATOM     13  C   UNL d   1       3.227   2.786  -2.397  0.00  0.00     0.036 A 
ATOM     14  C   UNL d   1       2.665   2.961  -3.668  0.00  0.00     0.066 A 
ATOM     15  C   UNL d   1       3.451   3.387  -4.743  0.00  0.00     0.070 A 
ATOM     16  C   UNL d   1       4.805   3.652  -4.537  0.00  0.00     0.037 A 
ATOM     17  C   UNL d   1       5.375   3.483  -3.276  0.00  0.00     0.005 A 
ATOM     18  C   UNL d   1       4.589   3.036  -2.211  0.00  0.00     0.029 A 
BRANCH  15  19
ATOM     19  O   UNL d   1       3.025   3.559  -6.033  0.00  0.00    -0.356 OA
ATOM     20  C   UNL d   1       1.665   3.245  -6.309  0.00  0.00     0.210 C 
ENDBRANCH  15  19
ENDBRANCH  11  13
ENDBRANCH   1  11
TORSDOF 4
