REMARK  2 active torsions:
REMARK  status: ('A' for Active; 'I' for Inactive)
REMARK    1  A    between atoms: N_8  and  C_12 
REMARK    2  A    between atoms: C_16  and  C_11 
ROOT
ATOM      1  N   UNL d   1      -1.111   1.559   0.149  0.00  0.00    -0.255 N 
ATOM      2  C   UNL d   1      -0.230   0.531   0.164  0.00  0.00     0.160 A 
ATOM      3  C   UNL d   1      -2.450   1.262   0.094  0.00  0.00     0.271 A 
ATOM      4  C   UNL d   1      -2.564  -0.229   0.055  0.00  0.00     0.077 A 
ATOM      5  N   UNL d   1       1.016   0.913   0.215  0.00  0.00    -0.334 N 
ATOM      6  HN  UNL d   1       1.855   0.333   0.237  1.00  0.00     0.168 HD
ATOM      7  S   UNL d   1      -0.996  -1.012   0.109  0.00  0.00    -0.048 SA
ATOM      8  C   UNL d   1      -0.402   2.729   0.194  0.00  0.00     0.071 A 
ATOM      9  C   UNL d   1       0.928   2.295   0.234  0.00  0.00     0.061 A 
ATOM     10  C   UNL d   1      -3.724  -0.903  -0.022  0.00  0.00     0.036 C 
ATOM     11  O   UNL d   1      -3.301   2.132   0.080  0.00  0.00    -0.266 OA
ATOM     12  C   UNL d   1      -0.779   4.074   0.200  0.00  0.00     0.032 A 
ATOM     13  C   UNL d   1       1.946   3.259   0.286  0.00  0.00     0.032 A 
ATOM     14  C   UNL d   1       0.254   5.014   0.250  0.00  0.00     0.002 A 
ATOM     15  C   UNL d   1       1.592   4.615   0.291  0.00  0.00     0.002 A 
ENDROOT
BRANCH  10  16
ATOM     16  C   UNL d   1      -5.015  -0.215  -0.084  0.00  0.00    -0.032 A 
ATOM     17  C   UNL d   1      -5.513   0.212  -1.320  0.00  0.00     0.047 A 
ATOM     18  C   UNL d   1      -6.635   1.051  -1.356  0.00  0.00     0.103 A 
ATOM     19  C   UNL d   1      -7.280   1.437  -0.173  0.00  0.00     0.036 A 
ATOM     20  C   UNL d   1      -6.796   0.980   1.053  0.00  0.00     0.003 A 
ATOM     21  C   UNL d   1      -5.667   0.159   1.099  0.00  0.00     0.011 A 
BRANCH  18  22
ATOM     22  N   UNL d   1      -7.108   1.569  -2.645  0.00  0.00    -0.116 N 
ATOM     23  O   UNL d   1      -6.497   1.220  -3.665  0.00  0.00    -0.532 OA
ATOM     24  O   UNL d   1      -8.092   2.322  -2.639  0.00  0.00    -0.532 OA
ENDBRANCH  18  22
ENDBRANCH  10  16
TORSDOF 2
