REMARK  4 active torsions:
REMARK  status: ('A' for Active; 'I' for Inactive)
REMARK    1  A    between atoms: C_3  and  C_1 
REMARK    2  A    between atoms: C_8  and  C_2 
REMARK    3  A    between atoms: C_16  and  C_9 
REMARK    4  A    between atoms: C_10  and  C_15 
ROOT
ATOM      1  C   UNL d   1       0.228  -2.725  -0.041  0.00  0.00     0.054 A 
ATOM      2  N   UNL d   1       0.964  -3.219   1.016  0.00  0.00    -0.349 N 
ATOM      3  HN  UNL d   1       1.233  -2.682   1.840  1.00  0.00     0.166 HD
ATOM      4  C   UNL d   1       1.270  -4.486   0.808  0.00  0.00     0.084 A 
ATOM      5  S   UNL d   1       0.564  -5.179  -0.602  0.00  0.00    -0.081 SA
ATOM      6  C   UNL d   1      -0.114  -3.657  -1.001  0.00  0.00     0.082 A 
ENDROOT
BRANCH   1   7
ATOM      7  C   UNL d   1      -0.046  -1.293  -0.105  0.00  0.00     0.052 A 
ATOM      8  C   UNL d   1       0.787  -0.222   0.357  0.00  0.00     0.083 A 
ATOM      9  N   UNL d   1       0.218   0.955   0.034  0.00  0.00    -0.259 N 
ATOM     10  O   UNL d   1      -0.983   0.669  -0.573  0.00  0.00    -0.241 OA
ATOM     11  HN  UNL d   1       0.605   1.883   0.206  1.00  0.00     0.195 HD
ATOM     12  C   UNL d   1      -1.138  -0.676  -0.665  0.00  0.00     0.087 A 
ATOM     13  C   UNL d   1      -2.379  -1.139  -1.319  0.00  0.00     0.080 C 
BRANCH   8  14
ATOM     14  C   UNL d   1       2.084  -0.248   1.049  0.00  0.00     0.037 A 
ATOM     15  C   UNL d   1       3.173  -0.999   0.560  0.00  0.00     0.048 A 
ATOM     16 CL   UNL d   1       3.185  -1.761  -1.000  0.00  0.00    -0.083 Cl
ATOM     17  C   UNL d   1       4.370  -1.099   1.287  0.00  0.00     0.025 A 
ATOM     18  C   UNL d   1       4.544  -0.383   2.465  0.00  0.00     0.003 A 
ATOM     19  C   UNL d   1       3.517   0.435   2.921  0.00  0.00     0.025 A 
ATOM     20  C   UNL d   1       2.292   0.489   2.237  0.00  0.00     0.048 A 
ATOM     21 CL   UNL d   1       1.082   1.502   2.961  0.00  0.00    -0.083 Cl
ENDBRANCH   8  14
ENDBRANCH   1   7
BRANCH   4  22
ATOM     22  C   UNL d   1       2.131  -5.271   1.707  0.00  0.00    -0.002 A 
ATOM     23  C   UNL d   1       2.191  -4.912   3.062  0.00  0.00     0.030 A 
ATOM     24  C   UNL d   1       3.015  -5.598   3.970  0.00  0.00     0.048 A 
ATOM     25  C   UNL d   1       3.804  -6.656   3.495  0.00  0.00     0.016 A 
ATOM     26  C   UNL d   1       3.767  -7.018   2.149  0.00  0.00     0.002 A 
ATOM     27  C   UNL d   1       2.937  -6.330   1.261  0.00  0.00     0.014 A 
BRANCH  24  28
ATOM     28  C   UNL d   1       3.059  -5.205   5.423  0.00  0.00     0.417 C 
ATOM     29  F   UNL d   1       2.271  -4.139   5.726  0.00  0.00    -0.166 F 
ATOM     30  F   UNL d   1       2.656  -6.213   6.246  0.00  0.00    -0.166 F 
ATOM     31  F   UNL d   1       4.315  -4.869   5.832  0.00  0.00    -0.166 F 
ENDBRANCH  24  28
ENDBRANCH   4  22
TORSDOF 4
