REMARK  6 active torsions:
REMARK  status: ('A' for Active; 'I' for Inactive)
REMARK       I    between atoms: N_2  and  C_1 
REMARK       I    between atoms: N_11  and  C_1 
REMARK    1  A    between atoms: C_3  and  N_2 
REMARK    2  A    between atoms: C_5  and  C_15 
REMARK    3  A    between atoms: C_19  and  N_11 
REMARK    4  A    between atoms: S_13  and  C_20 
REMARK    5  A    between atoms: C_15  and  S_13 
REMARK    6  A    between atoms: C_20  and  C_19 
ROOT
ATOM      1  C   UNL d   1       1.008   0.150  -0.020  0.00  0.00     0.320 C 
ATOM      2  N   UNL d   1       0.456   0.740  -1.138  0.00  0.00    -0.308 N 
ATOM      3  O   UNL d   1       0.392  -0.253   0.965  0.00  0.00    -0.247 OA
ATOM      4  N   UNL d   1       2.373  -0.001  -0.147  0.00  0.00    -0.342 N 
ATOM      5  H   UNL d   1       0.991   0.566  -1.973  0.00  0.00     0.170 HD
ATOM      6  H   UNL d   1       2.821   0.777  -0.615  0.00  0.00     0.164 HD
ENDROOT
BRANCH   2   7
ATOM      7  C   UNL d   1      -0.946   0.916  -1.285  0.00  0.00     0.047 A 
ATOM      8  C   UNL d   1      -1.600   0.573  -2.503  0.00  0.00     0.001 A 
ATOM      9  C   UNL d   1      -3.017   0.658  -2.548  0.00  0.00    -0.024 A 
ATOM     10  C   UNL d   1      -0.942   0.099  -3.667  0.00  0.00     0.014 A 
ATOM     11  C   UNL d   1      -3.713   0.260  -3.701  0.00  0.00     0.012 A 
ATOM     12  C   UNL d   1      -3.733   1.124  -1.435  0.00  0.00     0.012 A 
ATOM     13  C   UNL d   1      -3.036  -0.203  -4.826  0.00  0.00     0.001 A 
ATOM     14  C   UNL d   1      -1.650  -0.277  -4.812  0.00  0.00     0.001 A 
ATOM     15  C   UNL d   1      -3.072   1.524  -0.279  0.00  0.00     0.003 A 
ATOM     16  C   UNL d   1      -1.687   1.416  -0.203  0.00  0.00     0.030 A 
ENDBRANCH   2   7
BRANCH   4  17
ATOM     17  C   UNL d   1       3.115  -0.562   0.977  0.00  0.00     0.134 C 
BRANCH  17  18
ATOM     18  C   UNL d   1       4.627  -0.340   0.877  0.00  0.00     0.094 C 
BRANCH  18  19
ATOM     19  S   UNL d   1       4.936   1.455   0.881  0.00  0.00    -0.161 SA
BRANCH  19  20
ATOM     20  C   UNL d   1       6.761   1.482   0.915  0.00  0.00     0.139 C 
BRANCH  20  21
ATOM     21  C   UNL d   1       7.179   2.907   0.956  0.00  0.00     0.061 A 
ATOM     22  O   UNL d   1       7.332   3.533  -0.247  0.00  0.00    -0.326 OA
ATOM     23  C   UNL d   1       7.562   4.845   0.015  0.00  0.00     0.142 A 
ATOM     24  C   UNL d   1       7.594   5.066   1.372  0.00  0.00     0.027 A 
ATOM     25  C   UNL d   1       7.368   3.810   1.984  0.00  0.00     0.035 A 
ENDBRANCH  20  21
ENDBRANCH  19  20
ENDBRANCH  18  19
ENDBRANCH  17  18
ENDBRANCH   4  17
TORSDOF 6
