REMARK  4 active torsions:
REMARK  status: ('A' for Active; 'I' for Inactive)
REMARK    1  A    between atoms: C_7  and  C_3 
REMARK    2  A    between atoms: C_10  and  N_5 
REMARK    3  A    between atoms: N_14  and  C_7 
REMARK    4  A    between atoms: O_15  and  N_11 
ROOT
ATOM      1  N   UNL d   1       5.689  -2.481   0.072  0.00  0.00    -0.270 N 
ATOM      2  C   UNL d   1       5.043  -3.720   0.138  0.00  0.00     0.335 A 
ATOM      3  C   UNL d   1       3.573  -1.286  -0.098  0.00  0.00     0.088 A 
ATOM      4  C   UNL d   1       5.047  -1.255   0.008  0.00  0.00     0.266 A 
ATOM      5  N   UNL d   1       3.643  -3.674  -0.002  0.00  0.00    -0.274 N 
ATOM      6  C   UNL d   1       2.965  -2.475  -0.130  0.00  0.00     0.122 A 
ATOM      7  O   UNL d   1       5.681  -4.767   0.268  0.00  0.00    -0.246 OA
ATOM      8  O   UNL d   1       5.644  -0.177   0.018  0.00  0.00    -0.267 OA
ATOM      9  C   UNL d   1       7.140  -2.457   0.078  0.00  0.00     0.164 C 
ENDROOT
BRANCH   3  10
ATOM     10  C   UNL d   1       2.753  -0.032  -0.113  0.00  0.00     0.115 C 
ATOM     11  N   UNL d   1       1.575  -0.058  -0.692  0.00  0.00    -0.257 N 
ATOM     12  HN  UNL d   1       1.160  -0.887  -1.119  1.00  0.00     0.195 HD
BRANCH  11  13
ATOM     13  O   UNL d   1       0.960   1.205  -0.646  0.00  0.00    -0.289 OA
ATOM     14  H   UNL d   1       0.098   1.030  -1.061  0.00  0.00     0.244 HD
ENDBRANCH  11  13
BRANCH  10  15
ATOM     15  N   UNL d   1       3.233   1.125   0.456  0.00  0.00    -0.286 NA
ATOM     16  H   UNL d   1       4.245   1.242   0.405  0.00  0.00     0.125 HD
ATOM     17  H   UNL d   1       2.710   1.937   0.139  0.00  0.00     0.125 HD
ENDBRANCH  10  15
ENDBRANCH   3  10
BRANCH   5  18
ATOM     18  C   UNL d   1       2.924  -4.909  -0.013  0.00  0.00     0.043 A 
ATOM     19  C   UNL d   1       3.075  -5.830   1.032  0.00  0.00     0.030 A 
ATOM     20  C   UNL d   1       2.383  -7.042   1.010  0.00  0.00     0.002 A 
ATOM     21  C   UNL d   1       1.560  -7.355  -0.069  0.00  0.00     0.000 A 
ATOM     22  C   UNL d   1       1.404  -6.445  -1.115  0.00  0.00     0.002 A 
ATOM     23  C   UNL d   1       2.065  -5.215  -1.077  0.00  0.00     0.030 A 
ENDBRANCH   5  18
TORSDOF 4
