REMARK  6 active torsions:
REMARK  status: ('A' for Active; 'I' for Inactive)
REMARK    1  A    between atoms: C_12  and  C_2 
REMARK    2  A    between atoms: S_13  and  C_5 
REMARK    3  A    between atoms: C_8  and  C_9 
REMARK    4  A    between atoms: C_17  and  S_13 
REMARK    5  A    between atoms: C_15  and  C_17 
REMARK    6  A    between atoms: C_23  and  C_15 
ROOT
ATOM      1  S   UNL d   1       1.177  -0.061  -0.038  0.00  0.00    -0.043 SA
ATOM      2  C   UNL d   1      -0.052   1.152  -0.003  0.00  0.00     0.118 A 
ATOM      3  N   UNL d   1      -1.275   0.650   0.056  0.00  0.00    -0.291 N 
ATOM      4  HN  UNL d   1      -2.119   1.220   0.098  1.00  0.00     0.187 HD
ATOM      5  C   UNL d   1      -0.066  -1.231  -0.008  0.00  0.00     0.129 A 
ATOM      6  N   UNL d   1      -1.282  -0.734   0.052  0.00  0.00    -0.287 N 
ATOM      7  HN  UNL d   1      -2.130  -1.301   0.091  1.00  0.00     0.188 HD
ENDROOT
BRANCH   2   8
ATOM      8  C   UNL d   1       0.280   2.586  -0.036  0.00  0.00     0.067 A 
ATOM      9  N   UNL d   1       1.596   2.913  -0.128  0.00  0.00    -0.363 N 
ATOM     10  C   UNL d   1       1.926   4.223  -0.179  0.00  0.00     0.104 A 
ATOM     11  HN  UNL d   1       2.315   2.190  -0.157  1.00  0.00     0.165 HD
ATOM     12  C   UNL d   1       1.005   5.259  -0.141  0.00  0.00     0.063 A 
ATOM     13  C   UNL d   1      -0.346   4.909  -0.039  0.00  0.00     0.020 A 
ATOM     14  C   UNL d   1      -0.714   3.562   0.013  0.00  0.00     0.033 A 
BRANCH  12  15
ATOM     15  C   UNL d   1       1.459   6.684  -0.211  0.00  0.00     0.418 C 
ATOM     16  F   UNL d   1       2.811   6.821  -0.307  0.00  0.00    -0.166 F 
ATOM     17  F   UNL d   1       0.942   7.345  -1.282  0.00  0.00    -0.166 F 
ATOM     18  F   UNL d   1       1.091   7.403   0.886  0.00  0.00    -0.166 F 
ENDBRANCH  12  15
ENDBRANCH   2   8
BRANCH   5  19
ATOM     19  S   UNL d   1       0.251  -2.953  -0.022  0.00  0.00    -0.096 SA
BRANCH  19  20
ATOM     20  C   UNL d   1      -1.262  -3.563  -0.824  0.00  0.00     0.165 C 
BRANCH  20  21
ATOM     21  C   UNL d   1      -1.407  -3.037  -2.244  0.00  0.00     0.169 C 
ATOM     22  O   UNL d   1      -0.437  -2.751  -2.945  0.00  0.00    -0.291 OA
BRANCH  21  23
ATOM     23  C   UNL d   1      -2.777  -2.912  -2.837  0.00  0.00     0.010 A 
ATOM     24  C   UNL d   1      -3.939  -3.331  -2.179  0.00  0.00     0.015 A 
ATOM     25  C   UNL d   1      -5.191  -3.154  -2.777  0.00  0.00     0.001 A 
ATOM     26  C   UNL d   1      -5.291  -2.571  -4.039  0.00  0.00     0.000 A 
ATOM     27  C   UNL d   1      -4.140  -2.171  -4.713  0.00  0.00     0.001 A 
ATOM     28  C   UNL d   1      -2.889  -2.342  -4.115  0.00  0.00     0.015 A 
ENDBRANCH  21  23
ENDBRANCH  20  21
ENDBRANCH  19  20
ENDBRANCH   5  19
TORSDOF 6
