REMARK  8 active torsions:
REMARK  status: ('A' for Active; 'I' for Inactive)
REMARK       I    between atoms: N_3  and  C_1 
REMARK    1  A    between atoms: C_5  and  C_1 
REMARK    2  A    between atoms: S_2  and  C_5 
REMARK    3  A    between atoms: C_11  and  S_2 
REMARK    4  A    between atoms: C_4  and  N_3 
REMARK    5  A    between atoms: C_14  and  C_5 
REMARK    6  A    between atoms: O_17  and  C_8 
REMARK    7  A    between atoms: O_18  and  C_10 
REMARK    8  A    between atoms: N_16  and  C_13 
ROOT
ATOM      1  C   UNL d   1       0.273   1.270   0.564  0.00  0.00     0.177 C 
ENDROOT
BRANCH   1   2
ATOM      2  S   UNL d   1       0.847   2.460  -0.751  0.00  0.00    -0.109 SA
BRANCH   2   3
ATOM      3  C   UNL d   1       0.414   1.661  -2.322  0.00  0.00     0.022 A 
ATOM      4  C   UNL d   1       0.709   2.356  -3.518  0.00  0.00     0.022 A 
ATOM      5  C   UNL d   1       0.376   1.782  -4.753  0.00  0.00     0.024 A 
ATOM      6  C   UNL d   1      -0.323   0.576  -4.812  0.00  0.00     0.002 A 
ATOM      7  C   UNL d   1      -0.640  -0.096  -3.643  0.00  0.00     0.001 A 
ATOM      8  C   UNL d   1      -0.258   0.433  -2.409  0.00  0.00     0.020 A 
BRANCH   4   9
ATOM      9  N   UNL d   1       1.512   3.520  -3.518  0.00  0.00    -0.302 NA
ATOM     10  H   UNL d   1       1.454   4.014  -2.629  0.00  0.00     0.124 HD
ATOM     11  H   UNL d   1       1.349   4.127  -4.314  0.00  0.00     0.124 HD
ENDBRANCH   4   9
ENDBRANCH   2   3
ENDBRANCH   1   2
BRANCH   1  12
ATOM     12  C   UNL d   1       1.120  -0.044   0.482  0.00  0.00     0.240 C 
ATOM     13  N   UNL d   1       2.410   0.121  -0.020  0.00  0.00    -0.323 N 
ATOM     14  H   UNL d   1       2.649   1.074  -0.248  0.00  0.00     0.169 HD
ATOM     15  O   UNL d   1       0.702  -1.117   0.916  0.00  0.00    -0.272 OA
BRANCH  13  16
ATOM     16  C   UNL d   1       3.370  -0.882  -0.297  0.00  0.00     0.070 A 
ATOM     17  C   UNL d   1       2.948  -2.219  -0.426  0.00  0.00     0.059 A 
ATOM     18  C   UNL d   1       3.830  -3.284  -0.676  0.00  0.00     0.069 A 
ATOM     19 CL   UNL d   1       3.076  -4.833  -0.828  0.00  0.00    -0.081 Cl
ATOM     20  C   UNL d   1       5.192  -3.030  -0.805  0.00  0.00     0.092 A 
ATOM     21  C   UNL d   1       5.610  -1.693  -0.723  0.00  0.00     0.077 A 
ATOM     22  C   UNL d   1       4.733  -0.611  -0.488  0.00  0.00     0.097 A 
BRANCH  20  23
ATOM     23  O   UNL d   1       6.244  -3.875  -1.017  0.00  0.00    -0.354 OA
ATOM     24  C   UNL d   1       6.048  -5.278  -1.032  0.00  0.00     0.210 C 
ENDBRANCH  20  23
BRANCH  22  25
ATOM     25  O   UNL d   1       5.440   0.557  -0.449  0.00  0.00    -0.354 OA
ATOM     26  C   UNL d   1       4.828   1.817  -0.275  0.00  0.00     0.210 C 
ENDBRANCH  22  25
ENDBRANCH  13  16
ENDBRANCH   1  12
BRANCH   1  27
ATOM     27  C   UNL d   1      -1.255   1.087   0.666  0.00  0.00    -0.035 A 
ATOM     28  C   UNL d   1      -2.180   1.816  -0.110  0.00  0.00     0.009 A 
ATOM     29  C   UNL d   1      -3.554   1.565  -0.046  0.00  0.00     0.001 A 
ATOM     30  C   UNL d   1      -4.049   0.609   0.830  0.00  0.00     0.000 A 
ATOM     31  C   UNL d   1      -3.169  -0.081   1.656  0.00  0.00     0.001 A 
ATOM     32  C   UNL d   1      -1.794   0.166   1.584  0.00  0.00     0.009 A 
ENDBRANCH   1  27
TORSDOF 8
