REMARK  3 active torsions:
REMARK  status: ('A' for Active; 'I' for Inactive)
REMARK       I    between atoms: N_2  and  C_1 
REMARK       I    between atoms: N_4  and  C_1 
REMARK    1  A    between atoms: C_3  and  N_2 
REMARK    2  A    between atoms: C_5  and  N_4 
REMARK    3  A    between atoms: C_20  and  C_16 
ROOT
ATOM      1  C   UNL d   1       1.042   0.055  -0.064  0.00  0.00     0.326 C 
ATOM      2  N   UNL d   1       0.337  -0.332  -1.180  0.00  0.00    -0.294 N 
ATOM      3  N   UNL d   1       0.278   0.511   0.975  0.00  0.00    -0.309 N 
ATOM      4  O   UNL d   1       2.258  -0.104  -0.058  0.00  0.00    -0.247 OA
ATOM      5  H   UNL d   1       0.905  -0.793  -1.873  0.00  0.00     0.172 HD
ATOM      6  H   UNL d   1      -0.722   0.478   0.791  0.00  0.00     0.170 HD
ENDROOT
BRANCH   2   7
ATOM      7  C   UNL d   1      -1.029  -0.153  -1.439  0.00  0.00     0.109 A 
ATOM      8  N   UNL d   1      -1.763   0.602  -0.589  0.00  0.00    -0.352 N 
ATOM      9  C   UNL d   1      -3.065   0.792  -0.871  0.00  0.00     0.090 A 
ATOM     10  HN  UNL d   1      -1.341   1.015   0.242  1.00  0.00     0.166 HD
ATOM     11  C   UNL d   1      -3.703   0.209  -1.946  0.00  0.00     0.024 A 
ATOM     12  C   UNL d   1      -2.957  -0.611  -2.796  0.00  0.00    -0.054 A 
ATOM     13  C   UNL d   1      -1.587  -0.767  -2.554  0.00  0.00     0.055 A 
BRANCH  12  14
ATOM     14  C   UNL d   1      -3.629  -1.312  -3.946  0.00  0.00     0.034 C 
ATOM     15  C   UNL d   1      -3.640  -0.468  -5.208  0.00  0.00     0.010 C 
ENDBRANCH  12  14
ENDBRANCH   2   7
BRANCH   3  16
ATOM     16  C   UNL d   1       0.663   0.926   2.252  0.00  0.00     0.037 A 
ATOM     17  C   UNL d   1       1.969   1.278   2.582  0.00  0.00     0.036 A 
ATOM     18  C   UNL d   1       2.281   1.694   3.883  0.00  0.00    -0.059 A 
ATOM     19  C   UNL d   1       3.682   2.098   4.231  0.00  0.00     0.048 C 
ATOM     20  C   UNL d   1       1.275   1.719   4.859  0.00  0.00     0.013 A 
ATOM     21  C   UNL d   1      -0.041   1.363   4.542  0.00  0.00    -0.059 A 
ATOM     22  C   UNL d   1      -0.342   0.997   3.226  0.00  0.00     0.036 A 
ATOM     23  C   UNL d   1      -1.099   1.351   5.604  0.00  0.00     0.048 C 
ENDBRANCH   3  16
TORSDOF 3
