REMARK  5 active torsions:
REMARK  status: ('A' for Active; 'I' for Inactive)
REMARK       I    between atoms: N_4  and  C_1 
REMARK       I    between atoms: N_5  and  C_1 
REMARK    1  A    between atoms: C_2  and  C_10 
REMARK    2  A    between atoms: C_12  and  C_3 
REMARK    3  A    between atoms: C_9  and  N_4 
REMARK    4  A    between atoms: C_11  and  N_5 
REMARK    5  A    between atoms: O_21  and  C_14 
ROOT
ATOM      1  N   UNL d   1       1.079  -0.235   4.875  0.00  0.00    -0.372 N 
ATOM      2  HN  UNL d   1       0.689  -0.710   5.689  1.00  0.00     0.164 HD
ATOM      3  C   UNL d   1       1.020   0.249   2.489  0.00  0.00     0.053 A 
ATOM      4  C   UNL d   1       2.717   1.248   3.892  0.00  0.00     0.035 A 
ATOM      5  C   UNL d   1       2.120   1.095   2.641  0.00  0.00     0.053 A 
ATOM      6  C   UNL d   1       0.532  -0.365   3.641  0.00  0.00     0.117 A 
ATOM      7  C   UNL d   1       2.171   0.560   4.965  0.00  0.00     0.108 A 
ENDROOT
BRANCH   3   8
ATOM      8  N   UNL d   1       0.402  -0.035   1.245  0.00  0.00    -0.307 N 
ATOM      9  C   UNL d   1       0.953   0.233   0.002  0.00  0.00     0.325 C 
ATOM     10  N   UNL d   1       0.152  -0.236  -1.027  0.00  0.00    -0.309 N 
ATOM     11  O   UNL d   1       2.033   0.789  -0.157  0.00  0.00    -0.247 OA
ATOM     12  H   UNL d   1      -0.784  -0.528  -0.791  0.00  0.00     0.170 HD
ATOM     13  H   UNL d   1      -0.388  -0.663   1.265  0.00  0.00     0.170 HD
BRANCH  10  14
ATOM     14  C   UNL d   1       0.485  -0.246  -2.401  0.00  0.00     0.036 A 
ATOM     15  C   UNL d   1       1.725   0.163  -2.899  0.00  0.00     0.032 A 
ATOM     16  C   UNL d   1       2.000   0.141  -4.269  0.00  0.00     0.039 A 
ATOM     17  C   UNL d   1       1.036  -0.296  -5.171  0.00  0.00     0.068 A 
ATOM     18  C   UNL d   1      -0.198  -0.729  -4.682  0.00  0.00     0.039 A 
ATOM     19  C   UNL d   1      -0.475  -0.705  -3.309  0.00  0.00     0.032 A 
BRANCH  17  20
ATOM     20  O   UNL d   1       1.182  -0.345  -6.530  0.00  0.00    -0.356 OA
ATOM     21  C   UNL d   1       2.419   0.135  -7.048  0.00  0.00     0.210 C 
ENDBRANCH  17  20
ENDBRANCH  10  14
ENDBRANCH   3   8
BRANCH   4  22
ATOM     22  C   UNL d   1       3.869   2.076   4.059  0.00  0.00    -0.060 C 
ATOM     23  C   UNL d   1       4.849   2.757   4.218  0.00  0.00    -0.061 C 
BRANCH  23  24
ATOM     24  C   UNL d   1       6.016   3.543   4.458  0.00  0.00     0.018 A 
ATOM     25  C   UNL d   1       7.058   3.013   5.224  0.00  0.00     0.020 A 
ATOM     26  C   UNL d   1       8.186   3.787   5.501  0.00  0.00     0.001 A 
ATOM     27  C   UNL d   1       8.275   5.090   5.011  0.00  0.00     0.000 A 
ATOM     28  C   UNL d   1       7.241   5.616   4.237  0.00  0.00     0.001 A 
ATOM     29  C   UNL d   1       6.112   4.844   3.957  0.00  0.00     0.020 A 
ENDBRANCH  23  24
ENDBRANCH   4  22
TORSDOF 5
