REMARK  6 active torsions:
REMARK  status: ('A' for Active; 'I' for Inactive)
REMARK    1  A    between atoms: C_7  and  N_1 
REMARK    2  A    between atoms: C_2  and  C_13 
REMARK    3  A    between atoms: C_4  and  N_17 
REMARK    4  A    between atoms: C_15  and  C_6 
REMARK    5  A    between atoms: N_17  and  N_8 
REMARK    6  A    between atoms: C_18  and  N_11 
ROOT
ATOM      1  C   UNL d   1      -2.690   3.376   3.058  0.00  0.00     0.086 A 
ATOM      2  O   UNL d   1      -3.199   2.993   4.277  0.00  0.00    -0.309 OA
ATOM      3  C   UNL d   1      -2.664   4.754   2.985  0.00  0.00     0.041 A 
ATOM      4  C   UNL d   1      -3.570   4.134   4.935  0.00  0.00     0.093 A 
ATOM      5  C   UNL d   1      -3.244   5.239   4.175  0.00  0.00     0.041 A 
ENDROOT
BRANCH   4   6
ATOM      6  C   UNL d   1      -4.248   4.052   6.200  0.00  0.00     0.144 C 
ATOM      7  N   UNL d   1      -5.017   5.037   6.539  0.00  0.00    -0.307 N 
ATOM      8  HN  UNL d   1      -5.167   5.824   5.907  1.00  0.00     0.186 HD
BRANCH   7   9
ATOM      9  N   UNL d   1      -5.621   4.997   7.761  0.00  0.00    -0.277 N 
ATOM     10  H   UNL d   1      -5.093   4.659   8.555  0.00  0.00     0.189 HD
BRANCH   9  11
ATOM     11  C   UNL d   1      -6.839   5.596   7.930  0.00  0.00     0.187 C 
ATOM     12  N   UNL d   1      -7.135   6.154   9.134  0.00  0.00    -0.358 N 
ATOM     13  H   UNL d   1      -8.076   6.534   9.110  0.00  0.00     0.162 HD
ATOM     14  S   UNL d   1      -8.016   5.718   6.741  0.00  0.00    -0.040 SA
BRANCH  12  15
ATOM     15  C   UNL d   1      -6.258   6.751  10.164  0.00  0.00     0.021 C 
ATOM     16  C   UNL d   1      -5.097   7.541   9.540  0.00  0.00     0.037 C 
ATOM     17  C   UNL d   1      -7.123   7.746  10.971  0.00  0.00     0.037 C 
ATOM     18  C   UNL d   1      -5.728   5.688  11.133  0.00  0.00     0.037 C 
ENDBRANCH  12  15
ENDBRANCH   9  11
ENDBRANCH   7   9
ENDBRANCH   4   6
BRANCH   1  19
ATOM     19  C   UNL d   1      -2.336   2.321   2.107  0.00  0.00    -0.002 A 
ATOM     20  C   UNL d   1      -2.542   0.962   2.390  0.00  0.00     0.017 A 
ATOM     21  C   UNL d   1      -2.246  -0.027   1.440  0.00  0.00     0.037 A 
ATOM     22  C   UNL d   1      -1.737   0.342   0.190  0.00  0.00     0.102 A 
ATOM     23  C   UNL d   1      -1.517   1.688  -0.112  0.00  0.00     0.037 A 
ATOM     24  C   UNL d   1      -1.816   2.664   0.844  0.00  0.00     0.017 A 
BRANCH  22  25
ATOM     25  N   UNL d   1      -1.438  -0.684  -0.817  0.00  0.00    -0.116 N 
ATOM     26  O   UNL d   1      -0.997  -0.309  -1.911  0.00  0.00    -0.532 OA
ATOM     27  O   UNL d   1      -1.643  -1.868  -0.509  0.00  0.00    -0.532 OA
ENDBRANCH  22  25
ENDBRANCH   1  19
TORSDOF 6
