REMARK  5 active torsions:
REMARK  status: ('A' for Active; 'I' for Inactive)
REMARK    1  A    between atoms: C_3  and  C_1 
REMARK    2  A    between atoms: C_6  and  C_2 
REMARK    3  A    between atoms: O_15  and  C_3 
REMARK    4  A    between atoms: N_10  and  C_9 
REMARK    5  A    between atoms: C_18  and  O_15 
ROOT
ATOM      1  C   UNL d   1      -0.938   1.171   0.135  0.00  0.00     0.120 C 
ATOM      2  C   UNL d   1       0.216   0.888   0.765  0.00  0.00     0.042 C 
ATOM      3  C   UNL d   1      -1.597   2.424   0.262  0.00  0.00     0.105 C 
ATOM      4  N   UNL d   1      -2.125   3.455   0.377  0.00  0.00    -0.191 NA
ENDROOT
BRANCH   1   5
ATOM      5  C   UNL d   1      -1.485   0.145  -0.788  0.00  0.00     0.303 C 
ATOM      6  O   UNL d   1      -0.961  -0.938  -1.009  0.00  0.00    -0.258 OA
BRANCH   5   7
ATOM      7  O   UNL d   1      -2.594   0.622  -1.405  0.00  0.00    -0.317 OA
BRANCH   7   8
ATOM      8  C   UNL d   1      -3.007  -0.068  -2.593  0.00  0.00     0.174 C 
ATOM      9  C   UNL d   1      -2.233   0.503  -3.767  0.00  0.00     0.034 C 
ENDBRANCH   7   8
ENDBRANCH   5   7
ENDBRANCH   1   5
BRANCH   2  10
ATOM     10  C   UNL d   1       0.944   1.828   1.630  0.00  0.00    -0.013 A 
ATOM     11  C   UNL d   1       1.907   2.719   1.142  0.00  0.00     0.046 A 
ATOM     12  C   UNL d   1       2.610   3.562   2.016  0.00  0.00     0.054 A 
ATOM     13 CL   UNL d   1       2.285   2.806  -0.546  0.00  0.00    -0.083 Cl
ATOM     14  C   UNL d   1       2.386   3.548   3.402  0.00  0.00     0.031 A 
ATOM     15  C   UNL d   1       1.388   2.671   3.860  0.00  0.00     0.030 A 
ATOM     16  C   UNL d   1       0.676   1.825   2.997  0.00  0.00     0.015 A 
BRANCH  14  17
ATOM     17  N   UNL d   1       3.146   4.297   4.289  0.00  0.00    -0.390 N 
ATOM     18  C   UNL d   1       2.554   4.867   5.498  0.00  0.00     0.149 C 
ATOM     19  C   UNL d   1       4.425   4.880   3.894  0.00  0.00     0.149 C 
ENDBRANCH  14  17
ENDBRANCH   2  10
TORSDOF 5
