REMARK  9 active torsions:
REMARK  status: ('A' for Active; 'I' for Inactive)
REMARK    1  A    between atoms: S_7  and  C_1 
REMARK    2  A    between atoms: C_9  and  C_3 
REMARK    3  A    between atoms: C_6  and  C_11 
REMARK       I    between atoms: N_8  and  C_6 
REMARK    4  A    between atoms: C_11  and  S_7 
REMARK    5  A    between atoms: C_13  and  N_8 
REMARK    6  A    between atoms: C_14  and  C_10 
REMARK    7  A    between atoms: C_23  and  C_11 
REMARK    8  A    between atoms: C_32  and  C_21 
REMARK    9  A    between atoms: C_31  and  C_22 
ROOT
ATOM      1  C   UNL d   1      -0.327  -0.910   0.436  0.00  0.00     0.093 A 
ATOM      2  C   UNL d   1      -1.439  -0.160   0.843  0.00  0.00     0.093 A 
ATOM      3  C   UNL d   1      -1.627   1.114   0.277  0.00  0.00     0.073 A 
ATOM      4  N   UNL d   1       0.603  -0.422  -0.420  0.00  0.00    -0.348 N 
ATOM      5  HN  UNL d   1       1.386  -1.003  -0.719  1.00  0.00     0.166 HD
ATOM      6  C   UNL d   1       0.476   0.849  -0.872  0.00  0.00     0.051 A 
ATOM      7  C   UNL d   1      -0.640   1.618  -0.586  0.00  0.00     0.048 A 
ATOM      8  C   UNL d   1      -2.308  -0.656   1.865  0.00  0.00     0.103 C 
ATOM      9  N   UNL d   1      -2.987  -1.032   2.735  0.00  0.00    -0.191 NA
ENDROOT
BRANCH   1  10
ATOM     10  S   UNL d   1      -0.060  -2.595   1.009  0.00  0.00    -0.091 SA
BRANCH  10  11
ATOM     11  C   UNL d   1       1.756  -2.807   0.731  0.00  0.00     0.179 C 
BRANCH  11  12
ATOM     12  C   UNL d   1       2.583  -1.933   1.728  0.00  0.00     0.240 C 
ATOM     13  N   UNL d   1       2.080  -1.822   3.029  0.00  0.00    -0.325 N 
ATOM     14  H   UNL d   1       1.377  -2.515   3.259  0.00  0.00     0.169 HD
ATOM     15  O   UNL d   1       3.686  -1.503   1.390  0.00  0.00    -0.272 OA
BRANCH  13  16
ATOM     16  C   UNL d   1       2.794  -1.258   4.133  0.00  0.00     0.047 A 
ATOM     17  C   UNL d   1       3.351   0.049   4.120  0.00  0.00    -0.031 A 
ATOM     18  C   UNL d   1       4.021   0.518   5.279  0.00  0.00     0.009 A 
ATOM     19  C   UNL d   1       4.160  -0.257   6.419  0.00  0.00     0.001 A 
ATOM     20  C   UNL d   1       3.616  -1.527   6.436  0.00  0.00     0.009 A 
ATOM     21  C   UNL d   1       2.924  -2.041   5.318  0.00  0.00    -0.031 A 
BRANCH  17  22
ATOM     22  C   UNL d   1       3.357   1.029   2.964  0.00  0.00     0.036 C 
ATOM     23  C   UNL d   1       2.013   1.405   2.373  0.00  0.00     0.010 C 
ENDBRANCH  17  22
BRANCH  21  24
ATOM     24  C   UNL d   1       2.523  -3.499   5.435  0.00  0.00     0.036 C 
ATOM     25  C   UNL d   1       3.727  -4.409   5.202  0.00  0.00     0.010 C 
ENDBRANCH  21  24
ENDBRANCH  13  16
ENDBRANCH  11  12
BRANCH  11  26
ATOM     26  C   UNL d   1       2.140  -4.298   0.735  0.00  0.00    -0.035 A 
ATOM     27  C   UNL d   1       2.957  -4.838   1.735  0.00  0.00     0.009 A 
ATOM     28  C   UNL d   1       3.321  -6.186   1.756  0.00  0.00     0.001 A 
ATOM     29  C   UNL d   1       2.889  -7.034   0.748  0.00  0.00     0.000 A 
ATOM     30  C   UNL d   1       2.100  -6.526  -0.282  0.00  0.00     0.001 A 
ATOM     31  C   UNL d   1       1.727  -5.171  -0.290  0.00  0.00     0.009 A 
ENDBRANCH  11  26
ENDBRANCH  10  11
ENDBRANCH   1  10
BRANCH   3  32
ATOM     32  C   UNL d   1      -2.810   2.006   0.557  0.00  0.00     0.419 C 
ATOM     33  F   UNL d   1      -3.788   1.452   1.314  0.00  0.00    -0.166 F 
ATOM     34  F   UNL d   1      -2.443   3.152   1.189  0.00  0.00    -0.166 F 
ATOM     35  F   UNL d   1      -3.420   2.398  -0.597  0.00  0.00    -0.166 F 
ENDBRANCH   3  32
BRANCH   6  36
ATOM     36  C   UNL d   1       1.651   1.363  -1.589  0.00  0.00     0.031 A 
ATOM     37  S   UNL d   1       2.046   3.041  -1.549  0.00  0.00    -0.100 SA
ATOM     38  C   UNL d   1       3.491   2.805  -2.423  0.00  0.00     0.050 A 
ATOM     39  C   UNL d   1       3.671   1.486  -2.770  0.00  0.00     0.008 A 
ATOM     40  C   UNL d   1       2.618   0.657  -2.284  0.00  0.00     0.021 A 
ENDBRANCH   6  36
TORSDOF 9
