REMARK  3 active torsions:
REMARK  status: ('A' for Active; 'I' for Inactive)
REMARK    1  A    between atoms: N_6  and  C_1 
REMARK    2  A    between atoms: C_4  and  C_8 
REMARK       I    between atoms: C_5  and  N_7 
REMARK    3  A    between atoms: C_11  and  C_5 
ROOT
ATOM      1  C   UNL d   1      -1.132   6.590   0.310  0.00  0.00     0.253 C 
ATOM      2  N   UNL d   1       0.128   2.753   0.123  0.00  0.00    -0.253 NA
ATOM      3  N   UNL d   1      -0.032   5.725   0.348  0.00  0.00    -0.347 N 
ATOM      4  C   UNL d   1      -0.227   3.598  -1.034  0.00  0.00     0.118 C 
ATOM      5  C   UNL d   1       0.332   5.031  -0.904  0.00  0.00     0.141 C 
ATOM      6  O   UNL d   1      -1.751   6.797  -0.736  0.00  0.00    -0.267 OA
ATOM      7  C   UNL d   1       0.418   4.051   2.187  0.00  0.00     0.035 C 
ATOM      8  C   UNL d   1      -0.507   3.145   1.386  0.00  0.00     0.100 C 
ATOM      9  C   UNL d   1       0.804   5.365   1.498  0.00  0.00     0.127 C 
ENDROOT
BRANCH   2  10
ATOM     10  C   UNL d   1      -0.044   1.378  -0.090  0.00  0.00     0.160 A 
ATOM     11  N   UNL d   1       0.324   0.554   0.904  0.00  0.00    -0.329 N 
ATOM     12  C   UNL d   1       0.064  -0.771   0.787  0.00  0.00     0.120 A 
ATOM     13  HN  UNL d   1       0.793   0.919   1.733  1.00  0.00     0.168 HD
ATOM     14  C   UNL d   1      -0.552  -1.287  -0.332  0.00  0.00     0.051 A 
ATOM     15  C   UNL d   1      -0.856  -0.384  -1.314  0.00  0.00     0.093 A 
ATOM     16  N   UNL d   1      -0.604   0.935  -1.221  0.00  0.00    -0.343 N 
ATOM     17  HN  UNL d   1      -0.831   1.573  -1.984  1.00  0.00     0.167 HD
BRANCH  12  18
ATOM     18  C   UNL d   1       0.413  -1.698   1.938  0.00  0.00     0.432 C 
ATOM     19  F   UNL d   1       1.032  -1.089   2.988  0.00  0.00    -0.165 F 
ATOM     20  F   UNL d   1      -0.692  -2.306   2.464  0.00  0.00    -0.165 F 
ATOM     21  F   UNL d   1       1.239  -2.717   1.557  0.00  0.00    -0.165 F 
ENDBRANCH  12  18
ENDBRANCH   2  10
BRANCH   1  22
ATOM     22  C   UNL d   1      -1.618   7.337   1.518  0.00  0.00     0.032 A 
ATOM     23  C   UNL d   1      -2.187   8.610   1.327  0.00  0.00     0.018 A 
ATOM     24  C   UNL d   1      -2.712   9.332   2.407  0.00  0.00     0.025 A 
ATOM     25  C   UNL d   1      -2.663   8.797   3.690  0.00  0.00     0.034 A 
ATOM     26  C   UNL d   1      -2.123   7.531   3.894  0.00  0.00     0.025 A 
ATOM     27 CL   UNL d   1      -3.300   9.672   5.025  0.00  0.00    -0.084 Cl
ATOM     28  C   UNL d   1      -1.643   6.798   2.805  0.00  0.00     0.018 A 
ENDBRANCH   1  22
TORSDOF 3
