REMARK  4 active torsions:
REMARK  status: ('A' for Active; 'I' for Inactive)
REMARK    1  A    between atoms: N_3  and  C_1 
REMARK       I    between atoms: C_2  and  N_3 
REMARK       I    between atoms: N_10  and  C_2 
REMARK    2  A    between atoms: C_16  and  C_6 
REMARK    3  A    between atoms: C_15  and  N_10 
REMARK    4  A    between atoms: C_22  and  C_17 
ROOT
ATOM      1  N   UNL d   1       1.361  -8.829  -3.021  0.00  0.00    -0.197 NA
ATOM      2  C   UNL d   1       1.135  -8.722  -1.888  0.00  0.00     0.063 C 
ATOM      3  C   UNL d   1       0.859  -8.609  -0.445  0.00  0.00     0.162 C 
ENDROOT
BRANCH   3   4
ATOM      4  C   UNL d   1       0.249  -7.276  -0.078  0.00  0.00    -0.045 A 
ATOM      5  C   UNL d   1      -1.136  -7.110  -0.041  0.00  0.00     0.010 A 
ATOM      6  C   UNL d   1      -1.687  -5.845   0.189  0.00  0.00     0.030 A 
ATOM      7  C   UNL d   1      -0.882  -4.705   0.367  0.00  0.00     0.036 A 
ATOM      8  C   UNL d   1       0.496  -4.889   0.380  0.00  0.00     0.030 A 
ATOM      9  C   UNL d   1       1.057  -6.160   0.163  0.00  0.00     0.010 A 
BRANCH   7  10
ATOM     10  N   UNL d   1      -1.583  -3.483   0.403  0.00  0.00    -0.309 N 
ATOM     11  C   UNL d   1      -1.292  -2.158   0.303  0.00  0.00     0.325 C 
ATOM     12  N   UNL d   1      -0.076  -1.692   0.695  0.00  0.00    -0.306 N 
ATOM     13  O   UNL d   1      -2.201  -1.474  -0.169  0.00  0.00    -0.247 OA
ATOM     14  H   UNL d   1       0.614  -2.393   0.888  0.00  0.00     0.171 HD
ATOM     15  H   UNL d   1      -2.574  -3.575   0.201  0.00  0.00     0.170 HD
BRANCH  12  16
ATOM     16  C   UNL d   1       0.462  -0.394   0.413  0.00  0.00     0.071 C 
ATOM     17  C   UNL d   1      -0.260   0.809   0.315  0.00  0.00     0.039 C 
ATOM     18  C   UNL d   1       0.340   1.969  -0.223  0.00  0.00     0.029 C 
ATOM     19 BR   UNL d   1      -1.950   1.117   1.149  0.00  0.00    -0.049 Br
ATOM     20  C   UNL d   1       1.689   1.990  -0.593  0.00  0.00    -0.052 C 
ATOM     21  C   UNL d   1       2.445   0.842  -0.347  0.00  0.00     0.029 C 
ATOM     22  C   UNL d   1       1.847  -0.319   0.164  0.00  0.00     0.039 C 
ATOM     23 BR   UNL d   1       3.015  -1.789   0.486  0.00  0.00    -0.049 Br
BRANCH  20  24
ATOM     24  C   UNL d   1       2.351   3.194  -1.242  0.00  0.00     0.010 C 
ATOM     25  C   UNL d   1       2.069   3.208  -2.748  0.00  0.00     0.015 C 
ATOM     26  C   UNL d   1       1.962   4.533  -0.612  0.00  0.00     0.015 C 
ENDBRANCH  20  24
ENDBRANCH  12  16
ENDBRANCH   7  10
ENDBRANCH   3   4
TORSDOF 4
