REMARK  2 active torsions:
REMARK  status: ('A' for Active; 'I' for Inactive)
REMARK    1  A    between atoms: C_2  and  S_1 
REMARK    2  A    between atoms: C_8  and  S_1 
ROOT
ATOM      1  C   UNL d   1       0.490  -0.396  -1.683  0.00  0.00     0.077 C 
ATOM      2  C   UNL d   1       0.645  -1.722  -2.171  0.00  0.00    -0.033 C 
ATOM      3  C   UNL d   1      -0.089   0.613  -2.503  0.00  0.00    -0.033 C 
ATOM      4  C   UNL d   1       0.015  -2.089  -3.388  0.00  0.00    -0.048 C 
ATOM      5  C   UNL d   1      -0.635   0.249  -3.769  0.00  0.00    -0.048 C 
ATOM      6  C   UNL d   1      -0.603  -1.103  -4.197  0.00  0.00    -0.049 C 
ATOM      7  C   UNL d   1      -0.139   2.068  -2.097  0.00  0.00     0.050 C 
ATOM      8  C   UNL d   1       1.486  -2.760  -1.461  0.00  0.00     0.050 C 
ATOM      9  C   UNL d   1      -1.262   1.284  -4.684  0.00  0.00     0.049 C 
ATOM     10  C   UNL d   1       0.008  -3.532  -3.857  0.00  0.00     0.049 C 
ATOM     11  C   UNL d   1      -1.200  -1.525  -5.526  0.00  0.00     0.049 C 
ENDROOT
BRANCH   1  12
ATOM     12  S   UNL d   1       0.904  -0.035   0.054  0.00  0.00     0.207 S 
ATOM     13  O   UNL d   1       0.942  -1.284   0.793  0.00  0.00    -0.217 OA
ATOM     14  O   UNL d   1      -0.008   1.000   0.520  0.00  0.00    -0.217 OA
BRANCH  12  15
ATOM     15  C   UNL d   1       2.553   0.636   0.137  0.00  0.00     0.064 A 
ATOM     16  C   UNL d   1       2.888   1.462   1.214  0.00  0.00     0.024 A 
ATOM     17  C   UNL d   1       4.191   1.953   1.333  0.00  0.00     0.008 A 
ATOM     18  C   UNL d   1       5.165   1.618   0.383  0.00  0.00    -0.062 A 
ATOM     19  C   UNL d   1       4.808   0.818  -0.709  0.00  0.00     0.008 A 
ATOM     20  C   UNL d   1       6.568   2.136   0.525  0.00  0.00     0.048 C 
ATOM     21  C   UNL d   1       3.505   0.330  -0.839  0.00  0.00     0.024 A 
ENDBRANCH  12  15
ENDBRANCH   1  12
TORSDOF 2
