REMARK  8 active torsions:
REMARK  status: ('A' for Active; 'I' for Inactive)
REMARK    1  A    between atoms: O_9  and  C_2 
REMARK    2  A    between atoms: S_8  and  C_3 
REMARK    3  A    between atoms: C_4  and  S_8 
REMARK    4  A    between atoms: C_5  and  C_18 
REMARK    5  A    between atoms: C_6  and  C_19 
REMARK    6  A    between atoms: C_18  and  O_9 
REMARK    7  A    between atoms: O_16  and  C_11 
REMARK    8  A    between atoms: C_19  and  O_16 
ROOT
ATOM      1  C   UNL d   1      -0.563  -0.062  -0.131  0.00  0.00     0.112 A 
ATOM      2  C   UNL d   1       0.010   1.231  -0.101  0.00  0.00     0.109 A 
ATOM      3  C   UNL d   1       1.415   1.352  -0.017  0.00  0.00     0.043 A 
ATOM      4  C   UNL d   1      -1.984  -0.264  -0.061  0.00  0.00     0.105 C 
ATOM      5  N   UNL d   1      -3.135  -0.395  -0.022  0.00  0.00    -0.191 NA
ATOM      6  C   UNL d   1       0.264  -1.206  -0.179  0.00  0.00     0.092 A 
ATOM      7  C   UNL d   1       2.215   0.201   0.010  0.00  0.00     0.025 A 
ATOM      8  C   UNL d   1       1.647  -1.069  -0.077  0.00  0.00     0.040 A 
ENDROOT
BRANCH   2   9
ATOM      9  O   UNL d   1      -0.701   2.412  -0.056  0.00  0.00    -0.339 OA
BRANCH   9  10
ATOM     10  C   UNL d   1      -1.827   2.527  -0.947  0.00  0.00     0.293 C 
BRANCH  10  11
ATOM     11  C   UNL d   1      -2.007   3.931  -1.519  0.00  0.00     0.408 C 
ATOM     12  F   UNL d   1      -0.928   4.720  -1.356  0.00  0.00    -0.169 F 
ATOM     13  F   UNL d   1      -2.257   3.867  -2.852  0.00  0.00    -0.169 F 
ATOM     14  F   UNL d   1      -3.062   4.561  -0.950  0.00  0.00    -0.169 F 
ENDBRANCH  10  11
ENDBRANCH   9  10
ENDBRANCH   2   9
BRANCH   6  15
ATOM     15  O   UNL d   1      -0.369  -2.420  -0.302  0.00  0.00    -0.341 OA
BRANCH  15  16
ATOM     16  C   UNL d   1       0.426  -3.535  -0.733  0.00  0.00     0.293 C 
BRANCH  16  17
ATOM     17  C   UNL d   1      -0.435  -4.681  -1.261  0.00  0.00     0.408 C 
ATOM     18  F   UNL d   1      -1.749  -4.518  -1.007  0.00  0.00    -0.169 F 
ATOM     19  F   UNL d   1      -0.289  -4.808  -2.602  0.00  0.00    -0.169 F 
ATOM     20  F   UNL d   1      -0.054  -5.856  -0.706  0.00  0.00    -0.169 F 
ENDBRANCH  16  17
ENDBRANCH  15  16
ENDBRANCH   6  15
BRANCH   3  21
ATOM     21  S   UNL d   1       2.267   2.915   0.157  0.00  0.00    -0.051 SA
BRANCH  21  22
ATOM     22  C   UNL d   1       2.018   3.697  -1.420  0.00  0.00     0.149 A 
ATOM     23  N   UNL d   1       2.253   5.021  -1.456  0.00  0.00    -0.346 N 
ATOM     24  C   UNL d   1       2.050   5.638  -2.633  0.00  0.00     0.091 A 
ATOM     25  HN  UNL d   1       2.571   5.531  -0.632  1.00  0.00     0.167 HD
ATOM     26  C   UNL d   1       1.653   4.982  -3.772  0.00  0.00     0.034 A 
ATOM     27  C   UNL d   1       1.471   3.626  -3.639  0.00  0.00     0.091 A 
ATOM     28  N   UNL d   1       1.640   2.957  -2.481  0.00  0.00    -0.346 N 
ATOM     29  HN  UNL d   1       1.491   1.950  -2.413  1.00  0.00     0.167 HD
ENDBRANCH  21  22
ENDBRANCH   3  21
TORSDOF 8
