REMARK  7 active torsions:
REMARK  status: ('A' for Active; 'I' for Inactive)
REMARK    1  A    between atoms: N_3  and  C_1 
REMARK    2  A    between atoms: N_7  and  C_1 
REMARK    3  A    between atoms: C_2  and  C_5 
REMARK    4  A    between atoms: O_12  and  C_2 
REMARK    5  A    between atoms: C_10  and  N_3 
REMARK    6  A    between atoms: N_11  and  N_7 
REMARK    7  A    between atoms: C_15  and  O_12 
ROOT
ATOM      1  C   UNL d   1       2.059   2.174  -4.720  0.00  0.00     0.039 A 
ATOM      2  C   UNL d   1       2.527   0.945  -4.246  0.00  0.00     0.020 A 
ATOM      3  C   UNL d   1       1.057   2.846  -4.004  0.00  0.00     0.020 A 
ATOM      4  C   UNL d   1       1.033   1.085  -2.336  0.00  0.00     0.034 A 
ATOM      5  C   UNL d   1       0.564   2.312  -2.811  0.00  0.00     0.030 A 
ATOM      6  C   UNL d   1       2.016   0.404  -3.059  0.00  0.00     0.030 A 
ENDROOT
BRANCH   4   7
ATOM      7  N   UNL d   1       0.545   0.648  -1.090  0.00  0.00    -0.332 N 
ATOM      8  H   UNL d   1      -0.013   1.312  -0.565  0.00  0.00     0.168 HD
BRANCH   7   9
ATOM      9  C   UNL d   1       0.402  -0.632  -0.600  0.00  0.00     0.186 C 
ATOM     10  S   UNL d   1       0.319  -2.065  -1.452  0.00  0.00    -0.040 SA
BRANCH   9  11
ATOM     11  N   UNL d   1       0.253  -0.683   0.777  0.00  0.00    -0.300 N 
ATOM     12  H   UNL d   1       0.091  -1.608   1.177  0.00  0.00     0.183 HD
BRANCH  11  13
ATOM     13  N   UNL d   1       0.600   0.392   1.627  0.00  0.00    -0.248 NA
ATOM     14  H   UNL d   1       1.078   1.113   1.077  0.00  0.00     0.143 HD
ATOM     15  H   UNL d   1       1.334   0.056   2.259  0.00  0.00     0.143 HD
ENDBRANCH  11  13
ENDBRANCH   9  11
ENDBRANCH   7   9
ENDBRANCH   4   7
BRANCH   1  16
ATOM     16  C   UNL d   1       2.728   2.787  -5.899  0.00  0.00     0.293 C 
ATOM     17  O   UNL d   1       3.710   2.314  -6.452  0.00  0.00    -0.259 OA
BRANCH  16  18
ATOM     18  O   UNL d   1       2.158   3.989  -6.161  0.00  0.00    -0.318 OA
BRANCH  18  19
ATOM     19  C   UNL d   1       2.954   4.913  -6.909  0.00  0.00     0.174 C 
ATOM     20  C   UNL d   1       3.797   5.706  -5.926  0.00  0.00     0.034 C 
ENDBRANCH  18  19
ENDBRANCH  16  18
ENDBRANCH   1  16
TORSDOF 7
