REMARK  6 active torsions:
REMARK  status: ('A' for Active; 'I' for Inactive)
REMARK    1  A    between atoms: S_3  and  C_12 
REMARK    2  A    between atoms: N_26  and  S_3 
REMARK    3  A    between atoms: S_4  and  C_13 
REMARK    4  A    between atoms: N_27  and  S_4 
REMARK    5  A    between atoms: N_9  and  C_5 
REMARK    6  A    between atoms: N_10  and  C_6 
ROOT
ATOM      1  C   UNL d   1      -0.742   0.854   0.028  0.00  0.00     0.025 A 
ATOM      2  C   UNL d   1       0.732   0.849   0.013  0.00  0.00     0.025 A 
ATOM      3  C   UNL d   1      -1.743   1.824  -0.053  0.00  0.00     0.116 A 
ATOM      4  C   UNL d   1       1.742   1.800   0.159  0.00  0.00     0.116 A 
ATOM      5  C   UNL d   1       1.170  -0.486  -0.135  0.00  0.00     0.030 A 
ATOM      6  C   UNL d   1      -1.190  -0.486   0.029  0.00  0.00     0.030 A 
ATOM      7  C   UNL d   1      -0.013  -1.363  -0.090  0.00  0.00     0.194 A 
ATOM      8  C   UNL d   1      -3.483   0.119   0.001  0.00  0.00     0.082 A 
ATOM      9  C   UNL d   1       3.463   0.112  -0.184  0.00  0.00     0.082 A 
ATOM     10  C   UNL d   1       3.102   1.450   0.036  0.00  0.00     0.062 A 
ATOM     11  C   UNL d   1      -3.108   1.470  -0.048  0.00  0.00     0.062 A 
ATOM     12  C   UNL d   1      -2.520  -0.887   0.029  0.00  0.00     0.041 A 
ATOM     13  C   UNL d   1       2.495  -0.888  -0.240  0.00  0.00     0.041 A 
ATOM     14  O   UNL d   1      -0.016  -2.575  -0.150  0.00  0.00    -0.287 OA
ENDROOT
BRANCH   8  15
ATOM     15  S   UNL d   1      -5.205  -0.292  -0.146  0.00  0.00     0.258 S 
ATOM     16  O   UNL d   1      -5.705   0.453  -1.278  0.00  0.00    -0.201 OA
ATOM     17  O   UNL d   1      -5.349  -1.724  -0.036  0.00  0.00    -0.201 OA
BRANCH  15  18
ATOM     18  N   UNL d   1      -5.864   0.421   1.224  0.00  0.00    -0.320 N 
ATOM     19  C   UNL d   1      -5.897  -0.358   2.457  0.00  0.00     0.159 C 
ATOM     20  H   UNL d   1      -6.693   0.974   0.999  0.00  0.00     0.171 HD
ENDBRANCH  15  18
ENDBRANCH   8  15
BRANCH   3  21
ATOM     21  N   UNL d   1      -1.454   3.207  -0.362  0.00  0.00    -0.115 N 
ATOM     22  O   UNL d   1      -0.737   3.410  -1.351  0.00  0.00    -0.532 OA
ATOM     23  O   UNL d   1      -1.977   4.071   0.351  0.00  0.00    -0.532 OA
ENDBRANCH   3  21
BRANCH   4  24
ATOM     24  N   UNL d   1       1.473   3.137   0.647  0.00  0.00    -0.115 N 
ATOM     25  O   UNL d   1       0.780   3.217   1.670  0.00  0.00    -0.532 OA
ATOM     26  O   UNL d   1       1.986   4.081   0.035  0.00  0.00    -0.532 OA
ENDBRANCH   4  24
BRANCH   9  27
ATOM     27  S   UNL d   1       5.189  -0.305  -0.254  0.00  0.00     0.258 S 
ATOM     28  O   UNL d   1       5.819   0.373   0.856  0.00  0.00    -0.201 OA
ATOM     29  O   UNL d   1       5.314  -1.727  -0.463  0.00  0.00    -0.201 OA
BRANCH  27  30
ATOM     30  N   UNL d   1       5.690   0.489  -1.646  0.00  0.00    -0.320 N 
ATOM     31  C   UNL d   1       5.578  -0.215  -2.920  0.00  0.00     0.159 C 
ATOM     32  H   UNL d   1       6.540   1.032  -1.487  0.00  0.00     0.171 HD
ENDBRANCH  27  30
ENDBRANCH   9  27
TORSDOF 6
