REMARK  3 active torsions:
REMARK  status: ('A' for Active; 'I' for Inactive)
REMARK    1  A    between atoms: C_9  and  N_1 
REMARK    2  A    between atoms: C_12  and  N_2 
REMARK    3  A    between atoms: C_17  and  C_12 
ROOT
ATOM      1  N   UNL d   1       0.913  -1.413   0.100  0.00  0.00    -0.247 N 
ATOM      2  N   UNL d   1       2.107   0.674   0.031  0.00  0.00    -0.260 N 
ATOM      3  C   UNL d   1       2.146  -0.736   0.121  0.00  0.00     0.338 A 
ATOM      4  C   UNL d   1      -0.262  -0.688   0.057  0.00  0.00     0.150 A 
ATOM      5  C   UNL d   1      -0.235   0.674  -0.010  0.00  0.00     0.147 A 
ATOM      6  C   UNL d   1       0.951   1.448  -0.031  0.00  0.00     0.282 A 
ATOM      7  N   UNL d   1      -1.549  -1.148   0.020  0.00  0.00    -0.336 N 
ATOM      8  HN  UNL d   1      -1.861  -2.119   0.039  1.00  0.00     0.168 HD
ATOM      9  N   UNL d   1      -1.540   1.072  -0.061  0.00  0.00    -0.345 N 
ATOM     10  C   UNL d   1      -2.300  -0.066  -0.046  0.00  0.00     0.182 A 
ATOM     11  O   UNL d   1       3.222  -1.325   0.267  0.00  0.00    -0.246 OA
ATOM     12  O   UNL d   1       0.927   2.676  -0.085  0.00  0.00    -0.265 OA
ATOM     13  H   UNL d   1      -1.873   2.027  -0.113  0.00  0.00     0.167 HD
ENDROOT
BRANCH   1  14
ATOM     14  C   UNL d   1       0.843  -2.835   0.148  0.00  0.00     0.048 A 
ATOM     15  C   UNL d   1      -0.042  -3.495   1.009  0.00  0.00     0.072 A 
ATOM     16  C   UNL d   1      -0.013  -4.883   1.105  0.00  0.00     0.118 A 
ATOM     17  F   UNL d   1      -0.820  -5.499   1.980  0.00  0.00    -0.206 F 
ATOM     18  C   UNL d   1       0.858  -5.643   0.333  0.00  0.00     0.042 A 
ATOM     19  C   UNL d   1       1.718  -5.005  -0.554  0.00  0.00     0.005 A 
ATOM     20  C   UNL d   1       1.719  -3.609  -0.634  0.00  0.00     0.030 A 
ENDBRANCH   1  14
BRANCH   2  21
ATOM     21  C   UNL d   1       3.385   1.376   0.036  0.00  0.00     0.175 C 
BRANCH  21  22
ATOM     22  C   UNL d   1       3.981   1.471  -1.352  0.00  0.00    -0.040 A 
ATOM     23  C   UNL d   1       3.676   2.555  -2.186  0.00  0.00     0.009 A 
ATOM     24  C   UNL d   1       4.182   2.611  -3.486  0.00  0.00     0.001 A 
ATOM     25  C   UNL d   1       4.992   1.583  -3.967  0.00  0.00     0.000 A 
ATOM     26  C   UNL d   1       5.309   0.505  -3.144  0.00  0.00     0.001 A 
ATOM     27  C   UNL d   1       4.809   0.451  -1.843  0.00  0.00     0.009 A 
ENDBRANCH  21  22
ENDBRANCH   2  21
TORSDOF 3
