REMARK  7 active torsions:
REMARK  status: ('A' for Active; 'I' for Inactive)
REMARK    1  A    between atoms: C_3  and  C_1 
REMARK    2  A    between atoms: C_13  and  N_2 
REMARK    3  A    between atoms: C_6  and  C_11 
REMARK    4  A    between atoms: C_7  and  C_12 
REMARK    5  A    between atoms: S_10  and  C_7 
REMARK    6  A    between atoms: C_14  and  S_10 
REMARK    7  A    between atoms: C_19  and  C_13 
ROOT
ATOM      1  C   UNL d   1      -3.741   3.418  -1.203  0.00  0.00     0.022 A 
ATOM      2  C   UNL d   1      -3.223   2.111  -1.295  0.00  0.00     0.024 A 
ATOM      3  C   UNL d   1      -3.377   1.192  -0.244  0.00  0.00    -0.039 A 
ATOM      4  C   UNL d   1      -4.383   3.812  -0.024  0.00  0.00     0.016 A 
ATOM      5  C   UNL d   1      -4.570   2.893   1.013  0.00  0.00     0.002 A 
ATOM      6  C   UNL d   1      -4.085   1.590   0.896  0.00  0.00     0.009 A 
ENDROOT
BRANCH   1   7
ATOM      7  C   UNL d   1      -3.529   4.324  -2.365  0.00  0.00     0.224 C 
ATOM      8  O   UNL d   1      -2.606   4.107  -3.140  0.00  0.00    -0.279 OA
BRANCH   7   9
ATOM      9  S   UNL d   1      -4.599   5.710  -2.575  0.00  0.00    -0.048 SA
BRANCH   9  10
ATOM     10  C   UNL d   1      -5.295   5.532  -4.212  0.00  0.00     0.009 A 
ATOM     11  C   UNL d   1      -6.540   6.137  -4.457  0.00  0.00     0.035 A 
ATOM     12  C   UNL d   1      -7.163   6.055  -5.717  0.00  0.00     0.049 A 
ATOM     13  C   UNL d   1      -6.535   5.329  -6.736  0.00  0.00     0.016 A 
ATOM     14  C   UNL d   1      -5.287   4.753  -6.518  0.00  0.00     0.002 A 
ATOM     15  C   UNL d   1      -4.664   4.873  -5.271  0.00  0.00     0.019 A 
BRANCH  12  16
ATOM     16  C   UNL d   1      -8.475   6.748  -5.997  0.00  0.00     0.417 C 
ATOM     17  F   UNL d   1      -8.933   7.495  -4.955  0.00  0.00    -0.166 F 
ATOM     18  F   UNL d   1      -8.395   7.601  -7.057  0.00  0.00    -0.166 F 
ATOM     19  F   UNL d   1      -9.474   5.874  -6.300  0.00  0.00    -0.166 F 
ENDBRANCH  12  16
ENDBRANCH   9  10
ENDBRANCH   7   9
ENDBRANCH   1   7
BRANCH   3  20
ATOM     20  C   UNL d   1      -2.761  -0.188  -0.318  0.00  0.00     0.170 C 
BRANCH  20  21
ATOM     21  N   UNL d   1      -1.475  -0.277   0.380  0.00  0.00    -0.320 N 
ATOM     22  C   UNL d   1      -0.300  -0.004  -0.309  0.00  0.00     0.110 A 
ATOM     23  C   UNL d   1       0.911  -0.154   0.256  0.00  0.00     0.063 A 
ATOM     24  C   UNL d   1       0.980  -0.580   1.642  0.00  0.00     0.023 A 
ATOM     25  C   UNL d   1      -0.130  -0.834   2.344  0.00  0.00     0.075 A 
ATOM     26  C   UNL d   1      -1.471  -0.698   1.709  0.00  0.00     0.247 A 
ATOM     27  O   UNL d   1      -2.470  -0.970   2.368  0.00  0.00    -0.268 OA
BRANCH  23  28
ATOM     28  C   UNL d   1       2.184   0.057  -0.518  0.00  0.00     0.418 C 
ATOM     29  F   UNL d   1       3.296  -0.286   0.183  0.00  0.00    -0.166 F 
ATOM     30  F   UNL d   1       2.199  -0.686  -1.655  0.00  0.00    -0.166 F 
ATOM     31  F   UNL d   1       2.338   1.351  -0.893  0.00  0.00    -0.166 F 
ENDBRANCH  23  28
ENDBRANCH  20  21
ENDBRANCH   3  20
TORSDOF 7
