REMARK  5 active torsions:
REMARK  status: ('A' for Active; 'I' for Inactive)
REMARK    1  A    between atoms: O_2  and  S_1 
REMARK    2  A    between atoms: C_7  and  S_1 
REMARK    3  A    between atoms: C_3  and  O_2 
REMARK    4  A    between atoms: C_5  and  C_4 
REMARK    5  A    between atoms: C_6  and  C_12 
ROOT
ATOM      1  S   UNL d   1       1.005   0.022  -0.039  0.00  0.00     0.304 S 
ATOM      2  O   UNL d   1       0.097  -0.752  -0.867  0.00  0.00    -0.193 OA
ATOM      3  O   UNL d   1       2.407   0.182  -0.378  0.00  0.00    -0.193 OA
ENDROOT
BRANCH   1   4
ATOM      4  O   UNL d   1       0.868  -0.420   1.524  0.00  0.00    -0.210 OA
BRANCH   4   5
ATOM      5  C   UNL d   1       1.201  -1.693   1.911  0.00  0.00     0.176 A 
ATOM      6  C   UNL d   1       1.143  -2.028   3.258  0.00  0.00     0.100 A 
ATOM      7  C   UNL d   1       1.446  -3.356   3.608  0.00  0.00     0.022 A 
ATOM      8  C   UNL d   1       1.788  -4.278   2.627  0.00  0.00     0.018 A 
ATOM      9  C   UNL d   1       1.827  -3.843   1.319  0.00  0.00     0.090 A 
ATOM     10  N   UNL d   1       1.544  -2.577   0.951  0.00  0.00    -0.345 N 
ATOM     11  HN  UNL d   1       1.588  -2.294  -0.028  1.00  0.00     0.167 HD
BRANCH   6  12
ATOM     12  C   UNL d   1       0.782  -1.051   4.333  0.00  0.00     0.421 C 
ATOM     13  F   UNL d   1       0.496   0.209   3.910  0.00  0.00    -0.166 F 
ATOM     14  F   UNL d   1      -0.309  -1.455   5.045  0.00  0.00    -0.166 F 
ATOM     15  F   UNL d   1       1.782  -0.911   5.251  0.00  0.00    -0.166 F 
ENDBRANCH   6  12
ENDBRANCH   4   5
ENDBRANCH   1   4
BRANCH   1  16
ATOM     16  C   UNL d   1       0.312   1.673  -0.008  0.00  0.00     0.086 A 
ATOM     17  C   UNL d   1       1.152   2.784   0.107  0.00  0.00     0.026 A 
ATOM     18  C   UNL d   1       0.596   4.065   0.132  0.00  0.00     0.018 A 
ATOM     19  C   UNL d   1      -0.795   4.243   0.036  0.00  0.00     0.048 A 
ATOM     20  C   UNL d   1      -1.621   3.115  -0.110  0.00  0.00     0.018 A 
ATOM     21  C   UNL d   1      -1.071   1.832  -0.134  0.00  0.00     0.026 A 
BRANCH  19  22
ATOM     22  C   UNL d   1      -1.414   5.621   0.092  0.00  0.00     0.417 C 
ATOM     23  F   UNL d   1      -0.506   6.620   0.264  0.00  0.00    -0.166 F 
ATOM     24  F   UNL d   1      -2.104   5.930  -1.040  0.00  0.00    -0.166 F 
ATOM     25  F   UNL d   1      -2.303   5.744   1.117  0.00  0.00    -0.166 F 
ENDBRANCH  19  22
ENDBRANCH   1  16
TORSDOF 5
