REMARK  7 active torsions:
REMARK  status: ('A' for Active; 'I' for Inactive)
REMARK    1  A    between atoms: C_2  and  S_1 
REMARK    2  A    between atoms: N_7  and  S_1 
REMARK       I    between atoms: C_3  and  N_6 
REMARK       I    between atoms: N_10  and  C_3 
REMARK    3  A    between atoms: N_6  and  C_4 
REMARK    4  A    between atoms: C_15  and  N_10 
REMARK    5  A    between atoms: O_16  and  C_17 
REMARK    6  A    between atoms: C_18  and  O_16 
REMARK    7  A    between atoms: C_23  and  C_18 
ROOT
ATOM      1  C   UNL d   1       1.075   6.175   2.492  0.00  0.00     0.325 C 
ATOM      2  N   UNL d   1       1.096   5.058   1.659  0.00  0.00    -0.308 N 
ATOM      3  N   UNL d   1       0.595   5.869   3.761  0.00  0.00    -0.309 N 
ATOM      4  O   UNL d   1       1.490   7.279   2.168  0.00  0.00    -0.247 OA
ATOM      5  H   UNL d   1       0.959   4.165   2.098  0.00  0.00     0.170 HD
ATOM      6  H   UNL d   1       0.544   4.894   4.007  0.00  0.00     0.170 HD
ENDROOT
BRANCH   2   7
ATOM      7  C   UNL d   1       1.647   5.053   0.347  0.00  0.00     0.043 A 
ATOM      8  C   UNL d   1       1.778   6.242  -0.388  0.00  0.00     0.055 A 
ATOM      9  C   UNL d   1       2.459   6.262  -1.605  0.00  0.00     0.081 A 
ATOM     10  C   UNL d   1       2.997   5.091  -2.132  0.00  0.00     0.026 A 
ATOM     11  C   UNL d   1       2.796   3.890  -1.455  0.00  0.00     0.010 A 
ATOM     12  C   UNL d   1       2.093   3.847  -0.233  0.00  0.00    -0.035 A 
ATOM     13  C   UNL d   1       1.791   2.497   0.357  0.00  0.00     0.050 C 
BRANCH   9  14
ATOM     14  S   UNL d   1       2.525   7.777  -2.541  0.00  0.00     0.260 S 
ATOM     15  O   UNL d   1       1.316   8.519  -2.255  0.00  0.00    -0.200 OA
ATOM     16  O   UNL d   1       2.868   7.419  -3.903  0.00  0.00    -0.200 OA
BRANCH  14  17
ATOM     17  N   UNL d   1       3.848   8.610  -1.872  0.00  0.00    -0.315 N 
ATOM     18  C   UNL d   1       3.667   9.182  -0.525  0.00  0.00     0.162 C 
ATOM     19  C   UNL d   1       5.178   8.021  -2.086  0.00  0.00     0.162 C 
ENDBRANCH  14  17
ENDBRANCH   9  14
ENDBRANCH   2   7
BRANCH   3  20
ATOM     20  C   UNL d   1       0.564   6.790   4.838  0.00  0.00     0.036 A 
ATOM     21  C   UNL d   1       0.555   8.178   4.660  0.00  0.00     0.032 A 
ATOM     22  C   UNL d   1       0.713   9.040   5.750  0.00  0.00     0.039 A 
ATOM     23  C   UNL d   1       0.881   8.522   7.029  0.00  0.00     0.069 A 
ATOM     24  C   UNL d   1       0.746   7.147   7.232  0.00  0.00     0.039 A 
ATOM     25  C   UNL d   1       0.589   6.283   6.140  0.00  0.00     0.032 A 
BRANCH  23  26
ATOM     26  O   UNL d   1       1.195   9.431   8.009  0.00  0.00    -0.347 OA
BRANCH  26  27
ATOM     27  C   UNL d   1       2.047   8.902   9.031  0.00  0.00     0.214 C 
BRANCH  27  28
ATOM     28  C   UNL d   1       2.948   9.933   9.678  0.00  0.00    -0.034 A 
ATOM     29  C   UNL d   1       2.950  11.288   9.327  0.00  0.00     0.009 A 
ATOM     30  C   UNL d   1       3.836  12.176   9.946  0.00  0.00     0.001 A 
ATOM     31  C   UNL d   1       4.727  11.721  10.919  0.00  0.00     0.000 A 
ATOM     32  C   UNL d   1       4.733  10.377  11.278  0.00  0.00     0.001 A 
ATOM     33  C   UNL d   1       3.849   9.491  10.664  0.00  0.00     0.009 A 
ENDBRANCH  27  28
ENDBRANCH  26  27
ENDBRANCH  23  26
ENDBRANCH   3  20
TORSDOF 7
