REMARK  2 active torsions:
REMARK  status: ('A' for Active; 'I' for Inactive)
REMARK    1  A    between atoms: N_2  and  C_1 
REMARK    2  A    between atoms: O_11  and  C_3 
ROOT
ATOM      1  C   UNL d   1      -0.678   1.244   0.001  0.00  0.00     0.155 A 
ATOM      2  C   UNL d   1      -1.368   0.035  -0.001  0.00  0.00     0.173 A 
ATOM      3  N   UNL d   1      -0.733  -1.157  -0.002  0.00  0.00    -0.343 N 
ATOM      4  HN  UNL d   1      -1.255  -2.033  -0.003  1.00  0.00     0.167 HD
ATOM      5  C   UNL d   1       0.724   1.234   0.001  0.00  0.00     0.065 A 
ATOM      6  C   UNL d   1       1.382   0.010  -0.001  0.00  0.00     0.051 A 
ATOM      7  C   UNL d   1       0.623  -1.148  -0.001  0.00  0.00     0.114 A 
ATOM      8 CL   UNL d   1       3.095  -0.057  -0.002  0.00  0.00    -0.083 Cl
ENDROOT
BRANCH   1   9
ATOM      9  N   UNL d   1      -1.383   2.515   0.003  0.00  0.00    -0.111 N 
ATOM     10  O   UNL d   1      -2.624   2.482   0.003  0.00  0.00    -0.532 OA
ATOM     11  O   UNL d   1      -0.709   3.553   0.005  0.00  0.00    -0.532 OA
ENDBRANCH   1   9
BRANCH   2  12
ATOM     12  O   UNL d   1      -2.724  -0.098  -0.003  0.00  0.00    -0.344 OA
ATOM     13  H   UNL d   1      -3.147   0.782  -0.004  0.00  0.00     0.219 HD
ENDBRANCH   2  12
TORSDOF 2
