REMARK  4 active torsions:
REMARK  status: ('A' for Active; 'I' for Inactive)
REMARK    1  A    between atoms: C_4  and  N_1 
REMARK    2  A    between atoms: C_5  and  C_2 
REMARK    3  A    between atoms: O_14  and  C_7 
REMARK    4  A    between atoms: O_13  and  N_9 
ROOT
ATOM      1  C   UNL d   1      -3.022  -1.078  -4.756  0.00  0.00     0.023 A 
ATOM      2  C   UNL d   1      -4.079  -0.490  -5.475  0.00  0.00     0.052 A 
ATOM      3  C   UNL d   1      -4.671  -1.171  -6.546  0.00  0.00     0.103 A 
ATOM      4  C   UNL d   1      -2.583  -2.357  -5.127  0.00  0.00     0.078 A 
ATOM      5  C   UNL d   1      -4.213  -2.437  -6.923  0.00  0.00     0.039 A 
ATOM      6  C   UNL d   1      -3.166  -3.028  -6.209  0.00  0.00     0.040 A 
ENDROOT
BRANCH   1   7
ATOM      7  C   UNL d   1      -2.471  -0.292  -3.603  0.00  0.00     0.041 C 
ATOM      8  N   UNL d   1      -3.279   0.526  -2.985  0.00  0.00    -0.273 N 
ATOM      9  HN  UNL d   1      -4.262   0.648  -3.226  1.00  0.00     0.194 HD
ATOM     10  C   UNL d   1      -1.010  -0.422  -3.216  0.00  0.00     0.071 C 
BRANCH   8  11
ATOM     11  O   UNL d   1      -2.633   1.215  -1.953  0.00  0.00    -0.290 OA
ATOM     12  H   UNL d   1      -3.347   1.777  -1.599  0.00  0.00     0.244 HD
ENDBRANCH   8  11
ENDBRANCH   1   7
BRANCH   4  13
ATOM     13  O   UNL d   1      -1.611  -3.001  -4.415  0.00  0.00    -0.360 OA
ATOM     14  H   UNL d   1      -1.438  -3.876  -4.804  0.00  0.00     0.217 HD
ENDBRANCH   4  13
BRANCH   3  15
ATOM     15  N   UNL d   1      -5.786  -0.555  -7.278  0.00  0.00    -0.116 N 
ATOM     16  O   UNL d   1      -6.165   0.567  -6.920  0.00  0.00    -0.532 OA
ATOM     17  O   UNL d   1      -6.282  -1.199  -8.216  0.00  0.00    -0.532 OA
ENDBRANCH   3  15
TORSDOF 4
