REMARK  2 active torsions:
REMARK  status: ('A' for Active; 'I' for Inactive)
REMARK    1  A    between atoms: C_2  and  C_1 
REMARK       I    between atoms: N_7  and  C_2 
REMARK    2  A    between atoms: C_9  and  N_7 
ROOT
ATOM      1  C   UNL d   1       1.581   2.453  -0.226  0.00  0.00     0.258 C 
ATOM      2  N   UNL d   1       0.962   3.673  -0.013  0.00  0.00    -0.323 N 
ATOM      3  O   UNL d   1       2.776   2.313  -0.467  0.00  0.00    -0.267 OA
ATOM      4  H   UNL d   1       0.005   3.655   0.307  0.00  0.00     0.169 HD
ENDROOT
BRANCH   1   5
ATOM      5  C   UNL d   1       0.700   1.286  -0.130  0.00  0.00     0.064 A 
ATOM      6  C   UNL d   1       1.133  -0.034  -0.174  0.00  0.00     0.065 A 
ATOM      7  O   UNL d   1       0.079  -0.888  -0.070  0.00  0.00    -0.319 OA
ATOM      8  C   UNL d   1       2.449  -0.699  -0.310  0.00  0.00     0.077 C 
ATOM      9  C   UNL d   1      -1.046  -0.138   0.030  0.00  0.00     0.050 A 
ATOM     10  C   UNL d   1      -0.725   1.201  -0.010  0.00  0.00     0.051 A 
ATOM     11  C   UNL d   1      -2.311  -0.890   0.147  0.00  0.00     0.076 C 
ENDBRANCH   1   5
BRANCH   2  12
ATOM     12  C   UNL d   1       1.548   4.953  -0.162  0.00  0.00     0.035 A 
ATOM     13  C   UNL d   1       2.832   5.164  -0.681  0.00  0.00     0.032 A 
ATOM     14  C   UNL d   1       3.338   6.458  -0.836  0.00  0.00     0.044 A 
ATOM     15  C   UNL d   1       2.562   7.546  -0.468  0.00  0.00     0.116 A 
ATOM     16  C   UNL d   1       1.288   7.363   0.055  0.00  0.00     0.044 A 
ATOM     17  F   UNL d   1       3.042   8.786  -0.624  0.00  0.00    -0.206 F 
ATOM     18  C   UNL d   1       0.780   6.068   0.206  0.00  0.00     0.032 A 
ENDBRANCH   2  12
TORSDOF 2
