REMARK  4 active torsions:
REMARK  status: ('A' for Active; 'I' for Inactive)
REMARK    1  A    between atoms: N_2  and  C_1 
REMARK    2  A    between atoms: N_3  and  C_1 
REMARK    3  A    between atoms: C_7  and  N_3 
REMARK    4  A    between atoms: C_10  and  C_5 
ROOT
ATOM      1  C   UNL d   1      -3.929  -1.064   1.142  0.00  0.00    -0.054 A 
ATOM      2  C   UNL d   1      -1.114  -0.761   1.266  0.00  0.00     0.034 A 
ATOM      3  C   UNL d   1      -3.296  -0.618   2.313  0.00  0.00     0.010 A 
ATOM      4  C   UNL d   1      -3.110  -1.424   0.063  0.00  0.00     0.010 A 
ATOM      5  C   UNL d   1      -1.908  -0.457   2.370  0.00  0.00     0.030 A 
ATOM      6  C   UNL d   1      -1.724  -1.241   0.110  0.00  0.00     0.030 A 
ENDROOT
BRANCH   2   7
ATOM      7  N   UNL d   1       0.285  -0.557   1.245  0.00  0.00    -0.333 N 
ATOM      8  H   UNL d   1       0.661  -0.260   0.350  0.00  0.00     0.168 HD
BRANCH   7   9
ATOM      9  C   UNL d   1       1.091  -0.295   2.322  0.00  0.00     0.174 C 
ATOM     10  S   UNL d   1       2.313   0.835   2.134  0.00  0.00    -0.041 SA
BRANCH   9  11
ATOM     11  N   UNL d   1       0.909  -1.068   3.459  0.00  0.00    -0.357 N 
ATOM     12  C   UNL d   1       0.467  -2.473   3.370  0.00  0.00     0.135 C 
ATOM     13  C   UNL d   1       1.396  -3.438   4.107  0.00  0.00     0.093 C 
ATOM     14  S   UNL d   1       1.499  -3.054   5.883  0.00  0.00    -0.166 SA
ATOM     15  C   UNL d   1       1.996  -1.308   5.716  0.00  0.00     0.093 C 
ATOM     16  C   UNL d   1       1.046  -0.520   4.817  0.00  0.00     0.135 C 
ENDBRANCH   9  11
ENDBRANCH   7   9
ENDBRANCH   2   7
BRANCH   1  17
ATOM     17  C   UNL d   1      -5.457  -1.124   1.101  0.00  0.00     0.018 C 
ATOM     18  C   UNL d   1      -6.092  -1.567  -0.236  0.00  0.00     0.009 C 
ATOM     19  C   UNL d   1      -6.000  -0.509  -1.342  0.00  0.00     0.001 C 
ATOM     20  C   UNL d   1      -6.508   0.858  -0.896  0.00  0.00     0.000 C 
ATOM     21  C   UNL d   1      -5.912   1.295   0.438  0.00  0.00     0.001 C 
ATOM     22  C   UNL d   1      -6.104   0.222   1.508  0.00  0.00     0.009 C 
ENDBRANCH   1  17
TORSDOF 4
