REMARK  4 active torsions:
REMARK  status: ('A' for Active; 'I' for Inactive)
REMARK    1  A    between atoms: C_2  and  N_1 
REMARK    2  A    between atoms: C_4  and  C_5 
REMARK    3  A    between atoms: O_12  and  C_4 
REMARK    4  A    between atoms: C_14  and  O_12 
ROOT
ATOM      1  C   UNL d   1       0.326  -0.883   1.011  0.00  0.00     0.108 A 
ATOM      2  C   UNL d   1      -0.816  -1.613   0.636  0.00  0.00    -0.028 A 
ATOM      3  C   UNL d   1      -1.053  -2.300   2.978  0.00  0.00     0.040 A 
ATOM      4  C   UNL d   1      -1.500  -2.313   1.645  0.00  0.00     0.027 A 
ATOM      5  C   UNL d   1       0.806  -0.888   2.328  0.00  0.00     0.037 A 
ATOM      6  C   UNL d   1       0.115  -1.600   3.310  0.00  0.00     0.020 A 
ATOM      7  C   UNL d   1      -1.374  -1.655  -0.759  0.00  0.00     0.050 C 
ENDROOT
BRANCH   3   8
ATOM      8  C   UNL d   1      -1.896  -2.974   4.003  0.00  0.00     0.293 C 
ATOM      9  O   UNL d   1      -2.938  -3.551   3.742  0.00  0.00    -0.259 OA
BRANCH   8  10
ATOM     10  O   UNL d   1      -1.390  -2.748   5.240  0.00  0.00    -0.318 OA
BRANCH  10  11
ATOM     11  C   UNL d   1      -2.276  -3.022   6.334  0.00  0.00     0.174 C 
ATOM     12  C   UNL d   1      -3.051  -1.754   6.646  0.00  0.00     0.034 C 
ENDBRANCH  10  11
ENDBRANCH   8  10
ENDBRANCH   3   8
BRANCH   1  13
ATOM     13  N   UNL d   1       1.040  -0.056   0.049  0.00  0.00    -0.115 N 
ATOM     14  O   UNL d   1       0.396   0.830  -0.527  0.00  0.00    -0.532 OA
ATOM     15  O   UNL d   1       2.249  -0.280  -0.095  0.00  0.00    -0.532 OA
ENDBRANCH   1  13
TORSDOF 4
