REMARK  5 active torsions:
REMARK  status: ('A' for Active; 'I' for Inactive)
REMARK    1  A    between atoms: C_2  and  C_1 
REMARK    2  A    between atoms: N_8  and  C_2 
REMARK    3  A    between atoms: O_12  and  C_3 
REMARK    4  A    between atoms: O_10  and  N_5 
REMARK    5  A    between atoms: O_13  and  C_9 
ROOT
ATOM      1  C   UNL d   1       3.207  -1.843   0.140  0.00  0.00     0.040 A 
ATOM      2  C   UNL d   1       2.300  -2.916   0.145  0.00  0.00     0.081 A 
ATOM      3  C   UNL d   1       4.592  -2.129   0.149  0.00  0.00     0.054 A 
ATOM      4  C   UNL d   1       2.821  -4.227   0.167  0.00  0.00     0.040 A 
ATOM      5  C   UNL d   1       5.087  -3.438   0.174  0.00  0.00     0.069 A 
ATOM      6  C   UNL d   1       4.191  -4.492   0.189  0.00  0.00     0.039 A 
ENDROOT
BRANCH   1   7
ATOM      7  C   UNL d   1       2.868  -0.381   0.126  0.00  0.00     0.111 C 
ATOM      8  N   UNL d   1       1.938   0.065  -0.674  0.00  0.00    -0.257 N 
ATOM      9  HN  UNL d   1       1.407  -0.513  -1.326  1.00  0.00     0.195 HD
BRANCH   8  10
ATOM     10  O   UNL d   1       1.768   1.455  -0.514  0.00  0.00    -0.289 OA
ATOM     11  H   UNL d   1       0.978   1.625  -1.062  0.00  0.00     0.244 HD
ENDBRANCH   8  10
BRANCH   7  12
ATOM     12  N   UNL d   1       3.559   0.488   0.942  0.00  0.00    -0.286 NA
ATOM     13  H   UNL d   1       4.565   0.452   0.848  0.00  0.00     0.125 HD
ATOM     14  H   UNL d   1       3.237   1.433   0.733  0.00  0.00     0.125 HD
ENDBRANCH   7  12
ENDBRANCH   1   7
BRANCH   2  15
ATOM     15  O   UNL d   1       0.937  -2.978   0.154  0.00  0.00    -0.355 OA
ATOM     16  C   UNL d   1       0.131  -1.830   0.327  0.00  0.00     0.210 C 
ENDBRANCH   2  15
BRANCH   5  17
ATOM     17  O   UNL d   1       6.451  -3.538   0.180  0.00  0.00    -0.356 OA
ATOM     18  C   UNL d   1       6.996  -4.853   0.173  0.00  0.00     0.210 C 
ENDBRANCH   5  17
TORSDOF 5
