REMARK  4 active torsions:
REMARK  status: ('A' for Active; 'I' for Inactive)
REMARK       I    between atoms: N_6  and  C_1 
REMARK    1  A    between atoms: O_13  and  C_1 
REMARK    2  A    between atoms: N_2  and  N_6 
REMARK    3  A    between atoms: C_11  and  C_10 
REMARK    4  A    between atoms: C_16  and  O_13 
ROOT
ATOM      1  N   UNL d   1       1.017   1.980  -1.360  0.00  0.00    -0.307 N 
ATOM      2  HN  UNL d   1       2.009   1.849  -1.558  1.00  0.00     0.186 HD
ATOM      3  C   UNL d   1       0.374   3.030  -1.759  0.00  0.00     0.118 C 
ENDROOT
BRANCH   1   4
ATOM      4  N   UNL d   1       0.298   1.061  -0.661  0.00  0.00    -0.246 N 
ATOM      5  C   UNL d   1       0.867  -0.085  -0.144  0.00  0.00     0.379 C 
ATOM      6  O   UNL d   1       0.210  -0.882   0.519  0.00  0.00    -0.237 OA
ATOM      7  H   UNL d   1      -0.683   1.206  -0.460  0.00  0.00     0.192 HD
BRANCH   5   8
ATOM      8  O   UNL d   1       2.189  -0.218  -0.440  0.00  0.00    -0.303 OA
BRANCH   8   9
ATOM      9  C   UNL d   1       2.852  -1.355   0.130  0.00  0.00     0.176 C 
ATOM     10  C   UNL d   1       2.673  -2.580  -0.747  0.00  0.00     0.034 C 
ENDBRANCH   8   9
ENDBRANCH   5   8
ENDBRANCH   1   4
BRANCH   3  11
ATOM     11  C   UNL d   1       1.074   4.082  -2.526  0.00  0.00    -0.018 A 
ATOM     12  C   UNL d   1       0.376   5.210  -2.963  0.00  0.00     0.038 A 
ATOM     13  C   UNL d   1       1.044   6.191  -3.706  0.00  0.00     0.056 A 
ATOM     14 CL   UNL d   1       0.132   7.564  -4.226  0.00  0.00    -0.083 Cl
ATOM     15  C   UNL d   1       2.405   6.043  -4.009  0.00  0.00     0.055 A 
ATOM     16  C   UNL d   1       3.098   4.917  -3.559  0.00  0.00     0.026 A 
ATOM     17 CL   UNL d   1       3.285   7.205  -4.935  0.00  0.00    -0.083 Cl
ATOM     18  C   UNL d   1       2.435   3.939  -2.818  0.00  0.00     0.014 A 
ENDBRANCH   3  11
TORSDOF 4
