REMARK  2 active torsions:
REMARK  status: ('A' for Active; 'I' for Inactive)
REMARK    1  A    between atoms: C_8  and  C_2 
REMARK    2  A    between atoms: S_9  and  C_5 
ROOT
ATOM      1  N   UNL d   1      -0.612   1.000  -0.587  0.00  0.00    -0.320 N 
ATOM      2  C   UNL d   1      -1.844   0.638  -0.090  0.00  0.00     0.132 A 
ATOM      3  N   UNL d   1      -1.762  -0.616   0.316  0.00  0.00    -0.283 N 
ATOM      4  HN  UNL d   1      -2.525  -1.161   0.718  1.00  0.00     0.188 HD
ATOM      5  C   UNL d   1       0.195  -0.085  -0.437  0.00  0.00     0.157 A 
ATOM      6  N   UNL d   1      -0.474  -1.068   0.107  0.00  0.00    -0.278 N 
ATOM      7  HN  UNL d   1      -0.113  -1.994   0.334  1.00  0.00     0.189 HD
ATOM      8  H   UNL d   1      -0.357   1.897  -0.961  0.00  0.00     0.169 HD
ENDROOT
BRANCH   2   9
ATOM      9  C   UNL d   1      -3.008   1.530  -0.045  0.00  0.00     0.015 A 
ATOM     10  C   UNL d   1      -3.954   1.499   1.002  0.00  0.00    -0.048 A 
ATOM     11  C   UNL d   1      -3.879   0.572   2.189  0.00  0.00     0.049 C 
ATOM     12  C   UNL d   1      -5.062   2.369   0.956  0.00  0.00     0.007 A 
ATOM     13  C   UNL d   1      -5.228   3.273  -0.092  0.00  0.00     0.001 A 
ATOM     14  C   UNL d   1      -4.295   3.315  -1.117  0.00  0.00     0.001 A 
ATOM     15  C   UNL d   1      -3.198   2.452  -1.096  0.00  0.00     0.016 A 
ENDBRANCH   2   9
BRANCH   5  16
ATOM     16  S   UNL d   1       1.846  -0.082  -0.918  0.00  0.00    -0.106 SA
ATOM     17  H   UNL d   1       1.925   1.134  -1.472  0.00  0.00     0.110 HD
ENDBRANCH   5  16
TORSDOF 2
