REMARK  10 active torsions:
REMARK  status: ('A' for Active; 'I' for Inactive)
REMARK    1  A    between atoms: C_3  and  C_1 
REMARK    2  A    between atoms: O_5  and  C_2 
REMARK    3  A    between atoms: N_6  and  C_3 
REMARK       I    between atoms: C_4  and  N_6 
REMARK    4  A    between atoms: C_12  and  C_4 
REMARK    5  A    between atoms: C_14  and  O_5 
REMARK    6  A    between atoms: C_7  and  C_13 
REMARK    7  A    between atoms: O_17  and  C_7 
REMARK    8  A    between atoms: C_9  and  C_12 
REMARK    9  A    between atoms: C_13  and  C_9 
REMARK   10  A    between atoms: O_23  and  C_16 
ROOT
ATOM      1  C   UNL d   1       0.102   1.016  -0.110  0.00  0.00     0.015 A 
ATOM      2  C   UNL d   1      -0.059  -0.005   0.850  0.00  0.00     0.085 A 
ATOM      3  C   UNL d   1       1.114   0.841  -1.081  0.00  0.00     0.044 A 
ATOM      4 CL   UNL d   1       1.389   1.971  -2.363  0.00  0.00    -0.084 Cl
ATOM      5  C   UNL d   1       0.864  -1.069   0.912  0.00  0.00     0.038 A 
ATOM      6  C   UNL d   1       1.856  -1.217  -0.049  0.00  0.00     0.004 A 
ATOM      7  C   UNL d   1       1.966  -0.272  -1.058  0.00  0.00     0.024 A 
ENDROOT
BRANCH   1   8
ATOM      8  C   UNL d   1      -0.698   2.297  -0.043  0.00  0.00     0.165 C 
BRANCH   8   9
ATOM      9  N   UNL d   1      -2.094   2.165  -0.408  0.00  0.00    -0.357 N 
ATOM     10  C   UNL d   1      -2.737   3.244  -0.986  0.00  0.00     0.218 C 
ATOM     11  O   UNL d   1      -2.158   4.250  -1.375  0.00  0.00    -0.274 OA
ATOM     12  H   UNL d   1      -2.653   1.531   0.153  0.00  0.00     0.162 HD
BRANCH  10  13
ATOM     13  C   UNL d   1      -4.239   3.086  -1.162  0.00  0.00     0.112 C 
BRANCH  13  14
ATOM     14  C   UNL d   1      -4.664   2.391  -2.480  0.00  0.00    -0.030 C 
ATOM     15  C   UNL d   1      -6.207   2.361  -2.548  0.00  0.00     0.016 C 
ATOM     16  C   UNL d   1      -4.180   3.225  -3.690  0.00  0.00     0.016 C 
BRANCH  14  17
ATOM     17  C   UNL d   1      -4.091   0.959  -2.636  0.00  0.00     0.119 C 
BRANCH  17  18
ATOM     18  C   UNL d   1      -4.402  -0.018  -1.518  0.00  0.00     0.140 C 
ATOM     19  O   UNL d   1      -5.023   0.231  -0.500  0.00  0.00    -0.650 OA
BRANCH  18  20
ATOM     20  O   UNL d   1      -3.866  -1.240  -1.748  0.00  0.00    -0.776 OA
ATOM     21  H   UNL d   1      -3.378  -1.300  -2.591  0.00  0.00     0.167 HD
ENDBRANCH  18  20
ENDBRANCH  17  18
ENDBRANCH  14  17
ENDBRANCH  13  14
ENDBRANCH  10  13
ENDBRANCH   8   9
ENDBRANCH   1   8
BRANCH   2  22
ATOM     22  O   UNL d   1      -1.124   0.065   1.742  0.00  0.00    -0.310 OA
BRANCH  22  23
ATOM     23  C   UNL d   1      -1.646  -1.140   2.188  0.00  0.00     0.076 A 
ATOM     24  C   UNL d   1      -1.878  -1.297   3.555  0.00  0.00     0.040 A 
ATOM     25  C   UNL d   1      -2.261  -2.549   4.064  0.00  0.00     0.039 A 
ATOM     26  C   UNL d   1      -2.411  -3.639   3.204  0.00  0.00     0.068 A 
ATOM     27  C   UNL d   1      -2.263  -3.452   1.830  0.00  0.00     0.039 A 
ATOM     28  C   UNL d   1      -1.908  -2.204   1.318  0.00  0.00     0.040 A 
BRANCH  26  29
ATOM     29  O   UNL d   1      -2.743  -4.912   3.578  0.00  0.00    -0.356 OA
ATOM     30  C   UNL d   1      -2.316  -5.314   4.874  0.00  0.00     0.210 C 
ENDBRANCH  26  29
ENDBRANCH  22  23
ENDBRANCH   2  22
TORSDOF 10
