REMARK  7 active torsions:
REMARK  status: ('A' for Active; 'I' for Inactive)
REMARK    1  A    between atoms: C_7  and  C_1 
REMARK    2  A    between atoms: O_19  and  C_7 
REMARK    3  A    between atoms: C_10  and  C_17 
REMARK       I    between atoms: N_11  and  C_10 
REMARK    4  A    between atoms: C_20  and  N_11 
REMARK    5  A    between atoms: O_16  and  C_15 
REMARK    6  A    between atoms: C_17  and  O_16 
REMARK    7  A    between atoms: C_21  and  O_19 
ROOT
ATOM      1  C   UNL d   1      -1.856  -1.513  -0.012  0.00  0.00     0.154 A 
ATOM      2  C   UNL d   1      -2.379  -0.289  -0.165  0.00  0.00     0.099 A 
ATOM      3  C   UNL d   1       0.362  -0.720   0.165  0.00  0.00     0.093 A 
ATOM      4  O   UNL d   1      -0.510  -1.773   0.160  0.00  0.00    -0.303 OA
ATOM      5  C   UNL d   1      -1.477   0.876  -0.151  0.00  0.00     0.187 A 
ATOM      6  C   UNL d   1      -0.040   0.600   0.015  0.00  0.00     0.048 A 
ATOM      7  C   UNL d   1       1.710  -1.036   0.311  0.00  0.00     0.075 A 
ATOM      8  C   UNL d   1       0.913   1.621   0.018  0.00  0.00     0.021 A 
ATOM      9  O   UNL d   1      -1.911   2.014  -0.269  0.00  0.00    -0.287 OA
ATOM     10  C   UNL d   1       2.680  -0.031   0.260  0.00  0.00     0.072 A 
ATOM     11  C   UNL d   1       2.273   1.301   0.138  0.00  0.00     0.038 A 
ENDROOT
BRANCH  10  12
ATOM     12  O   UNL d   1       4.038  -0.252   0.298  0.00  0.00    -0.342 OA
BRANCH  12  13
ATOM     13  C   UNL d   1       4.409  -1.610   0.084  0.00  0.00     0.278 C 
BRANCH  13  14
ATOM     14  C   UNL d   1       5.865  -1.878  -0.281  0.00  0.00     0.246 C 
ATOM     15  N   UNL d   1       6.713  -0.802  -0.121  0.00  0.00    -0.325 N 
ATOM     16  H   UNL d   1       6.325   0.011   0.342  0.00  0.00     0.169 HD
ATOM     17  O   UNL d   1       6.184  -3.008  -0.647  0.00  0.00    -0.271 OA
BRANCH  15  18
ATOM     18  C   UNL d   1       8.089  -0.785  -0.438  0.00  0.00     0.034 A 
ATOM     19  C   UNL d   1       8.704  -1.764  -1.225  0.00  0.00     0.029 A 
ATOM     20  C   UNL d   1      10.076  -1.716  -1.484  0.00  0.00     0.002 A 
ATOM     21  C   UNL d   1      10.848  -0.685  -0.959  0.00  0.00     0.000 A 
ATOM     22  C   UNL d   1      10.242   0.308  -0.192  0.00  0.00     0.002 A 
ATOM     23  C   UNL d   1       8.866   0.266   0.058  0.00  0.00     0.029 A 
ENDBRANCH  15  18
ENDBRANCH  13  14
ENDBRANCH  12  13
ENDBRANCH  10  12
BRANCH   1  24
ATOM     24  C   UNL d   1      -2.787  -2.676   0.047  0.00  0.00     0.317 C 
ATOM     25  O   UNL d   1      -4.003  -2.599   0.023  0.00  0.00    -0.257 OA
BRANCH  24  26
ATOM     26  O   UNL d   1      -2.053  -3.806   0.226  0.00  0.00    -0.316 OA
BRANCH  26  27
ATOM     27  C   UNL d   1      -2.768  -4.952   0.702  0.00  0.00     0.175 C 
ATOM     28  C   UNL d   1      -2.770  -4.908   2.219  0.00  0.00     0.034 C 
ENDBRANCH  26  27
ENDBRANCH  24  26
ENDBRANCH   1  24
TORSDOF 7
