REMARK  10 active torsions:
REMARK  status: ('A' for Active; 'I' for Inactive)
REMARK    1  A    between atoms: C_17  and  N_1 
REMARK    2  A    between atoms: C_15  and  C_2 
REMARK    3  A    between atoms: S_10  and  C_5 
REMARK    4  A    between atoms: C_8  and  N_11 
REMARK    5  A    between atoms: N_12  and  C_8 
REMARK    6  A    between atoms: C_9  and  C_18 
REMARK       I    between atoms: N_13  and  C_9 
REMARK    7  A    between atoms: C_18  and  S_10 
REMARK    8  A    between atoms: N_11  and  N_13 
REMARK    9  A    between atoms: C_21  and  N_12 
REMARK   10  A    between atoms: C_19  and  C_17 
ROOT
ATOM      1  S   UNL d   1      -2.866  -0.056  -0.008  0.00  0.00    -0.083 SA
ENDROOT
BRANCH   1   2
ATOM      2  C   UNL d   1      -1.159  -0.333  -0.025  0.00  0.00     0.163 A 
ATOM      3  N   UNL d   1      -0.221   0.592  -0.417  0.00  0.00    -0.307 N 
ATOM      4  C   UNL d   1       1.012  -0.004  -0.177  0.00  0.00     0.135 A 
ATOM      5  N   UNL d   1       0.782  -1.229   0.273  0.00  0.00    -0.283 N 
ATOM      6  N   UNL d   1      -0.567  -1.431   0.378  0.00  0.00    -0.278 N 
ATOM      7  HN  UNL d   1       1.500  -1.916   0.504  1.00  0.00     0.188 HD
ATOM      8  HN  UNL d   1      -1.027  -2.279   0.708  1.00  0.00     0.189 HD
BRANCH   3   9
ATOM      9  C   UNL d   1      -0.490   1.913  -0.962  0.00  0.00     0.159 C 
BRANCH   9  10
ATOM     10  C   UNL d   1      -0.026   2.091  -2.381  0.00  0.00    -0.017 C 
ATOM     11  C   UNL d   1      -0.828   2.419  -3.404  0.00  0.00     0.008 C 
ENDBRANCH   9  10
ENDBRANCH   3   9
BRANCH   4  12
ATOM     12  C   UNL d   1       2.366   0.527  -0.430  0.00  0.00     0.009 A 
ATOM     13  C   UNL d   1       2.720   1.877  -0.293  0.00  0.00     0.015 A 
ATOM     14  C   UNL d   1       4.016   2.318  -0.590  0.00  0.00     0.001 A 
ATOM     15  C   UNL d   1       4.993   1.411  -0.985  0.00  0.00     0.000 A 
ATOM     16  C   UNL d   1       4.678   0.060  -1.077  0.00  0.00     0.001 A 
ATOM     17  C   UNL d   1       3.377  -0.375  -0.803  0.00  0.00     0.015 A 
ENDBRANCH   4  12
ENDBRANCH   1   2
BRANCH   1  18
ATOM     18  C   UNL d   1      -3.514  -1.757  -0.009  0.00  0.00     0.186 C 
BRANCH  18  19
ATOM     19  C   UNL d   1      -5.037  -1.713  -0.025  0.00  0.00     0.245 C 
ATOM     20  N   UNL d   1      -5.648  -2.544   0.899  0.00  0.00    -0.267 N 
ATOM     21  H   UNL d   1      -5.128  -2.977   1.658  0.00  0.00     0.190 HD
ATOM     22  O   UNL d   1      -5.698  -1.008  -0.791  0.00  0.00    -0.271 OA
BRANCH  20  23
ATOM     23  N   UNL d   1      -7.022  -2.337   1.138  0.00  0.00    -0.274 N 
ATOM     24  H   UNL d   1      -7.458  -1.699   0.469  0.00  0.00     0.189 HD
BRANCH  23  25
ATOM     25  C   UNL d   1      -7.824  -3.334   1.615  0.00  0.00     0.191 C 
ATOM     26  S   UNL d   1      -7.383  -4.952   1.697  0.00  0.00    -0.039 SA
BRANCH  25  27
ATOM     27  N   UNL d   1      -9.052  -2.998   2.115  0.00  0.00    -0.332 N 
ATOM     28  H   UNL d   1      -9.573  -3.821   2.402  0.00  0.00     0.168 HD
BRANCH  27  29
ATOM     29  C   UNL d   1      -9.595  -1.767   2.557  0.00  0.00     0.034 A 
ATOM     30  C   UNL d   1      -9.021  -0.508   2.369  0.00  0.00     0.029 A 
ATOM     31  C   UNL d   1      -9.608   0.638   2.920  0.00  0.00     0.002 A 
ATOM     32  C   UNL d   1     -10.768   0.539   3.680  0.00  0.00     0.000 A 
ATOM     33  C   UNL d   1     -11.358  -0.705   3.871  0.00  0.00     0.002 A 
ATOM     34  C   UNL d   1     -10.782  -1.846   3.303  0.00  0.00     0.029 A 
ENDBRANCH  27  29
ENDBRANCH  25  27
ENDBRANCH  23  25
ENDBRANCH  20  23
ENDBRANCH  18  19
ENDBRANCH   1  18
TORSDOF 10
