REMARK  10 active torsions:
REMARK  status: ('A' for Active; 'I' for Inactive)
REMARK    1  A    between atoms: O_5  and  C_1 
REMARK       I    between atoms: C_2  and  N_3 
REMARK    2  A    between atoms: C_26  and  C_2 
REMARK    3  A    between atoms: N_3  and  C_13 
REMARK    4  A    between atoms: C_4  and  C_27 
REMARK    5  A    between atoms: O_17  and  C_4 
REMARK    6  A    between atoms: C_14  and  O_5 
REMARK    7  A    between atoms: O_8  and  C_16 
REMARK    8  A    between atoms: C_15  and  O_8 
REMARK    9  A    between atoms: S_12  and  C_26 
REMARK   10  A    between atoms: C_27  and  S_12 
ROOT
ATOM      1  C   UNL d   1       6.223   6.133  -3.401  0.00  0.00     0.034 A 
ATOM      2  C   UNL d   1       3.478   5.522  -3.442  0.00  0.00     0.076 A 
ATOM      3  C   UNL d   1       5.747   5.039  -4.126  0.00  0.00     0.032 A 
ATOM      4  C   UNL d   1       5.310   6.912  -2.679  0.00  0.00     0.032 A 
ATOM      5  C   UNL d   1       3.949   6.591  -2.674  0.00  0.00     0.039 A 
ATOM      6  C   UNL d   1       4.382   4.731  -4.143  0.00  0.00     0.039 A 
ENDROOT
BRANCH   2   7
ATOM      7  O   UNL d   1       2.149   5.165  -3.537  0.00  0.00    -0.311 OA
BRANCH   7   8
ATOM      8  C   UNL d   1       1.204   6.166  -3.555  0.00  0.00     0.076 C 
ATOM      9  C   UNL d   1       1.402   7.394  -4.188  0.00  0.00     0.040 C 
ATOM     10  C   UNL d   1       0.454   8.403  -4.049  0.00  0.00     0.040 C 
ATOM     11  C   UNL d   1      -0.724   8.182  -3.328  0.00  0.00     0.078 C 
ATOM     12  C   UNL d   1      -0.984   6.905  -2.829  0.00  0.00     0.040 C 
ATOM     13  C   UNL d   1      -0.012   5.904  -2.927  0.00  0.00     0.040 C 
BRANCH  11  14
ATOM     14  O   UNL d   1      -1.527   9.273  -3.225  0.00  0.00    -0.255 OA
BRANCH  14  15
ATOM     15  C   UNL d   1      -2.420   9.393  -2.127  0.00  0.00     0.530 C 
ATOM     16  F   UNL d   1      -2.203   8.506  -1.134  0.00  0.00    -0.144 F 
ATOM     17  F   UNL d   1      -3.688   9.256  -2.569  0.00  0.00    -0.144 F 
ATOM     18  F   UNL d   1      -2.287  10.633  -1.603  0.00  0.00    -0.144 F 
ENDBRANCH  14  15
ENDBRANCH  11  14
ENDBRANCH   7   8
ENDBRANCH   2   7
BRANCH   1  19
ATOM     19  N   UNL d   1       7.583   6.498  -3.323  0.00  0.00    -0.327 N 
ATOM     20  C   UNL d   1       8.659   5.825  -3.870  0.00  0.00     0.231 C 
ATOM     21  O   UNL d   1       8.609   4.798  -4.557  0.00  0.00    -0.272 OA
ATOM     22  H   UNL d   1       7.795   7.299  -2.737  0.00  0.00     0.169 HD
BRANCH  20  23
ATOM     23  C   UNL d   1      10.010   6.385  -3.473  0.00  0.00     0.177 C 
BRANCH  23  24
ATOM     24  S   UNL d   1      10.609   5.581  -1.950  0.00  0.00    -0.149 SA
BRANCH  24  25
ATOM     25  C   UNL d   1      10.522   3.814  -2.411  0.00  0.00     0.184 C 
BRANCH  25  26
ATOM     26  C   UNL d   1      11.414   3.465  -3.582  0.00  0.00     0.149 C 
ATOM     27  O   UNL d   1      12.606   3.210  -3.476  0.00  0.00    -0.649 OA
BRANCH  26  28
ATOM     28  O   UNL d   1      10.793   3.467  -4.784  0.00  0.00    -0.776 OA
ATOM     29  H   UNL d   1       9.842   3.739  -4.766  0.00  0.00     0.167 HD
ENDBRANCH  26  28
ENDBRANCH  25  26
ENDBRANCH  24  25
ENDBRANCH  23  24
ENDBRANCH  20  23
ENDBRANCH   1  19
TORSDOF 10
