REMARK  4 active torsions:
REMARK  status: ('A' for Active; 'I' for Inactive)
REMARK    1  A    between atoms: C_7  and  C_1 
REMARK    2  A    between atoms: C_3  and  C_2 
REMARK    3  A    between atoms: O_10  and  C_3 
REMARK    4  A    between atoms: C_6  and  O_10 
ROOT
ATOM      1  C   UNL d   1      -1.272  -0.705   0.556  0.00  0.00     0.087 A 
ATOM      2  C   UNL d   1       0.062  -1.161   0.316  0.00  0.00     0.100 A 
ATOM      3  N   UNL d   1      -1.318   0.635   0.441  0.00  0.00    -0.259 N 
ATOM      4  HN  UNL d   1      -2.151   1.220   0.513  1.00  0.00     0.195 HD
ATOM      5  O   UNL d   1      -0.037   1.067   0.209  0.00  0.00    -0.241 OA
ATOM      6  C   UNL d   1       0.790  -0.000   0.133  0.00  0.00     0.091 A 
ATOM      7  C   UNL d   1       2.218   0.300  -0.095  0.00  0.00     0.080 C 
ENDROOT
BRANCH   2   8
ATOM      8  C   UNL d   1       0.662  -2.469   0.227  0.00  0.00     0.304 C 
ATOM      9  O   UNL d   1       1.511  -2.714  -0.627  0.00  0.00    -0.259 OA
BRANCH   8  10
ATOM     10  O   UNL d   1       0.260  -3.333   1.201  0.00  0.00    -0.255 OA
BRANCH  10  11
ATOM     11  C   UNL d   1       1.019  -4.445   1.320  0.00  0.00     0.184 A 
ATOM     12  N   UNL d   1       0.377  -5.612   1.389  0.00  0.00    -0.238 N 
ATOM     13  O   UNL d   1       1.391  -6.570   1.427  0.00  0.00    -0.235 OA
ATOM     14  HN  UNL d   1      -0.631  -5.769   1.410  1.00  0.00     0.197 HD
ATOM     15  C   UNL d   1       2.607  -5.951   1.434  0.00  0.00     0.113 A 
ATOM     16  C   UNL d   1       2.427  -4.579   1.412  0.00  0.00     0.053 A 
ATOM     17  C   UNL d   1       3.853  -6.575   1.454  0.00  0.00     0.040 A 
ATOM     18  C   UNL d   1       3.561  -3.746   1.451  0.00  0.00     0.019 A 
ATOM     19  C   UNL d   1       4.830  -4.342   1.479  0.00  0.00     0.001 A 
ATOM     20  C   UNL d   1       4.971  -5.732   1.472  0.00  0.00     0.003 A 
ENDBRANCH  10  11
ENDBRANCH   8  10
ENDBRANCH   2   8
BRANCH   1  21
ATOM     21  C   UNL d   1      -2.518  -1.436   0.833  0.00  0.00     0.037 A 
ATOM     22  C   UNL d   1      -3.366  -1.041   1.895  0.00  0.00     0.048 A 
ATOM     23 CL   UNL d   1      -2.968   0.226   3.014  0.00  0.00    -0.083 Cl
ATOM     24  C   UNL d   1      -4.593  -1.681   2.123  0.00  0.00     0.025 A 
ATOM     25  C   UNL d   1      -4.990  -2.746   1.325  0.00  0.00     0.003 A 
ATOM     26  C   UNL d   1      -4.169  -3.158   0.280  0.00  0.00     0.025 A 
ATOM     27  C   UNL d   1      -2.957  -2.499   0.020  0.00  0.00     0.048 A 
ATOM     28 CL   UNL d   1      -2.099  -3.034  -1.386  0.00  0.00    -0.083 Cl
ENDBRANCH   1  21
TORSDOF 4
