REMARK  2 active torsions:
REMARK  status: ('A' for Active; 'I' for Inactive)
REMARK       I    between atoms: N_2  and  C_1 
REMARK    1  A    between atoms: C_3  and  C_1 
REMARK    2  A    between atoms: C_5  and  C_4 
ROOT
ATOM      1  C   UNL d   1      -1.762   2.089  -1.830  0.00  0.00    -0.025 A 
ATOM      2  C   UNL d   1      -2.183   1.836  -3.163  0.00  0.00    -0.016 A 
ATOM      3  C   UNL d   1      -2.801   2.888  -3.887  0.00  0.00    -0.025 A 
ATOM      4  C   UNL d   1      -2.583   4.369  -1.971  0.00  0.00     0.002 A 
ATOM      5  C   UNL d   1      -1.968   3.351  -1.251  0.00  0.00     0.012 A 
ATOM      6  C   UNL d   1      -2.033   0.588  -3.810  0.00  0.00     0.013 A 
ATOM      7  C   UNL d   1      -2.993   4.139  -3.281  0.00  0.00     0.012 A 
ATOM      8  C   UNL d   1      -3.228   2.673  -5.208  0.00  0.00     0.012 A 
ATOM      9  C   UNL d   1      -2.467   0.390  -5.124  0.00  0.00     0.001 A 
ATOM     10  C   UNL d   1      -3.062   1.433  -5.822  0.00  0.00     0.001 A 
ENDROOT
BRANCH   1  11
ATOM     11  C   UNL d   1      -1.124   1.081  -0.975  0.00  0.00     0.018 C 
ATOM     12  C   UNL d   1       0.198   0.847  -0.987  0.00  0.00     0.075 C 
BRANCH  12  13
ATOM     13  C   UNL d   1       0.746  -0.068   0.044  0.00  0.00     0.243 C 
ATOM     14  N   UNL d   1       1.732  -0.956  -0.348  0.00  0.00    -0.349 N 
ATOM     15  C   UNL d   1       2.146  -1.237  -1.724  0.00  0.00     0.126 C 
ATOM     16  C   UNL d   1       2.298  -1.854   0.656  0.00  0.00     0.126 C 
ATOM     17  C   UNL d   1       1.819  -2.683  -2.102  0.00  0.00     0.020 C 
ATOM     18  C   UNL d   1       2.368  -3.677  -1.075  0.00  0.00     0.003 C 
ATOM     19  C   UNL d   1       1.936  -3.303   0.343  0.00  0.00     0.020 C 
ATOM     20  O   UNL d   1       0.320   0.004   1.195  0.00  0.00    -0.268 OA
ENDBRANCH  12  13
ENDBRANCH   1  11
TORSDOF 2
