REMARK  4 active torsions:
REMARK  status: ('A' for Active; 'I' for Inactive)
REMARK    1  A    between atoms: C_5  and  C_1 
REMARK    2  A    between atoms: O_13  and  C_1 
REMARK    3  A    between atoms: C_7  and  C_5 
REMARK    4  A    between atoms: C_10  and  C_7 
ROOT
ATOM      1  C   UNL d   1      -1.284  -1.458  -0.029  0.00  0.00     0.174 A 
ATOM      2  C   UNL d   1      -2.281  -0.283   0.245  0.00  0.00     0.262 A 
ATOM      3  C   UNL d   1       0.045  -0.814   0.273  0.00  0.00     0.014 A 
ATOM      4  N   UNL d   1      -1.523   0.788   0.719  0.00  0.00    -0.324 N 
ATOM      5  C   UNL d   1      -0.165   0.504   0.686  0.00  0.00     0.044 A 
ATOM      6  C   UNL d   1       1.327  -1.316   0.127  0.00  0.00     0.032 A 
ATOM      7  O   UNL d   1      -3.495  -0.300   0.136  0.00  0.00    -0.269 OA
ATOM      8  C   UNL d   1       0.875   1.369   0.949  0.00  0.00     0.031 A 
ATOM      9  C   UNL d   1       2.393  -0.444   0.360  0.00  0.00     0.011 A 
ATOM     10  C   UNL d   1       2.175   0.885   0.766  0.00  0.00     0.021 A 
ATOM     11 BR   UNL d   1       4.162  -1.051   0.071  0.00  0.00    -0.051 Br
ATOM     12  H   UNL d   1      -1.931   1.687   0.929  0.00  0.00     0.169 HD
ENDROOT
BRANCH   1  13
ATOM     13  C   UNL d   1      -1.430  -2.034  -1.435  0.00  0.00     0.137 C 
BRANCH  13  14
ATOM     14  C   UNL d   1      -1.128  -1.066  -2.567  0.00  0.00     0.163 C 
ATOM     15  O   UNL d   1      -0.977   0.140  -2.390  0.00  0.00    -0.292 OA
BRANCH  14  16
ATOM     16  C   UNL d   1      -1.004  -1.609  -3.955  0.00  0.00     0.010 A 
ATOM     17  C   UNL d   1      -1.232  -2.960  -4.253  0.00  0.00     0.018 A 
ATOM     18  C   UNL d   1      -1.055  -3.430  -5.558  0.00  0.00     0.043 A 
ATOM     19  C   UNL d   1      -0.662  -2.553  -6.561  0.00  0.00     0.116 A 
ATOM     20  C   UNL d   1      -0.455  -1.206  -6.291  0.00  0.00     0.043 A 
ATOM     21  F   UNL d   1      -0.476  -3.014  -7.804  0.00  0.00    -0.206 F 
ATOM     22  C   UNL d   1      -0.627  -0.733  -4.987  0.00  0.00     0.018 A 
ENDBRANCH  14  16
ENDBRANCH  13  14
ENDBRANCH   1  13
BRANCH   1  23
ATOM     23  O   UNL d   1      -1.485  -2.527   0.900  0.00  0.00    -0.375 OA
ATOM     24  H   UNL d   1      -1.372  -2.154   1.792  0.00  0.00     0.211 HD
ENDBRANCH   1  23
TORSDOF 4
