REMARK  5 active torsions:
REMARK  status: ('A' for Active; 'I' for Inactive)
REMARK       I    between atoms: C_2  and  N_1 
REMARK    1  A    between atoms: C_3  and  N_1 
REMARK       I    between atoms: N_4  and  C_2 
REMARK    2  A    between atoms: C_5  and  N_4 
REMARK    3  A    between atoms: O_13  and  C_10 
REMARK    4  A    between atoms: C_19  and  O_13 
REMARK    5  A    between atoms: C_17  and  C_19 
ROOT
ATOM      1  C   UNL d   1       2.669   0.190  -0.232  0.00  0.00     0.143 A 
ATOM      2  N   UNL d   1       3.083  -1.087  -0.421  0.00  0.00    -0.350 N 
ATOM      3  HN  UNL d   1       2.452  -1.803  -0.780  1.00  0.00     0.166 HD
ATOM      4  C   UNL d   1       3.531   1.214   0.220  0.00  0.00     0.113 A 
ATOM      5  C   UNL d   1       4.369  -1.369  -0.113  0.00  0.00     0.090 A 
ATOM      6  C   UNL d   1       4.846   0.875   0.535  0.00  0.00     0.042 A 
ATOM      7  C   UNL d   1       5.274  -0.437   0.367  0.00  0.00     0.020 A 
ENDROOT
BRANCH   1   8
ATOM      8  N   UNL d   1       1.324   0.482  -0.434  0.00  0.00    -0.292 N 
ATOM      9  C   UNL d   1       0.283  -0.276  -0.873  0.00  0.00     0.326 C 
ATOM     10  N   UNL d   1       0.495  -1.580  -1.255  0.00  0.00    -0.308 N 
ATOM     11  O   UNL d   1      -0.807   0.303  -0.897  0.00  0.00    -0.247 OA
ATOM     12  H   UNL d   1       1.343  -2.001  -0.890  0.00  0.00     0.170 HD
ATOM     13  H   UNL d   1       1.028   1.416  -0.182  0.00  0.00     0.172 HD
BRANCH  10  14
ATOM     14  C   UNL d   1      -0.498  -2.416  -1.879  0.00  0.00     0.047 A 
ATOM     15  C   UNL d   1      -0.484  -3.851  -1.798  0.00  0.00     0.001 A 
ATOM     16  C   UNL d   1      -1.571  -4.578  -2.382  0.00  0.00    -0.024 A 
ATOM     17  C   UNL d   1       0.511  -4.637  -1.162  0.00  0.00     0.014 A 
ATOM     18  C   UNL d   1      -1.652  -5.977  -2.288  0.00  0.00     0.012 A 
ATOM     19  C   UNL d   1      -2.592  -3.909  -3.062  0.00  0.00     0.012 A 
ATOM     20  C   UNL d   1      -0.660  -6.707  -1.645  0.00  0.00     0.001 A 
ATOM     21  C   UNL d   1       0.425  -6.040  -1.094  0.00  0.00     0.001 A 
ATOM     22  C   UNL d   1      -2.561  -2.532  -3.196  0.00  0.00     0.003 A 
ATOM     23  C   UNL d   1      -1.527  -1.802  -2.615  0.00  0.00     0.030 A 
ENDBRANCH  10  14
ENDBRANCH   1   8
BRANCH   4  24
ATOM     24  O   UNL d   1       3.137   2.498   0.535  0.00  0.00    -0.343 OA
BRANCH  24  25
ATOM     25  C   UNL d   1       3.078   3.385  -0.596  0.00  0.00     0.214 C 
BRANCH  25  26
ATOM     26  C   UNL d   1       3.653   4.772  -0.313  0.00  0.00    -0.032 A 
ATOM     27  C   UNL d   1       3.033   5.911  -0.867  0.00  0.00     0.035 A 
ATOM     28  C   UNL d   1       3.586   7.191  -0.729  0.00  0.00     0.056 A 
ATOM     29 CL   UNL d   1       2.752   8.519  -1.464  0.00  0.00    -0.083 Cl
ATOM     30  C   UNL d   1       4.783   7.365  -0.034  0.00  0.00     0.055 A 
ATOM     31  C   UNL d   1       5.411   6.249   0.529  0.00  0.00     0.026 A 
ATOM     32 CL   UNL d   1       5.546   8.906   0.152  0.00  0.00    -0.083 Cl
ATOM     33  C   UNL d   1       4.853   4.966   0.388  0.00  0.00     0.011 A 
ENDBRANCH  25  26
ENDBRANCH  24  25
ENDBRANCH   4  24
TORSDOF 5
