REMARK  7 active torsions:
REMARK  status: ('A' for Active; 'I' for Inactive)
REMARK    1  A    between atoms: S_10  and  C_3 
REMARK    2  A    between atoms: C_9  and  C_6 
REMARK    3  A    between atoms: O_11  and  C_8 
REMARK    4  A    between atoms: O_16  and  C_9 
REMARK    5  A    between atoms: O_17  and  C_9 
REMARK    6  A    between atoms: C_12  and  S_10 
REMARK    7  A    between atoms: C_14  and  C_12 
ROOT
ATOM      1  N   UNL d   1      -0.394  -1.183   0.128  0.00  0.00    -0.318 N 
ATOM      2  HN  UNL d   1      -0.972  -2.024   0.116  1.00  0.00     0.170 HD
ATOM      3  C   UNL d   1       0.943  -1.239   0.212  0.00  0.00     0.146 A 
ATOM      4  N   UNL d   1       1.747  -0.168   0.200  0.00  0.00    -0.336 N 
ATOM      5  HN  UNL d   1       2.760  -0.271   0.268  1.00  0.00     0.168 HD
ATOM      6  C   UNL d   1       1.175   1.058   0.093  0.00  0.00     0.070 A 
ATOM      7  C   UNL d   1      -0.199   1.209   0.044  0.00  0.00     0.086 A 
ATOM      8  C   UNL d   1      -0.923   0.044   0.059  0.00  0.00     0.143 A 
ENDROOT
BRANCH   3   9
ATOM      9  S   UNL d   1       1.732  -2.820   0.338  0.00  0.00    -0.089 SA
BRANCH   9  10
ATOM     10  C   UNL d   1       0.553  -3.820  -0.613  0.00  0.00     0.121 C 
BRANCH  10  11
ATOM     11  C   UNL d   1       0.955  -5.279  -0.647  0.00  0.00    -0.048 A 
ATOM     12  C   UNL d   1       0.518  -6.154   0.359  0.00  0.00     0.009 A 
ATOM     13  C   UNL d   1       0.875  -7.503   0.331  0.00  0.00     0.024 A 
ATOM     14  C   UNL d   1       1.680  -7.984  -0.697  0.00  0.00     0.034 A 
ATOM     15  C   UNL d   1       2.137  -7.125  -1.696  0.00  0.00     0.024 A 
ATOM     16 CL   UNL d   1       2.112  -9.650  -0.739  0.00  0.00    -0.084 Cl
ATOM     17  C   UNL d   1       1.779  -5.774  -1.669  0.00  0.00     0.009 A 
ENDBRANCH  10  11
ENDBRANCH   9  10
ENDBRANCH   3   9
BRANCH   8  18
ATOM     18  O   UNL d   1      -2.285   0.060  -0.035  0.00  0.00    -0.346 OA
ATOM     19  H   UNL d   1      -2.591   0.977  -0.003  0.00  0.00     0.219 HD
ENDBRANCH   8  18
BRANCH   6  20
ATOM     20  C   UNL d   1       2.082   2.284  -0.025  0.00  0.00     0.309 C 
BRANCH  20  21
ATOM     21  O   UNL d   1       2.262   2.821   1.291  0.00  0.00    -0.360 OA
ATOM     22  C   UNL d   1       2.994   4.038   1.281  0.00  0.00     0.205 C 
ENDBRANCH  20  21
BRANCH  20  23
ATOM     23  O   UNL d   1       3.347   1.981  -0.623  0.00  0.00    -0.360 OA
ATOM     24  C   UNL d   1       3.249   1.592  -1.984  0.00  0.00     0.205 C 
ENDBRANCH  20  23
ENDBRANCH   6  20
TORSDOF 7
