REMARK  5 active torsions:
REMARK  status: ('A' for Active; 'I' for Inactive)
REMARK    1  A    between atoms: C_4  and  N_1 
REMARK    2  A    between atoms: C_2  and  C_11 
REMARK       I    between atoms: N_3  and  C_2 
REMARK    3  A    between atoms: C_7  and  N_3 
REMARK    4  A    between atoms: C_12  and  C_7 
REMARK    5  A    between atoms: C_11  and  C_13 
ROOT
ATOM      1  C   UNL d   1      -1.017   4.285  -3.835  0.00  0.00     0.222 C 
ATOM      2  N   UNL d   1      -0.474   3.391  -4.740  0.00  0.00    -0.353 N 
ATOM      3  O   UNL d   1      -1.177   4.000  -2.647  0.00  0.00    -0.273 OA
ATOM      4  H   UNL d   1      -0.347   3.654  -5.705  0.00  0.00     0.163 HD
ENDROOT
BRANCH   1   5
ATOM      5  C   UNL d   1      -1.413   5.639  -4.401  0.00  0.00     0.141 C 
BRANCH   5   6
ATOM      6  C   UNL d   1      -0.835   6.869  -3.714  0.00  0.00    -0.049 A 
ATOM      7  C   UNL d   1       0.042   6.812  -2.618  0.00  0.00     0.010 A 
ATOM      8  C   UNL d   1       0.587   7.978  -2.067  0.00  0.00     0.036 A 
ATOM      9  C   UNL d   1       0.257   9.222  -2.613  0.00  0.00     0.102 A 
ATOM     10  C   UNL d   1      -0.645   9.308  -3.679  0.00  0.00     0.036 A 
ATOM     11  C   UNL d   1      -1.186   8.136  -4.219  0.00  0.00     0.010 A 
BRANCH   9  12
ATOM     12  N   UNL d   1       0.883  10.441  -2.085  0.00  0.00    -0.116 N 
ATOM     13  O   UNL d   1       0.590  11.519  -2.622  0.00  0.00    -0.532 OA
ATOM     14  O   UNL d   1       1.681  10.320  -1.144  0.00  0.00    -0.532 OA
ENDBRANCH   9  12
ENDBRANCH   5   6
ENDBRANCH   1   5
BRANCH   2  15
ATOM     15  C   UNL d   1       0.095   2.125  -4.291  0.00  0.00     0.113 C 
ATOM     16  C   UNL d   1       1.613   2.257  -4.146  0.00  0.00     0.037 C 
BRANCH  15  17
ATOM     17  C   UNL d   1      -0.367   0.961  -5.157  0.00  0.00    -0.036 A 
ATOM     18  C   UNL d   1       0.463   0.297  -6.074  0.00  0.00     0.009 A 
ATOM     19  C   UNL d   1       0.033  -0.869  -6.714  0.00  0.00     0.001 A 
ATOM     20  C   UNL d   1      -1.240  -1.379  -6.465  0.00  0.00     0.000 A 
ATOM     21  C   UNL d   1      -2.096  -0.703  -5.601  0.00  0.00     0.001 A 
ATOM     22  C   UNL d   1      -1.667   0.461  -4.960  0.00  0.00     0.009 A 
ENDBRANCH  15  17
ENDBRANCH   2  15
TORSDOF 5
