REMARK  3 active torsions:
REMARK  status: ('A' for Active; 'I' for Inactive)
REMARK    1  A    between atoms: C_9  and  C_1 
REMARK    2  A    between atoms: O_13  and  C_9 
REMARK    3  A    between atoms: C_16  and  O_13 
ROOT
ATOM      1  C   UNL d   1       1.568   1.248  -0.036  0.00  0.00     0.138 A 
ATOM      2  N   UNL d   1       0.259   0.782  -0.021  0.00  0.00    -0.301 N 
ATOM      3  C   UNL d   1       0.335  -0.612  -0.008  0.00  0.00     0.113 A 
ATOM      4  N   UNL d   1       1.579  -1.035  -0.002  0.00  0.00    -0.344 N 
ATOM      5  HN  UNL d   1       1.902  -2.003   0.012  1.00  0.00     0.167 HD
ATOM      6  C   UNL d   1       2.349   0.096  -0.020  0.00  0.00     0.040 A 
ATOM      7  C   UNL d   1      -0.974   1.447  -0.010  0.00  0.00     0.099 A 
ATOM      8  C   UNL d   1      -0.878  -1.351   0.003  0.00  0.00     0.056 A 
ATOM      9  C   UNL d   1      -2.121   0.745   0.002  0.00  0.00     0.024 A 
ATOM     10  C   UNL d   1      -2.072  -0.713   0.005  0.00  0.00    -0.057 A 
ATOM     11  C   UNL d   1       3.829  -0.014  -0.003  0.00  0.00     0.071 C 
ATOM     12  C   UNL d   1      -3.365  -1.469   0.009  0.00  0.00     0.048 C 
ENDROOT
BRANCH   1  13
ATOM     13  C   UNL d   1       2.077   2.595  -0.010  0.00  0.00     0.312 C 
ATOM     14  O   UNL d   1       3.264   2.890   0.033  0.00  0.00    -0.258 OA
BRANCH  13  15
ATOM     15  O   UNL d   1       1.073   3.508   0.074  0.00  0.00    -0.317 OA
BRANCH  15  16
ATOM     16  C   UNL d   1       1.451   4.757   0.670  0.00  0.00     0.175 C 
ATOM     17  C   UNL d   1       1.317   4.595   2.175  0.00  0.00     0.034 C 
ENDBRANCH  15  16
ENDBRANCH  13  15
ENDBRANCH   1  13
TORSDOF 3
