REMARK  10 active torsions:
REMARK  status: ('A' for Active; 'I' for Inactive)
REMARK    1  A    between atoms: S_9  and  C_2 
REMARK    2  A    between atoms: C_19  and  C_7 
REMARK    3  A    between atoms: C_8  and  O_12 
REMARK    4  A    between atoms: C_21  and  S_9 
REMARK    5  A    between atoms: C_10  and  C_28 
REMARK       I    between atoms: N_11  and  C_10 
REMARK    6  A    between atoms: C_23  and  N_11 
REMARK    7  A    between atoms: O_12  and  C_20 
REMARK    8  A    between atoms: S_17  and  C_19 
REMARK    9  A    between atoms: C_28  and  S_17 
REMARK   10  A    between atoms: C_22  and  C_21 
ROOT
ATOM      1  N   UNL d   1       0.468   0.064  -0.307  0.00  0.00    -0.319 N 
ATOM      2  C   UNL d   1      -0.389   1.129  -0.196  0.00  0.00     0.162 A 
ATOM      3  N   UNL d   1      -1.590   0.692   0.102  0.00  0.00    -0.278 N 
ATOM      4  HN  UNL d   1      -2.419   1.267   0.249  1.00  0.00     0.189 HD
ATOM      5  N   UNL d   1      -1.533  -0.682   0.181  0.00  0.00    -0.286 N 
ATOM      6  HN  UNL d   1      -2.315  -1.300   0.394  1.00  0.00     0.188 HD
ATOM      7  C   UNL d   1      -0.293  -1.062  -0.066  0.00  0.00     0.109 A 
ATOM      8  C   UNL d   1       1.870   0.079  -0.634  0.00  0.00     0.159 C 
ENDROOT
BRANCH   2   9
ATOM      9  S   UNL d   1       0.075   2.782  -0.450  0.00  0.00    -0.088 SA
BRANCH   9  10
ATOM     10  C   UNL d   1      -1.412   3.673   0.109  0.00  0.00     0.121 C 
BRANCH  10  11
ATOM     11  C   UNL d   1      -1.269   5.185   0.044  0.00  0.00    -0.048 A 
ATOM     12  C   UNL d   1      -2.103   5.940  -0.790  0.00  0.00     0.011 A 
ATOM     13  C   UNL d   1      -2.036   7.339  -0.793  0.00  0.00     0.037 A 
ATOM     14  C   UNL d   1      -1.146   8.020   0.043  0.00  0.00     0.078 A 
ATOM     15  C   UNL d   1      -0.279   7.279   0.840  0.00  0.00     0.037 A 
ATOM     16  C   UNL d   1      -0.352   5.874   0.854  0.00  0.00     0.011 A 
BRANCH  14  17
ATOM     17  O   UNL d   1      -1.208   9.375  -0.061  0.00  0.00    -0.255 OA
BRANCH  17  18
ATOM     18  C   UNL d   1      -0.824  10.200   1.030  0.00  0.00     0.530 C 
ATOM     19  F   UNL d   1      -0.661   9.541   2.195  0.00  0.00    -0.144 F 
ATOM     20  F   UNL d   1       0.325  10.843   0.725  0.00  0.00    -0.144 F 
ATOM     21  F   UNL d   1      -1.786  11.134   1.217  0.00  0.00    -0.144 F 
ENDBRANCH  17  18
ENDBRANCH  14  17
ENDBRANCH  10  11
ENDBRANCH   9  10
ENDBRANCH   2   9
BRANCH   7  22
ATOM     22  C   UNL d   1       0.194  -2.471  -0.136  0.00  0.00     0.152 C 
BRANCH  22  23
ATOM     23  S   UNL d   1       1.036  -3.021   1.395  0.00  0.00    -0.152 SA
BRANCH  23  24
ATOM     24  C   UNL d   1      -0.421  -3.128   2.480  0.00  0.00     0.177 C 
BRANCH  24  25
ATOM     25  C   UNL d   1      -0.151  -3.567   3.916  0.00  0.00     0.231 C 
ATOM     26  N   UNL d   1       1.088  -4.126   4.179  0.00  0.00    -0.327 N 
ATOM     27  H   UNL d   1       1.736  -4.145   3.397  0.00  0.00     0.169 HD
ATOM     28  O   UNL d   1      -1.054  -3.442   4.739  0.00  0.00    -0.272 OA
BRANCH  26  29
ATOM     29  C   UNL d   1       1.560  -4.623   5.417  0.00  0.00     0.034 A 
ATOM     30  C   UNL d   1       0.793  -4.660   6.587  0.00  0.00     0.029 A 
ATOM     31  C   UNL d   1       1.326  -5.157   7.784  0.00  0.00     0.002 A 
ATOM     32  C   UNL d   1       2.635  -5.627   7.827  0.00  0.00     0.000 A 
ATOM     33  C   UNL d   1       3.408  -5.601   6.671  0.00  0.00     0.002 A 
ATOM     34  C   UNL d   1       2.876  -5.104   5.474  0.00  0.00     0.029 A 
ENDBRANCH  26  29
ENDBRANCH  24  25
ENDBRANCH  23  24
ENDBRANCH  22  23
ENDBRANCH   7  22
TORSDOF 10
