REMARK  2 active torsions:
REMARK  status: ('A' for Active; 'I' for Inactive)
REMARK    1  A    between atoms: N_12  and  C_2 
REMARK    2  A    between atoms: C_11  and  C_6 
ROOT
ATOM      1  C   UNL d   1       2.600   0.170  -0.040  0.00  0.00     0.080 C 
ATOM      2  C   UNL d   1       1.993  -1.029   0.067  0.00  0.00     0.138 C 
ATOM      3  C   UNL d   1      -0.204  -0.066  -0.013  0.00  0.00     0.095 A 
ATOM      4  O   UNL d   1       0.618  -1.171  -0.065  0.00  0.00    -0.296 OA
ATOM      5  C   UNL d   1       0.320   1.230  -0.028  0.00  0.00    -0.009 A 
ATOM      6  C   UNL d   1       1.806   1.438  -0.249  0.00  0.00     0.102 C 
ATOM      7  C   UNL d   1       4.014   0.292   0.096  0.00  0.00     0.100 C 
ATOM      8  C   UNL d   1      -1.598  -0.292   0.023  0.00  0.00     0.009 A 
ATOM      9  N   UNL d   1       5.166   0.390   0.197  0.00  0.00    -0.191 NA
ATOM     10  C   UNL d   1      -0.553   2.322   0.062  0.00  0.00     0.012 A 
ATOM     11  C   UNL d   1      -2.468   0.822   0.081  0.00  0.00    -0.023 A 
ATOM     12  C   UNL d   1      -1.931   2.118   0.119  0.00  0.00     0.013 A 
ATOM     13  C   UNL d   1      -2.165  -1.584  -0.015  0.00  0.00     0.015 A 
ATOM     14  C   UNL d   1      -3.857   0.620   0.084  0.00  0.00     0.012 A 
ATOM     15  C   UNL d   1      -3.548  -1.769  -0.014  0.00  0.00     0.001 A 
ATOM     16  C   UNL d   1      -4.393  -0.667   0.032  0.00  0.00     0.001 A 
ENDROOT
BRANCH   2  17
ATOM     17  N   UNL d   1       2.624  -2.231   0.293  0.00  0.00    -0.282 NA
ATOM     18  H   UNL d   1       3.602  -2.287   0.021  0.00  0.00     0.126 HD
ATOM     19  H   UNL d   1       2.068  -3.027  -0.010  0.00  0.00     0.126 HD
ENDBRANCH   2  17
BRANCH   6  20
ATOM     20  C   UNL d   1       2.059   2.063  -1.625  0.00  0.00    -0.044 A 
ATOM     21  C   UNL d   1       2.705   3.307  -1.730  0.00  0.00     0.011 A 
ATOM     22  C   UNL d   1       2.863   3.916  -2.977  0.00  0.00     0.043 A 
ATOM     23  C   UNL d   1       2.384   3.284  -4.119  0.00  0.00     0.116 A 
ATOM     24  C   UNL d   1       1.760   2.047  -4.042  0.00  0.00     0.043 A 
ATOM     25  F   UNL d   1       2.520   3.881  -5.310  0.00  0.00    -0.206 F 
ATOM     26  C   UNL d   1       1.601   1.434  -2.800  0.00  0.00     0.011 A 
ENDBRANCH   6  20
TORSDOF 2
