REMARK  6 active torsions:
REMARK  status: ('A' for Active; 'I' for Inactive)
REMARK    1  A    between atoms: C_7  and  C_3 
REMARK    2  A    between atoms: C_16  and  N_5 
REMARK    3  A    between atoms: N_22  and  C_7 
REMARK    4  A    between atoms: C_8  and  O_12 
REMARK    5  A    between atoms: C_9  and  C_8 
REMARK    6  A    between atoms: O_12  and  N_10 
ROOT
ATOM      1  N   UNL d   1       5.682  -2.485  -0.023  0.00  0.00    -0.270 N 
ATOM      2  C   UNL d   1       5.022  -3.714  -0.012  0.00  0.00     0.335 A 
ATOM      3  C   UNL d   1       3.576  -1.251  -0.032  0.00  0.00     0.088 A 
ATOM      4  C   UNL d   1       5.056  -1.248  -0.015  0.00  0.00     0.266 A 
ATOM      5  N   UNL d   1       3.615  -3.646  -0.005  0.00  0.00    -0.274 N 
ATOM      6  C   UNL d   1       2.948  -2.432  -0.004  0.00  0.00     0.122 A 
ATOM      7  O   UNL d   1       5.653  -4.773   0.035  0.00  0.00    -0.246 OA
ATOM      8  O   UNL d   1       5.667  -0.179   0.000  0.00  0.00    -0.267 OA
ATOM      9  C   UNL d   1       7.134  -2.484   0.002  0.00  0.00     0.164 C 
ENDROOT
BRANCH   3  10
ATOM     10  C   UNL d   1       2.779   0.027  -0.064  0.00  0.00     0.116 C 
ATOM     11  N   UNL d   1       1.595  -0.006  -0.620  0.00  0.00    -0.245 N 
ATOM     12  HN  UNL d   1       1.173  -0.844  -1.020  1.00  0.00     0.196 HD
BRANCH  11  13
ATOM     13  O   UNL d   1       0.971   1.265  -0.597  0.00  0.00    -0.193 OA
BRANCH  13  14
ATOM     14  C   UNL d   1      -0.252   1.211  -1.238  0.00  0.00     0.322 C 
ATOM     15  O   UNL d   1      -0.720   0.222  -1.792  0.00  0.00    -0.257 OA
BRANCH  14  16
ATOM     16  C   UNL d   1      -0.937   2.499  -1.178  0.00  0.00     0.082 A 
ATOM     17  S   UNL d   1      -0.274   3.877  -0.403  0.00  0.00    -0.096 SA
ATOM     18  C   UNL d   1      -1.639   4.839  -0.777  0.00  0.00     0.050 A 
ATOM     19  C   UNL d   1      -2.587   4.135  -1.482  0.00  0.00     0.009 A 
ATOM     20  C   UNL d   1      -2.183   2.789  -1.716  0.00  0.00     0.026 A 
ENDBRANCH  14  16
ENDBRANCH  13  14
ENDBRANCH  11  13
BRANCH  10  21
ATOM     21  N   UNL d   1       3.311   1.186   0.455  0.00  0.00    -0.286 NA
ATOM     22  H   UNL d   1       4.332   1.236   0.434  0.00  0.00     0.125 HD
ATOM     23  H   UNL d   1       2.866   2.031   0.118  0.00  0.00     0.125 HD
ENDBRANCH  10  21
ENDBRANCH   3  10
BRANCH   5  24
ATOM     24  C   UNL d   1       2.885  -4.879   0.022  0.00  0.00     0.043 A 
ATOM     25  C   UNL d   1       1.883  -5.094   0.978  0.00  0.00     0.030 A 
ATOM     26  C   UNL d   1       1.230  -6.328   1.046  0.00  0.00     0.002 A 
ATOM     27  C   UNL d   1       1.539  -7.337   0.134  0.00  0.00     0.000 A 
ATOM     28  C   UNL d   1       2.506  -7.119  -0.843  0.00  0.00     0.002 A 
ATOM     29  C   UNL d   1       3.184  -5.900  -0.891  0.00  0.00     0.030 A 
ENDBRANCH   5  24
TORSDOF 6
