REMARK  4 active torsions:
REMARK  status: ('A' for Active; 'I' for Inactive)
REMARK    1  A    between atoms: N_8  and  C_1 
REMARK    2  A    between atoms: C_13  and  C_2 
REMARK       I    between atoms: C_7  and  N_8 
REMARK       I    between atoms: N_9  and  C_7 
REMARK    3  A    between atoms: C_11  and  N_9 
REMARK    4  A    between atoms: N_10  and  C_12 
ROOT
ATOM      1  C   UNL d   1       1.566  -2.790  -0.662  0.00  0.00     0.325 C 
ATOM      2  N   UNL d   1       1.784  -3.722  -1.671  0.00  0.00    -0.304 N 
ATOM      3  N   UNL d   1       2.714  -2.047  -0.428  0.00  0.00    -0.307 N 
ATOM      4  O   UNL d   1       0.487  -2.579  -0.119  0.00  0.00    -0.247 OA
ATOM      5  H   UNL d   1       2.626  -3.630  -2.214  0.00  0.00     0.171 HD
ATOM      6  H   UNL d   1       3.405  -2.015  -1.161  0.00  0.00     0.170 HD
ENDROOT
BRANCH   2   7
ATOM      7  C   UNL d   1       0.815  -4.582  -2.196  0.00  0.00     0.097 A 
ATOM      8  C   UNL d   1       0.743  -5.070  -3.549  0.00  0.00     0.094 A 
ATOM      9  N   UNL d   1      -0.266  -5.952  -3.672  0.00  0.00    -0.258 N 
ATOM     10  O   UNL d   1      -0.884  -6.007  -2.453  0.00  0.00    -0.240 OA
ATOM     11  HN  UNL d   1      -0.519  -6.477  -4.509  1.00  0.00     0.195 HD
ATOM     12  C   UNL d   1      -0.251  -5.189  -1.568  0.00  0.00     0.101 A 
ATOM     13  C   UNL d   1      -0.836  -5.245  -0.214  0.00  0.00     0.081 C 
BRANCH   8  14
ATOM     14  C   UNL d   1       1.482  -4.683  -4.750  0.00  0.00    -0.005 A 
ATOM     15  C   UNL d   1       1.778  -5.639  -5.736  0.00  0.00     0.014 A 
ATOM     16  C   UNL d   1       2.342  -5.265  -6.957  0.00  0.00     0.001 A 
ATOM     17  C   UNL d   1       2.617  -3.921  -7.209  0.00  0.00     0.000 A 
ATOM     18  C   UNL d   1       2.334  -2.962  -6.238  0.00  0.00     0.001 A 
ATOM     19  C   UNL d   1       1.771  -3.335  -5.013  0.00  0.00     0.014 A 
ENDBRANCH   8  14
ENDBRANCH   2   7
BRANCH   3  20
ATOM     20  C   UNL d   1       2.807  -0.937   0.451  0.00  0.00     0.063 A 
ATOM     21  C   UNL d   1       3.570   0.184   0.013  0.00  0.00     0.057 A 
ATOM     22  C   UNL d   1       3.894   1.148   0.982  0.00  0.00     0.031 A 
ATOM     23  C   UNL d   1       3.454   1.034   2.304  0.00  0.00     0.002 A 
ATOM     24  C   UNL d   1       2.645  -0.030   2.686  0.00  0.00     0.002 A 
ATOM     25  C   UNL d   1       2.310  -1.018   1.754  0.00  0.00     0.032 A 
BRANCH  21  26
ATOM     26  N   UNL d   1       3.942   0.332  -1.322  0.00  0.00    -0.375 N 
ATOM     27  C   UNL d   1       2.960   0.109  -2.406  0.00  0.00     0.149 C 
ATOM     28  C   UNL d   1       2.837   1.315  -3.347  0.00  0.00     0.187 C 
ATOM     29  O   UNL d   1       4.117   1.785  -3.791  0.00  0.00    -0.388 OA
ATOM     30  C   UNL d   1       4.899   2.194  -2.658  0.00  0.00     0.187 C 
ATOM     31  C   UNL d   1       5.185   1.006  -1.729  0.00  0.00     0.149 C 
ENDBRANCH  21  26
ENDBRANCH   3  20
TORSDOF 4
