REMARK  3 active torsions:
REMARK  status: ('A' for Active; 'I' for Inactive)
REMARK    1  A    between atoms: C_8  and  C_1 
REMARK    2  A    between atoms: C_3  and  C_4 
REMARK    3  A    between atoms: C_10  and  C_5 
ROOT
ATOM      1  C   UNL d   1      -4.425   0.110   0.015  0.00  0.00     0.051 A 
ATOM      2  S   UNL d   1      -3.011   1.090  -0.005  0.00  0.00    -0.078 SA
ATOM      3  C   UNL d   1      -1.972  -0.261  -0.015  0.00  0.00     0.059 A 
ATOM      4  C   UNL d   1      -4.085  -1.231   0.016  0.00  0.00     0.025 A 
ATOM      5  C   UNL d   1      -2.674  -1.444  -0.002  0.00  0.00     0.029 A 
ENDROOT
BRANCH   3   6
ATOM      6  C   UNL d   1      -0.550  -0.171  -0.032  0.00  0.00    -0.054 C 
ATOM      7  C   UNL d   1       0.650  -0.118  -0.036  0.00  0.00    -0.061 C 
BRANCH   7   8
ATOM      8  C   UNL d   1       2.080  -0.052  -0.024  0.00  0.00     0.018 A 
ATOM      9  C   UNL d   1       2.719   1.190  -0.013  0.00  0.00     0.020 A 
ATOM     10  C   UNL d   1       4.113   1.260   0.018  0.00  0.00     0.001 A 
ATOM     11  C   UNL d   1       4.871   0.088   0.036  0.00  0.00     0.000 A 
ATOM     12  C   UNL d   1       4.235  -1.153   0.019  0.00  0.00     0.001 A 
ATOM     13  C   UNL d   1       2.840  -1.224  -0.011  0.00  0.00     0.020 A 
ENDBRANCH   7   8
ENDBRANCH   3   6
BRANCH   1  14
ATOM     14  C   UNL d   1      -5.735   0.755   0.027  0.00  0.00     0.162 C 
ATOM     15  O   UNL d   1      -5.895   1.979   0.026  0.00  0.00    -0.292 OA
ATOM     16  C   UNL d   1      -6.968  -0.121   0.039  0.00  0.00     0.097 C 
ENDBRANCH   1  14
TORSDOF 3
