REMARK  4 active torsions:
REMARK  status: ('A' for Active; 'I' for Inactive)
REMARK    1  A    between atoms: C_8  and  C_2 
REMARK    2  A    between atoms: O_14  and  C_3 
REMARK    3  A    between atoms: O_16  and  C_8 
REMARK    4  A    between atoms: C_18  and  O_16 
ROOT
ATOM      1  C   UNL d   1      -0.008  -0.841  -0.044  0.00  0.00     0.047 A 
ATOM      2  C   UNL d   1       2.459  -0.787  -0.050  0.00  0.00     0.088 A 
ATOM      3  C   UNL d   1       1.256  -1.505  -0.049  0.00  0.00     0.097 A 
ATOM      4  C   UNL d   1       0.054   0.574  -0.047  0.00  0.00     0.048 A 
ATOM      5  C   UNL d   1      -1.307  -1.438  -0.026  0.00  0.00     0.051 A 
ATOM      6  N   UNL d   1       1.203   1.267  -0.062  0.00  0.00    -0.364 N 
ATOM      7  HN  UNL d   1       1.194   2.287  -0.073  1.00  0.00     0.165 HD
ATOM      8  C   UNL d   1       2.373   0.589  -0.061  0.00  0.00     0.108 A 
ATOM      9  C   UNL d   1      -2.467  -0.661  -0.009  0.00  0.00     0.048 A 
ATOM     10  C   UNL d   1      -1.111   1.323  -0.027  0.00  0.00     0.054 A 
ATOM     11  C   UNL d   1      -2.361   0.718  -0.009  0.00  0.00     0.037 A 
ATOM     12 CL   UNL d   1      -1.575  -3.151  -0.016  0.00  0.00    -0.083 Cl
ATOM     13 CL   UNL d   1      -3.782   1.687   0.015  0.00  0.00    -0.084 Cl
ENDROOT
BRANCH   2  14
ATOM     14  C   UNL d   1       3.757  -1.482   0.038  0.00  0.00     0.297 C 
ATOM     15  O   UNL d   1       3.834  -2.702   0.068  0.00  0.00    -0.259 OA
BRANCH  14  16
ATOM     16  O   UNL d   1       4.778  -0.608   0.190  0.00  0.00    -0.318 OA
BRANCH  16  17
ATOM     17  C   UNL d   1       5.996  -1.176   0.697  0.00  0.00     0.174 C 
ATOM     18  C   UNL d   1       5.949  -1.097   2.212  0.00  0.00     0.034 C 
ENDBRANCH  16  17
ENDBRANCH  14  16
ENDBRANCH   2  14
BRANCH   3  19
ATOM     19  O   UNL d   1       1.268  -2.880  -0.034  0.00  0.00    -0.359 OA
ATOM     20  H   UNL d   1       2.193  -3.219  -0.010  0.00  0.00     0.217 HD
ENDBRANCH   3  19
TORSDOF 4
