REMARK  3 active torsions:
REMARK  status: ('A' for Active; 'I' for Inactive)
REMARK    1  A    between atoms: N_2  and  C_1 
REMARK       I    between atoms: C_3  and  N_2 
REMARK    2  A    between atoms: C_11  and  C_4 
REMARK    3  A    between atoms: C_12  and  C_5 
ROOT
ATOM      1  C   UNL d   1       1.461  -0.367   0.050  0.00  0.00     0.047 A 
ATOM      2  C   UNL d   1       0.468  -1.379   0.083  0.00  0.00    -0.031 A 
ATOM      3  C   UNL d   1       1.094   1.000  -0.037  0.00  0.00    -0.031 A 
ATOM      4  C   UNL d   1      -1.256   0.333   0.032  0.00  0.00     0.001 A 
ATOM      5  C   UNL d   1      -0.886  -1.005   0.082  0.00  0.00     0.009 A 
ATOM      6  C   UNL d   1      -0.277   1.320  -0.054  0.00  0.00     0.009 A 
ENDROOT
BRANCH   1   7
ATOM      7  N   UNL d   1       2.808  -0.759   0.225  0.00  0.00    -0.327 N 
ATOM      8  C   UNL d   1       3.801  -0.516  -0.707  0.00  0.00     0.218 C 
ATOM      9  O   UNL d   1       3.670   0.084  -1.766  0.00  0.00    -0.274 OA
ATOM     10  C   UNL d   1       5.140  -1.065  -0.277  0.00  0.00     0.117 C 
ATOM     11  H   UNL d   1       2.947  -1.587   0.788  0.00  0.00     0.169 HD
ENDBRANCH   1   7
BRANCH   2  12
ATOM     12  C   UNL d   1       0.798  -2.853  -0.078  0.00  0.00     0.036 C 
ATOM     13  C   UNL d   1       0.241  -3.751   1.017  0.00  0.00     0.010 C 
ENDBRANCH   2  12
BRANCH   3  14
ATOM     14  C   UNL d   1       2.088   2.140  -0.140  0.00  0.00     0.036 C 
ATOM     15  C   UNL d   1       1.909   3.247   0.893  0.00  0.00     0.010 C 
ENDBRANCH   3  14
TORSDOF 3
