REMARK  4 active torsions:
REMARK  status: ('A' for Active; 'I' for Inactive)
REMARK    1  A    between atoms: C_3  and  C_5 
REMARK    2  A    between atoms: C_4  and  C_6 
REMARK    3  A    between atoms: O_8  and  C_4 
REMARK    4  A    between atoms: C_7  and  O_8 
ROOT
ATOM      1  N   UNL d   1      -1.218  -0.057   0.074  0.00  0.00    -0.347 N 
ATOM      2  HN  UNL d   1      -2.238  -0.071   0.055  1.00  0.00     0.166 HD
ATOM      3  C   UNL d   1      -0.525   1.120   0.010  0.00  0.00     0.117 A 
ATOM      4  C   UNL d   1      -0.500  -1.208   0.164  0.00  0.00     0.109 A 
ATOM      5  C   UNL d   1       0.872   1.157   0.041  0.00  0.00     0.034 A 
ATOM      6  C   UNL d   1       0.891  -1.236   0.190  0.00  0.00     0.036 A 
ATOM      7  C   UNL d   1       1.585  -0.034   0.131  0.00  0.00     0.005 A 
ENDROOT
BRANCH   4   8
ATOM      8  C   UNL d   1      -1.227  -2.507   0.276  0.00  0.00     0.315 C 
ATOM      9  O   UNL d   1      -0.646  -3.582   0.336  0.00  0.00    -0.257 OA
BRANCH   8  10
ATOM     10  O   UNL d   1      -2.598  -2.290   0.343  0.00  0.00    -0.274 OA
BRANCH  10  11
ATOM     11  C   UNL d   1      -3.565  -3.296   0.597  0.00  0.00     0.082 A 
ATOM     12  C   UNL d   1      -4.846  -2.820   0.888  0.00  0.00     0.061 A 
ATOM     13  C   UNL d   1      -5.863  -3.724   1.192  0.00  0.00     0.038 A 
ATOM     14 CL   UNL d   1      -7.439  -3.143   1.568  0.00  0.00    -0.084 Cl
ATOM     15  C   UNL d   1      -5.615  -5.095   1.204  0.00  0.00     0.048 A 
ATOM     16  C   UNL d   1      -4.339  -5.557   0.895  0.00  0.00     0.038 A 
ATOM     17  C   UNL d   1      -3.310  -4.666   0.582  0.00  0.00     0.061 A 
ATOM     18 CL   UNL d   1      -4.024  -7.250   0.907  0.00  0.00    -0.084 Cl
ENDBRANCH  10  11
ENDBRANCH   8  10
ENDBRANCH   4   8
BRANCH   3  19
ATOM     19  C   UNL d   1      -1.276   2.444  -0.096  0.00  0.00     0.432 C 
ATOM     20  F   UNL d   1      -2.632   2.322  -0.120  0.00  0.00    -0.165 F 
ATOM     21  F   UNL d   1      -0.994   3.283   0.944  0.00  0.00    -0.165 F 
ATOM     22  F   UNL d   1      -0.942   3.139  -1.223  0.00  0.00    -0.165 F 
ENDBRANCH   3  19
TORSDOF 4
