REMARK  5 active torsions:
REMARK  status: ('A' for Active; 'I' for Inactive)
REMARK    1  A    between atoms: C_2  and  C_1 
REMARK    2  A    between atoms: O_6  and  C_1 
REMARK    3  A    between atoms: C_3  and  C_2 
REMARK    4  A    between atoms: C_5  and  C_2 
REMARK    5  A    between atoms: C_7  and  C_3 
ROOT
ATOM      1  C   UNL d   1       0.486  -0.102   1.213  0.00  0.00     0.121 C 
ENDROOT
BRANCH   1   2
ATOM      2  C   UNL d   1       1.332  -0.016  -0.059  0.00  0.00     0.148 C 
ATOM      3  O   UNL d   1       1.728  -0.972  -0.710  0.00  0.00    -0.649 OA
BRANCH   2   4
ATOM      4  O   UNL d   1       1.697   1.253  -0.376  0.00  0.00    -0.776 OA
ATOM      5  H   UNL d   1       1.395   1.921   0.267  0.00  0.00     0.167 HD
ENDBRANCH   2   4
ENDBRANCH   1   2
BRANCH   1   6
ATOM      6  C   UNL d   1      -0.459  -1.320   1.188  0.00  0.00     0.058 C 
BRANCH   6   7
ATOM      7  C   UNL d   1      -1.519  -1.254   0.109  0.00  0.00    -0.057 A 
ATOM      8  C   UNL d   1      -1.291  -1.852  -1.138  0.00  0.00     0.007 A 
ATOM      9  C   UNL d   1      -2.256  -1.800  -2.143  0.00  0.00     0.001 A 
ATOM     10  C   UNL d   1      -3.467  -1.154  -1.911  0.00  0.00     0.000 A 
ATOM     11  C   UNL d   1      -3.710  -0.557  -0.675  0.00  0.00     0.001 A 
ATOM     12  C   UNL d   1      -2.740  -0.603   0.330  0.00  0.00     0.007 A 
ENDBRANCH   6   7
ENDBRANCH   1   6
BRANCH   1  13
ATOM     13  C   UNL d   1       1.351  -0.125   2.471  0.00  0.00    -0.044 A 
ATOM     14  C   UNL d   1       0.849   0.409   3.669  0.00  0.00     0.008 A 
ATOM     15  C   UNL d   1       1.608   0.368   4.842  0.00  0.00     0.001 A 
ATOM     16  C   UNL d   1       2.879  -0.202   4.834  0.00  0.00     0.000 A 
ATOM     17  C   UNL d   1       3.388  -0.742   3.656  0.00  0.00     0.001 A 
ATOM     18  C   UNL d   1       2.627  -0.713   2.486  0.00  0.00     0.008 A 
ENDBRANCH   1  13
TORSDOF 5
