REMARK  7 active torsions:
REMARK  status: ('A' for Active; 'I' for Inactive)
REMARK    1  A    between atoms: C_13  and  C_2 
REMARK    2  A    between atoms: C_10  and  C_3 
REMARK    3  A    between atoms: S_16  and  C_4 
REMARK    4  A    between atoms: N_5  and  C_13 
REMARK    5  A    between atoms: C_26  and  S_16 
REMARK    6  A    between atoms: C_17  and  C_26 
REMARK       I    between atoms: N_18  and  C_17 
REMARK    7  A    between atoms: C_20  and  N_18 
ROOT
ATOM      1  N   UNL d   1       1.044   0.122   0.394  0.00  0.00    -0.318 N 
ATOM      2  C   UNL d   1       0.152   1.119   0.060  0.00  0.00     0.118 A 
ATOM      3  C   UNL d   1       0.278  -0.991   0.607  0.00  0.00     0.162 A 
ATOM      4  N   UNL d   1      -1.064   0.605   0.025  0.00  0.00    -0.285 N 
ATOM      5  HN  UNL d   1      -1.919   1.108  -0.213  1.00  0.00     0.188 HD
ATOM      6  N   UNL d   1      -0.980  -0.720   0.360  0.00  0.00    -0.278 N 
ATOM      7  HN  UNL d   1      -1.758  -1.378   0.410  1.00  0.00     0.189 HD
ATOM      8  C   UNL d   1       2.475   0.226   0.508  0.00  0.00     0.160 C 
ENDROOT
BRANCH   3   9
ATOM      9  S   UNL d   1       0.855  -2.442   1.348  0.00  0.00    -0.083 SA
BRANCH   9  10
ATOM     10  C   UNL d   1      -0.574  -3.547   1.221  0.00  0.00     0.185 C 
BRANCH  10  11
ATOM     11  C   UNL d   1      -1.748  -3.295   2.163  0.00  0.00     0.231 C 
ATOM     12  N   UNL d   1      -1.808  -2.061   2.776  0.00  0.00    -0.326 N 
ATOM     13  H   UNL d   1      -1.135  -1.379   2.450  0.00  0.00     0.169 HD
ATOM     14  O   UNL d   1      -2.599  -4.179   2.284  0.00  0.00    -0.272 OA
BRANCH  12  15
ATOM     15  C   UNL d   1      -2.875  -1.532   3.530  0.00  0.00     0.036 A 
ATOM     16  C   UNL d   1      -3.917  -2.302   4.045  0.00  0.00     0.053 A 
ATOM     17  C   UNL d   1      -4.987  -1.682   4.691  0.00  0.00     0.036 A 
ATOM     18 CL   UNL d   1      -6.290  -2.635   5.291  0.00  0.00    -0.084 Cl
ATOM     19  C   UNL d   1      -5.021  -0.297   4.845  0.00  0.00     0.024 A 
ATOM     20  C   UNL d   1      -3.963   0.474   4.371  0.00  0.00     0.004 A 
ATOM     21  C   UNL d   1      -2.890  -0.143   3.724  0.00  0.00     0.029 A 
ENDBRANCH  12  15
ENDBRANCH  10  11
ENDBRANCH   9  10
ENDBRANCH   3   9
BRANCH   2  22
ATOM     22  C   UNL d   1       0.481   2.557  -0.173  0.00  0.00     0.209 C 
BRANCH  22  23
ATOM     23  N   UNL d   1       0.724   2.800  -1.589  0.00  0.00    -0.317 N 
ATOM     24  C   UNL d   1      -0.348   3.071  -2.429  0.00  0.00     0.110 A 
ATOM     25  C   UNL d   1      -0.178   3.305  -3.744  0.00  0.00     0.063 A 
ATOM     26  C   UNL d   1       1.164   3.232  -4.292  0.00  0.00     0.023 A 
ATOM     27  C   UNL d   1       2.216   2.964  -3.513  0.00  0.00     0.075 A 
ATOM     28  C   UNL d   1       2.035   2.742  -2.055  0.00  0.00     0.247 A 
ATOM     29  O   UNL d   1       3.015   2.517  -1.355  0.00  0.00    -0.268 OA
BRANCH  25  30
ATOM     30  C   UNL d   1      -1.334   3.624  -4.653  0.00  0.00     0.418 C 
ATOM     31  F   UNL d   1      -0.997   3.588  -5.968  0.00  0.00    -0.166 F 
ATOM     32  F   UNL d   1      -2.364   2.756  -4.489  0.00  0.00    -0.166 F 
ATOM     33  F   UNL d   1      -1.825   4.867  -4.409  0.00  0.00    -0.166 F 
ENDBRANCH  25  30
ENDBRANCH  22  23
ENDBRANCH   2  22
TORSDOF 7
