REMARK  5 active torsions:
REMARK  status: ('A' for Active; 'I' for Inactive)
REMARK    1  A    between atoms: C_7  and  N_1 
REMARK    2  A    between atoms: S_9  and  C_2 
REMARK    3  A    between atoms: O_12  and  C_13 
REMARK    4  A    between atoms: C_14  and  O_12 
REMARK    5  A    between atoms: C_17  and  C_14 
ROOT
ATOM      1  C   UNL d   1       2.107  -1.421  -0.056  0.00  0.00     0.046 A 
ATOM      2  C   UNL d   1       2.259  -2.409  -1.032  0.00  0.00     0.033 A 
ATOM      3  C   UNL d   1       3.117  -1.229   0.893  0.00  0.00     0.033 A 
ATOM      4  C   UNL d   1       4.431  -2.983  -0.127  0.00  0.00     0.069 A 
ATOM      5  C   UNL d   1       4.275  -2.005   0.856  0.00  0.00     0.039 A 
ATOM      6  C   UNL d   1       3.432  -3.164  -1.085  0.00  0.00     0.039 A 
ENDROOT
BRANCH   1   7
ATOM      7  N   UNL d   1       0.962  -0.617  -0.048  0.00  0.00    -0.242 N 
ATOM      8  C   UNL d   1       0.838   0.736   0.004  0.00  0.00     0.167 A 
ATOM      9  N   UNL d   1      -0.381   1.175   0.103  0.00  0.00    -0.276 N 
ATOM     10  N   UNL d   1      -1.137   0.036   0.113  0.00  0.00    -0.249 N 
ATOM     11  HN  UNL d   1      -0.700   2.142   0.161  1.00  0.00     0.189 HD
ATOM     12  C   UNL d   1      -0.330  -1.099   0.021  0.00  0.00     0.347 A 
ATOM     13  H   UNL d   1      -2.144   0.043   0.212  0.00  0.00     0.192 HD
ATOM     14  O   UNL d   1      -0.727  -2.248   0.055  0.00  0.00    -0.245 OA
BRANCH   8  15
ATOM     15  S   UNL d   1       2.187   1.813  -0.164  0.00  0.00    -0.105 SA
ATOM     16  H   UNL d   1       3.071   0.922  -0.632  0.00  0.00     0.110 HD
ENDBRANCH   8  15
ENDBRANCH   1   7
BRANCH   4  17
ATOM     17  O   UNL d   1       5.513  -3.812  -0.239  0.00  0.00    -0.347 OA
BRANCH  17  18
ATOM     18  C   UNL d   1       6.239  -4.016   0.973  0.00  0.00     0.214 C 
BRANCH  18  19
ATOM     19  C   UNL d   1       7.039  -5.286   0.860  0.00  0.00    -0.034 A 
ATOM     20  C   UNL d   1       8.383  -5.255   0.468  0.00  0.00     0.009 A 
ATOM     21  C   UNL d   1       9.122  -6.436   0.402  0.00  0.00     0.001 A 
ATOM     22  C   UNL d   1       8.522  -7.654   0.719  0.00  0.00     0.000 A 
ATOM     23  C   UNL d   1       7.180  -7.697   1.088  0.00  0.00     0.001 A 
ATOM     24  C   UNL d   1       6.438  -6.519   1.152  0.00  0.00     0.009 A 
ENDBRANCH  18  19
ENDBRANCH  17  18
ENDBRANCH   4  17
TORSDOF 5
