REMARK  5 active torsions:
REMARK  status: ('A' for Active; 'I' for Inactive)
REMARK       I    between atoms: N_2  and  C_1 
REMARK    1  A    between atoms: C_6  and  C_1 
REMARK    2  A    between atoms: N_3  and  N_2 
REMARK    3  A    between atoms: C_5  and  N_3 
REMARK    4  A    between atoms: C_9  and  C_6 
REMARK    5  A    between atoms: C_14  and  C_9 
ROOT
ATOM      1  C   UNL d   1       0.749  -0.077   0.092  0.00  0.00     0.232 C 
ATOM      2  N   UNL d   1       0.174  -0.045   1.351  0.00  0.00    -0.287 N 
ATOM      3  O   UNL d   1       0.066  -0.076  -0.936  0.00  0.00    -0.272 OA
ATOM      4  H   UNL d   1       0.658  -0.514   2.109  0.00  0.00     0.184 HD
ENDROOT
BRANCH   2   5
ATOM      5  N   UNL d   1      -1.227  -0.245   1.373  0.00  0.00    -0.203 NA
ATOM      6  H   UNL d   1      -1.610  -0.160   0.420  0.00  0.00     0.153 HD
BRANCH   5   7
ATOM      7  C   UNL d   1      -1.932   0.573   2.291  0.00  0.00     0.027 A 
ATOM      8  C   UNL d   1      -3.293   0.827   2.054  0.00  0.00     0.027 A 
ATOM      9  C   UNL d   1      -4.072   1.531   2.979  0.00  0.00     0.026 A 
ATOM     10  C   UNL d   1      -3.501   1.966   4.170  0.00  0.00     0.034 A 
ATOM     11  C   UNL d   1      -2.163   1.697   4.444  0.00  0.00     0.026 A 
ATOM     12 CL   UNL d   1      -4.456   2.818   5.319  0.00  0.00    -0.084 Cl
ATOM     13  C   UNL d   1      -1.388   0.993   3.512  0.00  0.00     0.027 A 
ENDBRANCH   5   7
ENDBRANCH   2   5
BRANCH   1  14
ATOM     14  C   UNL d   1       2.263   0.037   0.021  0.00  0.00     0.108 C 
BRANCH  14  15
ATOM     15  C   UNL d   1       3.082  -0.413   1.230  0.00  0.00     0.048 C 
BRANCH  15  16
ATOM     16  C   UNL d   1       3.034  -1.889   1.544  0.00  0.00    -0.058 A 
ATOM     17  C   UNL d   1       3.404  -2.846   0.588  0.00  0.00     0.007 A 
ATOM     18  C   UNL d   1       3.415  -4.206   0.910  0.00  0.00     0.001 A 
ATOM     19  C   UNL d   1       3.061  -4.625   2.190  0.00  0.00     0.000 A 
ATOM     20  C   UNL d   1       2.698  -3.684   3.151  0.00  0.00     0.001 A 
ATOM     21  C   UNL d   1       2.692  -2.325   2.833  0.00  0.00     0.007 A 
ENDBRANCH  15  16
ENDBRANCH  14  15
ENDBRANCH   1  14
TORSDOF 5
