REMARK  4 active torsions:
REMARK  status: ('A' for Active; 'I' for Inactive)
REMARK    1  A    between atoms: C_2  and  S_1 
REMARK    2  A    between atoms: C_9  and  S_1 
REMARK    3  A    between atoms: S_10  and  C_3 
REMARK    4  A    between atoms: N_11  and  C_4 
ROOT
ATOM      1  C   UNL d   1       0.532   1.796   0.204  0.00  0.00     0.109 C 
ATOM      2  C   UNL d   1       1.349   2.915   0.276  0.00  0.00     0.064 C 
ATOM      3  C   UNL d   1      -0.853   2.153   0.326  0.00  0.00     0.056 C 
ATOM      4  S   UNL d   1       0.425   4.367   0.268  0.00  0.00    -0.091 SA
ATOM      5  C   UNL d   1      -1.048   3.512   0.337  0.00  0.00     0.081 C 
ENDROOT
BRANCH   1   6
ATOM      6  S   UNL d   1       1.081   0.158   0.030  0.00  0.00     0.183 S 
ATOM      7  O   UNL d   1       2.321   0.234  -0.705  0.00  0.00    -0.222 OA
ATOM      8  O   UNL d   1      -0.056  -0.560  -0.530  0.00  0.00    -0.222 OA
BRANCH   6   9
ATOM      9  C   UNL d   1       1.397  -0.463   1.685  0.00  0.00     0.105 C 
ATOM     10  C   UNL d   1       0.122  -0.562   2.518  0.00  0.00     0.026 C 
ATOM     11  C   UNL d   1       2.082  -1.827   1.574  0.00  0.00     0.026 C 
ENDBRANCH   6   9
ENDBRANCH   1   6
BRANCH   2  12
ATOM     12  S   UNL d   1       3.100   3.017   0.460  0.00  0.00    -0.126 SA
ATOM     13  C   UNL d   1       3.638   3.206  -1.256  0.00  0.00     0.096 C 
ENDBRANCH   2  12
BRANCH   3  14
ATOM     14  N   UNL d   1      -1.887   1.288   0.426  0.00  0.00    -0.397 N 
ATOM     15  H   UNL d   1      -1.768   0.322   0.101  0.00  0.00     0.156 HD
ATOM     16  H   UNL d   1      -2.854   1.595   0.355  0.00  0.00     0.156 HD
ENDBRANCH   3  14
TORSDOF 4
