REMARK  3 active torsions:
REMARK  status: ('A' for Active; 'I' for Inactive)
REMARK    1  A    between atoms: C_5  and  C_3 
REMARK    2  A    between atoms: C_7  and  C_5 
REMARK    3  A    between atoms: O_10  and  C_7 
ROOT
ATOM      1  N   UNL d   1      -2.186  -0.276  -0.093  0.00  0.00    -0.264 N 
ATOM      2  HN  UNL d   1      -3.203  -0.356  -0.118  1.00  0.00     0.194 HD
ATOM      3  C   UNL d   1      -1.299  -1.287  -0.057  0.00  0.00     0.055 A 
ATOM      4  O   UNL d   1      -1.448   0.887  -0.090  0.00  0.00    -0.237 OA
ATOM      5  C   UNL d   1       0.036  -0.787   0.004  0.00  0.00     0.025 A 
ATOM      6  C   UNL d   1      -0.127   0.589  -0.038  0.00  0.00     0.111 A 
ATOM      7  C   UNL d   1       1.349  -1.287   0.086  0.00  0.00     0.016 A 
ATOM      8  C   UNL d   1       0.913   1.517  -0.025  0.00  0.00     0.040 A 
ATOM      9  C   UNL d   1       2.424  -0.382   0.084  0.00  0.00     0.001 A 
ATOM     10  C   UNL d   1       2.208   0.996   0.026  0.00  0.00     0.003 A 
ENDROOT
BRANCH   3  11
ATOM     11  C   UNL d   1      -1.864  -2.667  -0.006  0.00  0.00     0.169 C 
BRANCH  11  12
ATOM     12  C   UNL d   1      -1.096  -3.757  -0.708  0.00  0.00     0.145 C 
ATOM     13  O   UNL d   1      -0.001  -3.664  -1.241  0.00  0.00    -0.650 OA
BRANCH  12  14
ATOM     14  O   UNL d   1      -1.759  -4.944  -0.683  0.00  0.00    -0.776 OA
ATOM     15  H   UNL d   1      -2.637  -4.917  -0.253  0.00  0.00     0.167 HD
ENDBRANCH  12  14
ENDBRANCH  11  12
ENDBRANCH   3  11
TORSDOF 3
