REMARK  5 active torsions:
REMARK  status: ('A' for Active; 'I' for Inactive)
REMARK    1  A    between atoms: S_11  and  C_3 
REMARK    2  A    between atoms: C_4  and  C_5 
REMARK    3  A    between atoms: C_7  and  C_18 
REMARK       I    between atoms: N_10  and  C_7 
REMARK    4  A    between atoms: C_14  and  N_10 
REMARK    5  A    between atoms: C_18  and  S_11 
ROOT
ATOM      1  N   UNL d   1      -1.631   0.798   0.048  0.00  0.00    -0.336 N 
ATOM      2  HN  UNL d   1      -2.227   1.534  -0.331  1.00  0.00     0.168 HD
ATOM      3  C   UNL d   1      -0.609   1.077   0.873  0.00  0.00     0.145 A 
ATOM      4  C   UNL d   1      -1.835  -0.505  -0.258  0.00  0.00     0.052 A 
ATOM      5  N   UNL d   1       0.215   0.162   1.406  0.00  0.00    -0.347 N 
ATOM      6  HN  UNL d   1       0.972   0.424   2.037  1.00  0.00     0.167 HD
ATOM      7  C   UNL d   1      -1.021  -1.510   0.222  0.00  0.00     0.048 A 
ATOM      8  C   UNL d   1      -0.010  -1.118   1.063  0.00  0.00     0.092 A 
ENDROOT
BRANCH   3   9
ATOM      9  S   UNL d   1      -0.252   2.774   1.293  0.00  0.00    -0.085 SA
BRANCH   9  10
ATOM     10  C   UNL d   1      -1.446   3.593   0.213  0.00  0.00     0.185 C 
BRANCH  10  11
ATOM     11  C   UNL d   1      -1.372   5.109   0.177  0.00  0.00     0.231 C 
ATOM     12  N   UNL d   1      -0.333   5.727   0.849  0.00  0.00    -0.326 N 
ATOM     13  H   UNL d   1       0.367   5.110   1.248  0.00  0.00     0.169 HD
ATOM     14  O   UNL d   1      -2.221   5.703  -0.497  0.00  0.00    -0.272 OA
BRANCH  12  15
ATOM     15  C   UNL d   1      -0.073   7.117   0.878  0.00  0.00     0.036 A 
ATOM     16  C   UNL d   1      -1.008   8.081   0.486  0.00  0.00     0.053 A 
ATOM     17  C   UNL d   1      -0.661   9.432   0.447  0.00  0.00     0.036 A 
ATOM     18 CL   UNL d   1      -1.820  10.598  -0.069  0.00  0.00    -0.084 Cl
ATOM     19  C   UNL d   1       0.616   9.845   0.811  0.00  0.00     0.024 A 
ATOM     20  C   UNL d   1       1.540   8.900   1.252  0.00  0.00     0.004 A 
ATOM     21  C   UNL d   1       1.193   7.544   1.298  0.00  0.00     0.029 A 
ENDBRANCH  12  15
ENDBRANCH  10  11
ENDBRANCH   9  10
ENDBRANCH   3   9
BRANCH   4  22
ATOM     22  C   UNL d   1      -2.983  -0.757  -1.148  0.00  0.00     0.031 A 
ATOM     23  S   UNL d   1      -3.805  -2.272  -1.131  0.00  0.00    -0.100 SA
ATOM     24  C   UNL d   1      -4.917  -1.780  -2.328  0.00  0.00     0.050 A 
ATOM     25  C   UNL d   1      -4.687  -0.487  -2.739  0.00  0.00     0.008 A 
ATOM     26  C   UNL d   1      -3.582   0.101  -2.056  0.00  0.00     0.021 A 
ENDBRANCH   4  22
TORSDOF 5
