REMARK  14 active torsions:
REMARK  status: ('A' for Active; 'I' for Inactive)
REMARK    1  A    between atoms: N_5  and  C_1 
REMARK    2  A    between atoms: N_8  and  C_1 
REMARK    3  A    between atoms: C_2  and  N_6 
REMARK    4  A    between atoms: N_7  and  C_2 
REMARK    5  A    between atoms: C_3  and  C_10 
REMARK    6  A    between atoms: C_4  and  C_9 
REMARK    7  A    between atoms: C_16  and  N_5 
REMARK    8  A    between atoms: C_32  and  N_5 
REMARK    9  A    between atoms: N_6  and  C_15 
REMARK   10  A    between atoms: C_31  and  N_6 
REMARK   11  A    between atoms: C_14  and  N_7 
REMARK   12  A    between atoms: C_13  and  N_8 
REMARK   13  A    between atoms: C_15  and  C_26 
REMARK   14  A    between atoms: C_25  and  C_16 
ROOT
ATOM      1  C   UNL d   1      -1.519  -0.739  -0.121  0.00  0.00    -0.040 A 
ATOM      2  C   UNL d   1      -2.100  -2.773  -2.013  0.00  0.00    -0.040 A 
ATOM      3  C   UNL d   1      -1.292  -2.086   0.182  0.00  0.00     0.009 A 
ATOM      4  C   UNL d   1      -2.442  -1.440  -2.275  0.00  0.00     0.009 A 
ATOM      5  C   UNL d   1      -1.556  -3.081  -0.754  0.00  0.00     0.009 A 
ATOM      6  C   UNL d   1      -2.159  -0.426  -1.331  0.00  0.00     0.009 A 
ENDROOT
BRANCH   1   7
ATOM      7  C   UNL d   1      -0.966   0.330   0.805  0.00  0.00     0.163 C 
BRANCH   7   8
ATOM      8  N   UNL d   1       0.528   0.456   0.841  0.00  0.00    -0.354 N 
BRANCH   8   9
ATOM      9  C   UNL d   1       1.198   1.094   1.921  0.00  0.00     0.174 C 
ATOM     10  S   UNL d   1       0.520   1.397   3.422  0.00  0.00    -0.041 SA
BRANCH   9  11
ATOM     11  N   UNL d   1       2.463   1.534   1.556  0.00  0.00    -0.333 N 
ATOM     12  H   UNL d   1       2.483   1.979   0.653  0.00  0.00     0.168 HD
BRANCH  11  13
ATOM     13  C   UNL d   1       3.675   1.549   2.285  0.00  0.00     0.035 A 
ATOM     14  C   UNL d   1       4.705   2.361   1.799  0.00  0.00     0.045 A 
ATOM     15  C   UNL d   1       5.976   2.373   2.406  0.00  0.00     0.050 A 
ATOM     16  C   UNL d   1       6.214   1.515   3.487  0.00  0.00     0.016 A 
ATOM     17  C   UNL d   1       5.196   0.694   3.970  0.00  0.00     0.003 A 
ATOM     18  C   UNL d   1       3.924   0.717   3.377  0.00  0.00     0.029 A 
BRANCH  15  19
ATOM     19  C   UNL d   1       7.074   3.264   1.881  0.00  0.00     0.417 C 
ATOM     20  F   UNL d   1       6.613   4.311   1.141  0.00  0.00    -0.166 F 
ATOM     21  F   UNL d   1       7.830   3.816   2.872  0.00  0.00    -0.166 F 
ATOM     22  F   UNL d   1       7.945   2.593   1.076  0.00  0.00    -0.166 F 
ENDBRANCH  15  19
ENDBRANCH  11  13
ENDBRANCH   9  11
ENDBRANCH   8   9
BRANCH   8  23
ATOM     23  C   UNL d   1       1.330  -0.265  -0.168  0.00  0.00     0.121 C 
ATOM     24  C   UNL d   1       1.210   0.276  -1.581  0.00  0.00     0.026 C 
ENDBRANCH   8  23
ENDBRANCH   7   8
ENDBRANCH   1   7
BRANCH   2  25
ATOM     25  C   UNL d   1      -2.390  -3.913  -2.971  0.00  0.00     0.163 C 
BRANCH  25  26
ATOM     26  N   UNL d   1      -1.780  -3.848  -4.313  0.00  0.00    -0.354 N 
BRANCH  26  27
ATOM     27  C   UNL d   1      -2.544  -4.146  -5.461  0.00  0.00     0.174 C 
ATOM     28  S   UNL d   1      -2.025  -5.118  -6.739  0.00  0.00    -0.041 SA
BRANCH  27  29
ATOM     29  N   UNL d   1      -3.791  -3.541  -5.464  0.00  0.00    -0.333 N 
ATOM     30  H   UNL d   1      -4.331  -3.580  -4.616  0.00  0.00     0.168 HD
BRANCH  29  31
ATOM     31  C   UNL d   1      -4.325  -2.697  -6.463  0.00  0.00     0.035 A 
ATOM     32  C   UNL d   1      -3.602  -2.265  -7.576  0.00  0.00     0.045 A 
ATOM     33  C   UNL d   1      -4.144  -1.339  -8.481  0.00  0.00     0.050 A 
ATOM     34  C   UNL d   1      -5.428  -0.834  -8.242  0.00  0.00     0.016 A 
ATOM     35  C   UNL d   1      -6.159  -1.264  -7.135  0.00  0.00     0.003 A 
ATOM     36  C   UNL d   1      -5.613  -2.192  -6.252  0.00  0.00     0.029 A 
BRANCH  33  37
ATOM     37  C   UNL d   1      -3.334  -0.853  -9.656  0.00  0.00     0.417 C 
ATOM     38  F   UNL d   1      -2.217  -1.596  -9.899  0.00  0.00    -0.166 F 
ATOM     39  F   UNL d   1      -4.041  -0.854 -10.819  0.00  0.00    -0.166 F 
ATOM     40  F   UNL d   1      -2.898   0.425  -9.483  0.00  0.00    -0.166 F 
ENDBRANCH  33  37
ENDBRANCH  29  31
ENDBRANCH  27  29
ENDBRANCH  26  27
BRANCH  26  41
ATOM     41  C   UNL d   1      -0.304  -3.858  -4.371  0.00  0.00     0.121 C 
ATOM     42  C   UNL d   1       0.343  -5.232  -4.238  0.00  0.00     0.026 C 
ENDBRANCH  26  41
ENDBRANCH  25  26
ENDBRANCH   2  25
TORSDOF 14
