REMARK  7 active torsions:
REMARK  status: ('A' for Active; 'I' for Inactive)
REMARK    1  A    between atoms: C_9  and  C_1 
REMARK    2  A    between atoms: C_13  and  N_2 
REMARK    3  A    between atoms: C_10  and  C_5 
REMARK    4  A    between atoms: C_8  and  C_6 
REMARK    5  A    between atoms: C_11  and  C_8 
REMARK    6  A    between atoms: O_20  and  C_9 
REMARK    7  A    between atoms: O_21  and  C_10 
ROOT
ATOM      1  C   UNL d   1      -1.319   0.551   0.008  0.00  0.00     0.054 C 
ATOM      2  N   UNL d   1       0.270  -1.342  -0.038  0.00  0.00    -0.273 N 
ATOM      3  N   UNL d   1       1.313  -0.449   0.056  0.00  0.00    -0.293 N 
ATOM      4  HN  UNL d   1       2.275  -0.782   0.121  1.00  0.00     0.187 HD
ATOM      5  C   UNL d   1      -1.163  -0.945   0.069  0.00  0.00     0.247 C 
ATOM      6  C   UNL d   1       1.053   0.822   0.060  0.00  0.00     0.100 C 
ATOM      7  C   UNL d   1      -0.294   1.414  -0.006  0.00  0.00     0.051 C 
ENDROOT
BRANCH   6   8
ATOM      8  C   UNL d   1       2.209   1.815   0.076  0.00  0.00     0.216 C 
ATOM      9  O   UNL d   1       2.068   2.841  -0.588  0.00  0.00    -0.284 OA
BRANCH   8  10
ATOM     10  C   UNL d   1       3.377   1.471   0.864  0.00  0.00     0.057 A 
ATOM     11  S   UNL d   1       4.883   2.182   0.448  0.00  0.00    -0.098 SA
ATOM     12  C   UNL d   1       5.706   1.329   1.676  0.00  0.00     0.050 A 
ATOM     13  C   UNL d   1       4.853   0.545   2.420  0.00  0.00     0.009 A 
ATOM     14  C   UNL d   1       3.508   0.628   1.953  0.00  0.00     0.023 A 
ENDBRANCH   8  10
ENDBRANCH   6   8
BRANCH   2  15
ATOM     15  C   UNL d   1       0.621  -2.707  -0.109  0.00  0.00     0.052 A 
ATOM     16  C   UNL d   1      -0.208  -3.674  -0.702  0.00  0.00     0.031 A 
ATOM     17  C   UNL d   1       0.151  -5.027  -0.741  0.00  0.00     0.002 A 
ATOM     18  C   UNL d   1       1.359  -5.446  -0.195  0.00  0.00     0.000 A 
ATOM     19  C   UNL d   1       2.215  -4.509   0.373  0.00  0.00     0.002 A 
ATOM     20  C   UNL d   1       1.853  -3.159   0.403  0.00  0.00     0.031 A 
ENDBRANCH   2  15
BRANCH   1  21
ATOM     21  C   UNL d   1      -2.717   1.034  -0.035  0.00  0.00     0.291 C 
ATOM     22  O   UNL d   1      -3.664   0.299  -0.291  0.00  0.00    -0.260 OA
BRANCH  21  23
ATOM     23  O   UNL d   1      -2.782   2.350   0.271  0.00  0.00    -0.323 OA
ATOM     24  C   UNL d   1      -4.101   2.898   0.289  0.00  0.00     0.213 C 
ENDBRANCH  21  23
ENDBRANCH   1  21
BRANCH   5  25
ATOM     25  C   UNL d   1      -1.757  -1.430   1.409  0.00  0.00     0.288 C 
ATOM     26  O   UNL d   1      -1.740  -0.797   2.461  0.00  0.00    -0.262 OA
BRANCH  25  27
ATOM     27  O   UNL d   1      -2.314  -2.670   1.266  0.00  0.00    -0.325 OA
ATOM     28  C   UNL d   1      -2.847  -3.239   2.463  0.00  0.00     0.213 C 
ENDBRANCH  25  27
ENDBRANCH   5  25
TORSDOF 7
