REMARK  3 active torsions:
REMARK  status: ('A' for Active; 'I' for Inactive)
REMARK    1  A    between atoms: C_7  and  C_1 
REMARK    2  A    between atoms: C_8  and  C_3 
REMARK       I    between atoms: N_9  and  C_7 
REMARK    3  A    between atoms: C_15  and  N_9 
ROOT
ATOM      1  C   UNL d   1      -0.212  -1.049  -0.252  0.00  0.00     0.097 A 
ATOM      2  S   UNL d   1       1.304  -0.274  -0.460  0.00  0.00    -0.063 SA
ATOM      3  C   UNL d   1       0.571   1.264  -0.189  0.00  0.00     0.103 A 
ATOM      4  N   UNL d   1      -0.736   1.219  -0.013  0.00  0.00    -0.351 N 
ATOM      5  HN  UNL d   1      -1.330   2.036   0.130  1.00  0.00     0.166 HD
ATOM      6  C   UNL d   1      -1.193  -0.088  -0.051  0.00  0.00     0.029 A 
ATOM      7  C   UNL d   1      -2.650  -0.324   0.150  0.00  0.00     0.070 C 
ENDROOT
BRANCH   1   8
ATOM      8  C   UNL d   1      -0.393  -2.497  -0.253  0.00  0.00     0.265 C 
ATOM      9  N   UNL d   1       0.719  -3.246  -0.610  0.00  0.00    -0.322 N 
ATOM     10  H   UNL d   1       1.537  -2.722  -0.898  0.00  0.00     0.169 HD
ATOM     11  O   UNL d   1      -1.477  -2.989   0.046  0.00  0.00    -0.267 OA
BRANCH   9  12
ATOM     12  C   UNL d   1       0.839  -4.656  -0.603  0.00  0.00     0.035 A 
ATOM     13  C   UNL d   1      -0.169  -5.523  -0.169  0.00  0.00     0.029 A 
ATOM     14  C   UNL d   1       0.032  -6.907  -0.155  0.00  0.00     0.002 A 
ATOM     15  C   UNL d   1       1.242  -7.441  -0.582  0.00  0.00     0.000 A 
ATOM     16  C   UNL d   1       2.252  -6.591  -1.027  0.00  0.00     0.002 A 
ATOM     17  C   UNL d   1       2.052  -5.205  -1.037  0.00  0.00     0.029 A 
ENDBRANCH   9  12
ENDBRANCH   1   8
BRANCH   3  18
ATOM     18  C   UNL d   1       1.361   2.502  -0.125  0.00  0.00     0.081 A 
ATOM     19  N   UNL d   1       2.665   2.462  -0.512  0.00  0.00    -0.361 N 
ATOM     20  C   UNL d   1       3.341   3.633  -0.411  0.00  0.00     0.105 A 
ATOM     21  HN  UNL d   1       3.104   1.608  -0.855  1.00  0.00     0.165 HD
ATOM     22  C   UNL d   1       2.759   4.798   0.058  0.00  0.00     0.104 A 
ATOM     23  N   UNL d   1       1.466   4.853   0.444  0.00  0.00    -0.372 N 
ATOM     24  C   UNL d   1       0.783   3.682   0.338  0.00  0.00     0.120 A 
ATOM     25  HN  UNL d   1       1.034   5.709   0.791  1.00  0.00     0.164 HD
ENDBRANCH   3  18
TORSDOF 3
