REMARK  2 active torsions:
REMARK  status: ('A' for Active; 'I' for Inactive)
REMARK    1  A    between atoms: N_6  and  C_1 
REMARK    2  A    between atoms: C_9  and  N_6 
ROOT
ATOM      1  C   UNL d   1      -0.615   1.684  -0.083  0.00  0.00     0.047 A 
ATOM      2  N   UNL d   1      -1.026  -1.089   0.013  0.00  0.00    -0.359 N 
ATOM      3  HN  UNL d   1      -1.180  -2.097   0.044  1.00  0.00     0.166 HD
ATOM      4  C   UNL d   1       0.494   0.800  -0.038  0.00  0.00     0.017 A 
ATOM      5  C   UNL d   1       0.218  -0.586  -0.001  0.00  0.00     0.044 A 
ATOM      6  C   UNL d   1      -1.903   1.139  -0.066  0.00  0.00     0.055 A 
ATOM      7  C   UNL d   1      -2.069  -0.234  -0.017  0.00  0.00     0.007 A 
ATOM      8  C   UNL d   1       1.849   1.220  -0.017  0.00  0.00     0.016 A 
ATOM      9  C   UNL d   1       1.277  -1.483   0.029  0.00  0.00     0.030 A 
ATOM     10  C   UNL d   1      -3.449  -0.820   0.014  0.00  0.00     0.068 C 
ATOM     11  C   UNL d   1       2.894   0.297   0.012  0.00  0.00     0.001 A 
ATOM     12  C   UNL d   1       2.607  -1.060   0.029  0.00  0.00     0.002 A 
ENDROOT
BRANCH   1  13
ATOM     13  N   UNL d   1      -0.436   3.090  -0.077  0.00  0.00    -0.355 N 
ATOM     14  H   UNL d   1       0.384   3.422  -0.564  0.00  0.00     0.166 HD
BRANCH  13  15
ATOM     15  C   UNL d   1      -1.298   4.101   0.381  0.00  0.00     0.032 A 
ATOM     16  C   UNL d   1      -2.098   3.925   1.516  0.00  0.00     0.029 A 
ATOM     17  C   UNL d   1      -2.997   4.912   1.930  0.00  0.00     0.002 A 
ATOM     18  C   UNL d   1      -3.116   6.088   1.198  0.00  0.00     0.000 A 
ATOM     19  C   UNL d   1      -2.337   6.277   0.057  0.00  0.00     0.002 A 
ATOM     20  C   UNL d   1      -1.436   5.291  -0.348  0.00  0.00     0.029 A 
ENDBRANCH  13  15
ENDBRANCH   1  13
TORSDOF 2
