REMARK  2 active torsions:
REMARK  status: ('A' for Active; 'I' for Inactive)
REMARK    1  A    between atoms: C_8  and  N_3 
REMARK    2  A    between atoms: C_9  and  C_8 
ROOT
ATOM      1  N   UNL d   1       0.018   0.758   1.149  0.00  0.00    -0.274 N 
ATOM      2  C   UNL d   1      -0.531  -0.498   1.157  0.00  0.00     0.329 A 
ATOM      3  N   UNL d   1      -0.685  -1.089  -0.092  0.00  0.00    -0.304 N 
ATOM      4  C   UNL d   1       0.329   0.745  -1.243  0.00  0.00     0.128 A 
ATOM      5  C   UNL d   1       0.412   1.463   0.045  0.00  0.00     0.271 A 
ATOM      6  C   UNL d   1      -0.228  -0.475  -1.246  0.00  0.00     0.124 A 
ATOM      7  C   UNL d   1       0.837   1.340  -2.423  0.00  0.00     0.106 C 
ATOM      8  N   UNL d   1       1.254   1.770  -3.420  0.00  0.00    -0.191 NA
ATOM      9  O   UNL d   1      -0.847  -1.022   2.222  0.00  0.00    -0.246 OA
ATOM     10  O   UNL d   1       0.807   2.620   0.133  0.00  0.00    -0.266 OA
ATOM     11  H   UNL d   1       0.091   1.222   2.042  0.00  0.00     0.173 HD
ENDROOT
BRANCH   3  12
ATOM     12  C   UNL d   1      -1.267  -2.433  -0.174  0.00  0.00     0.173 C 
BRANCH  12  13
ATOM     13  C   UNL d   1      -2.771  -2.460  -0.361  0.00  0.00    -0.018 A 
ATOM     14  C   UNL d   1      -3.392  -2.959  -1.518  0.00  0.00     0.042 A 
ATOM     15 CL   UNL d   1      -2.493  -3.417  -2.922  0.00  0.00    -0.084 Cl
ATOM     16  C   UNL d   1      -4.784  -3.119  -1.573  0.00  0.00     0.024 A 
ATOM     17  C   UNL d   1      -5.579  -2.765  -0.485  0.00  0.00     0.002 A 
ATOM     18  C   UNL d   1      -4.987  -2.221   0.649  0.00  0.00     0.001 A 
ATOM     19  C   UNL d   1      -3.600  -2.067   0.709  0.00  0.00     0.010 A 
ENDBRANCH  12  13
ENDBRANCH   3  12
TORSDOF 2
