REMARK  2 active torsions:
REMARK  status: ('A' for Active; 'I' for Inactive)
REMARK    1  A    between atoms: C_4  and  C_1 
REMARK       I    between atoms: N_7  and  C_1 
REMARK    2  A    between atoms: C_14  and  N_7 
ROOT
ATOM      1  C   UNL d   1       1.031  -0.025  -0.078  0.00  0.00     0.256 C 
ATOM      2  N   UNL d   1       0.253  -0.263  -1.198  0.00  0.00    -0.323 N 
ATOM      3  O   UNL d   1       2.255   0.005  -0.031  0.00  0.00    -0.267 OA
ATOM      4  H   UNL d   1      -0.731  -0.044  -1.134  0.00  0.00     0.169 HD
ENDROOT
BRANCH   1   5
ATOM      5  C   UNL d   1       0.281   0.284   1.171  0.00  0.00     0.033 A 
ATOM      6  C   UNL d   1      -0.928  -0.363   1.468  0.00  0.00     0.038 A 
ATOM      7  C   UNL d   1      -1.582  -0.021   2.666  0.00  0.00     0.033 A 
ATOM      8  S   UNL d   1      -3.073  -0.616   3.295  0.00  0.00    -0.083 SA
ATOM      9  C   UNL d   1      -1.055   0.916   3.560  0.00  0.00     0.049 A 
ATOM     10  C   UNL d   1      -2.908   0.423   4.646  0.00  0.00     0.139 A 
ATOM     11  N   UNL d   1      -1.824   1.161   4.685  0.00  0.00    -0.359 N 
ATOM     12  HN  UNL d   1      -1.584   1.815   5.430  1.00  0.00     0.166 HD
ATOM     13  C   UNL d   1       0.179   1.524   3.258  0.00  0.00     0.032 A 
ATOM     14  C   UNL d   1       0.838   1.201   2.066  0.00  0.00     0.019 A 
ENDBRANCH   1   5
BRANCH   2  15
ATOM     15  C   UNL d   1       0.716  -0.690  -2.462  0.00  0.00     0.035 A 
ATOM     16  C   UNL d   1       2.022  -1.132  -2.694  0.00  0.00     0.032 A 
ATOM     17  C   UNL d   1       2.408  -1.580  -3.960  0.00  0.00     0.044 A 
ATOM     18  C   UNL d   1       1.486  -1.583  -4.997  0.00  0.00     0.116 A 
ATOM     19  C   UNL d   1       0.185  -1.143  -4.792  0.00  0.00     0.044 A 
ATOM     20  F   UNL d   1       1.854  -2.020  -6.208  0.00  0.00    -0.206 F 
ATOM     21  C   UNL d   1      -0.203  -0.701  -3.522  0.00  0.00     0.032 A 
ENDBRANCH   2  15
TORSDOF 2
