REMARK  2 active torsions:
REMARK  status: ('A' for Active; 'I' for Inactive)
REMARK    1  A    between atoms: C_2  and  C_4 
REMARK       I    between atoms: N_7  and  C_2 
REMARK    2  A    between atoms: C_10  and  N_7 
ROOT
ATOM      1  C   UNL d   1       0.419  -0.615   0.232  0.00  0.00    -0.003 A 
ATOM      2  C   UNL d   1       0.844   0.746   0.238  0.00  0.00    -0.042 A 
ATOM      3  C   UNL d   1       1.404  -1.594   0.123  0.00  0.00     0.043 A 
ATOM      4  C   UNL d   1      -1.034  -0.613   0.414  0.00  0.00    -0.018 A 
ATOM      5  C   UNL d   1      -1.467   0.722   0.605  0.00  0.00    -0.043 A 
ATOM      6  C   UNL d   1      -0.305   1.678   0.548  0.00  0.00     0.078 A 
ATOM      7  C   UNL d   1       2.165   1.141   0.056  0.00  0.00     0.008 A 
ATOM      8  C   UNL d   1       2.748  -1.195  -0.077  0.00  0.00     0.018 A 
ATOM      9  C   UNL d   1      -1.994  -1.611   0.363  0.00  0.00     0.013 A 
ATOM     10  C   UNL d   1      -2.800   1.065   0.790  0.00  0.00     0.008 A 
ATOM     11  C   UNL d   1       3.121   0.154  -0.130  0.00  0.00     0.002 A 
ATOM     12  C   UNL d   1      -3.349  -1.273   0.505  0.00  0.00     0.001 A 
ATOM     13  C   UNL d   1      -3.748   0.051   0.731  0.00  0.00     0.001 A 
ENDROOT
BRANCH   3  14
ATOM     14  C   UNL d   1       1.242  -3.030   0.458  0.00  0.00     0.257 C 
ATOM     15  N   UNL d   1       0.381  -3.780  -0.312  0.00  0.00    -0.323 N 
ATOM     16  H   UNL d   1      -0.103  -3.306  -1.063  0.00  0.00     0.169 HD
ATOM     17  O   UNL d   1       1.960  -3.441   1.366  0.00  0.00    -0.267 OA
BRANCH  15  18
ATOM     18  C   UNL d   1       0.118  -5.165  -0.148  0.00  0.00     0.035 A 
ATOM     19  C   UNL d   1       0.782  -5.976   0.776  0.00  0.00     0.030 A 
ATOM     20  C   UNL d   1       0.509  -7.345   0.867  0.00  0.00     0.009 A 
ATOM     21  C   UNL d   1      -0.457  -7.932   0.048  0.00  0.00    -0.062 A 
ATOM     22  C   UNL d   1      -1.138  -7.125  -0.869  0.00  0.00     0.009 A 
ATOM     23  C   UNL d   1      -0.694  -9.412   0.106  0.00  0.00     0.048 C 
ATOM     24  C   UNL d   1      -0.853  -5.753  -0.965  0.00  0.00     0.030 A 
ENDBRANCH  15  18
ENDBRANCH   3  14
TORSDOF 2
