REMARK  7 active torsions:
REMARK  status: ('A' for Active; 'I' for Inactive)
REMARK    1  A    between atoms: C_3  and  N_1 
REMARK       I    between atoms: C_5  and  N_1 
REMARK    2  A    between atoms: N_2  and  C_4 
REMARK       I    between atoms: C_6  and  N_2 
REMARK    3  A    between atoms: C_4  and  C_3 
REMARK    4  A    between atoms: O_13  and  C_3 
REMARK    5  A    between atoms: O_14  and  C_4 
REMARK    6  A    between atoms: C_7  and  C_5 
REMARK    7  A    between atoms: C_8  and  C_6 
ROOT
ATOM      1  C   UNL d   1       0.530   1.163  -0.095  0.00  0.00     0.269 C 
ENDROOT
BRANCH   1   2
ATOM      2  N   UNL d   1       1.545   0.214   0.281  0.00  0.00    -0.328 N 
ATOM      3  C   UNL d   1       2.830   0.566   0.560  0.00  0.00     0.242 C 
ATOM      4  O   UNL d   1       3.259   1.703   0.402  0.00  0.00    -0.269 OA
ATOM      5  H   UNL d   1       1.189  -0.703   0.506  0.00  0.00     0.165 HD
BRANCH   3   6
ATOM      6  C   UNL d   1       3.658  -0.565   1.040  0.00  0.00     0.064 C 
ATOM      7  C   UNL d   1       4.893  -0.355   1.514  0.00  0.00     0.017 C 
ENDBRANCH   3   6
ENDBRANCH   1   2
BRANCH   1   8
ATOM      8  C   UNL d   1       0.681   1.710  -1.572  0.00  0.00     0.269 C 
BRANCH   8   9
ATOM      9  N   UNL d   1      -0.217   2.788  -1.899  0.00  0.00    -0.328 N 
ATOM     10  C   UNL d   1      -1.564   2.636  -2.026  0.00  0.00     0.242 C 
ATOM     11  O   UNL d   1      -2.158   1.614  -1.709  0.00  0.00    -0.269 OA
ATOM     12  H   UNL d   1       0.249   3.608  -2.257  0.00  0.00     0.165 HD
BRANCH  10  13
ATOM     13  C   UNL d   1      -2.238   3.838  -2.575  0.00  0.00     0.064 C 
ATOM     14  C   UNL d   1      -3.559   3.849  -2.789  0.00  0.00     0.017 C 
ENDBRANCH  10  13
ENDBRANCH   8   9
BRANCH   8  15
ATOM     15  O   UNL d   1       1.942   2.287  -1.867  0.00  0.00    -0.372 OA
ATOM     16  H   UNL d   1       2.498   2.228  -1.061  0.00  0.00     0.212 HD
ENDBRANCH   8  15
ENDBRANCH   1   8
BRANCH   1  17
ATOM     17  O   UNL d   1      -0.660   0.420   0.112  0.00  0.00    -0.372 OA
ATOM     18  H   UNL d   1      -1.351   0.801  -0.473  0.00  0.00     0.212 HD
ENDBRANCH   1  17
TORSDOF 7
