REMARK  3 active torsions:
REMARK  status: ('A' for Active; 'I' for Inactive)
REMARK    1  A    between atoms: N_2  and  C_1 
REMARK    2  A    between atoms: N_3  and  C_1 
REMARK    3  A    between atoms: C_5  and  N_3 
ROOT
ATOM      1  N   UNL d   1       0.225   0.627  -0.854  0.00  0.00    -0.333 N 
ATOM      2  H   UNL d   1      -0.366  -0.067  -1.293  0.00  0.00     0.168 HD
ENDROOT
BRANCH   1   3
ATOM      3  C   UNL d   1       0.992   0.137   0.192  0.00  0.00     0.174 C 
ATOM      4  S   UNL d   1       2.661   0.372   0.275  0.00  0.00    -0.041 SA
BRANCH   3   5
ATOM      5  N   UNL d   1       0.256  -0.649   1.100  0.00  0.00    -0.358 N 
ATOM      6  C   UNL d   1       0.867  -1.315   2.262  0.00  0.00     0.125 C 
ATOM      7  C   UNL d   1       0.373  -2.757   2.392  0.00  0.00     0.020 C 
ATOM      8  C   UNL d   1      -1.150  -2.851   2.368  0.00  0.00     0.003 C 
ATOM      9  C   UNL d   1      -1.742  -2.076   1.193  0.00  0.00     0.020 C 
ATOM     10  C   UNL d   1      -1.214  -0.646   1.157  0.00  0.00     0.125 C 
ENDBRANCH   3   5
ENDBRANCH   1   3
BRANCH   1  11
ATOM     11  C   UNL d   1       0.341   1.861  -1.532  0.00  0.00     0.034 A 
ATOM     12  C   UNL d   1       0.894   2.995  -0.930  0.00  0.00     0.036 A 
ATOM     13  C   UNL d   1       0.931   4.224  -1.603  0.00  0.00    -0.060 A 
ATOM     14  C   UNL d   1       1.483   5.446  -0.931  0.00  0.00     0.048 C 
ATOM     15  C   UNL d   1       0.400   4.309  -2.894  0.00  0.00     0.007 A 
ATOM     16  C   UNL d   1      -0.167   3.186  -3.496  0.00  0.00     0.003 A 
ATOM     17  C   UNL d   1      -0.211   1.969  -2.812  0.00  0.00     0.029 A 
ENDBRANCH   1  11
TORSDOF 3
