REMARK  5 active torsions:
REMARK  status: ('A' for Active; 'I' for Inactive)
REMARK    1  A    between atoms: C_2  and  C_1 
REMARK    2  A    between atoms: O_14  and  C_2 
REMARK    3  A    between atoms: C_12  and  C_4 
REMARK    4  A    between atoms: C_6  and  C_19 
REMARK    5  A    between atoms: C_19  and  O_14 
ROOT
ATOM      1  N   UNL d   1       8.736  10.145  -0.597  0.00  0.00    -0.191 NA
ATOM      2  C   UNL d   1       7.770   9.520  -0.450  0.00  0.00     0.099 C 
ATOM      3  C   UNL d   1       4.223   7.233  -0.051  0.00  0.00     0.017 A 
ATOM      4  C   UNL d   1       6.572   8.746  -0.285  0.00  0.00     0.044 A 
ATOM      5  C   UNL d   1       4.165   8.628  -0.009  0.00  0.00     0.022 A 
ATOM      6  C   UNL d   1       5.459   6.594  -0.178  0.00  0.00     0.022 A 
ATOM      7  C   UNL d   1       5.337   9.384  -0.130  0.00  0.00     0.024 A 
ATOM      8  C   UNL d   1       6.631   7.348  -0.297  0.00  0.00     0.024 A 
ENDROOT
BRANCH   3   9
ATOM      9  C   UNL d   1       3.019   6.460  -0.002  0.00  0.00    -0.065 C 
ATOM     10  C   UNL d   1       2.008   5.811   0.009  0.00  0.00    -0.074 C 
BRANCH  10  11
ATOM     11  C   UNL d   1       0.768   5.027   0.025  0.00  0.00     0.273 C 
BRANCH  11  12
ATOM     12  O   UNL d   1       1.052   3.621   0.034  0.00  0.00    -0.305 OA
BRANCH  12  13
ATOM     13  C   UNL d   1       1.301   3.102   1.273  0.00  0.00     0.301 C 
ATOM     14  O   UNL d   1       1.297   3.762   2.305  0.00  0.00    -0.259 OA
BRANCH  13  15
ATOM     15  C   UNL d   1       1.552   1.675   1.171  0.00  0.00     0.080 A 
ATOM     16  S   UNL d   1       1.933   0.797   2.598  0.00  0.00    -0.096 SA
ATOM     17  C   UNL d   1       2.073  -0.675   1.744  0.00  0.00     0.050 A 
ATOM     18  C   UNL d   1       1.833  -0.515   0.398  0.00  0.00     0.009 A 
ATOM     19  C   UNL d   1       1.533   0.840   0.067  0.00  0.00     0.025 A 
ENDBRANCH  13  15
ENDBRANCH  12  13
ENDBRANCH  11  12
ENDBRANCH  10  11
ENDBRANCH   3   9
TORSDOF 5
