REMARK  5 active torsions:
REMARK  status: ('A' for Active; 'I' for Inactive)
REMARK    1  A    between atoms: N_8  and  S_1 
REMARK    2  A    between atoms: C_10  and  S_1 
REMARK    3  A    between atoms: C_2  and  C_9 
REMARK    4  A    between atoms: C_14  and  C_5 
REMARK    5  A    between atoms: C_9  and  N_8 
ROOT
ATOM      1  C   UNL d   1       0.419  -3.208   2.260  0.00  0.00     0.017 A 
ATOM      2  N   UNL d   1       0.060  -5.127   3.447  0.00  0.00    -0.260 N 
ATOM      3  HN  UNL d   1       0.043  -6.104   3.740  1.00  0.00     0.195 HD
ATOM      4  C   UNL d   1       0.544  -4.646   2.292  0.00  0.00     0.075 A 
ATOM      5  O   UNL d   1      -0.406  -4.051   4.159  0.00  0.00    -0.242 OA
ATOM      6  C   UNL d   1      -0.208  -2.909   3.455  0.00  0.00     0.082 A 
ATOM      7  C   UNL d   1      -0.705  -1.681   4.107  0.00  0.00     0.079 C 
ENDROOT
BRANCH   1   8
ATOM      8  C   UNL d   1       0.837  -2.331   1.132  0.00  0.00     0.148 C 
BRANCH   8   9
ATOM      9  N   UNL d   1       1.181  -0.974   1.544  0.00  0.00    -0.211 NA
ATOM     10  H   UNL d   1       0.494  -0.481   2.104  0.00  0.00     0.140 HD
BRANCH   9  11
ATOM     11  S   UNL d   1       1.771   0.015   0.301  0.00  0.00     0.241 S 
ATOM     12  O   UNL d   1       2.694  -0.756  -0.496  0.00  0.00    -0.206 OA
ATOM     13  O   UNL d   1       2.127   1.280   0.903  0.00  0.00    -0.206 OA
BRANCH  11  14
ATOM     14  C   UNL d   1       0.308   0.305  -0.669  0.00  0.00     0.075 A 
ATOM     15  C   UNL d   1       0.223  -0.168  -1.981  0.00  0.00     0.043 A 
ATOM     16  C   UNL d   1      -0.922   0.117  -2.724  0.00  0.00     0.012 A 
ATOM     17 BR   UNL d   1      -1.056  -0.487  -4.511  0.00  0.00    -0.051 Br
ATOM     18  C   UNL d   1      -1.969   0.855  -2.168  0.00  0.00     0.019 A 
ATOM     19  C   UNL d   1      -1.876   1.317  -0.854  0.00  0.00     0.003 A 
ATOM     20  C   UNL d   1      -0.734   1.048  -0.102  0.00  0.00     0.025 A 
ENDBRANCH  11  14
ENDBRANCH   9  11
ENDBRANCH   8   9
ENDBRANCH   1   8
BRANCH   4  21
ATOM     21  C   UNL d   1       1.098  -5.558   1.278  0.00  0.00    -0.007 A 
ATOM     22  C   UNL d   1       1.046  -5.262  -0.093  0.00  0.00     0.014 A 
ATOM     23  C   UNL d   1       1.625  -6.110  -1.040  0.00  0.00     0.001 A 
ATOM     24  C   UNL d   1       2.226  -7.295  -0.634  0.00  0.00     0.000 A 
ATOM     25  C   UNL d   1       2.252  -7.630   0.718  0.00  0.00     0.001 A 
ATOM     26  C   UNL d   1       1.698  -6.766   1.667  0.00  0.00     0.014 A 
ENDBRANCH   4  21
TORSDOF 5
