REMARK  2 active torsions:
REMARK  status: ('A' for Active; 'I' for Inactive)
REMARK       I    between atoms: N_3  and  C_1 
REMARK    1  A    between atoms: C_6  and  C_1 
REMARK    2  A    between atoms: C_5  and  N_4 
ROOT
ATOM      1  C   UNL d   1       0.988   0.035   0.122  0.00  0.00     0.260 C 
ATOM      2  N   UNL d   1       0.333  -1.054   0.711  0.00  0.00    -0.344 N 
ATOM      3  N   UNL d   1      -0.446  -3.606   1.703  0.00  0.00    -0.377 N 
ATOM      4  C   UNL d   1       0.737  -1.485   2.062  0.00  0.00     0.146 C 
ATOM      5  C   UNL d   1      -0.833  -1.763   0.160  0.00  0.00     0.146 C 
ATOM      6  C   UNL d   1       0.815  -3.021   2.193  0.00  0.00     0.143 C 
ATOM      7  C   UNL d   1      -0.739  -3.288   0.310  0.00  0.00     0.143 C 
ATOM      8  O   UNL d   1       1.972   0.528   0.668  0.00  0.00    -0.267 OA
ENDROOT
BRANCH   3   9
ATOM      9  C   UNL d   1      -0.944  -4.764   2.290  0.00  0.00     0.043 A 
ATOM     10  C   UNL d   1      -1.320  -5.958   1.604  0.00  0.00     0.018 A 
ATOM     11  C   UNL d   1      -1.911  -7.005   2.318  0.00  0.00     0.044 A 
ATOM     12  C   UNL d   1      -1.227  -6.415   0.249  0.00  0.00     0.033 A 
ATOM     13  N   UNL d   1      -2.185  -8.019   1.428  0.00  0.00    -0.365 N 
ATOM     14  C   UNL d   1      -2.161  -6.952   3.693  0.00  0.00     0.030 A 
ATOM     15  C   UNL d   1      -1.777  -7.673   0.171  0.00  0.00     0.089 A 
ATOM     16  H   UNL d   1      -2.621  -8.894   1.677  0.00  0.00     0.165 HD
ATOM     17  C   UNL d   1      -1.791  -5.796   4.367  0.00  0.00     0.005 A 
ATOM     18  C   UNL d   1      -1.197  -4.737   3.683  0.00  0.00     0.030 A 
ENDBRANCH   3   9
BRANCH   1  19
ATOM     19  C   UNL d   1       0.497   0.527  -1.163  0.00  0.00     0.072 C 
ATOM     20  S   UNL d   1       1.648   0.980  -2.358  0.00  0.00    -0.097 SA
ATOM     21  C   UNL d   1       0.429   1.270  -3.521  0.00  0.00     0.050 C 
ATOM     22  C   UNL d   1      -0.832   1.087  -3.004  0.00  0.00     0.009 C 
ATOM     23  C   UNL d   1      -0.792   0.738  -1.623  0.00  0.00     0.025 C 
ENDBRANCH   1  19
TORSDOF 2
