REMARK  4 active torsions:
REMARK  status: ('A' for Active; 'I' for Inactive)
REMARK    1  A    between atoms: C_4  and  C_1 
REMARK       I    between atoms: N_7  and  C_4 
REMARK    2  A    between atoms: C_11  and  N_7 
REMARK    3  A    between atoms: C_14  and  C_11 
REMARK    4  A    between atoms: C_15  and  C_12 
ROOT
ATOM      1  C   UNL d   1      -2.395  -0.193  -0.092  0.00  0.00     0.102 A 
ATOM      2  N   UNL d   1      -1.600   0.937  -0.069  0.00  0.00    -0.351 N 
ATOM      3  C   UNL d   1      -1.531  -1.273  -0.028  0.00  0.00     0.049 A 
ATOM      4  C   UNL d   1      -0.195  -0.781  -0.015  0.00  0.00    -0.007 A 
ATOM      5  C   UNL d   1      -0.267   0.608  -0.045  0.00  0.00     0.043 A 
ATOM      6  C   UNL d   1       1.072  -1.395   0.010  0.00  0.00     0.021 A 
ATOM      7  C   UNL d   1       0.872   1.422  -0.052  0.00  0.00     0.031 A 
ATOM      8  C   UNL d   1       2.235  -0.606  -0.003  0.00  0.00    -0.058 A 
ATOM      9  C   UNL d   1       2.123   0.789  -0.039  0.00  0.00     0.009 A 
ATOM     10  H   UNL d   1      -1.972   1.877  -0.096  0.00  0.00     0.166 HD
ENDROOT
BRANCH   1  11
ATOM     11  C   UNL d   1      -3.836  -0.090  -0.169  0.00  0.00     0.268 C 
ATOM     12  N   UNL d   1      -4.517  -1.282  -0.264  0.00  0.00    -0.351 N 
ATOM     13  H   UNL d   1      -4.011  -2.153  -0.210  0.00  0.00     0.163 HD
ATOM     14  O   UNL d   1      -4.402   0.998  -0.155  0.00  0.00    -0.266 OA
BRANCH  12  15
ATOM     15  C   UNL d   1      -5.962  -1.334  -0.252  0.00  0.00     0.161 C 
BRANCH  15  16
ATOM     16  C   UNL d   1      -6.558  -2.143  -1.381  0.00  0.00    -0.041 A 
ATOM     17  C   UNL d   1      -7.783  -2.802  -1.176  0.00  0.00     0.009 A 
ATOM     18  C   UNL d   1      -8.425  -3.466  -2.223  0.00  0.00     0.001 A 
ATOM     19  C   UNL d   1      -7.856  -3.478  -3.493  0.00  0.00     0.000 A 
ATOM     20  C   UNL d   1      -6.642  -2.829  -3.714  0.00  0.00     0.001 A 
ATOM     21  C   UNL d   1      -6.001  -2.161  -2.667  0.00  0.00     0.009 A 
ENDBRANCH  15  16
ENDBRANCH  12  15
ENDBRANCH   1  11
BRANCH   8  22
ATOM     22  C   UNL d   1       3.589  -1.272  -0.009  0.00  0.00     0.034 C 
ATOM     23  C   UNL d   1       4.060  -1.602  -1.418  0.00  0.00     0.010 C 
ENDBRANCH   8  22
TORSDOF 4
