REMARK  8 active torsions:
REMARK  status: ('A' for Active; 'I' for Inactive)
REMARK    1  A    between atoms: O_5  and  C_1 
REMARK    2  A    between atoms: C_6  and  C_1 
REMARK    3  A    between atoms: N_2  and  O_5 
REMARK    4  A    between atoms: C_7  and  C_4 
REMARK    5  A    between atoms: N_11  and  C_4 
REMARK    6  A    between atoms: O_12  and  C_13 
REMARK    7  A    between atoms: C_18  and  O_12 
REMARK    8  A    between atoms: C_17  and  C_18 
ROOT
ATOM      1  C   UNL d   1      -1.051   2.797   2.306  0.00  0.00     0.004 A 
ATOM      2  C   UNL d   1       0.085   3.439   1.801  0.00  0.00     0.017 A 
ATOM      3  C   UNL d   1      -1.544   3.150   3.567  0.00  0.00     0.017 A 
ATOM      4  C   UNL d   1       0.252   4.754   3.831  0.00  0.00     0.069 A 
ATOM      5  C   UNL d   1      -0.898   4.131   4.323  0.00  0.00     0.037 A 
ATOM      6  C   UNL d   1       0.724   4.424   2.559  0.00  0.00     0.037 A 
ENDROOT
BRANCH   1   7
ATOM      7  C   UNL d   1      -1.726   1.727   1.509  0.00  0.00     0.109 C 
ATOM      8  N   UNL d   1      -0.997   1.048   0.677  0.00  0.00    -0.246 N 
ATOM      9  HN  UNL d   1      -0.002   1.211   0.523  1.00  0.00     0.196 HD
BRANCH   8  10
ATOM     10  O   UNL d   1      -1.746   0.060   0.013  0.00  0.00    -0.196 OA
BRANCH  10  11
ATOM     11  C   UNL d   1      -0.943  -0.620  -0.879  0.00  0.00     0.314 C 
ATOM     12  O   UNL d   1       0.256  -0.417  -1.055  0.00  0.00    -0.260 OA
BRANCH  11  13
ATOM     13  C   UNL d   1      -1.732  -1.745  -1.526  0.00  0.00     0.279 C 
ATOM     14 CL   UNL d   1      -3.405  -1.252  -1.904  0.00  0.00    -0.097 Cl
ATOM     15 CL   UNL d   1      -0.943  -2.290  -3.027  0.00  0.00    -0.097 Cl
ENDBRANCH  11  13
ENDBRANCH  10  11
ENDBRANCH   8  10
BRANCH   7  16
ATOM     16  N   UNL d   1      -3.076   1.526   1.691  0.00  0.00    -0.286 NA
ATOM     17  H   UNL d   1      -3.501   0.999   0.934  0.00  0.00     0.125 HD
ATOM     18  H   UNL d   1      -3.612   2.356   1.921  0.00  0.00     0.125 HD
ENDBRANCH   7  16
ENDBRANCH   1   7
BRANCH   4  19
ATOM     19  O   UNL d   1       0.986   5.693   4.503  0.00  0.00    -0.347 OA
BRANCH  19  20
ATOM     20  C   UNL d   1       0.834   5.688   5.924  0.00  0.00     0.214 C 
BRANCH  20  21
ATOM     21  C   UNL d   1       2.006   6.396   6.559  0.00  0.00    -0.034 A 
ATOM     22  C   UNL d   1       1.802   7.437   7.476  0.00  0.00     0.011 A 
ATOM     23  C   UNL d   1       2.888   8.052   8.100  0.00  0.00     0.024 A 
ATOM     24  C   UNL d   1       4.184   7.626   7.814  0.00  0.00     0.034 A 
ATOM     25  C   UNL d   1       4.403   6.590   6.909  0.00  0.00     0.024 A 
ATOM     26 CL   UNL d   1       5.522   8.382   8.591  0.00  0.00    -0.084 Cl
ATOM     27  C   UNL d   1       3.317   5.976   6.285  0.00  0.00     0.011 A 
ENDBRANCH  20  21
ENDBRANCH  19  20
ENDBRANCH   4  19
TORSDOF 8
