REMARK  5 active torsions:
REMARK  status: ('A' for Active; 'I' for Inactive)
REMARK    1  A    between atoms: C_2  and  C_1 
REMARK       I    between atoms: N_3  and  C_1 
REMARK    2  A    between atoms: C_12  and  N_3 
REMARK    3  A    between atoms: N_4  and  C_13 
REMARK    4  A    between atoms: O_14  and  C_6 
REMARK    5  A    between atoms: C_11  and  C_8 
ROOT
ATOM      1  C   UNL d   1      -1.151   0.996   0.647  0.00  0.00     0.035 A 
ATOM      2  C   UNL d   1      -3.981   0.999   0.800  0.00  0.00     0.032 A 
ATOM      3  C   UNL d   1      -1.848  -0.149   1.036  0.00  0.00     0.032 A 
ATOM      4  C   UNL d   1      -1.879   2.165   0.401  0.00  0.00     0.032 A 
ATOM      5  C   UNL d   1      -3.245  -0.143   1.122  0.00  0.00     0.031 A 
ATOM      6  C   UNL d   1      -3.279   2.162   0.477  0.00  0.00     0.031 A 
ENDROOT
BRANCH   1   7
ATOM      7  N   UNL d   1       0.252   1.037   0.464  0.00  0.00    -0.323 N 
ATOM      8  C   UNL d   1       1.115  -0.046   0.516  0.00  0.00     0.259 C 
ATOM      9  O   UNL d   1       0.807  -1.212   0.757  0.00  0.00    -0.267 OA
ATOM     10  H   UNL d   1       0.621   1.918   0.140  0.00  0.00     0.169 HD
BRANCH   8  11
ATOM     11  C   UNL d   1       2.543   0.207   0.170  0.00  0.00     0.065 A 
ATOM     12  C   UNL d   1       3.309  -0.843  -0.367  0.00  0.00     0.081 A 
ATOM     13  C   UNL d   1       4.641  -0.647  -0.725  0.00  0.00     0.037 A 
ATOM     14  C   UNL d   1       5.234   0.599  -0.528  0.00  0.00     0.003 A 
ATOM     15  C   UNL d   1       4.495   1.641   0.031  0.00  0.00     0.001 A 
ATOM     16  C   UNL d   1       3.154   1.450   0.383  0.00  0.00     0.020 A 
BRANCH  12  17
ATOM     17  O   UNL d   1       2.814  -2.105  -0.571  0.00  0.00    -0.360 OA
ATOM     18  H   UNL d   1       1.945  -2.162  -0.111  0.00  0.00     0.217 HD
ENDBRANCH  12  17
ENDBRANCH   8  11
ENDBRANCH   1   7
BRANCH   2  19
ATOM     19  N   UNL d   1      -5.388   1.044   0.805  0.00  0.00    -0.365 N 
ATOM     20  C   UNL d   1      -6.040   0.015   0.363  0.00  0.00     0.101 C 
ATOM     21  HN  UNL d   1      -5.882   1.868   1.148  1.00  0.00     0.165 HD
BRANCH  20  22
ATOM     22  C   UNL d   1      -7.508  -0.011   0.285  0.00  0.00    -0.005 A 
ATOM     23  C   UNL d   1      -8.148  -1.189  -0.076  0.00  0.00     0.100 A 
ATOM     24  N   UNL d   1      -9.490  -1.303  -0.214  0.00  0.00    -0.374 N 
ATOM     25  C   UNL d   1     -10.218  -0.187   0.019  0.00  0.00     0.087 A 
ATOM     26  HN  UNL d   1      -9.929  -2.185  -0.478  1.00  0.00     0.164 HD
ATOM     27  C   UNL d   1      -9.667   1.032   0.388  0.00  0.00     0.018 A 
ATOM     28  C   UNL d   1      -8.284   1.120   0.527  0.00  0.00     0.015 A 
ENDBRANCH  20  22
ENDBRANCH   2  19
TORSDOF 5
