REMARK  5 active torsions:
REMARK  status: ('A' for Active; 'I' for Inactive)
REMARK    1  A    between atoms: C_2  and  C_1 
REMARK       I    between atoms: N_3  and  C_1 
REMARK    2  A    between atoms: C_15  and  N_3 
REMARK    3  A    between atoms: O_16  and  C_5 
REMARK    4  A    between atoms: C_6  and  C_15 
REMARK    5  A    between atoms: O_17  and  C_8 
ROOT
ATOM      1  C   UNL d   1       0.185  -1.190   0.003  0.00  0.00     0.034 A 
ATOM      2  C   UNL d   1       0.586  -2.046   1.043  0.00  0.00     0.056 A 
ATOM      3  C   UNL d   1      -0.094  -3.249   1.295  0.00  0.00     0.102 A 
ATOM      4  C   UNL d   1      -1.197  -3.583   0.488  0.00  0.00     0.101 A 
ATOM      5  C   UNL d   1      -0.903  -1.533  -0.797  0.00  0.00     0.020 A 
ATOM      6  C   UNL d   1      -1.591  -2.719  -0.544  0.00  0.00     0.040 A 
ENDROOT
BRANCH   1   7
ATOM      7  C   UNL d   1       0.877   0.117  -0.147  0.00  0.00     0.252 C 
ATOM      8  N   UNL d   1       0.907   0.666  -1.409  0.00  0.00    -0.351 N 
ATOM      9  H   UNL d   1       0.725   0.094  -2.224  0.00  0.00     0.163 HD
ATOM     10  O   UNL d   1       1.391   0.654   0.829  0.00  0.00    -0.268 OA
BRANCH   8  11
ATOM     11  C   UNL d   1       1.563   1.935  -1.622  0.00  0.00     0.187 C 
BRANCH  11  12
ATOM     12  C   UNL d   1       1.480   2.340  -3.050  0.00  0.00     0.070 A 
ATOM     13  O   UNL d   1       1.523   1.352  -3.994  0.00  0.00    -0.325 OA
ATOM     14  C   UNL d   1       1.479   1.961  -5.206  0.00  0.00     0.142 A 
ATOM     15  C   UNL d   1       1.406   3.325  -5.061  0.00  0.00     0.027 A 
ATOM     16  C   UNL d   1       1.403   3.571  -3.665  0.00  0.00     0.036 A 
ENDBRANCH  11  12
ENDBRANCH   8  11
ENDBRANCH   1   7
BRANCH   3  17
ATOM     17  O   UNL d   1       0.239  -4.099   2.316  0.00  0.00    -0.353 OA
ATOM     18  C   UNL d   1       1.362  -3.775   3.126  0.00  0.00     0.210 C 
ENDBRANCH   3  17
BRANCH   4  19
ATOM     19  O   UNL d   1      -2.034  -4.662   0.615  0.00  0.00    -0.353 OA
ATOM     20  C   UNL d   1      -1.499  -5.851   1.179  0.00  0.00     0.210 C 
ENDBRANCH   4  19
TORSDOF 5
