REMARK  3 active torsions:
REMARK  status: ('A' for Active; 'I' for Inactive)
REMARK    1  A    between atoms: C_13  and  N_1 
REMARK    2  A    between atoms: C_7  and  N_2 
REMARK    3  A    between atoms: C_17  and  C_13 
ROOT
ATOM      1  N   UNL d   1      -0.705   1.141  -0.077  0.00  0.00    -0.265 N 
ATOM      2  N   UNL d   1      -0.613  -1.234  -0.106  0.00  0.00    -0.273 N 
ATOM      3  C   UNL d   1      -1.412  -0.070  -0.064  0.00  0.00     0.336 A 
ATOM      4  C   UNL d   1       1.442  -0.011  -0.082  0.00  0.00     0.128 A 
ATOM      5  C   UNL d   1       0.680   1.254  -0.090  0.00  0.00     0.273 A 
ATOM      6  C   UNL d   1       0.768  -1.158  -0.085  0.00  0.00     0.130 A 
ATOM      7  C   UNL d   1       2.861   0.011  -0.072  0.00  0.00     0.106 C 
ATOM      8  N   UNL d   1       4.020  -0.049  -0.056  0.00  0.00    -0.191 NA
ATOM      9  O   UNL d   1      -2.641  -0.095   0.016  0.00  0.00    -0.246 OA
ATOM     10  O   UNL d   1       1.276   2.329  -0.090  0.00  0.00    -0.266 OA
ENDROOT
BRANCH   1  11
ATOM     11  C   UNL d   1      -1.478   2.383   0.017  0.00  0.00     0.137 C 
BRANCH  11  12
ATOM     12  C   UNL d   1      -1.804   3.031  -1.334  0.00  0.00     0.016 C 
ATOM     13  C   UNL d   1      -2.744   2.213  -2.205  0.00  0.00     0.006 C 
ENDBRANCH  11  12
ENDBRANCH   1  11
BRANCH   2  14
ATOM     14  C   UNL d   1      -1.251  -2.520  -0.087  0.00  0.00     0.049 A 
ATOM     15  C   UNL d   1      -2.197  -2.915  -1.055  0.00  0.00    -0.035 A 
ATOM     16  C   UNL d   1      -2.584  -2.080  -2.245  0.00  0.00     0.050 C 
ATOM     17  C   UNL d   1      -2.776  -4.195  -0.960  0.00  0.00     0.009 A 
ATOM     18  C   UNL d   1      -2.398  -5.087   0.044  0.00  0.00     0.001 A 
ATOM     19  C   UNL d   1      -1.440  -4.712   0.976  0.00  0.00     0.002 A 
ATOM     20  C   UNL d   1      -0.871  -3.439   0.911  0.00  0.00     0.031 A 
ENDBRANCH   2  14
TORSDOF 3
