REMARK  6 active torsions:
REMARK  status: ('A' for Active; 'I' for Inactive)
REMARK    1  A    between atoms: S_9  and  C_1 
REMARK    2  A    between atoms: C_6  and  C_3 
REMARK    3  A    between atoms: C_13  and  C_7 
REMARK       I    between atoms: C_8  and  N_11 
REMARK    4  A    between atoms: C_12  and  C_8 
REMARK    5  A    between atoms: C_16  and  S_9 
REMARK    6  A    between atoms: N_11  and  C_17 
ROOT
ATOM      1  C   UNL d   1       0.047  -3.196  -1.918  0.00  0.00     0.097 A 
ATOM      2  C   UNL d   1      -1.320  -3.132  -2.228  0.00  0.00     0.093 A 
ATOM      3  C   UNL d   1      -1.900  -4.229  -2.887  0.00  0.00     0.073 A 
ATOM      4  N   UNL d   1       0.818  -4.273  -2.219  0.00  0.00    -0.348 N 
ATOM      5  HN  UNL d   1       1.812  -4.279  -1.990  1.00  0.00     0.166 HD
ATOM      6  C   UNL d   1       0.247  -5.338  -2.827  0.00  0.00     0.051 A 
ATOM      7  C   UNL d   1      -1.099  -5.353  -3.158  0.00  0.00     0.048 A 
ATOM      8  C   UNL d   1      -2.083  -1.964  -1.898  0.00  0.00     0.103 C 
ATOM      9  N   UNL d   1      -2.716  -1.020  -1.647  0.00  0.00    -0.191 NA
ENDROOT
BRANCH   1  10
ATOM     10  S   UNL d   1       0.890  -1.742  -1.290  0.00  0.00    -0.069 SA
BRANCH  10  11
ATOM     11  C   UNL d   1       2.278  -2.353  -0.327  0.00  0.00     0.033 A 
ATOM     12  C   UNL d   1       2.485  -1.964   1.014  0.00  0.00     0.052 A 
ATOM     13  C   UNL d   1       3.792  -1.968   1.529  0.00  0.00     0.031 A 
ATOM     14  C   UNL d   1       4.858  -2.476   0.784  0.00  0.00     0.002 A 
ATOM     15  C   UNL d   1       4.630  -2.985  -0.487  0.00  0.00     0.002 A 
ATOM     16  C   UNL d   1       3.356  -2.897  -1.048  0.00  0.00     0.021 A 
BRANCH  12  17
ATOM     17  N   UNL d   1       1.487  -1.508   1.907  0.00  0.00    -0.321 N 
ATOM     18  C   UNL d   1       0.160  -1.909   1.960  0.00  0.00     0.263 C 
ATOM     19  O   UNL d   1      -0.322  -2.803   1.268  0.00  0.00    -0.267 OA
ATOM     20  H   UNL d   1       1.804  -1.013   2.731  0.00  0.00     0.169 HD
BRANCH  18  21
ATOM     21  C   UNL d   1      -0.643  -1.205   2.961  0.00  0.00     0.072 A 
ATOM     22  S   UNL d   1       0.031  -0.053   4.042  0.00  0.00    -0.097 SA
ATOM     23  C   UNL d   1      -1.502   0.360   4.672  0.00  0.00     0.050 A 
ATOM     24  C   UNL d   1      -2.505  -0.412   4.133  0.00  0.00     0.009 A 
ATOM     25  C   UNL d   1      -2.004  -1.340   3.174  0.00  0.00     0.025 A 
ENDBRANCH  18  21
ENDBRANCH  12  17
ENDBRANCH  10  11
ENDBRANCH   1  10
BRANCH   3  26
ATOM     26  C   UNL d   1      -3.324  -4.264  -3.376  0.00  0.00     0.419 C 
ATOM     27  F   UNL d   1      -4.012  -3.102  -3.262  0.00  0.00    -0.166 F 
ATOM     28  F   UNL d   1      -3.384  -4.591  -4.699  0.00  0.00    -0.166 F 
ATOM     29  F   UNL d   1      -4.062  -5.206  -2.731  0.00  0.00    -0.166 F 
ENDBRANCH   3  26
BRANCH   6  30
ATOM     30  C   UNL d   1       1.185  -6.423  -3.160  0.00  0.00     0.031 A 
ATOM     31  S   UNL d   1       0.836  -7.554  -4.411  0.00  0.00    -0.100 SA
ATOM     32  C   UNL d   1       2.334  -8.349  -4.226  0.00  0.00     0.050 A 
ATOM     33  C   UNL d   1       3.094  -7.786  -3.228  0.00  0.00     0.008 A 
ATOM     34  C   UNL d   1       2.432  -6.682  -2.614  0.00  0.00     0.021 A 
ENDBRANCH   6  30
TORSDOF 6
