REMARK  7 active torsions:
REMARK  status: ('A' for Active; 'I' for Inactive)
REMARK    1  A    between atoms: C_4  and  C_1 
REMARK    2  A    between atoms: N_7  and  C_1 
REMARK    3  A    between atoms: O_8  and  N_2 
REMARK    4  A    between atoms: C_12  and  C_11 
REMARK    5  A    between atoms: C_13  and  C_12 
REMARK    6  A    between atoms: C_15  and  C_13 
REMARK    7  A    between atoms: C_14  and  C_15 
ROOT
ATOM      1  C   UNL d   1       0.294   0.012   1.267  0.00  0.00     0.004 A 
ATOM      2  C   UNL d   1       0.739   0.746   2.369  0.00  0.00     0.015 A 
ATOM      3  C   UNL d   1      -0.868  -0.760   1.369  0.00  0.00     0.015 A 
ATOM      4  C   UNL d   1       0.021   0.714   3.568  0.00  0.00     0.008 A 
ATOM      5  C   UNL d   1      -1.581  -0.794   2.570  0.00  0.00     0.008 A 
ATOM      6  C   UNL d   1      -1.140  -0.064   3.683  0.00  0.00    -0.058 A 
ENDROOT
BRANCH   1   7
ATOM      7  C   UNL d   1       1.058   0.050  -0.016  0.00  0.00     0.108 C 
ATOM      8  N   UNL d   1       2.336   0.298   0.024  0.00  0.00    -0.258 N 
ATOM      9  HN  UNL d   1       2.867   0.463   0.879  1.00  0.00     0.195 HD
BRANCH   8  10
ATOM     10  O   UNL d   1       2.885   0.307  -1.270  0.00  0.00    -0.289 OA
ATOM     11  H   UNL d   1       3.841   0.352  -1.081  0.00  0.00     0.244 HD
ENDBRANCH   8  10
BRANCH   7  12
ATOM     12  N   UNL d   1       0.386  -0.164  -1.198  0.00  0.00    -0.287 NA
ATOM     13  H   UNL d   1       0.985   0.106  -1.975  0.00  0.00     0.125 HD
ATOM     14  H   UNL d   1      -0.527   0.270  -1.250  0.00  0.00     0.125 HD
ENDBRANCH   7  12
ENDBRANCH   1   7
BRANCH   6  15
ATOM     15  C   UNL d   1      -1.901  -0.105   4.986  0.00  0.00     0.038 C 
BRANCH  15  16
ATOM     16  C   UNL d   1      -2.041  -1.508   5.593  0.00  0.00     0.005 C 
BRANCH  16  17
ATOM     17  C   UNL d   1      -0.697  -2.142   5.968  0.00  0.00    -0.000 C 
BRANCH  17  18
ATOM     18  C   UNL d   1      -0.899  -3.529   6.577  0.00  0.00    -0.005 C 
ATOM     19  C   UNL d   1       0.426  -4.181   6.939  0.00  0.00     0.005 C 
ENDBRANCH  17  18
ENDBRANCH  16  17
ENDBRANCH  15  16
ENDBRANCH   6  15
TORSDOF 7
