REMARK  8 active torsions:
REMARK  status: ('A' for Active; 'I' for Inactive)
REMARK    1  A    between atoms: N_2  and  C_1 
REMARK       I    between atoms: C_3  and  N_2 
REMARK    2  A    between atoms: C_17  and  C_3 
REMARK    3  A    between atoms: C_7  and  C_18 
REMARK    4  A    between atoms: O_21  and  C_7 
REMARK    5  A    between atoms: O_10  and  C_8 
REMARK    6  A    between atoms: C_19  and  O_10 
REMARK    7  A    between atoms: C_15  and  C_19 
REMARK    8  A    between atoms: C_18  and  C_17 
ROOT
ATOM      1  C   UNL d   1      -0.633   1.294   0.127  0.00  0.00     0.141 A 
ATOM      2  N   UNL d   1      -1.345   0.145   0.154  0.00  0.00    -0.350 N 
ATOM      3  HN  UNL d   1      -2.361   0.147   0.234  1.00  0.00     0.166 HD
ATOM      4  C   UNL d   1       0.770   1.339   0.125  0.00  0.00     0.113 A 
ATOM      5  C   UNL d   1      -0.646  -1.007   0.069  0.00  0.00     0.090 A 
ATOM      6  C   UNL d   1       1.455   0.126   0.067  0.00  0.00     0.042 A 
ATOM      7  C   UNL d   1       0.737  -1.067   0.014  0.00  0.00     0.020 A 
ENDROOT
BRANCH   1   8
ATOM      8  N   UNL d   1      -1.437   2.441   0.123  0.00  0.00    -0.311 N 
ATOM      9  C   UNL d   1      -1.267   3.453  -0.801  0.00  0.00     0.223 C 
ATOM     10  O   UNL d   1      -0.402   3.499  -1.671  0.00  0.00    -0.273 OA
ATOM     11  H   UNL d   1      -2.389   2.232   0.387  0.00  0.00     0.170 HD
BRANCH   9  12
ATOM     12  C   UNL d   1      -2.305   4.549  -0.662  0.00  0.00     0.113 C 
BRANCH  12  13
ATOM     13  C   UNL d   1      -2.642   5.145  -2.025  0.00  0.00     0.119 C 
BRANCH  13  14
ATOM     14  C   UNL d   1      -3.673   6.234  -1.905  0.00  0.00     0.139 C 
ATOM     15  O   UNL d   1      -4.193   6.598  -0.862  0.00  0.00    -0.650 OA
BRANCH  14  16
ATOM     16  O   UNL d   1      -3.993   6.777  -3.102  0.00  0.00    -0.776 OA
ATOM     17  H   UNL d   1      -3.496   6.396  -3.852  0.00  0.00     0.167 HD
ENDBRANCH  14  16
ENDBRANCH  13  14
ENDBRANCH  12  13
ENDBRANCH   9  12
ENDBRANCH   1   8
BRANCH   4  18
ATOM     18  O   UNL d   1       1.377   2.550   0.312  0.00  0.00    -0.343 OA
BRANCH  18  19
ATOM     19  C   UNL d   1       2.710   2.696  -0.171  0.00  0.00     0.214 C 
BRANCH  19  20
ATOM     20  C   UNL d   1       3.035   4.162  -0.395  0.00  0.00    -0.032 A 
ATOM     21  C   UNL d   1       2.113   5.182  -0.113  0.00  0.00     0.035 A 
ATOM     22  C   UNL d   1       2.410   6.521  -0.385  0.00  0.00     0.056 A 
ATOM     23 CL   UNL d   1       1.193   7.699  -0.038  0.00  0.00    -0.083 Cl
ATOM     24  C   UNL d   1       3.650   6.859  -0.930  0.00  0.00     0.055 A 
ATOM     25  C   UNL d   1       4.587   5.855  -1.194  0.00  0.00     0.026 A 
ATOM     26 CL   UNL d   1       4.085   8.486  -1.310  0.00  0.00    -0.083 Cl
ATOM     27  C   UNL d   1       4.283   4.517  -0.928  0.00  0.00     0.011 A 
ENDBRANCH  19  20
ENDBRANCH  18  19
ENDBRANCH   4  18
TORSDOF 8
