REMARK  6 active torsions:
REMARK  status: ('A' for Active; 'I' for Inactive)
REMARK    1  A    between atoms: C_3  and  S_1 
REMARK    2  A    between atoms: N_4  and  S_1 
REMARK    3  A    between atoms: C_2  and  C_6 
REMARK    4  A    between atoms: C_6  and  N_4 
REMARK    5  A    between atoms: S_7  and  C_5 
REMARK    6  A    between atoms: C_17  and  S_7 
ROOT
ATOM      1  C   UNL d   1       0.376  -0.052   3.934  0.00  0.00    -0.001 A 
ATOM      2  C   UNL d   1      -0.948  -0.173   4.425  0.00  0.00     0.015 A 
ATOM      3  C   UNL d   1       1.360   0.376   4.855  0.00  0.00     0.043 A 
ATOM      4 CL   UNL d   1       3.056   0.339   4.501  0.00  0.00    -0.084 Cl
ATOM      5  C   UNL d   1      -1.269   0.257   5.729  0.00  0.00     0.019 A 
ATOM      6  C   UNL d   1      -0.290   0.743   6.588  0.00  0.00     0.003 A 
ATOM      7  C   UNL d   1       1.029   0.779   6.156  0.00  0.00     0.024 A 
ENDROOT
BRANCH   1   8
ATOM      8  C   UNL d   1       0.762  -0.450   2.521  0.00  0.00     0.174 C 
BRANCH   8   9
ATOM      9  N   UNL d   1       0.138   0.238   1.393  0.00  0.00    -0.311 N 
ATOM     10  H   UNL d   1      -0.477  -0.285   0.775  0.00  0.00     0.172 HD
BRANCH   9  11
ATOM     11  S   UNL d   1       0.231   1.868   1.074  0.00  0.00     0.259 S 
ATOM     12  O   UNL d   1      -0.544   2.062  -0.133  0.00  0.00    -0.201 OA
ATOM     13  O   UNL d   1      -0.075   2.596   2.287  0.00  0.00    -0.201 OA
BRANCH  11  14
ATOM     14  C   UNL d   1       1.936   2.195   0.662  0.00  0.00     0.080 A 
ATOM     15  C   UNL d   1       2.830   2.494   1.696  0.00  0.00     0.035 A 
ATOM     16  C   UNL d   1       4.130   2.843   1.368  0.00  0.00    -0.021 A 
ATOM     17  C   UNL d   1       5.279   3.120   2.256  0.00  0.00     0.068 C 
ATOM     18  C   UNL d   1       4.526   2.946   0.047  0.00  0.00     0.075 A 
ATOM     19  C   UNL d   1       6.299   3.611   1.226  0.00  0.00     0.180 C 
ATOM     20  O   UNL d   1       5.836   3.308  -0.113  0.00  0.00    -0.350 OA
ATOM     21  C   UNL d   1       3.653   2.697  -0.995  0.00  0.00     0.039 A 
ATOM     22  C   UNL d   1       2.340   2.315  -0.684  0.00  0.00     0.028 A 
ENDBRANCH  11  14
ENDBRANCH   9  11
ENDBRANCH   8   9
ENDBRANCH   1   8
BRANCH   2  23
ATOM     23  S   UNL d   1      -2.290  -0.918   3.495  0.00  0.00    -0.090 SA
BRANCH  23  24
ATOM     24  C   UNL d   1      -2.412  -2.545   4.243  0.00  0.00     0.005 A 
ATOM     25  C   UNL d   1      -3.675  -3.064   4.563  0.00  0.00     0.020 A 
ATOM     26  C   UNL d   1      -3.812  -4.389   4.997  0.00  0.00     0.025 A 
ATOM     27  C   UNL d   1      -2.685  -5.199   5.115  0.00  0.00     0.034 A 
ATOM     28  C   UNL d   1      -1.421  -4.685   4.843  0.00  0.00     0.025 A 
ATOM     29 CL   UNL d   1      -2.854  -6.850   5.568  0.00  0.00    -0.084 Cl
ATOM     30  C   UNL d   1      -1.286  -3.361   4.412  0.00  0.00     0.020 A 
ENDBRANCH  23  24
ENDBRANCH   2  23
TORSDOF 6
