REMARK  1 active torsions:
REMARK  status: ('A' for Active; 'I' for Inactive)
REMARK    1  A    between atoms: N_2  and  C_1 
ROOT
ATOM      1  C   UNL d   1       2.056   0.086  -0.018  0.00  0.00     0.145 A 
ATOM      2  S   UNL d   1       0.701   1.111  -0.014  0.00  0.00    -0.055 SA
ATOM      3  C   UNL d   1       1.714  -1.250  -0.005  0.00  0.00     0.046 A 
ATOM      4  C   UNL d   1      -0.379  -0.218  -0.001  0.00  0.00     0.087 A 
ATOM      5  N   UNL d   1      -2.957   0.029   0.002  0.00  0.00    -0.191 NA
ATOM      6  C   UNL d   1      -1.801  -0.072   0.001  0.00  0.00     0.107 C 
ATOM      7  C   UNL d   1       0.295  -1.423   0.004  0.00  0.00     0.033 A 
ENDROOT
BRANCH   1   8
ATOM      8  N   UNL d   1       3.389   0.633  -0.034  0.00  0.00    -0.108 N 
ATOM      9  O   UNL d   1       4.317  -0.188  -0.039  0.00  0.00    -0.531 OA
ATOM     10  O   UNL d   1       3.519   1.863  -0.043  0.00  0.00    -0.531 OA
ENDBRANCH   1   8
TORSDOF 1
