REMARK  4 active torsions:
REMARK  status: ('A' for Active; 'I' for Inactive)
REMARK    1  A    between atoms: N_6  and  C_1 
REMARK    2  A    between atoms: N_8  and  C_1 
REMARK    3  A    between atoms: N_2  and  N_6 
REMARK    4  A    between atoms: C_7  and  C_9 
ROOT
ATOM      1  C   UNL d   1      -3.848   2.358  -2.544  0.00  0.00    -0.014 A 
ATOM      2  C   UNL d   1      -3.165   2.058  -1.334  0.00  0.00    -0.008 A 
ATOM      3  C   UNL d   1      -5.265   2.433  -2.496  0.00  0.00    -0.025 A 
ATOM      4  C   UNL d   1      -5.253   1.919  -0.115  0.00  0.00     0.002 A 
ATOM      5  C   UNL d   1      -3.867   1.840  -0.140  0.00  0.00     0.014 A 
ATOM      6  C   UNL d   1      -3.226   2.553  -3.802  0.00  0.00     0.013 A 
ATOM      7  C   UNL d   1      -5.944   2.217  -1.285  0.00  0.00     0.012 A 
ATOM      8  C   UNL d   1      -5.995   2.708  -3.663  0.00  0.00     0.012 A 
ATOM      9  C   UNL d   1      -3.969   2.819  -4.955  0.00  0.00     0.001 A 
ATOM     10  C   UNL d   1      -5.353   2.899  -4.884  0.00  0.00     0.001 A 
ENDROOT
BRANCH   2  11
ATOM     11  C   UNL d   1      -1.690   1.942  -1.280  0.00  0.00     0.119 C 
ATOM     12  N   UNL d   1      -1.134   1.192  -0.383  0.00  0.00    -0.309 N 
ATOM     13  HN  UNL d   1      -1.684   0.678   0.306  1.00  0.00     0.186 HD
BRANCH  12  14
ATOM     14  N   UNL d   1       0.228   1.127  -0.412  0.00  0.00    -0.277 N 
ATOM     15  H   UNL d   1       0.767   1.661  -1.085  0.00  0.00     0.189 HD
BRANCH  14  16
ATOM     16  C   UNL d   1       0.900   0.304   0.472  0.00  0.00     0.186 C 
ATOM     17  S   UNL d   1       2.561   0.221   0.433  0.00  0.00    -0.040 SA
BRANCH  16  18
ATOM     18  N   UNL d   1       0.054  -0.374   1.309  0.00  0.00    -0.370 N 
ATOM     19  C   UNL d   1       0.357  -1.329   2.348  0.00  0.00     0.148 C 
ATOM     20  H   UNL d   1      -0.918  -0.159   1.104  0.00  0.00     0.161 HD
ENDBRANCH  16  18
ENDBRANCH  14  16
ENDBRANCH  12  14
ENDBRANCH   2  11
TORSDOF 4
