REMARK  7 active torsions:
REMARK  status: ('A' for Active; 'I' for Inactive)
REMARK    1  A    between atoms: C_10  and  N_1 
REMARK    2  A    between atoms: C_8  and  C_2 
REMARK    3  A    between atoms: C_7  and  C_9 
REMARK    4  A    between atoms: C_11  and  N_15 
REMARK    5  A    between atoms: N_15  and  C_13 
REMARK    6  A    between atoms: O_26  and  C_14 
REMARK    7  A    between atoms: O_27  and  C_23 
ROOT
ATOM      1  C   UNL d   1       2.322  -1.325  -0.030  0.00  0.00     0.068 C 
ATOM      2  C   UNL d   1       2.468  -2.643  -0.220  0.00  0.00     0.092 C 
ENDROOT
BRANCH   1   3
ATOM      3  C   UNL d   1       1.029  -0.748   0.016  0.00  0.00     0.139 C 
ATOM      4  N   UNL d   1       0.815   0.615  -0.185  0.00  0.00    -0.225 N 
ATOM      5  N   UNL d   1      -0.427   0.912   0.264  0.00  0.00     0.001 NA
ATOM      6  N   UNL d   1      -1.005  -0.248   0.529  0.00  0.00    -0.007 NA
ATOM      7  N   UNL d   1      -0.125  -1.284   0.372  0.00  0.00    -0.270 N 
ATOM      8  HN  UNL d   1      -0.322  -2.276   0.503  1.00  0.00     0.185 HD
BRANCH   4   9
ATOM      9  C   UNL d   1       1.647   1.609  -0.755  0.00  0.00     0.056 A 
ATOM     10  C   UNL d   1       2.606   1.278  -1.722  0.00  0.00     0.034 A 
ATOM     11  C   UNL d   1       3.463   2.260  -2.225  0.00  0.00     0.039 A 
ATOM     12  C   UNL d   1       3.376   3.572  -1.758  0.00  0.00     0.068 A 
ATOM     13  C   UNL d   1       2.374   3.914  -0.850  0.00  0.00     0.039 A 
ATOM     14  C   UNL d   1       1.500   2.943  -0.356  0.00  0.00     0.034 A 
BRANCH  12  15
ATOM     15  O   UNL d   1       4.189   4.597  -2.156  0.00  0.00    -0.356 OA
ATOM     16  C   UNL d   1       5.514   4.211  -2.512  0.00  0.00     0.210 C 
ENDBRANCH  12  15
ENDBRANCH   4   9
ENDBRANCH   1   3
BRANCH   2  17
ATOM     17  N   UNL d   1       3.647  -3.353  -0.235  0.00  0.00    -0.364 N 
ATOM     18  H   UNL d   1       4.493  -2.829  -0.067  0.00  0.00     0.165 HD
BRANCH  17  19
ATOM     19  C   UNL d   1       3.814  -4.701  -0.610  0.00  0.00     0.066 A 
ATOM     20  C   UNL d   1       2.913  -5.256  -1.548  0.00  0.00     0.048 A 
ATOM     21  C   UNL d   1       2.937  -6.607  -1.927  0.00  0.00     0.050 A 
ATOM     22  C   UNL d   1       3.888  -7.440  -1.342  0.00  0.00     0.019 A 
ATOM     23  C   UNL d   1       4.795  -6.918  -0.420  0.00  0.00     0.040 A 
ATOM     24  C   UNL d   1       4.777  -5.561  -0.043  0.00  0.00     0.094 A 
BRANCH  21  25
ATOM     25  C   UNL d   1       1.953  -7.152  -2.929  0.00  0.00     0.417 C 
ATOM     26  F   UNL d   1       1.110  -6.209  -3.435  0.00  0.00    -0.166 F 
ATOM     27  F   UNL d   1       2.567  -7.717  -4.006  0.00  0.00    -0.166 F 
ATOM     28  F   UNL d   1       1.154  -8.121  -2.403  0.00  0.00    -0.166 F 
ENDBRANCH  21  25
BRANCH  24  29
ATOM     29  O   UNL d   1       5.752  -5.314   0.884  0.00  0.00    -0.354 OA
ATOM     30  C   UNL d   1       5.906  -4.042   1.478  0.00  0.00     0.210 C 
ENDBRANCH  24  29
ENDBRANCH  17  19
ENDBRANCH   2  17
TORSDOF 7
