REMARK  5 active torsions:
REMARK  status: ('A' for Active; 'I' for Inactive)
REMARK    1  A    between atoms: C_3  and  S_1 
REMARK    2  A    between atoms: N_6  and  S_1 
REMARK    3  A    between atoms: N_2  and  C_7 
REMARK    4  A    between atoms: C_4  and  C_8 
REMARK    5  A    between atoms: C_14  and  N_6 
ROOT
ATOM      1  S   UNL d   1       0.925   0.079  -0.087  0.00  0.00     0.263 S 
ATOM      2  O   UNL d   1       0.306  -1.229  -0.066  0.00  0.00    -0.200 OA
ATOM      3  O   UNL d   1       2.363   0.215  -0.176  0.00  0.00    -0.200 OA
ENDROOT
BRANCH   1   4
ATOM      4  C   UNL d   1       0.358   0.953   1.367  0.00  0.00     0.088 A 
ATOM      5  C   UNL d   1       1.349   1.481   2.215  0.00  0.00     0.061 A 
ATOM      6  C   UNL d   1       0.983   2.136   3.396  0.00  0.00     0.104 A 
ATOM      7  C   UNL d   1      -0.366   2.273   3.740  0.00  0.00     0.037 A 
ATOM      8  C   UNL d   1      -1.346   1.748   2.894  0.00  0.00     0.011 A 
ATOM      9  C   UNL d   1      -1.007   1.078   1.701  0.00  0.00    -0.039 A 
ATOM     10  C   UNL d   1      -2.157   0.547   0.888  0.00  0.00     0.050 C 
BRANCH   6  11
ATOM     11  N   UNL d   1       2.015   2.670   4.293  0.00  0.00    -0.116 N 
ATOM     12  O   UNL d   1       3.199   2.532   3.951  0.00  0.00    -0.532 OA
ATOM     13  O   UNL d   1       1.643   3.230   5.332  0.00  0.00    -0.532 OA
ENDBRANCH   6  11
ENDBRANCH   1   4
BRANCH   1  14
ATOM     14  N   UNL d   1       0.237   0.918  -1.359  0.00  0.00    -0.281 N 
ATOM     15  H   UNL d   1      -0.283   0.357  -2.030  0.00  0.00     0.179 HD
BRANCH  14  16
ATOM     16  C   UNL d   1       0.653   2.221  -1.712  0.00  0.00     0.043 A 
ATOM     17  C   UNL d   1      -0.164   3.288  -1.345  0.00  0.00     0.046 A 
ATOM     18  C   UNL d   1       0.112   4.585  -1.797  0.00  0.00     0.050 A 
ATOM     19  C   UNL d   1       1.227   4.793  -2.624  0.00  0.00     0.016 A 
ATOM     20  C   UNL d   1       2.048   3.721  -2.986  0.00  0.00     0.003 A 
ATOM     21  C   UNL d   1       1.758   2.432  -2.532  0.00  0.00     0.030 A 
BRANCH  18  22
ATOM     22  C   UNL d   1      -0.800   5.731  -1.435  0.00  0.00     0.417 C 
ATOM     23  F   UNL d   1      -1.834   5.360  -0.628  0.00  0.00    -0.166 F 
ATOM     24  F   UNL d   1      -0.152   6.729  -0.776  0.00  0.00    -0.166 F 
ATOM     25  F   UNL d   1      -1.370   6.305  -2.529  0.00  0.00    -0.166 F 
ENDBRANCH  18  22
ENDBRANCH  14  16
ENDBRANCH   1  14
TORSDOF 5
