REMARK  1 active torsions:
REMARK  status: ('A' for Active; 'I' for Inactive)
REMARK       I    between atoms: N_11  and  C_1 
REMARK       I    between atoms: N_12  and  C_1 
REMARK    1  A    between atoms: C_10  and  N_12 
ROOT
ATOM      1  C   UNL d   1       2.264   2.376   3.419  0.00  0.00     0.087 A 
ATOM      2  C   UNL d   1       1.542   3.620   3.625  0.00  0.00     0.085 A 
ATOM      3  C   UNL d   1       1.820   1.387   2.521  0.00  0.00     0.063 A 
ATOM      4  O   UNL d   1       3.333   3.608   4.852  0.00  0.00    -0.156 OA
ATOM      5  N   UNL d   1       3.350   2.388   4.199  0.00  0.00    -0.239 N 
ATOM      6  HN  UNL d   1       4.048   1.649   4.294  1.00  0.00     0.197 HD
ATOM      7  N   UNL d   1       2.221   4.361   4.509  0.00  0.00    -0.240 N 
ATOM      8  HN  UNL d   1       1.971   5.286   4.857  1.00  0.00     0.197 HD
ATOM      9  C   UNL d   1       0.649   1.704   1.803  0.00  0.00     0.038 A 
ATOM     10  C   UNL d   1       0.340   3.908   2.957  0.00  0.00     0.036 A 
ATOM     11  C   UNL d   1      -0.077   2.910   2.050  0.00  0.00     0.032 A 
ENDROOT
BRANCH   9  12
ATOM     12  N   UNL d   1       0.143   0.873   0.768  0.00  0.00    -0.309 N 
ATOM     13  C   UNL d   1       0.831  -0.131   0.125  0.00  0.00     0.323 C 
ATOM     14  N   UNL d   1       0.174  -0.743  -0.930  0.00  0.00    -0.330 N 
ATOM     15  O   UNL d   1       1.979  -0.463   0.417  0.00  0.00    -0.247 OA
ATOM     16  C   UNL d   1       0.886  -1.794  -1.671  0.00  0.00     0.153 C 
ATOM     17  C   UNL d   1      -1.199  -0.544  -1.407  0.00  0.00     0.153 C 
ATOM     18  C   UNL d   1       0.809  -1.536  -3.178  0.00  0.00     0.187 C 
ATOM     19  O   UNL d   1      -0.557  -1.412  -3.609  0.00  0.00    -0.388 OA
ATOM     20  C   UNL d   1      -1.207  -0.330  -2.927  0.00  0.00     0.187 C 
ATOM     21  H   UNL d   1      -0.707   1.190   0.340  0.00  0.00     0.170 HD
ENDBRANCH   9  12
TORSDOF 1
