REMARK  4 active torsions:
REMARK  status: ('A' for Active; 'I' for Inactive)
REMARK    1  A    between atoms: C_2  and  C_1 
REMARK       I    between atoms: N_8  and  C_2 
REMARK    2  A    between atoms: C_6  and  C_3 
REMARK    3  A    between atoms: C_15  and  N_8 
REMARK    4  A    between atoms: C_16  and  C_15 
ROOT
ATOM      1  C   UNL d   1       1.018   0.042  -0.082  0.00  0.00     0.114 C 
ATOM      2  C   UNL d   1       0.386  -0.628   0.905  0.00  0.00     0.058 C 
ATOM      3  C   UNL d   1       0.342   0.762  -1.101  0.00  0.00     0.105 C 
ATOM      4  N   UNL d   1      -0.138   1.374  -1.965  0.00  0.00    -0.191 NA
ENDROOT
BRANCH   1   5
ATOM      5  C   UNL d   1       2.523   0.051  -0.063  0.00  0.00     0.262 C 
ATOM      6  N   UNL d   1       3.147   0.695  -1.111  0.00  0.00    -0.352 N 
ATOM      7  H   UNL d   1       2.616   1.162  -1.837  0.00  0.00     0.163 HD
ATOM      8  O   UNL d   1       3.151  -0.492   0.842  0.00  0.00    -0.267 OA
BRANCH   6   9
ATOM      9  C   UNL d   1       4.585   0.869  -1.164  0.00  0.00     0.161 C 
BRANCH   9  10
ATOM     10  C   UNL d   1       5.168   0.398  -2.470  0.00  0.00    -0.038 A 
ATOM     11  C   UNL d   1       5.800   1.288  -3.346  0.00  0.00     0.025 A 
ATOM     12  C   UNL d   1       6.383   0.788  -4.501  0.00  0.00     0.088 A 
ATOM     13  N   UNL d   1       6.376  -0.517  -4.843  0.00  0.00    -0.375 N 
ATOM     14  C   UNL d   1       5.756  -1.361  -3.991  0.00  0.00     0.088 A 
ATOM     15  HN  UNL d   1       6.817  -0.849  -5.700  1.00  0.00     0.164 HD
ATOM     16  C   UNL d   1       5.145  -0.959  -2.813  0.00  0.00     0.025 A 
ENDBRANCH   9  10
ENDBRANCH   6   9
ENDBRANCH   1   5
BRANCH   2  17
ATOM     17  C   UNL d   1      -1.026  -0.767   1.005  0.00  0.00     0.033 A 
ATOM     18  N   UNL d   1      -1.584  -0.863   2.263  0.00  0.00    -0.366 N 
ATOM     19  C   UNL d   1      -2.944  -1.013   2.162  0.00  0.00     0.088 A 
ATOM     20  H   UNL d   1      -1.078  -0.816   3.137  0.00  0.00     0.165 HD
ATOM     21  C   UNL d   1      -3.272  -1.028   0.827  0.00  0.00     0.019 A 
ATOM     22  C   UNL d   1      -2.067  -0.875   0.099  0.00  0.00     0.031 A 
ENDBRANCH   2  17
TORSDOF 4
