REMARK  7 active torsions:
REMARK  status: ('A' for Active; 'I' for Inactive)
REMARK    1  A    between atoms: C_4  and  C_1 
REMARK    2  A    between atoms: S_3  and  C_2 
REMARK    3  A    between atoms: C_5  and  S_3 
REMARK       I    between atoms: N_12  and  C_4 
REMARK    4  A    between atoms: C_9  and  C_6 
REMARK    5  A    between atoms: C_7  and  O_10 
REMARK    6  A    between atoms: O_10  and  C_9 
REMARK    7  A    between atoms: C_18  and  N_12 
ROOT
ATOM      1  C   UNL d   1       1.574  -0.004  -0.751  0.00  0.00     0.049 A 
ATOM      2  C   UNL d   1       0.965  -1.238  -0.439  0.00  0.00     0.021 A 
ATOM      3  C   UNL d   1       0.920   1.211  -0.436  0.00  0.00     0.018 A 
ATOM      4  C   UNL d   1      -0.337  -1.191   0.101  0.00  0.00     0.020 A 
ATOM      5  C   UNL d   1      -0.366   1.223   0.091  0.00  0.00     0.001 A 
ATOM      6  C   UNL d   1      -1.001   0.017   0.346  0.00  0.00     0.001 A 
ENDROOT
BRANCH   2   7
ATOM      7  S   UNL d   1       1.531  -2.852  -0.953  0.00  0.00    -0.089 SA
BRANCH   7   8
ATOM      8  C   UNL d   1       2.856  -3.442   0.114  0.00  0.00     0.014 A 
ATOM      9  C   UNL d   1       3.552  -4.639  -0.228  0.00  0.00    -0.017 A 
ATOM     10  C   UNL d   1       4.626  -5.075   0.579  0.00  0.00     0.011 A 
ATOM     11  C   UNL d   1       5.001  -4.370   1.718  0.00  0.00     0.001 A 
ATOM     12  C   UNL d   1       4.288  -3.236   2.085  0.00  0.00     0.001 A 
ATOM     13  C   UNL d   1       3.225  -2.775   1.292  0.00  0.00     0.019 A 
BRANCH   9  14
ATOM     14  C   UNL d   1       3.096  -5.560  -1.349  0.00  0.00     0.218 C 
BRANCH  14  15
ATOM     15  O   UNL d   1       4.201  -6.238  -1.980  0.00  0.00    -0.317 OA
BRANCH  15  16
ATOM     16  C   UNL d   1       4.089  -7.586  -2.107  0.00  0.00     0.255 C 
ATOM     17  O   UNL d   1       3.208  -8.283  -1.621  0.00  0.00    -0.266 OA
ATOM     18  C   UNL d   1       5.221  -8.137  -2.921  0.00  0.00     0.126 C 
ENDBRANCH  15  16
ENDBRANCH  14  15
ENDBRANCH   9  14
ENDBRANCH   7   8
ENDBRANCH   2   7
BRANCH   1  19
ATOM     19  C   UNL d   1       2.867   0.134  -1.470  0.00  0.00     0.253 C 
ATOM     20  O   UNL d   1       3.857  -0.501  -1.151  0.00  0.00    -0.268 OA
ATOM     21  N   UNL d   1       2.848   1.088  -2.479  0.00  0.00    -0.357 N 
ATOM     22  H   UNL d   1       1.947   1.395  -2.825  0.00  0.00     0.162 HD
BRANCH  21  23
ATOM     23  C   UNL d   1       4.026   1.445  -3.234  0.00  0.00     0.118 C 
ATOM     24  C   UNL d   1       3.813   2.743  -3.996  0.00  0.00     0.026 C 
ENDBRANCH  21  23
ENDBRANCH   1  19
TORSDOF 7
