REMARK  6 active torsions:
REMARK  status: ('A' for Active; 'I' for Inactive)
REMARK    1  A    between atoms: C_7  and  C_1 
REMARK    2  A    between atoms: C_4  and  S_13 
REMARK    3  A    between atoms: C_5  and  C_6 
REMARK       I    between atoms: C_9  and  N_12 
REMARK    4  A    between atoms: C_23  and  C_9 
REMARK    5  A    between atoms: N_12  and  C_17 
REMARK    6  A    between atoms: S_13  and  C_23 
ROOT
ATOM      1  C   UNL d   1       4.061  -5.673   1.061  0.00  0.00     0.185 C 
ENDROOT
BRANCH   1   2
ATOM      2  S   UNL d   1       5.625  -4.988   1.683  0.00  0.00    -0.085 SA
BRANCH   2   3
ATOM      3  C   UNL d   1       6.523  -6.490   1.976  0.00  0.00     0.145 A 
ATOM      4  N   UNL d   1       5.923  -7.667   1.745  0.00  0.00    -0.336 N 
ATOM      5  C   UNL d   1       6.644  -8.779   2.009  0.00  0.00     0.052 A 
ATOM      6  HN  UNL d   1       4.969  -7.720   1.388  1.00  0.00     0.168 HD
ATOM      7  C   UNL d   1       7.941  -8.730   2.477  0.00  0.00     0.048 A 
ATOM      8  C   UNL d   1       8.459  -7.475   2.676  0.00  0.00     0.092 A 
ATOM      9  N   UNL d   1       7.773  -6.346   2.440  0.00  0.00    -0.347 N 
ATOM     10  HN  UNL d   1       8.181  -5.425   2.605  1.00  0.00     0.167 HD
BRANCH   5  11
ATOM     11  C   UNL d   1       5.928 -10.035   1.742  0.00  0.00     0.031 A 
ATOM     12  S   UNL d   1       6.263 -11.460   2.646  0.00  0.00    -0.100 SA
ATOM     13  C   UNL d   1       5.084 -12.367   1.803  0.00  0.00     0.050 A 
ATOM     14  C   UNL d   1       4.440 -11.613   0.852  0.00  0.00     0.008 A 
ATOM     15  C   UNL d   1       4.920 -10.271   0.821  0.00  0.00     0.021 A 
ENDBRANCH   5  11
ENDBRANCH   2   3
ENDBRANCH   1   2
BRANCH   1  16
ATOM     16  C   UNL d   1       3.139  -4.559   0.594  0.00  0.00     0.231 C 
ATOM     17  N   UNL d   1       2.876  -3.606   1.568  0.00  0.00    -0.327 N 
ATOM     18  H   UNL d   1       3.441  -3.667   2.408  0.00  0.00     0.169 HD
ATOM     19  O   UNL d   1       2.664  -4.582  -0.538  0.00  0.00    -0.272 OA
BRANCH  17  20
ATOM     20  C   UNL d   1       2.059  -2.463   1.444  0.00  0.00     0.035 A 
ATOM     21  C   UNL d   1       1.219  -2.227   0.353  0.00  0.00     0.045 A 
ATOM     22  C   UNL d   1       0.461  -1.047   0.263  0.00  0.00     0.050 A 
ATOM     23  C   UNL d   1       0.546  -0.102   1.295  0.00  0.00     0.016 A 
ATOM     24  C   UNL d   1       1.363  -0.339   2.398  0.00  0.00     0.003 A 
ATOM     25  C   UNL d   1       2.111  -1.517   2.474  0.00  0.00     0.029 A 
BRANCH  22  26
ATOM     26  C   UNL d   1      -0.427  -0.788  -0.929  0.00  0.00     0.417 C 
ATOM     27  F   UNL d   1      -0.439  -1.797  -1.843  0.00  0.00    -0.166 F 
ATOM     28  F   UNL d   1      -0.060   0.331  -1.615  0.00  0.00    -0.166 F 
ATOM     29  F   UNL d   1      -1.728  -0.594  -0.574  0.00  0.00    -0.166 F 
ENDBRANCH  22  26
ENDBRANCH  17  20
ENDBRANCH   1  16
TORSDOF 6
