REMARK  4 active torsions:
REMARK  status: ('A' for Active; 'I' for Inactive)
REMARK    1  A    between atoms: C_2  and  S_1 
REMARK    2  A    between atoms: N_13  and  S_1 
REMARK    3  A    between atoms: C_3  and  C_11 
REMARK       I    between atoms: C_11  and  N_15 
REMARK    4  A    between atoms: N_15  and  N_13 
ROOT
ATOM      1  N   UNL d   1       0.733  -0.080   1.716  0.00  0.00    -0.220 N 
ATOM      2  H   UNL d   1       0.041   0.524   2.171  0.00  0.00     0.200 HD
ENDROOT
BRANCH   1   3
ATOM      3  S   UNL d   1       1.193   0.200   0.123  0.00  0.00     0.283 S 
ATOM      4  O   UNL d   1       2.623   0.433   0.123  0.00  0.00    -0.198 OA
ATOM      5  O   UNL d   1       0.610  -0.842  -0.694  0.00  0.00    -0.198 OA
BRANCH   3   6
ATOM      6  C   UNL d   1       0.478   1.715  -0.479  0.00  0.00     0.129 A 
ATOM      7  S   UNL d   1      -0.578   2.513   0.589  0.00  0.00    -0.075 SA
ATOM      8  C   UNL d   1      -0.856   3.802  -0.509  0.00  0.00     0.017 A 
ATOM      9  C   UNL d   1      -1.655   4.941  -0.286  0.00  0.00     0.021 A 
ATOM     10  C   UNL d   1      -0.177   3.601  -1.713  0.00  0.00    -0.009 A 
ATOM     11  C   UNL d   1      -1.774   5.894  -1.300  0.00  0.00     0.025 A 
ATOM     12  C   UNL d   1      -1.129   5.705  -2.513  0.00  0.00     0.035 A 
ATOM     13  C   UNL d   1      -0.340   4.574  -2.734  0.00  0.00     0.037 A 
ATOM     14 CL   UNL d   1      -1.290   6.883  -3.757  0.00  0.00    -0.084 Cl
ATOM     15  C   UNL d   1       0.620   2.392  -1.682  0.00  0.00    -0.020 A 
ATOM     16  C   UNL d   1       1.494   1.938  -2.809  0.00  0.00     0.051 C 
ENDBRANCH   3   6
ENDBRANCH   1   3
BRANCH   1  17
ATOM     17  N   UNL d   1       1.216  -1.252   2.410  0.00  0.00    -0.255 N 
ATOM     18  C   UNL d   1       0.757  -1.514   3.690  0.00  0.00     0.289 C 
ATOM     19  O   UNL d   1      -0.037  -0.749   4.237  0.00  0.00    -0.264 OA
ATOM     20  H   UNL d   1       1.798  -1.897   1.888  0.00  0.00     0.191 HD
BRANCH  18  21
ATOM     21  C   UNL d   1       1.229  -2.749   4.271  0.00  0.00     0.132 A 
ATOM     22  N   UNL d   1       0.527  -3.491   5.214  0.00  0.00    -0.302 N 
ATOM     23  C   UNL d   1       1.264  -4.651   5.445  0.00  0.00     0.112 A 
ATOM     24  C   UNL d   1      -0.691  -3.241   5.857  0.00  0.00     0.099 A 
ATOM     25  C   UNL d   1       0.716  -5.619   6.334  0.00  0.00     0.049 A 
ATOM     26  N   UNL d   1       2.398  -4.641   4.787  0.00  0.00    -0.344 N 
ATOM     27  C   UNL d   1      -0.457  -5.379   6.948  0.00  0.00     0.005 A 
ATOM     28  C   UNL d   1      -1.188  -4.144   6.720  0.00  0.00     0.018 A 
ATOM     29  C   UNL d   1       2.414  -3.458   4.089  0.00  0.00     0.040 A 
ATOM     30  HN  UNL d   1       3.119  -5.363   4.791  1.00  0.00     0.167 HD
ATOM     31  C   UNL d   1       3.640  -3.115   3.323  0.00  0.00     0.071 C 
ENDBRANCH  18  21
ENDBRANCH   1  17
TORSDOF 4
