REMARK  7 active torsions:
REMARK  status: ('A' for Active; 'I' for Inactive)
REMARK    1  A    between atoms: C_17  and  N_1 
REMARK    2  A    between atoms: C_24  and  N_5 
REMARK    3  A    between atoms: S_6  and  N_13 
REMARK    4  A    between atoms: C_18  and  S_6 
REMARK    5  A    between atoms: C_12  and  C_8 
REMARK       I    between atoms: N_15  and  C_12 
REMARK    6  A    between atoms: N_13  and  N_15 
REMARK    7  A    between atoms: C_28  and  C_17 
ROOT
ATOM      1  N   UNL d   1      -0.682   1.187  -0.041  0.00  0.00    -0.261 N 
ATOM      2  C   UNL d   1      -1.368  -0.015  -0.231  0.00  0.00     0.332 C 
ATOM      3  C   UNL d   1       1.444   0.012   0.059  0.00  0.00     0.082 C 
ATOM      4  C   UNL d   1       0.697   1.289   0.073  0.00  0.00     0.266 C 
ATOM      5  N   UNL d   1      -0.614  -1.182  -0.032  0.00  0.00    -0.304 N 
ATOM      6  C   UNL d   1       2.864   0.007   0.050  0.00  0.00     0.091 A 
ATOM      7  C   UNL d   1       5.006  -0.067   0.691  0.00  0.00     0.110 A 
ATOM      8  N   UNL d   1       3.667  -0.146   1.090  0.00  0.00    -0.345 N 
ATOM      9  HN  UNL d   1       3.354  -0.301   2.048  1.00  0.00     0.167 HD
ATOM     10  C   UNL d   1       0.764  -1.137   0.047  0.00  0.00     0.116 C 
ATOM     11  S   UNL d   1       3.685   0.146  -1.471  0.00  0.00    -0.081 SA
ATOM     12  C   UNL d   1       5.191   0.063  -0.672  0.00  0.00     0.087 A 
ATOM     13  O   UNL d   1      -2.554  -0.056  -0.561  0.00  0.00    -0.246 OA
ATOM     14  O   UNL d   1       1.300   2.358   0.154  0.00  0.00    -0.267 OA
ENDROOT
BRANCH   7  15
ATOM     15  C   UNL d   1       6.107  -0.142   1.650  0.00  0.00     0.287 C 
ATOM     16  N   UNL d   1       5.684  -0.249   2.962  0.00  0.00    -0.255 N 
ATOM     17  H   UNL d   1       4.690  -0.276   3.193  0.00  0.00     0.191 HD
ATOM     18  O   UNL d   1       7.289  -0.143   1.329  0.00  0.00    -0.264 OA
BRANCH  16  19
ATOM     19  N   UNL d   1       6.675  -0.392   4.008  0.00  0.00    -0.220 N 
ATOM     20  H   UNL d   1       7.670  -0.356   3.764  0.00  0.00     0.200 HD
BRANCH  19  21
ATOM     21  S   UNL d   1       6.265  -1.032   5.510  0.00  0.00     0.276 S 
ATOM     22  O   UNL d   1       7.456  -1.054   6.328  0.00  0.00    -0.199 OA
ATOM     23  O   UNL d   1       5.030  -0.406   5.934  0.00  0.00    -0.199 OA
BRANCH  21  24
ATOM     24  C   UNL d   1       5.896  -2.716   5.062  0.00  0.00     0.081 A 
ATOM     25  C   UNL d   1       6.903  -3.496   4.479  0.00  0.00     0.027 A 
ATOM     26  C   UNL d   1       6.602  -4.783   4.032  0.00  0.00     0.025 A 
ATOM     27  C   UNL d   1       5.309  -5.285   4.183  0.00  0.00     0.034 A 
ATOM     28  C   UNL d   1       4.316  -4.519   4.798  0.00  0.00     0.025 A 
ATOM     29 CL   UNL d   1       4.929  -6.854   3.589  0.00  0.00    -0.084 Cl
ATOM     30  C   UNL d   1       4.608  -3.228   5.243  0.00  0.00     0.027 A 
ENDBRANCH  21  24
ENDBRANCH  19  21
ENDBRANCH  16  19
ENDBRANCH   7  15
BRANCH   1  31
ATOM     31  C   UNL d   1      -1.459   2.423  -0.016  0.00  0.00     0.175 C 
BRANCH  31  32
ATOM     32  C   UNL d   1      -2.103   2.653   1.339  0.00  0.00    -0.040 A 
ATOM     33  C   UNL d   1      -1.430   3.353   2.350  0.00  0.00     0.009 A 
ATOM     34  C   UNL d   1      -1.997   3.480   3.621  0.00  0.00     0.001 A 
ATOM     35  C   UNL d   1      -3.239   2.908   3.895  0.00  0.00     0.000 A 
ATOM     36  C   UNL d   1      -3.929   2.234   2.891  0.00  0.00     0.001 A 
ATOM     37  C   UNL d   1      -3.367   2.112   1.621  0.00  0.00     0.009 A 
ENDBRANCH  31  32
ENDBRANCH   1  31
BRANCH   5  38
ATOM     38  C   UNL d   1      -1.318  -2.487  -0.061  0.00  0.00     0.086 C 
ATOM     39  C   UNL d   1      -1.261  -3.130  -1.447  0.00  0.00     0.032 C 
ATOM     40  C   UNL d   1      -0.840  -3.474   1.014  0.00  0.00     0.032 C 
ENDBRANCH   5  38
TORSDOF 7
