REMARK  4 active torsions:
REMARK  status: ('A' for Active; 'I' for Inactive)
REMARK    1  A    between atoms: N_6  and  N_1 
REMARK       I    between atoms: C_3  and  N_6 
REMARK       I    between atoms: N_9  and  C_3 
REMARK    2  A    between atoms: C_4  and  C_5 
REMARK    3  A    between atoms: C_7  and  C_4 
REMARK    4  A    between atoms: C_12  and  C_7 
ROOT
ATOM      1  N   UNL d   1       0.901  -0.229   0.417  0.00  0.00    -0.305 N 
ATOM      2  HN  UNL d   1       1.836  -0.510   0.712  1.00  0.00     0.186 HD
ATOM      3  C   UNL d   1       0.325  -0.825  -0.589  0.00  0.00     0.008 C 
ATOM      4  C   UNL d   1      -1.038  -0.418  -1.110  0.00  0.00     0.066 C 
ENDROOT
BRANCH   3   5
ATOM      5  C   UNL d   1       1.124  -1.976  -1.283  0.00  0.00    -0.000 C 
ATOM      6  C   UNL d   1       0.219  -3.057  -1.957  0.00  0.00     0.015 C 
ATOM      7  C   UNL d   1      -0.547  -3.955  -0.991  0.00  0.00     0.001 C 
ATOM      8  C   UNL d   1       0.391  -4.621   0.002  0.00  0.00     0.000 C 
ATOM      9  C   UNL d   1       1.212  -3.577   0.738  0.00  0.00     0.001 C 
ATOM     10  C   UNL d   1       2.011  -2.708  -0.237  0.00  0.00     0.015 C 
BRANCH   5  11
ATOM     11  C   UNL d   1       1.964  -1.356  -2.448  0.00  0.00     0.019 C 
BRANCH  11  12
ATOM     12  C   UNL d   1       3.003  -0.235  -2.206  0.00  0.00    -0.022 C 
ATOM     13  C   UNL d   1       4.167  -0.614  -1.292  0.00  0.00     0.009 C 
ATOM     14  C   UNL d   1       3.589   0.174  -3.570  0.00  0.00     0.009 C 
ENDBRANCH  11  12
ENDBRANCH   5  11
ENDBRANCH   3   5
BRANCH   1  15
ATOM     15  N   UNL d   1       0.245   0.773   1.075  0.00  0.00    -0.252 N 
ATOM     16  C   UNL d   1       0.837   1.452   2.111  0.00  0.00     0.332 C 
ATOM     17  O   UNL d   1       0.254   2.309   2.770  0.00  0.00    -0.246 OA
ATOM     18  N   UNL d   1       2.125   1.103   2.345  0.00  0.00    -0.351 N 
ATOM     19  H   UNL d   1       2.405   0.221   1.935  0.00  0.00     0.160 HD
ATOM     20  H   UNL d   1       2.563   1.435   3.188  0.00  0.00     0.160 HD
ATOM     21  H   UNL d   1      -0.719   1.004   0.877  0.00  0.00     0.191 HD
ENDBRANCH   1  15
TORSDOF 4
