REMARK  6 active torsions:
REMARK  status: ('A' for Active; 'I' for Inactive)
REMARK    1  A    between atoms: N_12  and  C_1 
REMARK    2  A    between atoms: C_2  and  N_11 
REMARK    3  A    between atoms: N_4  and  C_2 
REMARK    4  A    between atoms: C_5  and  N_3 
REMARK    5  A    between atoms: C_6  and  N_4 
REMARK    6  A    between atoms: N_11  and  N_12 
ROOT
ATOM      1  N   UNL d   1      -1.187  -0.062  -1.140  0.00  0.00    -0.274 N 
ATOM      2  H   UNL d   1      -1.391   0.545  -0.346  0.00  0.00     0.189 HD
ENDROOT
BRANCH   1   3
ATOM      3  C   UNL d   1      -1.686   0.357  -2.358  0.00  0.00     0.186 C 
ATOM      4  S   UNL d   1      -2.515   1.793  -2.479  0.00  0.00    -0.040 SA
BRANCH   3   5
ATOM      5  N   UNL d   1      -1.368  -0.502  -3.379  0.00  0.00    -0.361 N 
ATOM      6  H   UNL d   1      -1.244  -1.459  -3.067  0.00  0.00     0.162 HD
BRANCH   5   7
ATOM      7  C   UNL d   1      -1.477  -0.264  -4.813  0.00  0.00     0.092 C 
ATOM      8  C   UNL d   1      -0.335   0.640  -5.372  0.00  0.00     0.031 C 
ATOM      9  C   UNL d   1       1.008   0.034  -5.013  0.00  0.00    -0.024 C 
ATOM     10  C   UNL d   1      -0.361   0.254  -6.854  0.00  0.00     0.019 C 
ATOM     11  C   UNL d   1       1.133  -1.102  -5.721  0.00  0.00    -0.026 C 
ATOM     12  C   UNL d   1      -0.108  -1.230  -6.573  0.00  0.00     0.010 C 
ATOM     13  C   UNL d   1      -1.295  -1.571  -5.648  0.00  0.00     0.034 C 
ENDBRANCH   5   7
ENDBRANCH   3   5
ENDBRANCH   1   3
BRANCH   1  14
ATOM     14  N   UNL d   1       0.135  -0.582  -1.144  0.00  0.00    -0.274 N 
ATOM     15  H   UNL d   1       0.647  -0.464  -2.011  0.00  0.00     0.189 HD
BRANCH  14  16
ATOM     16  C   UNL d   1       0.758  -0.973   0.009  0.00  0.00     0.186 C 
ATOM     17  N   UNL d   1       2.112  -1.120  -0.040  0.00  0.00    -0.361 N 
ATOM     18  H   UNL d   1       2.508  -1.496   0.815  0.00  0.00     0.162 HD
ATOM     19  S   UNL d   1      -0.011  -1.268   1.464  0.00  0.00    -0.040 SA
BRANCH  17  20
ATOM     20  C   UNL d   1       3.054  -0.693  -1.070  0.00  0.00     0.092 C 
ATOM     21  C   UNL d   1       4.526  -0.581  -0.566  0.00  0.00     0.031 C 
ATOM     22  C   UNL d   1       4.969  -1.914   0.004  0.00  0.00    -0.024 C 
ATOM     23  C   UNL d   1       5.288  -0.650  -1.895  0.00  0.00     0.019 C 
ATOM     24  C   UNL d   1       5.051  -2.772  -1.016  0.00  0.00    -0.026 C 
ATOM     25  C   UNL d   1       4.697  -2.013  -2.273  0.00  0.00     0.010 C 
ATOM     26  C   UNL d   1       3.186  -1.700  -2.250  0.00  0.00     0.034 C 
ENDBRANCH  17  20
ENDBRANCH  14  16
ENDBRANCH   1  14
TORSDOF 6
