REMARK  3 active torsions:
REMARK  status: ('A' for Active; 'I' for Inactive)
REMARK    1  A    between atoms: C_4  and  C_1 
REMARK       I    between atoms: N_9  and  C_4 
REMARK    2  A    between atoms: C_6  and  N_8 
REMARK    3  A    between atoms: N_8  and  N_9 
ROOT
ATOM      1  C   UNL d   1       3.905  -0.088   0.066  0.00  0.00     0.278 C 
ATOM      2  N   UNL d   1       4.598  -1.275   0.261  0.00  0.00    -0.265 N 
ATOM      3  O   UNL d   1       4.514   0.970  -0.120  0.00  0.00    -0.265 OA
ATOM      4  H   UNL d   1       4.115  -2.138   0.500  0.00  0.00     0.190 HD
ENDROOT
BRANCH   1   5
ATOM      5  C   UNL d   1       2.454  -0.215   0.092  0.00  0.00     0.097 A 
ATOM      6  S   UNL d   1       1.711  -1.589   0.804  0.00  0.00    -0.082 SA
ATOM      7  C   UNL d   1       0.126  -1.048   0.435  0.00  0.00     0.017 A 
ATOM      8  C   UNL d   1      -1.080  -1.724   0.708  0.00  0.00     0.020 A 
ATOM      9  C   UNL d   1       0.146   0.196  -0.201  0.00  0.00     0.004 A 
ATOM     10  C   UNL d   1      -2.289  -1.135   0.335  0.00  0.00     0.001 A 
ATOM     11  C   UNL d   1      -2.303   0.103  -0.287  0.00  0.00     0.001 A 
ATOM     12  C   UNL d   1      -1.104   0.771  -0.555  0.00  0.00     0.014 A 
ATOM     13  C   UNL d   1       1.500   0.659  -0.390  0.00  0.00     0.068 A 
ATOM     14 CL   UNL d   1       1.829   2.146  -1.194  0.00  0.00    -0.082 Cl
ENDBRANCH   1   5
BRANCH   2  15
ATOM     15  N   UNL d   1       5.979  -1.273   0.370  0.00  0.00    -0.295 N 
ATOM     16  H   UNL d   1       6.397  -0.338   0.267  0.00  0.00     0.187 HD
BRANCH  15  17
ATOM     17  C   UNL d   1       6.729  -2.276  -0.311  0.00  0.00     0.091 A 
ATOM     18  C   UNL d   1       6.210  -3.390  -1.011  0.00  0.00     0.063 A 
ATOM     19 CL   UNL d   1       4.522  -3.656  -1.319  0.00  0.00    -0.082 Cl
ATOM     20  C   UNL d   1       7.060  -4.377  -1.542  0.00  0.00     0.026 A 
ATOM     21  C   UNL d   1       8.438  -4.304  -1.369  0.00  0.00     0.003 A 
ATOM     22  C   UNL d   1       8.980  -3.233  -0.673  0.00  0.00     0.026 A 
ATOM     23  C   UNL d   1       8.141  -2.237  -0.157  0.00  0.00     0.063 A 
ATOM     24 CL   UNL d   1       8.906  -0.943   0.714  0.00  0.00    -0.082 Cl
ENDBRANCH  15  17
ENDBRANCH   2  15
TORSDOF 3
