REMARK  3 active torsions:
REMARK  status: ('A' for Active; 'I' for Inactive)
REMARK    1  A    between atoms: C_6  and  C_2 
REMARK    2  A    between atoms: C_15  and  N_5 
REMARK    3  A    between atoms: C_16  and  C_10 
ROOT
ATOM      1  N   UNL d   1      -0.691   1.194   0.052  0.00  0.00    -0.270 N 
ATOM      2  C   UNL d   1       1.439   0.005  -0.053  0.00  0.00     0.082 A 
ATOM      3  C   UNL d   1      -1.417   0.004   0.069  0.00  0.00     0.335 A 
ATOM      4  C   UNL d   1       0.687   1.285  -0.061  0.00  0.00     0.265 A 
ATOM      5  N   UNL d   1      -0.654  -1.178   0.003  0.00  0.00    -0.274 N 
ATOM      6  C   UNL d   1       0.731  -1.134  -0.070  0.00  0.00     0.122 A 
ATOM      7  O   UNL d   1      -2.653   0.021   0.090  0.00  0.00    -0.246 OA
ATOM      8  O   UNL d   1       1.260   2.366  -0.192  0.00  0.00    -0.267 OA
ATOM      9  C   UNL d   1      -1.421   2.449   0.030  0.00  0.00     0.164 C 
ENDROOT
BRANCH   2  10
ATOM     10  C   UNL d   1       2.869  -0.042  -0.075  0.00  0.00     0.091 A 
ATOM     11  N   UNL d   1       3.602  -0.972  -0.669  0.00  0.00    -0.349 N 
ATOM     12  C   UNL d   1       4.960  -0.726  -0.511  0.00  0.00     0.050 A 
ATOM     13  HN  UNL d   1       3.217  -1.768  -1.178  1.00  0.00     0.166 HD
ATOM     14  C   UNL d   1       5.260   0.404   0.218  0.00  0.00     0.082 A 
ATOM     15  S   UNL d   1       3.824   1.122   0.796  0.00  0.00    -0.081 SA
BRANCH  12  16
ATOM     16  C   UNL d   1       5.962  -1.608  -1.094  0.00  0.00    -0.009 A 
ATOM     17  C   UNL d   1       5.665  -2.310  -2.269  0.00  0.00     0.014 A 
ATOM     18  C   UNL d   1       6.601  -3.180  -2.836  0.00  0.00     0.001 A 
ATOM     19  C   UNL d   1       7.843  -3.359  -2.230  0.00  0.00     0.000 A 
ATOM     20  C   UNL d   1       8.152  -2.666  -1.061  0.00  0.00     0.001 A 
ATOM     21  C   UNL d   1       7.218  -1.794  -0.496  0.00  0.00     0.014 A 
ENDBRANCH  12  16
ENDBRANCH   2  10
BRANCH   5  22
ATOM     22  C   UNL d   1      -1.354  -2.433  -0.016  0.00  0.00     0.043 A 
ATOM     23  C   UNL d   1      -1.026  -3.424  -0.953  0.00  0.00     0.030 A 
ATOM     24  C   UNL d   1      -1.777  -4.602  -1.027  0.00  0.00     0.002 A 
ATOM     25  C   UNL d   1      -2.832  -4.821  -0.142  0.00  0.00     0.000 A 
ATOM     26  C   UNL d   1      -3.138  -3.865   0.821  0.00  0.00     0.002 A 
ATOM     27  C   UNL d   1      -2.408  -2.676   0.878  0.00  0.00     0.030 A 
ENDBRANCH   5  22
TORSDOF 3
