REMARK  4 active torsions:
REMARK  status: ('A' for Active; 'I' for Inactive)
REMARK    1  A    between atoms: C_3  and  C_1 
REMARK       I    between atoms: N_7  and  C_1 
REMARK    2  A    between atoms: C_8  and  N_2 
REMARK    3  A    between atoms: N_14  and  N_7 
REMARK    4  A    between atoms: C_9  and  C_8 
ROOT
ATOM      1  N   UNL d   1       0.529   3.654   0.902  0.00  0.00     0.092 N 
ATOM      2  C   UNL d   1       0.004   1.087  -0.465  0.00  0.00     0.082 C 
ATOM      3  C   UNL d   1       0.541   2.314  -1.208  0.00  0.00     0.044 C 
ATOM      4  C   UNL d   1      -0.678   1.511   0.838  0.00  0.00     0.044 C 
ATOM      5  C   UNL d   1       0.202   2.445   1.670  0.00  0.00     0.273 C 
ATOM      6  C   UNL d   1       1.300   3.290  -0.303  0.00  0.00     0.273 C 
ENDROOT
BRANCH   1   7
ATOM      7  C   UNL d   1       1.320   4.614   1.702  0.00  0.00     0.312 C 
BRANCH   7   8
ATOM      8  C   UNL d   1       0.649   5.108   2.959  0.00  0.00    -0.015 A 
ATOM      9  C   UNL d   1       1.232   4.891   4.206  0.00  0.00     0.096 A 
ATOM     10  N   UNL d   1       0.712   5.319   5.380  0.00  0.00    -0.375 N 
ATOM     11  C   UNL d   1      -0.449   6.002   5.310  0.00  0.00     0.087 A 
ATOM     12  HN  UNL d   1       1.174   5.135   6.271  1.00  0.00     0.164 HD
ATOM     13  C   UNL d   1      -1.115   6.274   4.125  0.00  0.00     0.018 A 
ATOM     14  C   UNL d   1      -0.556   5.817   2.934  0.00  0.00     0.011 A 
ENDBRANCH   7   8
ENDBRANCH   1   7
BRANCH   2  15
ATOM     15  C   UNL d   1       1.076   0.018  -0.225  0.00  0.00     0.235 C 
ATOM     16  O   UNL d   1       2.266   0.173  -0.494  0.00  0.00    -0.272 OA
ATOM     17  N   UNL d   1       0.560  -1.171   0.280  0.00  0.00    -0.294 N 
ATOM     18  H   UNL d   1      -0.412  -1.226   0.579  0.00  0.00     0.183 HD
BRANCH  17  19
ATOM     19  N   UNL d   1       1.431  -2.221   0.635  0.00  0.00    -0.247 NA
ATOM     20  H   UNL d   1       2.364  -1.975   0.274  0.00  0.00     0.143 HD
ATOM     21  H   UNL d   1       1.162  -3.060   0.117  0.00  0.00     0.143 HD
ENDBRANCH  17  19
ENDBRANCH   2  15
TORSDOF 4
