REMARK  1 active torsions:
REMARK  status: ('A' for Active; 'I' for Inactive)
REMARK    1  A    between atoms: C_2  and  C_1 
REMARK       I    between atoms: N_6  and  C_1 
ROOT
ATOM      1  C   UNL d   1       0.369  -1.251  -0.243  0.00  0.00     0.043 A 
ATOM      2  C   UNL d   1      -0.779  -1.259  -1.045  0.00  0.00    -0.003 A 
ATOM      3  C   UNL d   1      -1.532  -2.463  -1.139  0.00  0.00    -0.042 A 
ATOM      4  C   UNL d   1      -1.439  -0.270  -1.901  0.00  0.00    -0.018 A 
ATOM      5  C   UNL d   1      -2.577  -0.864  -2.501  0.00  0.00    -0.043 A 
ATOM      6  C   UNL d   1      -2.725  -2.296  -2.056  0.00  0.00     0.078 A 
ATOM      7  C   UNL d   1       0.772  -2.459   0.361  0.00  0.00     0.018 A 
ATOM      8  C   UNL d   1      -1.170  -3.632  -0.486  0.00  0.00     0.008 A 
ATOM      9  C   UNL d   1      -1.132   1.043  -2.224  0.00  0.00     0.013 A 
ATOM     10  C   UNL d   1      -3.398  -0.186  -3.394  0.00  0.00     0.008 A 
ATOM     11  C   UNL d   1       0.000  -3.627   0.262  0.00  0.00     0.002 A 
ATOM     12  C   UNL d   1      -1.946   1.736  -3.134  0.00  0.00     0.001 A 
ATOM     13  C   UNL d   1      -3.071   1.129  -3.711  0.00  0.00     0.001 A 
ENDROOT
BRANCH   1  14
ATOM     14  C   UNL d   1       1.256  -0.070  -0.104  0.00  0.00     0.254 C 
ATOM     15  N   UNL d   1       1.599   0.428   1.155  0.00  0.00    -0.344 N 
ATOM     16  C   UNL d   1       2.392   1.660   1.235  0.00  0.00     0.152 C 
ATOM     17  C   UNL d   1       1.309  -0.139   2.479  0.00  0.00     0.152 C 
ATOM     18  C   UNL d   1       3.660   1.436   2.066  0.00  0.00     0.187 C 
ATOM     19  O   UNL d   1       3.347   0.900   3.364  0.00  0.00    -0.388 OA
ATOM     20  C   UNL d   1       2.628  -0.339   3.246  0.00  0.00     0.187 C 
ATOM     21  O   UNL d   1       1.695   0.426  -1.137  0.00  0.00    -0.267 OA
ENDBRANCH   1  14
TORSDOF 1
