REMARK  3 active torsions:
REMARK  status: ('A' for Active; 'I' for Inactive)
REMARK    1  A    between atoms: C_6  and  C_2 
REMARK    2  A    between atoms: C_7  and  C_3 
REMARK    3  A    between atoms: O_11  and  C_6 
ROOT
ATOM      1  O   UNL d   1      -0.469  -0.279  -1.075  0.00  0.00    -0.303 OA
ATOM      2  C   UNL d   1       0.243   0.880  -0.877  0.00  0.00     0.149 A 
ATOM      3  C   UNL d   1      -0.227  -1.097  -0.003  0.00  0.00     0.086 A 
ATOM      4  C   UNL d   1       0.929   0.804   0.317  0.00  0.00     0.047 A 
ATOM      5  C   UNL d   1       0.626  -0.458   0.877  0.00  0.00     0.041 A 
ENDROOT
BRANCH   3   6
ATOM      6  C   UNL d   1      -0.855  -2.418  -0.017  0.00  0.00    -0.002 A 
ATOM      7  C   UNL d   1      -1.710  -2.822  -1.054  0.00  0.00     0.016 A 
ATOM      8  C   UNL d   1      -2.252  -4.113  -1.079  0.00  0.00     0.024 A 
ATOM      9  C   UNL d   1      -1.948  -5.013  -0.061  0.00  0.00     0.034 A 
ATOM     10  C   UNL d   1      -1.125  -4.627   0.992  0.00  0.00     0.024 A 
ATOM     11 CL   UNL d   1      -2.580  -6.612  -0.109  0.00  0.00    -0.084 Cl
ATOM     12  C   UNL d   1      -0.586  -3.336   1.013  0.00  0.00     0.016 A 
ENDBRANCH   3   6
BRANCH   2  13
ATOM     13  C   UNL d   1       0.179   1.927  -1.869  0.00  0.00     0.201 C 
ATOM     14  O   UNL d   1       0.759   3.004  -1.815  0.00  0.00    -0.645 OA
BRANCH  13  15
ATOM     15  O   UNL d   1      -0.618   1.573  -2.909  0.00  0.00    -0.771 OA
ATOM     16  H   UNL d   1      -0.980   0.675  -2.757  0.00  0.00     0.167 HD
ENDBRANCH  13  15
ENDBRANCH   2  13
TORSDOF 3
