REMARK  6 active torsions:
REMARK  status: ('A' for Active; 'I' for Inactive)
REMARK    1  A    between atoms: N_2  and  S_1 
REMARK    2  A    between atoms: C_8  and  S_1 
REMARK    3  A    between atoms: N_7  and  C_4 
REMARK    4  A    between atoms: S_11  and  C_4 
REMARK    5  A    between atoms: C_9  and  N_7 
REMARK    6  A    between atoms: S_13  and  C_12 
ROOT
ATOM      1  N   UNL d   1       0.257  -0.870  -1.613  0.00  0.00    -0.260 N 
ATOM      2  HN  UNL d   1       0.443  -0.323  -0.772  1.00  0.00     0.181 HD
ATOM      3  C   UNL d   1       0.671  -0.362  -2.725  0.00  0.00     0.154 C 
ENDROOT
BRANCH   3   4
ATOM      4  N   UNL d   1       1.385   0.809  -2.766  0.00  0.00    -0.336 N 
ATOM      5  H   UNL d   1       2.045   0.911  -3.524  0.00  0.00     0.168 HD
BRANCH   4   6
ATOM      6  C   UNL d   1       1.267   1.903  -1.891  0.00  0.00     0.035 A 
ATOM      7  C   UNL d   1       0.085   2.166  -1.179  0.00  0.00     0.048 A 
ATOM      8  C   UNL d   1      -0.017   3.251  -0.299  0.00  0.00     0.002 A 
ATOM      9  C   UNL d   1       1.095   4.079  -0.122  0.00  0.00     0.018 A 
ATOM     10  C   UNL d   1       2.287   3.818  -0.799  0.00  0.00     0.004 A 
ATOM     11  C   UNL d   1       2.371   2.736  -1.677  0.00  0.00     0.029 A 
BRANCH   8  12
ATOM     12  S   UNL d   1      -1.525   3.687   0.559  0.00  0.00    -0.134 SA
ATOM     13  C   UNL d   1      -2.310   2.071   0.816  0.00  0.00     0.095 C 
ENDBRANCH   8  12
ENDBRANCH   4   6
ENDBRANCH   3   4
BRANCH   3  14
ATOM     14  S   UNL d   1       0.536  -1.081  -4.321  0.00  0.00    -0.098 SA
ATOM     15  C   UNL d   1      -1.086  -0.464  -4.832  0.00  0.00     0.099 C 
ENDBRANCH   3  14
BRANCH   1  16
ATOM     16  S   UNL d   1      -0.520  -2.264  -1.393  0.00  0.00     0.264 S 
ATOM     17  O   UNL d   1      -1.797  -2.185  -2.079  0.00  0.00    -0.200 OA
ATOM     18  O   UNL d   1      -0.496  -2.570   0.023  0.00  0.00    -0.200 OA
BRANCH  16  19
ATOM     19  C   UNL d   1       0.435  -3.542  -2.173  0.00  0.00     0.079 A 
ATOM     20  C   UNL d   1       1.762  -3.745  -1.787  0.00  0.00     0.025 A 
ATOM     21  C   UNL d   1       2.512  -4.733  -2.426  0.00  0.00     0.002 A 
ATOM     22  C   UNL d   1       1.936  -5.506  -3.439  0.00  0.00     0.000 A 
ATOM     23  C   UNL d   1       0.608  -5.303  -3.813  0.00  0.00     0.002 A 
ATOM     24  C   UNL d   1      -0.152  -4.325  -3.175  0.00  0.00     0.025 A 
ENDBRANCH  16  19
ENDBRANCH   1  16
TORSDOF 6
