REMARK  8 active torsions:
REMARK  status: ('A' for Active; 'I' for Inactive)
REMARK    1  A    between atoms: C_18  and  N_1 
REMARK    2  A    between atoms: C_8  and  C_3 
REMARK    3  A    between atoms: C_13  and  N_4 
REMARK    4  A    between atoms: N_19  and  C_8 
REMARK    5  A    between atoms: O_16  and  N_9 
REMARK    6  A    between atoms: C_11  and  O_16 
REMARK       I    between atoms: N_15  and  C_11 
REMARK    7  A    between atoms: C_20  and  N_15 
REMARK    8  A    between atoms: C_29  and  C_18 
ROOT
ATOM      1  N   UNL d   1       5.561  -2.675   0.157  0.00  0.00    -0.263 N 
ATOM      2  C   UNL d   1       4.832  -3.847   0.088  0.00  0.00     0.351 C 
ATOM      3  C   UNL d   1       3.494  -1.413   0.153  0.00  0.00     0.163 C 
ATOM      4  N   UNL d   1       3.435  -3.699   0.117  0.00  0.00    -0.205 N 
ATOM      5  N   UNL d   1       2.781  -2.494  -0.022  0.00  0.00    -0.281 N 
ATOM      6  HN  UNL d   1       1.788  -2.447  -0.251  1.00  0.00     0.188 HD
ATOM      7  C   UNL d   1       4.955  -1.494   0.516  0.00  0.00     0.283 C 
ATOM      8  O   UNL d   1       5.394  -4.945   0.005  0.00  0.00    -0.244 OA
ATOM      9  O   UNL d   1       5.491  -0.559   1.095  0.00  0.00    -0.265 OA
ENDROOT
BRANCH   3  10
ATOM     10  C   UNL d   1       2.777  -0.073  -0.025  0.00  0.00     0.153 C 
ATOM     11  N   UNL d   1       3.489   0.932  -0.458  0.00  0.00    -0.238 N 
ATOM     12  HN  UNL d   1       4.489   0.912  -0.656  1.00  0.00     0.197 HD
BRANCH  11  13
ATOM     13  O   UNL d   1       2.638   2.056  -0.608  0.00  0.00    -0.179 OA
BRANCH  13  14
ATOM     14  C   UNL d   1       3.277   3.218  -1.004  0.00  0.00     0.387 C 
ATOM     15  N   UNL d   1       4.652   3.141  -1.033  0.00  0.00    -0.301 N 
ATOM     16  H   UNL d   1       4.996   2.229  -0.753  0.00  0.00     0.171 HD
ATOM     17  O   UNL d   1       2.600   4.207  -1.263  0.00  0.00    -0.236 OA
BRANCH  15  18
ATOM     18  C   UNL d   1       5.564   4.175  -1.323  0.00  0.00     0.037 A 
ATOM     19  C   UNL d   1       5.182   5.470  -1.697  0.00  0.00     0.031 A 
ATOM     20  C   UNL d   1       6.141   6.464  -1.931  0.00  0.00     0.026 A 
ATOM     21  C   UNL d   1       7.492   6.173  -1.799  0.00  0.00     0.034 A 
ATOM     22  C   UNL d   1       7.895   4.887  -1.448  0.00  0.00     0.026 A 
ATOM     23 CL   UNL d   1       8.666   7.402  -2.062  0.00  0.00    -0.084 Cl
ATOM     24  C   UNL d   1       6.934   3.892  -1.213  0.00  0.00     0.031 A 
ENDBRANCH  15  18
ENDBRANCH  13  14
ENDBRANCH  11  13
BRANCH  10  25
ATOM     25  N   UNL d   1       1.433  -0.016   0.269  0.00  0.00    -0.382 N 
ATOM     26  H   UNL d   1       1.025  -0.766   0.817  0.00  0.00     0.157 HD
ATOM     27  H   UNL d   1       1.040   0.909   0.405  0.00  0.00     0.157 HD
ENDBRANCH  10  25
ENDBRANCH   3  10
BRANCH   1  28
ATOM     28  C   UNL d   1       7.014  -2.736   0.088  0.00  0.00     0.137 C 
BRANCH  28  29
ATOM     29  C   UNL d   1       7.734  -2.909   1.427  0.00  0.00     0.016 C 
ATOM     30  C   UNL d   1       7.466  -4.237   2.118  0.00  0.00     0.006 C 
ENDBRANCH  28  29
ENDBRANCH   1  28
BRANCH   4  31
ATOM     31  C   UNL d   1       2.615  -4.858   0.091  0.00  0.00     0.061 A 
ATOM     32  C   UNL d   1       2.778  -5.838   1.083  0.00  0.00     0.032 A 
ATOM     33  C   UNL d   1       2.068  -7.037   1.022  0.00  0.00     0.002 A 
ATOM     34  C   UNL d   1       1.216  -7.281  -0.052  0.00  0.00     0.000 A 
ATOM     35  C   UNL d   1       1.041  -6.309  -1.039  0.00  0.00     0.002 A 
ATOM     36  C   UNL d   1       1.716  -5.085  -0.954  0.00  0.00     0.032 A 
ENDBRANCH   4  31
TORSDOF 8
