REMARK  6 active torsions:
REMARK  status: ('A' for Active; 'I' for Inactive)
REMARK    1  A    between atoms: O_3  and  C_1 
REMARK    2  A    between atoms: C_2  and  C_1 
REMARK    3  A    between atoms: O_7  and  C_2 
REMARK    4  A    between atoms: C_2  and  C_5 
REMARK    5  A    between atoms: C_6  and  O_3 
REMARK    6  A    between atoms: C_8  and  C_6 
ROOT
ATOM      1  C   UNL d   1      -0.813  -0.085   1.782  0.00  0.00     0.292 C 
ATOM      2  O   UNL d   1      -0.869   1.143   1.715  0.00  0.00    -0.262 OA
ENDROOT
BRANCH   1   3
ATOM      3  O   UNL d   1      -1.541  -0.851   2.641  0.00  0.00    -0.315 OA
BRANCH   3   4
ATOM      4  C   UNL d   1      -2.365  -0.143   3.575  0.00  0.00     0.217 C 
BRANCH   4   5
ATOM      5  C   UNL d   1      -3.810  -0.518   3.362  0.00  0.00    -0.034 A 
ATOM      6  C   UNL d   1      -4.362  -1.632   4.010  0.00  0.00     0.009 A 
ATOM      7  C   UNL d   1      -5.700  -1.978   3.807  0.00  0.00     0.001 A 
ATOM      8  C   UNL d   1      -6.496  -1.220   2.951  0.00  0.00     0.000 A 
ATOM      9  C   UNL d   1      -5.955  -0.115   2.297  0.00  0.00     0.001 A 
ATOM     10  C   UNL d   1      -4.618   0.234   2.498  0.00  0.00     0.009 A 
ENDBRANCH   4   5
ENDBRANCH   3   4
ENDBRANCH   1   3
BRANCH   1  11
ATOM     11  C   UNL d   1       0.100  -0.937   0.875  0.00  0.00     0.250 C 
BRANCH  11  12
ATOM     12  O   UNL d   1       0.550  -2.173   1.425  0.00  0.00    -0.381 OA
ATOM     13  H   UNL d   1       0.687  -2.786   0.683  0.00  0.00     0.211 HD
ENDBRANCH  11  12
BRANCH  11  14
ATOM     14  C   UNL d   1      -0.533  -1.180  -0.485  0.00  0.00    -0.020 A 
ATOM     15  C   UNL d   1      -1.657  -2.012  -0.616  0.00  0.00     0.010 A 
ATOM     16  C   UNL d   1      -2.237  -2.229  -1.867  0.00  0.00     0.001 A 
ATOM     17  C   UNL d   1      -1.702  -1.619  -3.000  0.00  0.00     0.000 A 
ATOM     18  C   UNL d   1      -0.584  -0.795  -2.885  0.00  0.00     0.001 A 
ATOM     19  C   UNL d   1      -0.001  -0.577  -1.635  0.00  0.00     0.010 A 
ENDBRANCH  11  14
ENDBRANCH   1  11
TORSDOF 6
