REMARK  6 active torsions:
REMARK  status: ('A' for Active; 'I' for Inactive)
REMARK    1  A    between atoms: O_16  and  C_1 
REMARK    2  A    between atoms: C_3  and  C_2 
REMARK       I    between atoms: N_8  and  C_3 
REMARK    3  A    between atoms: O_17  and  C_4 
REMARK    4  A    between atoms: O_18  and  C_5 
REMARK    5  A    between atoms: C_15  and  N_8 
REMARK    6  A    between atoms: C_9  and  C_15 
ROOT
ATOM      1  C   UNL d   1       1.420  -0.409  -0.093  0.00  0.00     0.135 A 
ATOM      2  C   UNL d   1      -1.317   0.271  -0.091  0.00  0.00     0.037 A 
ATOM      3  C   UNL d   1       0.440  -1.419  -0.014  0.00  0.00     0.105 A 
ATOM      4  C   UNL d   1       1.023   0.939  -0.080  0.00  0.00     0.105 A 
ATOM      5  C   UNL d   1      -0.342   1.268  -0.066  0.00  0.00     0.057 A 
ATOM      6  C   UNL d   1      -0.915  -1.071  -0.057  0.00  0.00     0.057 A 
ENDROOT
BRANCH   2   7
ATOM      7  C   UNL d   1      -2.786   0.543  -0.168  0.00  0.00     0.252 C 
ATOM      8  N   UNL d   1      -3.204   1.852  -0.204  0.00  0.00    -0.351 N 
ATOM      9  H   UNL d   1      -2.581   2.628  -0.039  0.00  0.00     0.163 HD
ATOM     10  O   UNL d   1      -3.578  -0.393  -0.211  0.00  0.00    -0.268 OA
BRANCH   8  11
ATOM     11  C   UNL d   1      -4.614   2.158  -0.260  0.00  0.00     0.187 C 
BRANCH  11  12
ATOM     12  C   UNL d   1      -4.816   3.625  -0.295  0.00  0.00     0.070 A 
ATOM     13  O   UNL d   1      -3.926   4.401   0.400  0.00  0.00    -0.325 OA
ATOM     14  C   UNL d   1      -4.316   5.693   0.245  0.00  0.00     0.142 A 
ATOM     15  C   UNL d   1      -5.442   5.765  -0.538  0.00  0.00     0.027 A 
ATOM     16  C   UNL d   1      -5.766   4.434  -0.892  0.00  0.00     0.036 A 
ENDBRANCH  11  12
ENDBRANCH   8  11
ENDBRANCH   2   7
BRANCH   4  17
ATOM     17  O   UNL d   1       1.833   2.045  -0.023  0.00  0.00    -0.353 OA
ATOM     18  C   UNL d   1       3.075   1.969  -0.711  0.00  0.00     0.210 C 
ENDBRANCH   4  17
BRANCH   3  19
ATOM     19  O   UNL d   1       0.875  -2.717   0.107  0.00  0.00    -0.353 OA
ATOM     20  C   UNL d   1      -0.058  -3.658   0.627  0.00  0.00     0.210 C 
ENDBRANCH   3  19
BRANCH   1  21
ATOM     21  O   UNL d   1       2.761  -0.703  -0.055  0.00  0.00    -0.351 OA
ATOM     22  C   UNL d   1       3.196  -1.616  -1.064  0.00  0.00     0.210 C 
ENDBRANCH   1  21
TORSDOF 6
