REMARK  3 active torsions:
REMARK  status: ('A' for Active; 'I' for Inactive)
REMARK    1  A    between atoms: C_7  and  C_1 
REMARK    2  A    between atoms: N_6  and  C_2 
REMARK    3  A    between atoms: C_11  and  C_7 
ROOT
ATOM      1  C   UNL d   1       2.469   0.037   0.069  0.00  0.00     0.086 A 
ATOM      2  C   UNL d   1       1.625   1.149   0.083  0.00  0.00     0.073 A 
ATOM      3  C   UNL d   1       0.203   0.782   0.082  0.00  0.00     0.032 A 
ATOM      4  S   UNL d   1       1.579  -1.413   0.241  0.00  0.00    -0.065 SA
ATOM      5  C   UNL d   1       0.097  -0.606   0.165  0.00  0.00     0.088 A 
ATOM      6  N   UNL d   1      -1.021  -1.358   0.176  0.00  0.00    -0.354 N 
ATOM      7  HN  UNL d   1      -0.994  -2.375   0.242  1.00  0.00     0.166 HD
ATOM      8  C   UNL d   1      -1.046   1.474  -0.042  0.00  0.00    -0.045 A 
ATOM      9  C   UNL d   1      -2.228   0.703   0.003  0.00  0.00     0.032 A 
ATOM     10  C   UNL d   1      -2.170  -0.677   0.095  0.00  0.00     0.006 A 
ATOM     11  C   UNL d   1      -1.254   2.955  -0.242  0.00  0.00     0.049 C 
ATOM     12  C   UNL d   1      -3.436  -1.483   0.075  0.00  0.00     0.068 C 
ENDROOT
BRANCH   1  13
ATOM     13  C   UNL d   1       3.927  -0.045   0.141  0.00  0.00     0.201 C 
ATOM     14  O   UNL d   1       4.600   0.736   0.812  0.00  0.00    -0.286 OA
BRANCH  13  15
ATOM     15  C   UNL d   1       4.677  -1.121  -0.588  0.00  0.00     0.015 A 
ATOM     16  C   UNL d   1       5.903  -1.554  -0.059  0.00  0.00     0.017 A 
ATOM     17  C   UNL d   1       6.628  -2.571  -0.682  0.00  0.00     0.025 A 
ATOM     18  C   UNL d   1       6.132  -3.162  -1.844  0.00  0.00     0.034 A 
ATOM     19  C   UNL d   1       4.929  -2.725  -2.396  0.00  0.00     0.025 A 
ATOM     20 CL   UNL d   1       7.009  -4.433  -2.601  0.00  0.00    -0.084 Cl
ATOM     21  C   UNL d   1       4.208  -1.695  -1.780  0.00  0.00     0.017 A 
ENDBRANCH  13  15
ENDBRANCH   1  13
BRANCH   2  22
ATOM     22  N   UNL d   1       2.123   2.497   0.074  0.00  0.00    -0.331 N 
ATOM     23  C   UNL d   1       1.620   3.562   0.796  0.00  0.00     0.097 A 
ATOM     24  C   UNL d   1       2.322   4.703   0.479  0.00  0.00     0.019 A 
ATOM     25  C   UNL d   1       3.337   4.327  -0.424  0.00  0.00     0.019 A 
ATOM     26  C   UNL d   1       3.210   2.971  -0.637  0.00  0.00     0.097 A 
ENDBRANCH   2  22
TORSDOF 3
