REMARK  8 active torsions:
REMARK  status: ('A' for Active; 'I' for Inactive)
REMARK    1  A    between atoms: N_2  and  S_1 
REMARK    2  A    between atoms: C_4  and  S_1 
REMARK    3  A    between atoms: N_10  and  C_5 
REMARK    4  A    between atoms: S_11  and  C_5 
REMARK    5  A    between atoms: O_16  and  C_9 
REMARK    6  A    between atoms: C_14  and  N_10 
REMARK    7  A    between atoms: O_17  and  C_13 
REMARK    8  A    between atoms: C_18  and  C_14 
ROOT
ATOM      1  S   UNL d   1      -0.256   2.437   1.439  0.00  0.00     0.267 S 
ATOM      2  O   UNL d   1       0.547   3.540   1.942  0.00  0.00    -0.200 OA
ATOM      3  O   UNL d   1      -1.611   2.267   1.929  0.00  0.00    -0.200 OA
ENDROOT
BRANCH   1   4
ATOM      4  N   UNL d   1       0.617   1.096   1.579  0.00  0.00    -0.260 N 
ATOM      5  C   UNL d   1       0.831   0.516   2.713  0.00  0.00     0.149 C 
ATOM      6  HN  UNL d   1       1.019   0.685   0.737  1.00  0.00     0.181 HD
BRANCH   5   7
ATOM      7  N   UNL d   1       1.590  -0.614   2.834  0.00  0.00    -0.370 N 
ATOM      8  H   UNL d   1       1.675  -0.988   3.771  0.00  0.00     0.161 HD
BRANCH   7   9
ATOM      9  C   UNL d   1       2.581  -1.055   1.872  0.00  0.00     0.125 C 
BRANCH   9  10
ATOM     10  C   UNL d   1       3.974  -0.488   2.204  0.00  0.00    -0.005 C 
ATOM     11  C   UNL d   1       4.488  -0.969   3.564  0.00  0.00     0.011 C 
ATOM     12  C   UNL d   1       4.973  -0.894   1.118  0.00  0.00     0.011 C 
ENDBRANCH   9  10
ENDBRANCH   7   9
ENDBRANCH   5   7
BRANCH   5  13
ATOM     13  S   UNL d   1       0.182   1.010   4.271  0.00  0.00    -0.098 SA
ATOM     14  C   UNL d   1       1.671   1.706   5.019  0.00  0.00     0.099 C 
ENDBRANCH   5  13
ENDBRANCH   1   4
BRANCH   1  15
ATOM     15  C   UNL d   1      -0.413   2.684  -0.329  0.00  0.00     0.115 A 
ATOM     16  C   UNL d   1       0.067   3.917  -0.825  0.00  0.00     0.065 A 
ATOM     17  C   UNL d   1       0.059   4.199  -2.189  0.00  0.00     0.069 A 
ATOM     18  C   UNL d   1      -0.475   3.259  -3.065  0.00  0.00     0.039 A 
ATOM     19  C   UNL d   1      -0.959   2.040  -2.582  0.00  0.00     0.041 A 
ATOM     20  C   UNL d   1      -0.931   1.731  -1.212  0.00  0.00     0.091 A 
BRANCH  17  21
ATOM     21  O   UNL d   1       0.551   5.332  -2.774  0.00  0.00    -0.356 OA
ATOM     22  C   UNL d   1       1.198   6.267  -1.917  0.00  0.00     0.210 C 
ENDBRANCH  17  21
BRANCH  20  23
ATOM     23  O   UNL d   1      -1.288   0.438  -0.951  0.00  0.00    -0.354 OA
ATOM     24  C   UNL d   1      -2.284   0.222   0.041  0.00  0.00     0.210 C 
ENDBRANCH  20  23
ENDBRANCH   1  15
TORSDOF 8
