REMARK  5 active torsions:
REMARK  status: ('A' for Active; 'I' for Inactive)
REMARK    1  A    between atoms: C_7  and  C_1 
REMARK    2  A    between atoms: N_4  and  C_9 
REMARK    3  A    between atoms: C_8  and  C_7 
REMARK    4  A    between atoms: O_13  and  C_8 
REMARK    5  A    between atoms: C_19  and  O_13 
ROOT
ATOM      1  C   UNL d   1       3.692   0.036  -0.252  0.00  0.00     0.158 C 
ENDROOT
BRANCH   1   2
ATOM      2  C   UNL d   1       2.205  -0.229  -0.131  0.00  0.00    -0.001 C 
ATOM      3  S   UNL d   1       1.035   1.007  -0.076  0.00  0.00    -0.093 SA
ATOM      4  C   UNL d   1      -0.254  -0.067   0.222  0.00  0.00     0.016 A 
ATOM      5  C   UNL d   1      -1.577   0.288   0.545  0.00  0.00     0.021 A 
ATOM      6  C   UNL d   1       0.150  -1.394   0.100  0.00  0.00    -0.011 A 
ATOM      7  C   UNL d   1      -2.521  -0.723   0.711  0.00  0.00     0.025 A 
ATOM      8  C   UNL d   1      -2.163  -2.048   0.511  0.00  0.00     0.035 A 
ATOM      9  C   UNL d   1      -0.844  -2.399   0.211  0.00  0.00     0.037 A 
ATOM     10 CL   UNL d   1      -3.360  -3.277   0.650  0.00  0.00    -0.084 Cl
ATOM     11  C   UNL d   1       1.596  -1.486  -0.047  0.00  0.00    -0.037 C 
ATOM     12  C   UNL d   1       2.313  -2.807  -0.035  0.00  0.00     0.050 C 
ENDBRANCH   1   2
BRANCH   1  13
ATOM     13  C   UNL d   1       4.300   1.411  -0.065  0.00  0.00     0.268 C 
ATOM     14  O   UNL d   1       5.487   1.511   0.261  0.00  0.00    -0.265 OA
BRANCH  13  15
ATOM     15  O   UNL d   1       3.471   2.496  -0.331  0.00  0.00    -0.279 OA
BRANCH  15  16
ATOM     16  C   UNL d   1       3.784   3.837   0.029  0.00  0.00     0.079 A 
ATOM     17  C   UNL d   1       5.084   4.316   0.193  0.00  0.00     0.040 A 
ATOM     18  C   UNL d   1       5.296   5.606   0.689  0.00  0.00     0.039 A 
ATOM     19  C   UNL d   1       4.196   6.418   1.000  0.00  0.00     0.103 A 
ATOM     20  C   UNL d   1       2.893   5.976   0.745  0.00  0.00     0.039 A 
ATOM     21  C   UNL d   1       2.688   4.676   0.258  0.00  0.00     0.040 A 
BRANCH  19  22
ATOM     22  N   UNL d   1       4.422   7.722   1.644  0.00  0.00    -0.116 N 
ATOM     23  O   UNL d   1       5.569   7.988   2.019  0.00  0.00    -0.532 OA
ATOM     24  O   UNL d   1       3.439   8.465   1.788  0.00  0.00    -0.532 OA
ENDBRANCH  19  22
ENDBRANCH  15  16
ENDBRANCH  13  15
ENDBRANCH   1  13
TORSDOF 5
