REMARK  6 active torsions:
REMARK  status: ('A' for Active; 'I' for Inactive)
REMARK    1  A    between atoms: N_6  and  S_1 
REMARK    2  A    between atoms: C_10  and  S_1 
REMARK    3  A    between atoms: C_8  and  C_2 
REMARK    4  A    between atoms: C_4  and  C_13 
REMARK    5  A    between atoms: C_9  and  C_5 
REMARK    6  A    between atoms: O_24  and  C_9 
ROOT
ATOM      1  C   UNL d   1       0.519  -1.472  -0.817  0.00  0.00     0.079 A 
ATOM      2  C   UNL d   1      -0.441  -3.787  -2.099  0.00  0.00    -0.025 A 
ATOM      3  C   UNL d   1       1.171  -2.691  -0.629  0.00  0.00     0.026 A 
ATOM      4  C   UNL d   1      -0.628  -1.401  -1.604  0.00  0.00     0.026 A 
ATOM      5  C   UNL d   1      -1.113  -2.561  -2.221  0.00  0.00     0.014 A 
ATOM      6  C   UNL d   1       0.698  -3.835  -1.276  0.00  0.00     0.014 A 
ENDROOT
BRANCH   2   7
ATOM      7  C   UNL d   1      -0.899  -5.023  -2.759  0.00  0.00    -0.002 A 
ATOM      8  C   UNL d   1      -1.425  -5.095  -4.049  0.00  0.00     0.100 A 
ATOM      9  S   UNL d   1      -1.784  -6.723  -4.489  0.00  0.00    -0.079 SA
ATOM     10  C   UNL d   1      -1.210  -7.357  -3.017  0.00  0.00     0.081 A 
ATOM     11  C   UNL d   1      -0.787  -6.341  -2.183  0.00  0.00     0.038 A 
BRANCH   8  12
ATOM     12  C   UNL d   1      -1.690  -4.028  -5.069  0.00  0.00     0.424 C 
ATOM     13  F   UNL d   1      -2.048  -4.515  -6.288  0.00  0.00    -0.166 F 
ATOM     14  F   UNL d   1      -2.702  -3.202  -4.693  0.00  0.00    -0.166 F 
ATOM     15  F   UNL d   1      -0.599  -3.246  -5.280  0.00  0.00    -0.166 F 
ENDBRANCH   8  12
BRANCH  10  16
ATOM     16  C   UNL d   1      -1.216  -8.792  -2.802  0.00  0.00     0.299 C 
ATOM     17  O   UNL d   1      -1.612  -9.647  -3.589  0.00  0.00    -0.259 OA
BRANCH  16  18
ATOM     18  O   UNL d   1      -0.694  -9.074  -1.570  0.00  0.00    -0.322 OA
ATOM     19  C   UNL d   1      -0.645 -10.466  -1.259  0.00  0.00     0.213 C 
ENDBRANCH  16  18
ENDBRANCH  10  16
ENDBRANCH   2   7
BRANCH   1  20
ATOM     20  S   UNL d   1       1.139  -0.013  -0.016  0.00  0.00     0.260 S 
ATOM     21  O   UNL d   1       0.019   0.624   0.644  0.00  0.00    -0.200 OA
ATOM     22  O   UNL d   1       2.310  -0.402   0.736  0.00  0.00    -0.200 OA
BRANCH  20  23
ATOM     23  N   UNL d   1       1.632   1.002  -1.301  0.00  0.00    -0.306 N 
ATOM     24  C   UNL d   1       2.469   0.440  -2.389  0.00  0.00     0.139 C 
ATOM     25  C   UNL d   1       3.922   0.261  -1.951  0.00  0.00     0.000 C 
ATOM     26  C   UNL d   1       4.760  -0.302  -3.096  0.00  0.00     0.011 C 
ATOM     27  C   UNL d   1       4.496   1.595  -1.455  0.00  0.00     0.007 C 
ATOM     28  C   UNL d   1       3.597   2.254  -0.409  0.00  0.00     0.021 C 
ATOM     29  C   UNL d   1       2.141   2.335  -0.867  0.00  0.00     0.135 C 
ENDBRANCH  20  23
ENDBRANCH   1  20
TORSDOF 6
