REMARK  1 active torsions:
REMARK  status: ('A' for Active; 'I' for Inactive)
REMARK    1  A    between atoms: N_12  and  C_10 
ROOT
ATOM      1  C   UNL d   1       0.281  -0.753  -0.004  0.00  0.00     0.068 A 
ATOM      2  S   UNL d   1       2.562   0.032   0.034  0.00  0.00     0.068 SA
ATOM      3  C   UNL d   1       0.261   0.752   0.020  0.00  0.00     0.067 A 
ATOM      4  N   UNL d   1       1.523  -1.264   0.000  0.00  0.00    -0.310 N 
ATOM      5  HN  UNL d   1       1.777  -2.252  -0.015  1.00  0.00     0.176 HD
ATOM      6  C   UNL d   1      -0.924  -1.494  -0.036  0.00  0.00     0.055 A 
ATOM      7  N   UNL d   1       1.486   1.298   0.048  0.00  0.00    -0.310 N 
ATOM      8  HN  UNL d   1       1.712   2.292   0.073  1.00  0.00     0.176 HD
ATOM      9  C   UNL d   1      -0.963   1.458   0.002  0.00  0.00     0.034 A 
ATOM     10  C   UNL d   1      -2.123  -0.756  -0.004  0.00  0.00     0.008 A 
ATOM     11  C   UNL d   1      -2.127   0.665  -0.033  0.00  0.00     0.026 A 
ENDROOT
BRANCH  10  12
ATOM     12  N   UNL d   1      -3.344  -1.436  -0.171  0.00  0.00    -0.303 NA
ATOM     13  H   UNL d   1      -3.331  -2.399   0.152  0.00  0.00     0.124 HD
ATOM     14  H   UNL d   1      -4.156  -0.928   0.167  0.00  0.00     0.124 HD
ENDBRANCH  10  12
TORSDOF 1
