REMARK  2 active torsions:
REMARK  status: ('A' for Active; 'I' for Inactive)
REMARK    1  A    between atoms: C_6  and  C_2 
REMARK    2  A    between atoms: C_7  and  C_6 
REMARK       I    between atoms: N_10  and  C_7 
ROOT
ATOM      1  C   UNL d   1       2.470   0.281   0.103  0.00  0.00     0.083 A 
ATOM      2  C   UNL d   1       1.732  -0.880   0.048  0.00  0.00    -0.009 A 
ATOM      3  S   UNL d   1       1.548   1.692   0.115  0.00  0.00    -0.077 SA
ATOM      4  C   UNL d   1       0.311  -0.575   0.041  0.00  0.00    -0.010 A 
ATOM      5  C   UNL d   1       0.075   0.805   0.056  0.00  0.00     0.017 A 
ATOM      6 CL   UNL d   1       4.185   0.426   0.154  0.00  0.00    -0.076 Cl
ATOM      7  C   UNL d   1      -0.820  -1.433   0.013  0.00  0.00     0.013 A 
ATOM      8  C   UNL d   1      -1.229   1.337   0.025  0.00  0.00     0.020 A 
ATOM      9  C   UNL d   1      -2.116  -0.909  -0.008  0.00  0.00     0.001 A 
ATOM     10  C   UNL d   1      -2.317   0.463  -0.007  0.00  0.00     0.001 A 
ENDROOT
BRANCH   2  11
ATOM     11  C   UNL d   1       2.304  -2.270  -0.035  0.00  0.00     0.144 C 
BRANCH  11  12
ATOM     12  C   UNL d   1       2.492  -3.022   1.275  0.00  0.00     0.221 C 
ATOM     13  O   UNL d   1       2.941  -4.168   1.261  0.00  0.00    -0.273 OA
ATOM     14  N   UNL d   1       2.147  -2.388   2.445  0.00  0.00    -0.365 N 
ATOM     15  C   UNL d   1       2.275  -3.034   3.730  0.00  0.00     0.149 C 
ATOM     16  H   UNL d   1       1.686  -1.489   2.416  0.00  0.00     0.161 HD
ENDBRANCH  11  12
ENDBRANCH   2  11
TORSDOF 2
