REMARK  9 active torsions:
REMARK  status: ('A' for Active; 'I' for Inactive)
REMARK    1  A    between atoms: C_6  and  C_1 
REMARK    2  A    between atoms: C_4  and  C_7 
REMARK       I    between atoms: N_9  and  C_6 
REMARK    3  A    between atoms: C_16  and  N_9 
REMARK    4  A    between atoms: O_15  and  C_19 
REMARK    5  A    between atoms: C_18  and  O_15 
REMARK    6  A    between atoms: C_17  and  C_16 
REMARK    7  A    between atoms: C_19  and  C_17 
REMARK    8  A    between atoms: O_25  and  C_17 
REMARK    9  A    between atoms: O_26  and  C_20 
ROOT
ATOM      1  C   UNL d   1      -1.957   1.209  -1.444  0.00  0.00     0.253 C 
ATOM      2  N   UNL d   1      -2.740   2.351  -1.448  0.00  0.00    -0.354 N 
ATOM      3  O   UNL d   1      -1.992   0.463  -0.459  0.00  0.00    -0.268 OA
ATOM      4  H   UNL d   1      -2.768   3.022  -2.199  0.00  0.00     0.162 HD
ENDROOT
BRANCH   2   5
ATOM      5  C   UNL d   1      -3.575   2.592  -0.275  0.00  0.00     0.156 C 
BRANCH   5   6
ATOM      6  C   UNL d   1      -4.317   3.936  -0.225  0.00  0.00     0.160 C 
BRANCH   6   7
ATOM      7  C   UNL d   1      -5.122   3.997   1.095  0.00  0.00     0.209 C 
BRANCH   7   8
ATOM      8  O   UNL d   1      -5.897   5.197   1.172  0.00  0.00    -0.349 OA
BRANCH   8   9
ATOM      9  C   UNL d   1      -6.587   5.403   2.340  0.00  0.00     0.069 A 
ATOM     10  C   UNL d   1      -6.684   4.509   3.408  0.00  0.00     0.039 A 
ATOM     11  C   UNL d   1      -7.413   4.844   4.561  0.00  0.00     0.039 A 
ATOM     12  C   UNL d   1      -8.057   6.076   4.655  0.00  0.00     0.068 A 
ATOM     13  C   UNL d   1      -7.971   6.966   3.583  0.00  0.00     0.039 A 
ATOM     14  C   UNL d   1      -7.243   6.631   2.434  0.00  0.00     0.039 A 
BRANCH  12  15
ATOM     15  O   UNL d   1      -8.793   6.520   5.719  0.00  0.00    -0.356 OA
ATOM     16  C   UNL d   1      -8.869   5.664   6.853  0.00  0.00     0.210 C 
ENDBRANCH  12  15
ENDBRANCH   8   9
ENDBRANCH   7   8
ENDBRANCH   6   7
BRANCH   6  17
ATOM     17  O   UNL d   1      -3.364   5.003  -0.311  0.00  0.00    -0.392 OA
ATOM     18  H   UNL d   1      -2.975   5.136   0.572  0.00  0.00     0.210 HD
ENDBRANCH   6  17
ENDBRANCH   5   6
ENDBRANCH   2   5
BRANCH   1  19
ATOM     19  C   UNL d   1      -1.067   0.809  -2.582  0.00  0.00     0.054 A 
ATOM     20  C   UNL d   1      -0.790   1.478  -3.774  0.00  0.00     0.021 A 
ATOM     21  N   UNL d   1       0.062   0.967  -4.721  0.00  0.00    -0.355 N 
ATOM     22  C   UNL d   1      -1.362   2.804  -4.167  0.00  0.00     0.069 C 
ATOM     23  C   UNL d   1       0.678  -0.231  -4.511  0.00  0.00     0.117 A 
ATOM     24  HN  UNL d   1       0.234   1.485  -5.583  1.00  0.00     0.166 HD
ATOM     25  C   UNL d   1       0.456  -0.954  -3.353  0.00  0.00     0.035 A 
ATOM     26  C   UNL d   1      -0.414  -0.430  -2.399  0.00  0.00     0.021 A 
BRANCH  23  27
ATOM     27  C   UNL d   1       1.640  -0.795  -5.553  0.00  0.00     0.432 C 
ATOM     28  F   UNL d   1       1.772  -0.033  -6.674  0.00  0.00    -0.165 F 
ATOM     29  F   UNL d   1       2.905  -0.953  -5.059  0.00  0.00    -0.165 F 
ATOM     30  F   UNL d   1       1.267  -2.035  -5.988  0.00  0.00    -0.165 F 
ENDBRANCH  23  27
ENDBRANCH   1  19
TORSDOF 9
