REMARK  1 active torsions:
REMARK  status: ('A' for Active; 'I' for Inactive)
REMARK    1  A    between atoms: C_4  and  C_1 
REMARK       I    between atoms: N_10  and  C_4 
ROOT
ATOM      1  C   UNL d   1       0.049  -1.509   0.012  0.00  0.00     0.056 A 
ATOM      2  N   UNL d   1       0.019   1.256  -0.076  0.00  0.00    -0.355 N 
ATOM      3  HN  UNL d   1       0.008   2.273  -0.147  1.00  0.00     0.166 HD
ATOM      4  C   UNL d   1       1.282  -0.796   0.050  0.00  0.00     0.007 A 
ATOM      5  C   UNL d   1      -1.201  -0.824  -0.004  0.00  0.00     0.007 A 
ATOM      6  C   UNL d   1      -1.133   0.579  -0.039  0.00  0.00     0.043 A 
ATOM      7  C   UNL d   1       1.185   0.603  -0.021  0.00  0.00     0.043 A 
ATOM      8  C   UNL d   1      -2.495  -1.419   0.013  0.00  0.00     0.015 A 
ATOM      9  C   UNL d   1       2.584  -1.359   0.184  0.00  0.00     0.015 A 
ATOM     10  C   UNL d   1       2.335   1.378  -0.015  0.00  0.00     0.030 A 
ATOM     11  C   UNL d   1      -2.301   1.328  -0.028  0.00  0.00     0.030 A 
ATOM     12  C   UNL d   1       3.730  -0.562   0.191  0.00  0.00     0.001 A 
ATOM     13  C   UNL d   1      -3.658  -0.646   0.036  0.00  0.00     0.001 A 
ATOM     14  C   UNL d   1       3.607   0.812   0.082  0.00  0.00     0.002 A 
ATOM     15  C   UNL d   1      -3.560   0.734   0.019  0.00  0.00     0.002 A 
ENDROOT
BRANCH   1  16
ATOM     16  C   UNL d   1       0.048  -3.001   0.014  0.00  0.00     0.251 C 
ATOM     17  O   UNL d   1      -0.657  -3.656   0.770  0.00  0.00    -0.268 OA
ATOM     18  N   UNL d   1       0.851  -3.629  -0.899  0.00  0.00    -0.366 N 
ATOM     19  H   UNL d   1       1.409  -3.142  -1.586  0.00  0.00     0.159 HD
ATOM     20  H   UNL d   1       0.826  -4.641  -0.923  0.00  0.00     0.159 HD
ENDBRANCH   1  16
TORSDOF 1
