REMARK  4 active torsions:
REMARK  status: ('A' for Active; 'I' for Inactive)
REMARK    1  A    between atoms: N_4  and  S_1 
REMARK    2  A    between atoms: C_7  and  S_1 
REMARK    3  A    between atoms: C_2  and  C_10 
REMARK    4  A    between atoms: C_13  and  N_4 
ROOT
ATOM      1  S   UNL d   1       1.111   0.130   0.060  0.00  0.00     0.263 S 
ATOM      2  O   UNL d   1       2.526   0.139   0.354  0.00  0.00    -0.200 OA
ATOM      3  O   UNL d   1       0.559  -0.722  -0.974  0.00  0.00    -0.200 OA
ENDROOT
BRANCH   1   4
ATOM      4  N   UNL d   1       0.603   1.706  -0.310  0.00  0.00    -0.281 N 
ATOM      5  H   UNL d   1      -0.326   1.721  -0.730  0.00  0.00     0.179 HD
BRANCH   4   6
ATOM      6  C   UNL d   1       0.945   2.751   0.591  0.00  0.00     0.043 A 
ATOM      7  C   UNL d   1       0.054   3.132   1.590  0.00  0.00     0.048 A 
ATOM      8  C   UNL d   1       0.501   4.068   2.506  0.00  0.00     0.050 A 
ATOM      9  C   UNL d   1      -0.194   4.580   3.677  0.00  0.00     0.294 A 
ATOM     10  C   UNL d   1       1.756   4.638   2.449  0.00  0.00    -0.018 A 
ATOM     11  O   UNL d   1       0.661   5.454   4.287  0.00  0.00    -0.313 OA
ATOM     12  O   UNL d   1      -1.309   4.271   4.042  0.00  0.00    -0.259 OA
ATOM     13  C   UNL d   1       1.919   5.566   3.586  0.00  0.00     0.218 A 
ATOM     14  C   UNL d   1       2.638   4.288   1.443  0.00  0.00     0.012 A 
ATOM     15  C   UNL d   1       2.227   3.324   0.515  0.00  0.00     0.031 A 
ENDBRANCH   4   6
ENDBRANCH   1   4
BRANCH   1  16
ATOM     16  C   UNL d   1       0.238  -0.238   1.571  0.00  0.00     0.079 A 
ATOM     17  C   UNL d   1      -1.022  -0.840   1.504  0.00  0.00     0.026 A 
ATOM     18  C   UNL d   1      -1.717  -1.119   2.683  0.00  0.00     0.018 A 
ATOM     19  C   UNL d   1      -1.161  -0.804   3.934  0.00  0.00     0.048 A 
ATOM     20  C   UNL d   1       0.123  -0.234   3.985  0.00  0.00     0.018 A 
ATOM     21  C   UNL d   1       0.828   0.038   2.808  0.00  0.00     0.026 A 
BRANCH  19  22
ATOM     22  C   UNL d   1      -1.950  -1.082   5.195  0.00  0.00     0.417 C 
ATOM     23  F   UNL d   1      -1.303  -0.720   6.337  0.00  0.00    -0.166 F 
ATOM     24  F   UNL d   1      -3.142  -0.424   5.213  0.00  0.00    -0.166 F 
ATOM     25  F   UNL d   1      -2.251  -2.403   5.338  0.00  0.00    -0.166 F 
ENDBRANCH  19  22
ENDBRANCH   1  16
TORSDOF 4
