REMARK  2 active torsions:
REMARK  status: ('A' for Active; 'I' for Inactive)
REMARK    1  A    between atoms: C_8  and  C_2 
REMARK    2  A    between atoms: S_9  and  C_5 
ROOT
ATOM      1  N   UNL d   1      -0.202   0.264   1.095  0.00  0.00    -0.320 N 
ATOM      2  C   UNL d   1      -0.395   1.050  -0.013  0.00  0.00     0.132 A 
ATOM      3  N   UNL d   1      -0.064   0.339  -1.078  0.00  0.00    -0.283 N 
ATOM      4  HN  UNL d   1      -0.092   0.666  -2.044  1.00  0.00     0.188 HD
ATOM      5  C   UNL d   1       0.240  -0.937   0.641  0.00  0.00     0.160 A 
ATOM      6  N   UNL d   1       0.324  -0.919  -0.665  0.00  0.00    -0.278 N 
ATOM      7  HN  UNL d   1       0.621  -1.689  -1.265  1.00  0.00     0.189 HD
ATOM      8  H   UNL d   1      -0.325   0.523   2.061  0.00  0.00     0.169 HD
ENDROOT
BRANCH   2   9
ATOM      9  C   UNL d   1      -0.853   2.437   0.008  0.00  0.00     0.009 A 
ATOM     10  C   UNL d   1      -0.490   3.294  -1.043  0.00  0.00     0.017 A 
ATOM     11  C   UNL d   1      -0.913   4.627  -1.060  0.00  0.00     0.025 A 
ATOM     12  C   UNL d   1      -1.712   5.111  -0.027  0.00  0.00     0.034 A 
ATOM     13  C   UNL d   1      -2.087   4.273   1.021  0.00  0.00     0.025 A 
ATOM     14 CL   UNL d   1      -2.244   6.746  -0.048  0.00  0.00    -0.084 Cl
ATOM     15  C   UNL d   1      -1.657   2.941   1.040  0.00  0.00     0.017 A 
ENDBRANCH   2   9
BRANCH   5  16
ATOM     16  S   UNL d   1       0.616  -2.209   1.733  0.00  0.00    -0.097 SA
ATOM     17  C   UNL d   1       1.082  -3.515   0.571  0.00  0.00     0.099 C 
ENDBRANCH   5  16
TORSDOF 2
