REMARK  3 active torsions:
REMARK  status: ('A' for Active; 'I' for Inactive)
REMARK       I    between atoms: N_2  and  C_5 
REMARK       I    between atoms: C_4  and  N_2 
REMARK    1  A    between atoms: C_5  and  C_3 
REMARK       I    between atoms: N_7  and  C_4 
REMARK    2  A    between atoms: C_13  and  C_6 
REMARK    3  A    between atoms: C_10  and  N_7 
ROOT
ATOM      1  N   UNL d   1      -1.716   3.025  -0.583  0.00  0.00    -0.175 NA
ATOM      2  C   UNL d   1      -2.846   2.797   0.156  0.00  0.00     0.306 C 
ATOM      3  C   UNL d   1      -0.485   2.506  -0.238  0.00  0.00     0.246 C 
ATOM      4  N   UNL d   1      -3.719   3.840   0.301  0.00  0.00    -0.299 N 
ATOM      5  O   UNL d   1      -3.207   1.702   0.586  0.00  0.00    -0.253 OA
ATOM      6  O   UNL d   1       0.403   3.329   0.013  0.00  0.00    -0.273 OA
ATOM      7  H   UNL d   1      -1.593   4.032  -0.669  0.00  0.00     0.141 HD
ATOM      8  H   UNL d   1      -4.591   3.558   0.723  0.00  0.00     0.171 HD
ENDROOT
BRANCH   3   9
ATOM      9  C   UNL d   1      -0.215   1.070  -0.195  0.00  0.00     0.068 C 
ATOM     10  S   UNL d   1      -1.239  -0.150  -0.813  0.00  0.00    -0.089 SA
ATOM     11  C   UNL d   1      -0.204  -1.431  -0.306  0.00  0.00    -0.009 C 
ATOM     12  C   UNL d   1       0.976  -0.908   0.197  0.00  0.00     0.017 C 
ATOM     13  C   UNL d   1       0.966   0.511   0.263  0.00  0.00     0.025 C 
BRANCH  11  14
ATOM     14  C   UNL d   1      -0.553  -2.918  -0.473  0.00  0.00    -0.018 C 
ATOM     15  C   UNL d   1      -2.042  -3.175  -0.777  0.00  0.00     0.020 C 
ATOM     16  C   UNL d   1       0.290  -3.507  -1.620  0.00  0.00     0.020 C 
ATOM     17  C   UNL d   1      -0.217  -3.683   0.830  0.00  0.00     0.020 C 
ENDBRANCH  11  14
ENDBRANCH   3   9
BRANCH   4  18
ATOM     18  C   UNL d   1      -3.498   5.208   0.114  0.00  0.00     0.108 A 
ATOM     19  N   UNL d   1      -2.283   5.635  -0.290  0.00  0.00    -0.346 N 
ATOM     20  C   UNL d   1      -2.074   6.975  -0.363  0.00  0.00     0.007 A 
ATOM     21  HN  UNL d   1      -1.546   4.973  -0.531  1.00  0.00     0.167 HD
ATOM     22  C   UNL d   1      -0.697   7.440  -0.735  0.00  0.00     0.068 C 
ATOM     23  C   UNL d   1      -3.060   7.907  -0.055  0.00  0.00     0.025 A 
ATOM     24  C   UNL d   1      -4.313   7.449   0.330  0.00  0.00     0.006 A 
ATOM     25  C   UNL d   1      -4.538   6.078   0.420  0.00  0.00     0.049 A 
ENDBRANCH   4  18
TORSDOF 3
