REMARK  7 active torsions:
REMARK  status: ('A' for Active; 'I' for Inactive)
REMARK    1  A    between atoms: N_4  and  C_1 
REMARK    2  A    between atoms: N_9  and  C_1 
REMARK    3  A    between atoms: C_3  and  N_4 
REMARK    4  A    between atoms: C_5  and  C_8 
REMARK    5  A    between atoms: O_14  and  C_5 
REMARK    6  A    between atoms: C_8  and  C_12 
REMARK    7  A    between atoms: C_12  and  N_9 
ROOT
ATOM      1  C   UNL d   1       1.125   0.018   0.224  0.00  0.00     0.172 C 
ATOM      2  S   UNL d   1       0.419   0.874  -1.022  0.00  0.00    -0.041 SA
ENDROOT
BRANCH   1   3
ATOM      3  N   UNL d   1       0.478  -0.638   1.237  0.00  0.00    -0.332 N 
ATOM      4  H   UNL d   1       0.791  -0.378   2.167  0.00  0.00     0.168 HD
BRANCH   3   5
ATOM      5  C   UNL d   1      -0.744  -1.351   1.181  0.00  0.00     0.058 A 
ATOM      6  C   UNL d   1      -1.544  -1.469   2.334  0.00  0.00     0.082 A 
ATOM      7  C   UNL d   1      -2.683  -2.288   2.312  0.00  0.00     0.058 A 
ATOM      8 CL   UNL d   1      -1.113  -0.569   3.758  0.00  0.00    -0.080 Cl
ATOM      9 CL   UNL d   1      -3.714  -2.486   3.687  0.00  0.00    -0.082 Cl
ATOM     10  C   UNL d   1      -3.015  -2.997   1.154  0.00  0.00     0.026 A 
ATOM     11  C   UNL d   1      -2.227  -2.876   0.011  0.00  0.00     0.004 A 
ATOM     12  C   UNL d   1      -1.100  -2.055   0.024  0.00  0.00     0.031 A 
ENDBRANCH   3   5
ENDBRANCH   1   3
BRANCH   1  13
ATOM     13  N   UNL d   1       2.494   0.024   0.324  0.00  0.00    -0.366 N 
ATOM     14  H   UNL d   1       2.911   0.565  -0.428  0.00  0.00     0.161 HD
BRANCH  13  15
ATOM     15  C   UNL d   1       3.264  -1.153   0.723  0.00  0.00     0.132 C 
BRANCH  15  16
ATOM     16  C   UNL d   1       4.386  -0.802   1.688  0.00  0.00     0.129 C 
BRANCH  16  17
ATOM     17  C   UNL d   1       5.215  -2.024   1.984  0.00  0.00     0.140 C 
ATOM     18  O   UNL d   1       5.057  -3.124   1.475  0.00  0.00    -0.650 OA
BRANCH  17  19
ATOM     19  O   UNL d   1       6.193  -1.784   2.888  0.00  0.00    -0.776 OA
ATOM     20  H   UNL d   1       6.218  -0.867   3.217  0.00  0.00     0.167 HD
ENDBRANCH  17  19
ENDBRANCH  16  17
ENDBRANCH  15  16
ENDBRANCH  13  15
ENDBRANCH   1  13
TORSDOF 7
