REMARK  4 active torsions:
REMARK  status: ('A' for Active; 'I' for Inactive)
REMARK    1  A    between atoms: C_3  and  C_1 
REMARK    2  A    between atoms: C_12  and  C_2 
REMARK    3  A    between atoms: C_15  and  N_4 
REMARK    4  A    between atoms: C_14  and  N_5 
ROOT
ATOM      1  C   UNL d   1      -0.212   1.262  -0.001  0.00  0.00     0.061 A 
ATOM      2  C   UNL d   1       1.111   0.864  -0.108  0.00  0.00     0.155 A 
ATOM      3  N   UNL d   1       1.096  -0.526  -0.077  0.00  0.00    -0.251 N 
ATOM      4  N   UNL d   1      -0.179  -0.990   0.070  0.00  0.00    -0.304 N 
ATOM      5  HN  UNL d   1      -0.473  -1.962   0.167  1.00  0.00     0.186 HD
ATOM      6  C   UNL d   1      -0.956   0.081   0.060  0.00  0.00     0.125 A 
ENDROOT
BRANCH   1   7
ATOM      7  C   UNL d   1      -0.749   2.646   0.061  0.00  0.00     0.152 C 
ATOM      8  N   UNL d   1      -1.901   3.078   0.705  0.00  0.00    -0.224 N 
ATOM      9  N   UNL d   1      -2.219   4.296   0.210  0.00  0.00     0.001 NA
ATOM     10  N   UNL d   1      -1.179   4.668  -0.521  0.00  0.00    -0.007 NA
ATOM     11  N   UNL d   1      -0.249   3.663  -0.608  0.00  0.00    -0.269 N 
ATOM     12  HN  UNL d   1       0.647   3.696  -1.094  1.00  0.00     0.185 HD
BRANCH   8  13
ATOM     13  C   UNL d   1      -2.620   2.501   1.783  0.00  0.00     0.056 A 
ATOM     14  C   UNL d   1      -1.991   1.617   2.676  0.00  0.00     0.033 A 
ATOM     15  C   UNL d   1      -2.713   1.054   3.732  0.00  0.00     0.026 A 
ATOM     16  C   UNL d   1      -4.055   1.378   3.905  0.00  0.00     0.034 A 
ATOM     17  C   UNL d   1      -4.681   2.274   3.040  0.00  0.00     0.026 A 
ATOM     18 CL   UNL d   1      -4.940   0.676   5.202  0.00  0.00    -0.084 Cl
ATOM     19  C   UNL d   1      -3.963   2.851   1.986  0.00  0.00     0.033 A 
ENDBRANCH   8  13
ENDBRANCH   1   7
BRANCH   2  20
ATOM     20  C   UNL d   1       2.341   1.668  -0.080  0.00  0.00     0.435 C 
ATOM     21  F   UNL d   1       2.134   2.934   0.358  0.00  0.00    -0.165 F 
ATOM     22  F   UNL d   1       3.268   1.150   0.765  0.00  0.00    -0.165 F 
ATOM     23  F   UNL d   1       2.915   1.763  -1.302  0.00  0.00    -0.165 F 
ENDBRANCH   2  20
BRANCH   3  24
ATOM     24  C   UNL d   1       2.138  -1.505  -0.120  0.00  0.00     0.059 A 
ATOM     25  C   UNL d   1       1.856  -2.791   0.382  0.00  0.00     0.073 A 
ATOM     26  C   UNL d   1       2.842  -3.768   0.405  0.00  0.00     0.118 A 
ATOM     27  F   UNL d   1       2.564  -4.976   0.912  0.00  0.00    -0.206 F 
ATOM     28  C   UNL d   1       4.115  -3.508  -0.081  0.00  0.00     0.042 A 
ATOM     29  C   UNL d   1       4.398  -2.252  -0.612  0.00  0.00     0.005 A 
ATOM     30  C   UNL d   1       3.414  -1.254  -0.639  0.00  0.00     0.032 A 
ENDBRANCH   3  24
TORSDOF 4
