REMARK  8 active torsions:
REMARK  status: ('A' for Active; 'I' for Inactive)
REMARK       I    between atoms: N_8  and  C_1 
REMARK       I    between atoms: N_9  and  C_1 
REMARK    1  A    between atoms: N_2  and  N_8 
REMARK    2  A    between atoms: N_4  and  N_9 
REMARK    3  A    between atoms: O_23  and  C_6 
REMARK    4  A    between atoms: O_24  and  C_7 
REMARK    5  A    between atoms: O_25  and  C_11 
REMARK    6  A    between atoms: O_26  and  C_12 
REMARK    7  A    between atoms: C_19  and  C_17 
REMARK    8  A    between atoms: C_20  and  C_18 
ROOT
ATOM      1  C   UNL d   1       1.070  -0.049   0.039  0.00  0.00     0.353 C 
ATOM      2  N   UNL d   1       0.382  -0.718   1.049  0.00  0.00    -0.251 N 
ATOM      3  N   UNL d   1       0.203   0.489  -0.909  0.00  0.00    -0.251 N 
ATOM      4  O   UNL d   1       2.295   0.057  -0.008  0.00  0.00    -0.244 OA
ATOM      5  H   UNL d   1      -0.625  -0.782   1.044  0.00  0.00     0.191 HD
ATOM      6  H   UNL d   1      -0.792   0.348  -0.833  0.00  0.00     0.191 HD
ENDROOT
BRANCH   2   7
ATOM      7  N   UNL d   1       1.089  -1.289   2.064  0.00  0.00    -0.307 N 
ATOM      8  C   UNL d   1       0.422  -1.901   2.985  0.00  0.00     0.118 C 
ATOM      9  HN  UNL d   1       2.107  -1.236   2.095  1.00  0.00     0.186 HD
BRANCH   8  10
ATOM     10  C   UNL d   1       1.126  -2.528   4.125  0.00  0.00    -0.017 A 
ATOM     11  C   UNL d   1       0.387  -3.184   5.116  0.00  0.00     0.052 A 
ATOM     12  C   UNL d   1       1.033  -3.745   6.230  0.00  0.00     0.102 A 
ATOM     13  C   UNL d   1       2.437  -3.656   6.323  0.00  0.00     0.101 A 
ATOM     14  C   UNL d   1       3.160  -2.996   5.322  0.00  0.00     0.040 A 
ATOM     15  C   UNL d   1       2.514  -2.437   4.224  0.00  0.00     0.016 A 
BRANCH  12  16
ATOM     16  O   UNL d   1       0.364  -4.348   7.262  0.00  0.00    -0.353 OA
ATOM     17  C   UNL d   1      -1.053  -4.421   7.199  0.00  0.00     0.210 C 
ENDBRANCH  12  16
BRANCH  13  18
ATOM     18  O   UNL d   1       3.234  -4.095   7.349  0.00  0.00    -0.353 OA
ATOM     19  C   UNL d   1       2.818  -5.263   8.042  0.00  0.00     0.210 C 
ENDBRANCH  13  18
ENDBRANCH   8  10
ENDBRANCH   2   7
BRANCH   3  20
ATOM     20  N   UNL d   1       0.711   1.142  -1.994  0.00  0.00    -0.307 N 
ATOM     21  C   UNL d   1      -0.153   1.619  -2.829  0.00  0.00     0.118 C 
ATOM     22  HN  UNL d   1       1.715   1.248  -2.138  1.00  0.00     0.186 HD
BRANCH  21  23
ATOM     23  C   UNL d   1       0.265   2.312  -4.065  0.00  0.00    -0.017 A 
ATOM     24  C   UNL d   1      -0.725   2.794  -4.929  0.00  0.00     0.052 A 
ATOM     25  C   UNL d   1      -0.378   3.407  -6.143  0.00  0.00     0.102 A 
ATOM     26  C   UNL d   1       0.985   3.551  -6.468  0.00  0.00     0.101 A 
ATOM     27  C   UNL d   1       1.965   3.065  -5.591  0.00  0.00     0.040 A 
ATOM     28  C   UNL d   1       1.612   2.451  -4.389  0.00  0.00     0.016 A 
BRANCH  25  29
ATOM     29  O   UNL d   1      -1.305   3.839  -7.054  0.00  0.00    -0.353 OA
ATOM     30  C   UNL d   1      -2.683   3.666  -6.749  0.00  0.00     0.210 C 
ENDBRANCH  25  29
BRANCH  26  31
ATOM     31  O   UNL d   1       1.514   4.079  -7.619  0.00  0.00    -0.353 OA
ATOM     32  C   UNL d   1       0.782   5.118  -8.255  0.00  0.00     0.210 C 
ENDBRANCH  26  31
ENDBRANCH  21  23
ENDBRANCH   3  20
TORSDOF 8
