REMARK  6 active torsions:
REMARK  status: ('A' for Active; 'I' for Inactive)
REMARK    1  A    between atoms: C_3  and  N_1 
REMARK    2  A    between atoms: C_5  and  C_3 
REMARK    3  A    between atoms: O_4  and  C_6 
REMARK    4  A    between atoms: C_7  and  O_4 
REMARK    5  A    between atoms: C_6  and  C_5 
REMARK    6  A    between atoms: O_8  and  C_5 
ROOT
ATOM      1  C   UNL d   1      -2.300  -1.242   2.075  0.00  0.00     0.170 C 
ENDROOT
BRANCH   1   2
ATOM      2  C   UNL d   1      -1.466  -0.017   1.619  0.00  0.00     0.306 C 
BRANCH   2   3
ATOM      3  N   UNL d   1      -2.063   1.292   1.982  0.00  0.00     0.094 N 
ATOM      4  C   UNL d   1      -3.420   1.509   1.431  0.00  0.00     0.302 C 
ATOM      5  C   UNL d   1      -3.449   1.680  -0.103  0.00  0.00     0.299 C 
ATOM      6  N   UNL d   1      -2.614   2.800  -0.553  0.00  0.00     0.086 N 
ATOM      7  C   UNL d   1      -1.259   2.708   0.011  0.00  0.00     0.299 C 
ATOM      8  H   UNL d   1      -2.565   2.808  -1.570  0.00  0.00     0.315 HD
ATOM      9  C   UNL d   1      -1.220   2.425   1.534  0.00  0.00     0.302 C 
ENDBRANCH   2   3
ENDBRANCH   1   2
BRANCH   1  10
ATOM     10  C   UNL d   1      -1.746  -2.592   1.595  0.00  0.00     0.209 C 
BRANCH  10  11
ATOM     11  O   UNL d   1      -0.440  -2.846   2.123  0.00  0.00    -0.349 OA
BRANCH  11  12
ATOM     12  C   UNL d   1       0.037  -4.118   1.913  0.00  0.00     0.068 A 
ATOM     13  C   UNL d   1       1.427  -4.240   1.857  0.00  0.00     0.037 A 
ATOM     14  C   UNL d   1       2.025  -5.490   1.662  0.00  0.00     0.003 A 
ATOM     15  C   UNL d   1       1.234  -6.631   1.540  0.00  0.00     0.000 A 
ATOM     16  C   UNL d   1      -0.149  -6.522   1.618  0.00  0.00     0.003 A 
ATOM     17  C   UNL d   1      -0.747  -5.273   1.810  0.00  0.00     0.037 A 
ENDBRANCH  11  12
ENDBRANCH  10  11
ENDBRANCH   1  10
BRANCH   1  18
ATOM     18  O   UNL d   1      -2.434  -1.272   3.502  0.00  0.00    -0.392 OA
ATOM     19  H   UNL d   1      -1.534  -1.199   3.867  0.00  0.00     0.210 HD
ENDBRANCH   1  18
TORSDOF 6
