REMARK  7 active torsions:
REMARK  status: ('A' for Active; 'I' for Inactive)
REMARK    1  A    between atoms: C_11  and  N_1 
REMARK    2  A    between atoms: S_10  and  C_5 
REMARK    3  A    between atoms: C_8  and  C_12 
REMARK    4  A    between atoms: C_12  and  S_10 
REMARK    5  A    between atoms: O_21  and  C_22 
REMARK    6  A    between atoms: C_25  and  O_21 
REMARK    7  A    between atoms: C_28  and  C_25 
ROOT
ATOM      1  N   UNL d   1      -0.299  -1.278  -0.057  0.00  0.00    -0.273 N 
ATOM      2  C   UNL d   1       0.944  -0.653   0.022  0.00  0.00     0.163 A 
ATOM      3  N   UNL d   1       0.787   0.656   0.038  0.00  0.00    -0.281 N 
ATOM      4  HN  UNL d   1       1.531   1.347   0.134  1.00  0.00     0.188 HD
ATOM      5  C   UNL d   1      -1.195  -0.214  -0.160  0.00  0.00     0.168 A 
ATOM      6  N   UNL d   1      -0.549   0.930  -0.099  0.00  0.00    -0.278 N 
ATOM      7  HN  UNL d   1      -0.969   1.858  -0.146  1.00  0.00     0.189 HD
ATOM      8  C   UNL d   1       2.228  -1.290  -0.021  0.00  0.00     0.120 A 
ATOM      9  O   UNL d   1       2.479  -2.420  -0.761  0.00  0.00    -0.319 OA
ATOM     10  C   UNL d   1       3.400  -0.930   0.627  0.00  0.00     0.043 A 
ATOM     11  C   UNL d   1       3.765  -2.790  -0.546  0.00  0.00     0.142 A 
ATOM     12  C   UNL d   1       4.377  -1.907   0.308  0.00  0.00     0.027 A 
ENDROOT
BRANCH   1  13
ATOM     13  C   UNL d   1      -0.561  -2.681  -0.031  0.00  0.00     0.043 A 
ATOM     14  C   UNL d   1       0.219  -3.542   0.758  0.00  0.00     0.033 A 
ATOM     15  C   UNL d   1      -0.024  -4.919   0.757  0.00  0.00     0.039 A 
ATOM     16  C   UNL d   1      -1.070  -5.444   0.004  0.00  0.00     0.069 A 
ATOM     17  C   UNL d   1      -1.823  -4.596  -0.810  0.00  0.00     0.039 A 
ATOM     18  C   UNL d   1      -1.576  -3.222  -0.823  0.00  0.00     0.033 A 
BRANCH  16  19
ATOM     19  O   UNL d   1      -1.283  -6.792   0.132  0.00  0.00    -0.347 OA
BRANCH  19  20
ATOM     20  C   UNL d   1      -2.628  -7.192  -0.145  0.00  0.00     0.214 C 
BRANCH  20  21
ATOM     21  C   UNL d   1      -2.957  -8.522   0.482  0.00  0.00    -0.034 A 
ATOM     22  C   UNL d   1      -4.246  -8.733   0.996  0.00  0.00     0.009 A 
ATOM     23  C   UNL d   1      -4.607  -9.968   1.528  0.00  0.00     0.001 A 
ATOM     24  C   UNL d   1      -3.686 -11.012   1.549  0.00  0.00     0.000 A 
ATOM     25  C   UNL d   1      -2.402 -10.820   1.034  0.00  0.00     0.001 A 
ATOM     26  C   UNL d   1      -2.037  -9.582   0.498  0.00  0.00     0.009 A 
ENDBRANCH  20  21
ENDBRANCH  19  20
ENDBRANCH  16  19
ENDBRANCH   1  13
BRANCH   5  27
ATOM     27  S   UNL d   1      -2.937  -0.334  -0.125  0.00  0.00    -0.087 SA
BRANCH  27  28
ATOM     28  C   UNL d   1      -3.423   1.204  -0.971  0.00  0.00     0.126 C 
BRANCH  28  29
ATOM     29  C   UNL d   1      -4.920   1.325  -1.157  0.00  0.00     0.012 A 
ATOM     30  C   UNL d   1      -5.670   2.060  -0.231  0.00  0.00     0.125 A 
ATOM     31  F   UNL d   1      -5.058   2.630   0.819  0.00  0.00    -0.205 F 
ATOM     32  C   UNL d   1      -7.048   2.245  -0.364  0.00  0.00     0.043 A 
ATOM     33  C   UNL d   1      -7.720   1.683  -1.442  0.00  0.00     0.005 A 
ATOM     34  C   UNL d   1      -7.005   0.933  -2.374  0.00  0.00     0.024 A 
ATOM     35  C   UNL d   1      -5.618   0.752  -2.231  0.00  0.00     0.044 A 
ATOM     36 CL   UNL d   1      -4.817  -0.191  -3.440  0.00  0.00    -0.084 Cl
ENDBRANCH  28  29
ENDBRANCH  27  28
ENDBRANCH   5  27
TORSDOF 7
