REMARK  3 active torsions:
REMARK  status: ('A' for Active; 'I' for Inactive)
REMARK    1  A    between atoms: C_10  and  N_1 
REMARK    2  A    between atoms: C_7  and  C_4 
REMARK    3  A    between atoms: C_9  and  C_5 
ROOT
ATOM      1  N   UNL d   1       0.161  -1.097   0.063  0.00  0.00    -0.282 N 
ATOM      2  N   UNL d   1       1.160  -0.172   0.095  0.00  0.00    -0.301 N 
ATOM      3  HN  UNL d   1       2.161  -0.361   0.158  1.00  0.00     0.187 HD
ATOM      4  C   UNL d   1      -1.187  -0.523   0.036  0.00  0.00     0.154 A 
ATOM      5  C   UNL d   1       0.595   0.995   0.030  0.00  0.00     0.038 A 
ATOM      6  C   UNL d   1      -0.909   0.982   0.006  0.00  0.00     0.092 A 
ENDROOT
BRANCH   5   7
ATOM      7  C   UNL d   1       1.358   2.265  -0.039  0.00  0.00    -0.012 A 
ATOM      8  C   UNL d   1       2.756   2.219  -0.090  0.00  0.00     0.015 A 
ATOM      9  C   UNL d   1       3.500   3.400  -0.186  0.00  0.00     0.024 A 
ATOM     10  C   UNL d   1       2.842   4.628  -0.228  0.00  0.00     0.034 A 
ATOM     11  C   UNL d   1       1.452   4.685  -0.178  0.00  0.00     0.024 A 
ATOM     12 CL   UNL d   1       3.753   6.082  -0.350  0.00  0.00    -0.084 Cl
ATOM     13  C   UNL d   1       0.706   3.504  -0.083  0.00  0.00     0.015 A 
ENDBRANCH   5   7
BRANCH   1  14
ATOM     14  C   UNL d   1       0.431  -2.463   0.065  0.00  0.00     0.051 A 
ATOM     15  C   UNL d   1       1.604  -2.962   0.651  0.00  0.00     0.031 A 
ATOM     16  C   UNL d   1       1.867  -4.335   0.707  0.00  0.00     0.002 A 
ATOM     17  C   UNL d   1       0.972  -5.239   0.142  0.00  0.00     0.000 A 
ATOM     18  C   UNL d   1      -0.185  -4.769  -0.470  0.00  0.00     0.002 A 
ATOM     19  C   UNL d   1      -0.454  -3.397  -0.498  0.00  0.00     0.031 A 
ENDBRANCH   1  14
BRANCH   4  20
ATOM     20  C   UNL d   1      -2.063  -0.882   1.218  0.00  0.00     0.007 A 
ATOM     21  S   UNL d   1      -3.764  -0.979   1.035  0.00  0.00    -0.104 SA
ATOM     22  C   UNL d   1      -3.978  -1.438   2.669  0.00  0.00     0.050 A 
ATOM     23  C   UNL d   1      -2.783  -1.506   3.349  0.00  0.00     0.008 A 
ATOM     24  C   UNL d   1      -1.678  -1.177   2.514  0.00  0.00     0.017 A 
ENDBRANCH   4  20
TORSDOF 3
