REMARK  7 active torsions:
REMARK  status: ('A' for Active; 'I' for Inactive)
REMARK    1  A    between atoms: C_18  and  N_1 
REMARK    2  A    between atoms: C_8  and  C_2 
REMARK    3  A    between atoms: S_9  and  C_5 
REMARK    4  A    between atoms: C_21  and  S_9 
REMARK    5  A    between atoms: C_11  and  C_21 
REMARK       I    between atoms: N_12  and  C_11 
REMARK    6  A    between atoms: C_24  and  N_12 
REMARK    7  A    between atoms: C_22  and  C_18 
ROOT
ATOM      1  N   UNL d   1      -0.151  -1.398   0.239  0.00  0.00    -0.307 N 
ATOM      2  C   UNL d   1       0.999  -0.714  -0.117  0.00  0.00     0.135 C 
ATOM      3  N   UNL d   1       0.646   0.525  -0.431  0.00  0.00    -0.283 N 
ATOM      4  HN  UNL d   1       1.262   1.235  -0.829  1.00  0.00     0.188 HD
ATOM      5  C   UNL d   1      -1.117  -0.433   0.365  0.00  0.00     0.163 C 
ATOM      6  N   UNL d   1      -0.678   0.696  -0.136  0.00  0.00    -0.278 N 
ATOM      7  HN  UNL d   1      -1.225   1.545  -0.279  1.00  0.00     0.189 HD
ENDROOT
BRANCH   5   8
ATOM      8  S   UNL d   1      -2.647  -0.682   1.125  0.00  0.00    -0.083 SA
BRANCH   8   9
ATOM      9  C   UNL d   1      -3.406   0.960   1.000  0.00  0.00     0.185 C 
BRANCH   9  10
ATOM     10  C   UNL d   1      -2.813   1.961   1.987  0.00  0.00     0.231 C 
ATOM     11  N   UNL d   1      -1.694   2.608   1.498  0.00  0.00    -0.327 N 
ATOM     12  H   UNL d   1      -1.304   2.241   0.630  0.00  0.00     0.169 HD
ATOM     13  O   UNL d   1      -3.357   2.167   3.070  0.00  0.00    -0.272 OA
BRANCH  11  14
ATOM     14  C   UNL d   1      -0.967   3.665   2.076  0.00  0.00     0.034 A 
ATOM     15  C   UNL d   1      -1.244   4.217   3.326  0.00  0.00     0.029 A 
ATOM     16  C   UNL d   1      -0.490   5.295   3.804  0.00  0.00     0.002 A 
ATOM     17  C   UNL d   1       0.537   5.833   3.032  0.00  0.00     0.000 A 
ATOM     18  C   UNL d   1       0.829   5.281   1.788  0.00  0.00     0.002 A 
ATOM     19  C   UNL d   1       0.086   4.196   1.318  0.00  0.00     0.029 A 
ENDBRANCH  11  14
ENDBRANCH   9  10
ENDBRANCH   8   9
ENDBRANCH   5   8
BRANCH   1  20
ATOM     20  C   UNL d   1      -0.386  -2.832   0.167  0.00  0.00     0.159 C 
BRANCH  20  21
ATOM     21  C   UNL d   1      -0.302  -3.537   1.489  0.00  0.00    -0.017 C 
ATOM     22  C   UNL d   1       0.153  -4.790   1.626  0.00  0.00     0.008 C 
ENDBRANCH  20  21
ENDBRANCH   1  20
BRANCH   2  23
ATOM     23  C   UNL d   1       2.382  -1.206  -0.129  0.00  0.00     0.011 A 
ATOM     24  C   UNL d   1       3.323  -0.597  -0.972  0.00  0.00     0.029 A 
ATOM     25  C   UNL d   1       4.687  -0.951  -0.925  0.00  0.00    -0.009 A 
ATOM     26  C   UNL d   1       5.648  -0.323  -1.730  0.00  0.00     0.015 A 
ATOM     27  C   UNL d   1       5.132  -1.951  -0.035  0.00  0.00     0.042 A 
ATOM     28  C   UNL d   1       6.985  -0.685  -1.621  0.00  0.00     0.018 A 
ATOM     29  C   UNL d   1       7.317  -1.678  -0.719  0.00  0.00     0.088 A 
ATOM     30  N   UNL d   1       6.419  -2.317   0.062  0.00  0.00    -0.365 N 
ATOM     31  HN  UNL d   1       6.710  -3.053   0.705  1.00  0.00     0.165 HD
ATOM     32  C   UNL d   1       4.192  -2.550   0.787  0.00  0.00     0.031 A 
ATOM     33  C   UNL d   1       2.841  -2.178   0.761  0.00  0.00     0.017 A 
ENDBRANCH   2  23
TORSDOF 7
