REMARK  6 active torsions:
REMARK  status: ('A' for Active; 'I' for Inactive)
REMARK       I    between atoms: N_8  and  C_1 
REMARK       I    between atoms: N_9  and  C_1 
REMARK    1  A    between atoms: C_2  and  C_16 
REMARK    2  A    between atoms: C_3  and  C_15 
REMARK    3  A    between atoms: N_4  and  N_9 
REMARK    4  A    between atoms: N_6  and  N_8 
REMARK    5  A    between atoms: O_26  and  C_10 
REMARK    6  A    between atoms: O_25  and  C_11 
ROOT
ATOM      1  C   UNL d   1       1.000   0.035  -0.034  0.00  0.00     0.353 C 
ATOM      2  N   UNL d   1       0.319  -0.902   0.745  0.00  0.00    -0.251 N 
ATOM      3  N   UNL d   1       0.117   0.847  -0.747  0.00  0.00    -0.251 N 
ATOM      4  O   UNL d   1       2.222   0.132  -0.084  0.00  0.00    -0.244 OA
ATOM      5  H   UNL d   1      -0.688  -0.961   0.712  0.00  0.00     0.191 HD
ATOM      6  H   UNL d   1      -0.880   0.740  -0.635  0.00  0.00     0.191 HD
ENDROOT
BRANCH   2   7
ATOM      7  N   UNL d   1       1.018  -1.792   1.507  0.00  0.00    -0.307 N 
ATOM      8  C   UNL d   1       0.315  -2.621   2.209  0.00  0.00     0.121 C 
ATOM      9  HN  UNL d   1       2.038  -1.803   1.522  1.00  0.00     0.186 HD
BRANCH   8  10
ATOM     10  C   UNL d   1       0.966  -3.633   3.069  0.00  0.00     0.015 A 
ATOM     11  C   UNL d   1       2.359  -3.745   3.162  0.00  0.00     0.077 A 
ATOM     12  C   UNL d   1       2.934  -4.703   3.997  0.00  0.00     0.039 A 
ATOM     13  C   UNL d   1       2.121  -5.565   4.733  0.00  0.00     0.022 A 
ATOM     14  C   UNL d   1       0.734  -5.461   4.630  0.00  0.00     0.011 A 
ATOM     15  C   UNL d   1       0.148  -4.497   3.807  0.00  0.00     0.034 A 
ATOM     16 BR   UNL d   1      -0.366  -6.645   5.613  0.00  0.00    -0.051 Br
BRANCH  11  17
ATOM     17  O   UNL d   1       3.228  -2.955   2.462  0.00  0.00    -0.360 OA
ATOM     18  H   UNL d   1       2.712  -2.326   1.906  0.00  0.00     0.217 HD
ENDBRANCH  11  17
ENDBRANCH   8  10
ENDBRANCH   2   7
BRANCH   3  19
ATOM     19  N   UNL d   1       0.600   1.827  -1.565  0.00  0.00    -0.307 N 
ATOM     20  C   UNL d   1      -0.286   2.551  -2.172  0.00  0.00     0.121 C 
ATOM     21  HN  UNL d   1       1.600   1.980  -1.690  1.00  0.00     0.186 HD
BRANCH  20  22
ATOM     22  C   UNL d   1       0.118   3.648  -3.077  0.00  0.00     0.015 A 
ATOM     23  C   UNL d   1       1.462   3.943  -3.337  0.00  0.00     0.077 A 
ATOM     24  C   UNL d   1       1.800   4.997  -4.185  0.00  0.00     0.039 A 
ATOM     25  C   UNL d   1       0.797   5.766  -4.776  0.00  0.00     0.022 A 
ATOM     26  C   UNL d   1      -0.541   5.469  -4.520  0.00  0.00     0.011 A 
ATOM     27  C   UNL d   1      -0.890   4.412  -3.677  0.00  0.00     0.034 A 
ATOM     28 BR   UNL d   1      -1.900   6.517  -5.316  0.00  0.00    -0.051 Br
BRANCH  23  29
ATOM     29  O   UNL d   1       2.506   3.246  -2.795  0.00  0.00    -0.360 OA
ATOM     30  H   UNL d   1       2.149   2.547  -2.200  0.00  0.00     0.217 HD
ENDBRANCH  23  29
ENDBRANCH  20  22
ENDBRANCH   3  19
TORSDOF 6
