REMARK  7 active torsions:
REMARK  status: ('A' for Active; 'I' for Inactive)
REMARK    1  A    between atoms: C_3  and  C_1 
REMARK    2  A    between atoms: C_5  and  C_1 
REMARK    3  A    between atoms: N_2  and  C_8 
REMARK    4  A    between atoms: N_15  and  C_3 
REMARK    5  A    between atoms: N_7  and  C_5 
REMARK    6  A    between atoms: N_12  and  N_7 
REMARK    7  A    between atoms: C_16  and  N_12 
ROOT
ATOM      1  C   UNL d   1      -0.094   0.446   0.089  0.00  0.00     0.105 C 
ATOM      2  C   UNL d   1      -0.957   0.117  -1.007  0.00  0.00     0.104 C 
ATOM      3  N   UNL d   1      -1.637  -0.243  -1.877  0.00  0.00    -0.191 NA
ENDROOT
BRANCH   1   4
ATOM      4  C   UNL d   1      -0.178   1.861   0.587  0.00  0.00     0.117 C 
ATOM      5  S   UNL d   1      -0.312   3.234  -0.366  0.00  0.00    -0.059 SA
BRANCH   4   6
ATOM      6  N   UNL d   1      -0.213   2.045   1.941  0.00  0.00    -0.389 N 
ATOM      7  H   UNL d   1      -0.195   1.300   2.626  0.00  0.00     0.157 HD
ATOM      8  H   UNL d   1      -0.292   2.995   2.293  0.00  0.00     0.157 HD
ENDBRANCH   4   6
ENDBRANCH   1   4
BRANCH   1   9
ATOM      9  C   UNL d   1       0.764  -0.500   0.560  0.00  0.00     0.041 C 
ATOM     10  C   UNL d   1       1.771  -0.245   1.668  0.00  0.00     0.071 C 
BRANCH   9  11
ATOM     11  N   UNL d   1       0.807  -1.803   0.035  0.00  0.00    -0.320 N 
ATOM     12  H   UNL d   1      -0.017  -2.064  -0.516  0.00  0.00     0.181 HD
BRANCH  11  13
ATOM     13  N   UNL d   1       1.564  -2.846   0.495  0.00  0.00    -0.206 NA
ATOM     14  H   UNL d   1       2.571  -2.692   0.380  0.00  0.00     0.153 HD
BRANCH  13  15
ATOM     15  C   UNL d   1       1.288  -4.197   0.170  0.00  0.00     0.027 A 
ATOM     16  C   UNL d   1       0.554  -4.581  -0.961  0.00  0.00     0.027 A 
ATOM     17  C   UNL d   1       0.311  -5.933  -1.230  0.00  0.00     0.038 A 
ATOM     18  C   UNL d   1       0.813  -6.912  -0.362  0.00  0.00     0.103 A 
ATOM     19  C   UNL d   1       1.571  -6.547   0.754  0.00  0.00     0.038 A 
ATOM     20  C   UNL d   1       1.813  -5.194   1.006  0.00  0.00     0.027 A 
BRANCH  18  21
ATOM     21  N   UNL d   1       0.538  -8.329  -0.628  0.00  0.00    -0.116 N 
ATOM     22  O   UNL d   1      -0.115  -8.612  -1.639  0.00  0.00    -0.532 OA
ATOM     23  O   UNL d   1       0.991  -9.164   0.174  0.00  0.00    -0.532 OA
ENDBRANCH  18  21
ENDBRANCH  13  15
ENDBRANCH  11  13
ENDBRANCH   9  11
ENDBRANCH   1   9
TORSDOF 7
