REMARK  1 active torsions:
REMARK  status: ('A' for Active; 'I' for Inactive)
REMARK    1  A    between atoms: C_2  and  C_1 
ROOT
ATOM      1  C   UNL d   1       0.566   1.501  -0.090  0.00  0.00     0.113 C 
ATOM      2  N   UNL d   1       1.455   2.404   0.123  0.00  0.00    -0.384 N 
ATOM      3  HN  UNL d   1       2.319   2.123   0.588  1.00  0.00     0.159 HD
ATOM      4  C   UNL d   1      -0.802   1.643  -0.695  0.00  0.00     0.050 C 
ATOM      5  N   UNL d   1      -1.092   4.073  -0.695  0.00  0.00    -0.397 N 
ATOM      6  C   UNL d   1      -1.465   2.780  -0.922  0.00  0.00     0.085 C 
ATOM      7  C   UNL d   1       1.311   3.809  -0.255  0.00  0.00     0.139 C 
ATOM      8  C   UNL d   1       0.003   4.461   0.180  0.00  0.00     0.138 C 
ATOM      9  H   UNL d   1      -1.847   4.754  -0.757  0.00  0.00     0.158 HD
ENDROOT
BRANCH   1  10
ATOM     10  C   UNL d   1       0.951   0.042   0.254  0.00  0.00     0.432 C 
ATOM     11  F   UNL d   1      -0.122  -0.797   0.305  0.00  0.00    -0.165 F 
ATOM     12  F   UNL d   1       1.580  -0.074   1.455  0.00  0.00    -0.165 F 
ATOM     13  F   UNL d   1       1.792  -0.486  -0.680  0.00  0.00    -0.165 F 
ENDBRANCH   1  10
TORSDOF 1
