REMARK  5 active torsions:
REMARK  status: ('A' for Active; 'I' for Inactive)
REMARK    1  A    between atoms: S_11  and  C_1 
REMARK    2  A    between atoms: S_10  and  C_2 
REMARK    3  A    between atoms: S_13  and  C_8 
REMARK    4  A    between atoms: C_15  and  S_10 
REMARK    5  A    between atoms: C_14  and  S_11 
ROOT
ATOM      1  C   UNL d   1       0.072  -1.135  -0.098  0.00  0.00     0.100 A 
ATOM      2  C   UNL d   1       0.137   1.200   0.049  0.00  0.00     0.100 A 
ATOM      3  N   UNL d   1       1.417  -1.192  -0.002  0.00  0.00    -0.330 N 
ATOM      4  HN  UNL d   1       1.911  -2.084   0.000  1.00  0.00     0.168 HD
ATOM      5  N   UNL d   1       1.484   1.164   0.118  0.00  0.00    -0.330 N 
ATOM      6  HN  UNL d   1       2.032   2.022   0.190  1.00  0.00     0.168 HD
ATOM      7  C   UNL d   1      -0.631   0.058  -0.084  0.00  0.00     0.112 A 
ATOM      8  C   UNL d   1       2.075  -0.036   0.090  0.00  0.00     0.145 A 
ATOM      9  C   UNL d   1      -2.048   0.106  -0.235  0.00  0.00     0.105 C 
ATOM     10  N   UNL d   1      -3.199   0.144  -0.380  0.00  0.00    -0.191 NA
ENDROOT
BRANCH   2  11
ATOM     11  S   UNL d   1      -0.579   2.845   0.028  0.00  0.00    -0.071 SA
BRANCH  11  12
ATOM     12  C   UNL d   1      -0.151   3.487   1.638  0.00  0.00     0.007 A 
ATOM     13  C   UNL d   1       1.179   3.704   2.015  0.00  0.00     0.019 A 
ATOM     14  C   UNL d   1       1.484   4.242   3.269  0.00  0.00     0.001 A 
ATOM     15  C   UNL d   1       0.460   4.586   4.150  0.00  0.00     0.000 A 
ATOM     16  C   UNL d   1      -0.868   4.400   3.775  0.00  0.00     0.001 A 
ATOM     17  C   UNL d   1      -1.173   3.856   2.523  0.00  0.00     0.019 A 
ENDBRANCH  11  12
ENDBRANCH   2  11
BRANCH   1  18
ATOM     18  S   UNL d   1      -0.752  -2.724  -0.198  0.00  0.00    -0.071 SA
BRANCH  18  19
ATOM     19  C   UNL d   1       0.121  -3.579  -1.502  0.00  0.00     0.007 A 
ATOM     20  C   UNL d   1       0.389  -4.946  -1.347  0.00  0.00     0.019 A 
ATOM     21  C   UNL d   1       1.016  -5.668  -2.366  0.00  0.00     0.001 A 
ATOM     22  C   UNL d   1       1.377  -5.031  -3.552  0.00  0.00     0.000 A 
ATOM     23  C   UNL d   1       1.106  -3.675  -3.720  0.00  0.00     0.001 A 
ATOM     24  C   UNL d   1       0.474  -2.954  -2.703  0.00  0.00     0.019 A 
ENDBRANCH  18  19
ENDBRANCH   1  18
BRANCH   8  25
ATOM     25  S   UNL d   1       3.847  -0.042   0.143  0.00  0.00    -0.098 SA
ATOM     26  C   UNL d   1       4.169  -1.815  -0.019  0.00  0.00     0.099 C 
ENDBRANCH   8  25
TORSDOF 5
