REMARK  7 active torsions:
REMARK  status: ('A' for Active; 'I' for Inactive)
REMARK    1  A    between atoms: C_2  and  S_1 
REMARK    2  A    between atoms: N_5  and  S_1 
REMARK    3  A    between atoms: C_14  and  N_5 
REMARK    4  A    between atoms: C_6  and  O_12 
REMARK    5  A    between atoms: O_12  and  C_19 
REMARK    6  A    between atoms: O_13  and  C_22 
REMARK    7  A    between atoms: C_23  and  O_13 
ROOT
ATOM      1  C   UNL d   1       0.670  -2.729   1.090  0.00  0.00     0.042 A 
ATOM      2  C   UNL d   1       1.629  -5.316   0.725  0.00  0.00     0.076 A 
ATOM      3  C   UNL d   1       2.042  -2.947   0.963  0.00  0.00     0.033 A 
ATOM      4  C   UNL d   1      -0.217  -3.805   1.099  0.00  0.00     0.033 A 
ATOM      5  C   UNL d   1       0.263  -5.102   0.919  0.00  0.00     0.039 A 
ATOM      6  C   UNL d   1       2.523  -4.249   0.810  0.00  0.00     0.039 A 
ENDROOT
BRANCH   1   7
ATOM      7  N   UNL d   1       0.135  -1.408   1.096  0.00  0.00    -0.281 N 
ATOM      8  H   UNL d   1       0.524  -0.749   1.772  0.00  0.00     0.179 HD
BRANCH   7   9
ATOM      9  S   UNL d   1      -0.065  -0.661  -0.413  0.00  0.00     0.265 S 
ATOM     10  O   UNL d   1      -0.485   0.699  -0.176  0.00  0.00    -0.200 OA
ATOM     11  O   UNL d   1       1.120  -0.915  -1.214  0.00  0.00    -0.200 OA
BRANCH   9  12
ATOM     12  C   UNL d   1      -1.413  -1.569  -1.130  0.00  0.00     0.103 A 
ATOM     13  C   UNL d   1      -1.097  -2.529  -2.104  0.00  0.00     0.052 A 
ATOM     14  C   UNL d   1      -2.104  -3.299  -2.692  0.00  0.00     0.057 A 
ATOM     15 CL   UNL d   1      -1.634  -4.498  -3.838  0.00  0.00    -0.083 Cl
ATOM     16  C   UNL d   1      -3.435  -3.090  -2.324  0.00  0.00     0.057 A 
ATOM     17  C   UNL d   1      -3.748  -2.127  -1.357  0.00  0.00     0.051 A 
ATOM     18 CL   UNL d   1      -4.737  -3.998  -3.004  0.00  0.00    -0.082 Cl
ATOM     19  C   UNL d   1      -2.739  -1.370  -0.747  0.00  0.00     0.059 A 
ATOM     20 CL   UNL d   1      -3.244  -0.291   0.499  0.00  0.00    -0.083 Cl
ENDBRANCH   9  12
ENDBRANCH   7   9
ENDBRANCH   1   7
BRANCH   2  21
ATOM     21  O   UNL d   1       2.016  -6.618   0.515  0.00  0.00    -0.311 OA
BRANCH  21  22
ATOM     22  C   UNL d   1       2.923  -6.918  -0.479  0.00  0.00     0.076 A 
ATOM     23  C   UNL d   1       3.517  -8.175  -0.377  0.00  0.00     0.040 A 
ATOM     24  C   UNL d   1       4.446  -8.594  -1.331  0.00  0.00     0.040 A 
ATOM     25  C   UNL d   1       4.791  -7.769  -2.406  0.00  0.00     0.078 A 
ATOM     26  C   UNL d   1       4.208  -6.508  -2.503  0.00  0.00     0.040 A 
ATOM     27  C   UNL d   1       3.246  -6.102  -1.567  0.00  0.00     0.040 A 
BRANCH  25  28
ATOM     28  O   UNL d   1       5.694  -8.320  -3.263  0.00  0.00    -0.255 OA
BRANCH  28  29
ATOM     29  C   UNL d   1       5.827  -7.798  -4.575  0.00  0.00     0.530 C 
ATOM     30  F   UNL d   1       4.706  -7.207  -5.036  0.00  0.00    -0.144 F 
ATOM     31  F   UNL d   1       6.847  -6.914  -4.618  0.00  0.00    -0.144 F 
ATOM     32  F   UNL d   1       6.122  -8.822  -5.408  0.00  0.00    -0.144 F 
ENDBRANCH  28  29
ENDBRANCH  25  28
ENDBRANCH  21  22
ENDBRANCH   2  21
TORSDOF 7
