REMARK  4 active torsions:
REMARK  status: ('A' for Active; 'I' for Inactive)
REMARK    1  A    between atoms: O_12  and  C_2 
REMARK    2  A    between atoms: C_11  and  C_14 
REMARK    3  A    between atoms: C_13  and  C_11 
REMARK    4  A    between atoms: C_14  and  O_12 
ROOT
ATOM      1  C   UNL d   1      -0.000   0.714  -0.324  0.00  0.00     0.042 A 
ATOM      2  C   UNL d   1       1.208   1.397  -0.172  0.00  0.00     0.156 A 
ATOM      3  C   UNL d   1       0.120  -0.675  -0.428  0.00  0.00     0.049 A 
ATOM      4  N   UNL d   1       2.413   0.808  -0.137  0.00  0.00    -0.332 N 
ATOM      5  HN  UNL d   1       3.279   1.338  -0.038  1.00  0.00     0.168 HD
ATOM      6  N   UNL d   1       1.307  -1.295  -0.386  0.00  0.00    -0.351 N 
ATOM      7  HN  UNL d   1       1.379  -2.310  -0.461  1.00  0.00     0.166 HD
ATOM      8  C   UNL d   1      -1.272   1.331  -0.381  0.00  0.00     0.020 A 
ATOM      9  C   UNL d   1      -1.038  -1.427  -0.583  0.00  0.00     0.054 A 
ATOM     10  C   UNL d   1       2.396  -0.525  -0.242  0.00  0.00     0.182 A 
ATOM     11  C   UNL d   1      -2.294  -0.821  -0.642  0.00  0.00     0.036 A 
ATOM     12  C   UNL d   1      -2.418   0.559  -0.543  0.00  0.00     0.025 A 
ATOM     13 CL   UNL d   1      -3.703  -1.788  -0.844  0.00  0.00    -0.084 Cl
ENDROOT
BRANCH   2  14
ATOM     14  O   UNL d   1       1.132   2.774  -0.065  0.00  0.00    -0.327 OA
BRANCH  14  15
ATOM     15  C   UNL d   1       2.394   3.421   0.025  0.00  0.00     0.261 C 
BRANCH  15  16
ATOM     16  C   UNL d   1       2.158   4.922   0.058  0.00  0.00     0.183 C 
ATOM     17  O   UNL d   1       2.491   5.601   1.030  0.00  0.00    -0.290 OA
BRANCH  16  18
ATOM     18  C   UNL d   1       1.549   5.601  -1.131  0.00  0.00     0.012 A 
ATOM     19  C   UNL d   1       1.162   4.904  -2.286  0.00  0.00     0.018 A 
ATOM     20  C   UNL d   1       0.635   5.595  -3.381  0.00  0.00     0.043 A 
ATOM     21  C   UNL d   1       0.498   6.977  -3.325  0.00  0.00     0.116 A 
ATOM     22  C   UNL d   1       0.864   7.684  -2.188  0.00  0.00     0.043 A 
ATOM     23  F   UNL d   1       0.011   7.634  -4.385  0.00  0.00    -0.206 F 
ATOM     24  C   UNL d   1       1.386   6.996  -1.089  0.00  0.00     0.018 A 
ENDBRANCH  16  18
ENDBRANCH  15  16
ENDBRANCH  14  15
ENDBRANCH   2  14
TORSDOF 4
