REMARK  4 active torsions:
REMARK  status: ('A' for Active; 'I' for Inactive)
REMARK    1  A    between atoms: S_13  and  C_2 
REMARK    2  A    between atoms: C_10  and  C_19 
REMARK       I    between atoms: N_12  and  C_10 
REMARK    3  A    between atoms: C_14  and  N_12 
REMARK    4  A    between atoms: C_19  and  S_13 
ROOT
ATOM      1  C   UNL d   1       5.641  -0.134   0.009  0.00  0.00     0.231 C 
ATOM      2  N   UNL d   1       5.853   1.233  -0.081  0.00  0.00    -0.326 N 
ATOM      3  O   UNL d   1       4.546  -0.675   0.176  0.00  0.00    -0.272 OA
ATOM      4  H   UNL d   1       6.793   1.528  -0.315  0.00  0.00     0.169 HD
ENDROOT
BRANCH   1   5
ATOM      5  C   UNL d   1       6.859  -1.005  -0.246  0.00  0.00     0.184 C 
BRANCH   5   6
ATOM      6  S   UNL d   1       8.391  -0.319   0.446  0.00  0.00    -0.094 SA
BRANCH   6   7
ATOM      7  C   UNL d   1       9.453  -1.696   0.245  0.00  0.00     0.128 A 
ATOM      8  S   UNL d   1      11.056  -1.734   0.852  0.00  0.00    -0.050 SA
ATOM      9  C   UNL d   1      11.172  -3.332   0.229  0.00  0.00     0.065 A 
ATOM     10  N   UNL d   1      10.087  -3.747  -0.392  0.00  0.00    -0.297 N 
ATOM     11  C   UNL d   1      12.413  -4.131   0.388  0.00  0.00     0.078 C 
ATOM     12  N   UNL d   1       9.089  -2.792  -0.385  0.00  0.00    -0.287 N 
ATOM     13  HN  UNL d   1       9.995  -4.664  -0.827  1.00  0.00     0.187 HD
ATOM     14  HN  UNL d   1       8.175  -2.922  -0.817  1.00  0.00     0.188 HD
ENDBRANCH   6   7
ENDBRANCH   5   6
ENDBRANCH   1   5
BRANCH   2  15
ATOM     15  C   UNL d   1       4.876   2.247   0.041  0.00  0.00     0.037 A 
ATOM     16  C   UNL d   1       3.572   2.017   0.482  0.00  0.00     0.069 A 
ATOM     17  C   UNL d   1       2.635   3.050   0.496  0.00  0.00     0.104 A 
ATOM     18  O   UNL d   1       1.366   2.722   0.905  0.00  0.00    -0.346 OA
ATOM     19  C   UNL d   1       2.998   4.339   0.103  0.00  0.00     0.102 A 
ATOM     20  C   UNL d   1       0.417   3.688   0.446  0.00  0.00     0.202 C 
ATOM     21  C   UNL d   1       0.899   5.096   0.754  0.00  0.00     0.202 C 
ATOM     22  O   UNL d   1       2.124   5.394   0.073  0.00  0.00    -0.346 OA
ATOM     23  C   UNL d   1       4.307   4.591  -0.302  0.00  0.00     0.042 A 
ATOM     24  C   UNL d   1       5.244   3.552  -0.325  0.00  0.00     0.032 A 
ENDBRANCH   2  15
TORSDOF 4
