REMARK  5 active torsions:
REMARK  status: ('A' for Active; 'I' for Inactive)
REMARK    1  A    between atoms: C_7  and  C_1 
REMARK    2  A    between atoms: N_2  and  C_10 
REMARK    3  A    between atoms: C_13  and  N_4 
REMARK    4  A    between atoms: N_6  and  C_7 
REMARK    5  A    between atoms: O_15  and  C_8 
ROOT
ATOM      1  C   UNL d   1      -0.005   1.159   0.069  0.00  0.00     0.005 A 
ATOM      2  C   UNL d   1       0.331  -0.090   0.615  0.00  0.00     0.073 A 
ATOM      3  C   UNL d   1      -1.331   1.327  -0.402  0.00  0.00     0.042 A 
ATOM      4  C   UNL d   1      -2.251   0.254  -0.417  0.00  0.00     0.048 A 
ATOM      5  C   UNL d   1      -0.541  -1.170   0.548  0.00  0.00     0.039 A 
ATOM      6  C   UNL d   1      -1.809  -1.000   0.020  0.00  0.00     0.034 A 
ENDROOT
BRANCH   4   7
ATOM      7  N   UNL d   1      -3.610   0.324  -0.802  0.00  0.00    -0.300 N 
ATOM      8  N   UNL d   1      -4.039   1.477  -1.007  0.00  0.00    -0.300 N 
ATOM      9  HN  UNL d   1      -3.450   2.302  -1.120  1.00  0.00     0.187 HD
ATOM     10  HN  UNL d   1      -4.195  -0.506  -0.905  1.00  0.00     0.187 HD
BRANCH   8  11
ATOM     11  C   UNL d   1      -5.454   1.488  -1.062  0.00  0.00     0.048 A 
ATOM     12  C   UNL d   1      -6.242   0.915  -0.050  0.00  0.00     0.031 A 
ATOM     13  C   UNL d   1      -7.633   1.052  -0.051  0.00  0.00     0.002 A 
ATOM     14  C   UNL d   1      -8.261   1.767  -1.068  0.00  0.00     0.000 A 
ATOM     15  C   UNL d   1      -7.497   2.327  -2.092  0.00  0.00     0.002 A 
ATOM     16  C   UNL d   1      -6.104   2.187  -2.087  0.00  0.00     0.031 A 
ENDBRANCH   8  11
ENDBRANCH   4   7
BRANCH   1  17
ATOM     17  C   UNL d   1       0.978   2.330   0.021  0.00  0.00     0.314 C 
BRANCH  17  18
ATOM     18  N   UNL d   1       2.384   1.903   0.176  0.00  0.00     0.096 N 
ATOM     19  C   UNL d   1       2.957   1.262  -1.036  0.00  0.00     0.299 C 
ATOM     20  C   UNL d   1       3.688   2.181  -2.030  0.00  0.00     0.198 C 
ATOM     21  O   UNL d   1       4.569   3.104  -1.383  0.00  0.00    -0.388 OA
ATOM     22  C   UNL d   1       3.863   3.868  -0.402  0.00  0.00     0.198 C 
ATOM     23  C   UNL d   1       3.293   2.946   0.679  0.00  0.00     0.299 C 
ENDBRANCH  17  18
ENDBRANCH   1  17
BRANCH   2  24
ATOM     24  O   UNL d   1       1.519  -0.328   1.248  0.00  0.00    -0.360 OA
ATOM     25  H   UNL d   1       2.041   0.502   1.171  0.00  0.00     0.217 HD
ENDBRANCH   2  24
TORSDOF 5
