REMARK  8 active torsions:
REMARK  status: ('A' for Active; 'I' for Inactive)
REMARK    1  A    between atoms: C_7  and  N_1 
REMARK    2  A    between atoms: C_6  and  C_2 
REMARK    3  A    between atoms: C_3  and  C_8 
REMARK       I    between atoms: N_4  and  C_3 
REMARK    4  A    between atoms: C_5  and  N_4 
REMARK       I    between atoms: N_16  and  C_6 
REMARK    5  A    between atoms: N_11  and  C_18 
REMARK    6  A    between atoms: C_26  and  N_16 
REMARK    7  A    between atoms: C_18  and  C_19 
REMARK    8  A    between atoms: C_19  and  C_26 
ROOT
ATOM      1  C   UNL d   1      -1.497  -4.947   3.381  0.00  0.00     0.058 A 
ATOM      2  C   UNL d   1      -2.669  -5.715   3.186  0.00  0.00     0.050 A 
ATOM      3  C   UNL d   1      -1.446  -4.046   4.466  0.00  0.00     0.019 A 
ATOM      4  C   UNL d   1      -3.727  -5.594   4.100  0.00  0.00     0.030 A 
ATOM      5  C   UNL d   1      -2.501  -3.950   5.375  0.00  0.00     0.001 A 
ATOM      6  C   UNL d   1      -3.635  -4.728   5.195  0.00  0.00     0.002 A 
ENDROOT
BRANCH   1   7
ATOM      7  C   UNL d   1      -0.361  -5.034   2.411  0.00  0.00     0.253 C 
ATOM      8  O   UNL d   1      -0.514  -5.566   1.312  0.00  0.00    -0.268 OA
ATOM      9  N   UNL d   1       0.860  -4.530   2.820  0.00  0.00    -0.357 N 
ATOM     10  H   UNL d   1       0.990  -4.194   3.762  0.00  0.00     0.162 HD
BRANCH   9  11
ATOM     11  C   UNL d   1       2.004  -4.468   1.941  0.00  0.00     0.124 C 
BRANCH  11  12
ATOM     12  C   UNL d   1       2.115  -3.101   1.262  0.00  0.00     0.050 C 
BRANCH  12  13
ATOM     13  C   UNL d   1       3.333  -3.090   0.332  0.00  0.00     0.274 C 
BRANCH  13  14
ATOM     14  N   UNL d   1       3.545  -1.834  -0.407  0.00  0.00     0.092 N 
ATOM     15  C   UNL d   1       2.411  -1.459  -1.285  0.00  0.00     0.298 C 
ATOM     16  C   UNL d   1       2.211  -2.420  -2.467  0.00  0.00     0.198 C 
ATOM     17  O   UNL d   1       3.394  -2.500  -3.274  0.00  0.00    -0.388 OA
ATOM     18  C   UNL d   1       4.533  -2.885  -2.494  0.00  0.00     0.198 C 
ATOM     19  C   UNL d   1       4.741  -1.954  -1.282  0.00  0.00     0.298 C 
ENDBRANCH  13  14
ENDBRANCH  12  13
ENDBRANCH  11  12
ENDBRANCH   9  11
ENDBRANCH   1   7
BRANCH   2  20
ATOM     20  N   UNL d   1      -2.756  -6.635   2.102  0.00  0.00    -0.322 N 
ATOM     21  C   UNL d   1      -3.924  -6.971   1.446  0.00  0.00     0.256 C 
ATOM     22  O   UNL d   1      -5.015  -6.434   1.625  0.00  0.00    -0.267 OA
ATOM     23  H   UNL d   1      -1.889  -6.768   1.584  0.00  0.00     0.169 HD
BRANCH  21  24
ATOM     24  C   UNL d   1      -3.821  -8.032   0.401  0.00  0.00     0.034 A 
ATOM     25  C   UNL d   1      -4.821  -8.099  -0.583  0.00  0.00     0.053 A 
ATOM     26  C   UNL d   1      -4.782  -9.114  -1.548  0.00  0.00     0.103 A 
ATOM     27  C   UNL d   1      -3.754 -10.065  -1.543  0.00  0.00     0.036 A 
ATOM     28  C   UNL d   1      -2.769 -10.005  -0.556  0.00  0.00     0.003 A 
ATOM     29  C   UNL d   1      -2.803  -8.999   0.415  0.00  0.00     0.017 A 
BRANCH  26  30
ATOM     30  N   UNL d   1      -5.835  -9.195  -2.570  0.00  0.00    -0.116 N 
ATOM     31  O   UNL d   1      -6.761  -8.373  -2.512  0.00  0.00    -0.532 OA
ATOM     32  O   UNL d   1      -5.734 -10.083  -3.429  0.00  0.00    -0.532 OA
ENDBRANCH  26  30
ENDBRANCH  21  24
ENDBRANCH   2  20
TORSDOF 8
