REMARK  6 active torsions:
REMARK  status: ('A' for Active; 'I' for Inactive)
REMARK    1  A    between atoms: C_6  and  C_1 
REMARK    2  A    between atoms: C_3  and  C_2 
REMARK    3  A    between atoms: N_9  and  C_4 
REMARK    4  A    between atoms: C_5  and  N_10 
REMARK    5  A    between atoms: O_21  and  C_6 
REMARK    6  A    between atoms: N_10  and  N_9 
ROOT
ATOM      1  N   UNL d   1       3.509  -0.935  -0.492  0.00  0.00    -0.285 N 
ATOM      2  H   UNL d   1       3.642   0.071  -0.591  0.00  0.00     0.188 HD
ENDROOT
BRANCH   1   3
ATOM      3  C   UNL d   1       4.650  -1.567   0.054  0.00  0.00     0.135 A 
ATOM      4  C   UNL d   1       5.893  -0.925   0.068  0.00  0.00     0.094 A 
ATOM      5  C   UNL d   1       7.014  -1.629   0.550  0.00  0.00     0.045 A 
ATOM      6  C   UNL d   1       6.873  -2.936   0.988  0.00  0.00     0.050 A 
ATOM      7  C   UNL d   1       5.612  -3.499   0.942  0.00  0.00     0.113 A 
ATOM      8 CL   UNL d   1       8.224  -3.813   1.571  0.00  0.00    -0.083 Cl
ATOM      9  N   UNL d   1       4.511  -2.846   0.493  0.00  0.00    -0.349 N 
ATOM     10  HN  UNL d   1       3.599  -3.304   0.487  1.00  0.00     0.167 HD
BRANCH   4  11
ATOM     11  C   UNL d   1       6.079   0.497  -0.362  0.00  0.00     0.421 C 
ATOM     12  F   UNL d   1       4.926   1.133  -0.722  0.00  0.00    -0.166 F 
ATOM     13  F   UNL d   1       6.618   1.266   0.625  0.00  0.00    -0.166 F 
ATOM     14  F   UNL d   1       6.917   0.619  -1.427  0.00  0.00    -0.166 F 
ENDBRANCH   4  11
ENDBRANCH   1   3
BRANCH   1  15
ATOM     15  N   UNL d   1       2.246  -1.297  -0.102  0.00  0.00    -0.302 N 
ATOM     16  H   UNL d   1       2.114  -2.288   0.143  0.00  0.00     0.186 HD
BRANCH  15  17
ATOM     17  C   UNL d   1       1.131  -0.487  -0.006  0.00  0.00     0.048 A 
ATOM     18  C   UNL d   1      -0.117  -0.829   0.371  0.00  0.00     0.051 A 
ATOM     19  C   UNL d   1      -1.147   0.256   0.404  0.00  0.00     0.121 A 
ATOM     20  S   UNL d   1      -0.291   1.792  -0.015  0.00  0.00    -0.158 SA
ATOM     21  C   UNL d   1       1.286   0.979  -0.350  0.00  0.00     0.133 A 
BRANCH  18  22
ATOM     22  C   UNL d   1      -0.628  -2.157   0.772  0.00  0.00     0.291 C 
ATOM     23  O   UNL d   1      -1.801  -2.348   1.054  0.00  0.00    -0.260 OA
BRANCH  22  24
ATOM     24  O   UNL d   1       0.347  -3.099   0.795  0.00  0.00    -0.323 OA
ATOM     25  C   UNL d   1      -0.120  -4.386   1.203  0.00  0.00     0.213 C 
ENDBRANCH  22  24
ENDBRANCH  18  22
ENDBRANCH  15  17
ENDBRANCH   1  15
TORSDOF 6
