REMARK  6 active torsions:
REMARK  status: ('A' for Active; 'I' for Inactive)
REMARK    1  A    between atoms: C_13  and  C_1 
REMARK    2  A    between atoms: C_21  and  C_4 
REMARK    3  A    between atoms: C_5  and  N_9 
REMARK    4  A    between atoms: C_8  and  C_12 
REMARK    5  A    between atoms: N_15  and  C_13 
REMARK       I    between atoms: C_14  and  N_15 
REMARK    6  A    between atoms: C_18  and  C_14 
ROOT
ATOM      1  N   UNL d   1       1.306  -7.891  -1.556  0.00  0.00    -0.218 N 
ATOM      2  C   UNL d   1       1.156  -5.352  -0.186  0.00  0.00     0.081 C 
ATOM      3  C   UNL d   1       1.487  -6.672  -2.318  0.00  0.00     0.142 C 
ATOM      4  C   UNL d   1       1.818  -7.873  -0.194  0.00  0.00     0.142 C 
ATOM      5  C   UNL d   1       1.262  -6.682   0.597  0.00  0.00     0.034 C 
ATOM      6  C   UNL d   1       0.706  -5.553  -1.638  0.00  0.00     0.034 C 
ENDROOT
BRANCH   2   7
ATOM      7  C   UNL d   1       2.391  -4.469   0.035  0.00  0.00     0.222 C 
ATOM      8  N   UNL d   1       2.975  -3.898  -1.072  0.00  0.00    -0.356 N 
ATOM      9  H   UNL d   1       2.769  -4.237  -1.997  0.00  0.00     0.162 HD
ATOM     10  O   UNL d   1       2.790  -4.229   1.175  0.00  0.00    -0.273 OA
BRANCH   8  11
ATOM     11  C   UNL d   1       4.140  -3.063  -0.958  0.00  0.00     0.166 C 
BRANCH  11  12
ATOM     12  C   UNL d   1       3.868  -1.615  -1.160  0.00  0.00     0.020 A 
ATOM     13  C   UNL d   1       4.867  -0.572  -1.234  0.00  0.00     0.075 A 
ATOM     14  N   UNL d   1       4.282   0.619  -1.444  0.00  0.00    -0.260 N 
ATOM     15  O   UNL d   1       2.936   0.391  -1.506  0.00  0.00    -0.242 OA
ATOM     16  HN  UNL d   1       4.752   1.520  -1.538  1.00  0.00     0.195 HD
ATOM     17  C   UNL d   1       2.679  -0.932  -1.350  0.00  0.00     0.082 A 
ATOM     18  C   UNL d   1       1.254  -1.304  -1.432  0.00  0.00     0.079 C 
BRANCH  13  19
ATOM     19  C   UNL d   1       6.334  -0.674  -1.167  0.00  0.00    -0.007 A 
ATOM     20  C   UNL d   1       6.976  -1.661  -0.406  0.00  0.00     0.014 A 
ATOM     21  C   UNL d   1       8.368  -1.796  -0.426  0.00  0.00     0.001 A 
ATOM     22  C   UNL d   1       9.140  -0.917  -1.174  0.00  0.00     0.000 A 
ATOM     23  C   UNL d   1       8.526   0.103  -1.896  0.00  0.00     0.001 A 
ATOM     24  C   UNL d   1       7.133   0.221  -1.897  0.00  0.00     0.014 A 
ENDBRANCH  13  19
ENDBRANCH  11  12
ENDBRANCH   8  11
ENDBRANCH   2   7
BRANCH   1  25
ATOM     25  C   UNL d   1       0.310  -8.767  -1.934  0.00  0.00     0.680 A 
ATOM     26  N   UNL d   1      -0.277  -8.588  -3.129  0.00  0.00    -0.186 N 
ATOM     27  C   UNL d   1      -1.202  -9.485  -3.561  0.00  0.00     0.133 A 
ATOM     28  HN  UNL d   1      -0.031  -7.786  -3.708  1.00  0.00     0.184 HD
ATOM     29  C   UNL d   1      -1.565 -10.571  -2.793  0.00  0.00     0.052 A 
ATOM     30  C   UNL d   1      -0.934 -10.675  -1.580  0.00  0.00     0.108 A 
ATOM     31  N   UNL d   1      -0.013  -9.797  -1.138  0.00  0.00    -0.202 N 
ATOM     32  HN  UNL d   1       0.427  -9.912  -0.225  1.00  0.00     0.183 HD
BRANCH  27  33
ATOM     33  C   UNL d   1      -1.835  -9.297  -4.928  0.00  0.00     0.433 C 
ATOM     34  F   UNL d   1      -1.403  -8.195  -5.604  0.00  0.00    -0.165 F 
ATOM     35  F   UNL d   1      -1.605 -10.356  -5.759  0.00  0.00    -0.165 F 
ATOM     36  F   UNL d   1      -3.194  -9.179  -4.860  0.00  0.00    -0.165 F 
ENDBRANCH  27  33
ENDBRANCH   1  25
TORSDOF 6
