REMARK  7 active torsions:
REMARK  status: ('A' for Active; 'I' for Inactive)
REMARK    1  A    between atoms: C_3  and  C_1 
REMARK    2  A    between atoms: C_13  and  N_2 
REMARK       I    between atoms: N_5  and  C_7 
REMARK    3  A    between atoms: C_8  and  N_5 
REMARK    4  A    between atoms: C_7  and  C_12 
REMARK    5  A    between atoms: C_15  and  C_8 
REMARK    6  A    between atoms: C_9  and  C_14 
REMARK    7  A    between atoms: C_21  and  C_13 
ROOT
ATOM      1  C   UNL d   1      -4.039   3.028  -1.597  0.00  0.00     0.033 A 
ATOM      2  C   UNL d   1      -3.102   1.990  -1.457  0.00  0.00     0.026 A 
ATOM      3  C   UNL d   1      -3.363   0.912  -0.594  0.00  0.00    -0.039 A 
ATOM      4  C   UNL d   1      -5.277   2.933  -0.940  0.00  0.00     0.017 A 
ATOM      5  C   UNL d   1      -5.527   1.887  -0.059  0.00  0.00     0.002 A 
ATOM      6  C   UNL d   1      -4.566   0.901   0.131  0.00  0.00     0.009 A 
ENDROOT
BRANCH   1   7
ATOM      7  C   UNL d   1      -3.680   4.243  -2.394  0.00  0.00     0.257 C 
ATOM      8  N   UNL d   1      -4.299   5.414  -1.961  0.00  0.00    -0.309 N 
ATOM      9  H   UNL d   1      -4.912   5.307  -1.168  0.00  0.00     0.170 HD
ATOM     10  O   UNL d   1      -2.851   4.192  -3.299  0.00  0.00    -0.267 OA
BRANCH   8  11
ATOM     11  C   UNL d   1      -4.268   6.687  -2.499  0.00  0.00     0.112 C 
ATOM     12  N   UNL d   1      -3.560   6.979  -3.534  0.00  0.00    -0.385 N 
ATOM     13  H   UNL d   1      -3.037   6.134  -3.820  0.00  0.00     0.157 HD
ATOM     14  HN  UNL d   1      -3.522   7.889  -3.993  1.00  0.00     0.157 HD
BRANCH  11  15
ATOM     15  C   UNL d   1      -5.176   7.678  -1.850  0.00  0.00     0.007 A 
ATOM     16  C   UNL d   1      -5.498   7.588  -0.488  0.00  0.00     0.016 A 
ATOM     17  C   UNL d   1      -6.532   8.364   0.043  0.00  0.00     0.017 A 
ATOM     18  C   UNL d   1      -7.244   9.254  -0.773  0.00  0.00     0.048 A 
ATOM     19  C   UNL d   1      -6.838   9.422  -2.107  0.00  0.00     0.017 A 
ATOM     20  C   UNL d   1      -5.809   8.638  -2.643  0.00  0.00     0.016 A 
BRANCH  18  21
ATOM     21  C   UNL d   1      -8.455   9.989  -0.246  0.00  0.00     0.417 C 
ATOM     22  F   UNL d   1      -8.810   9.608   1.014  0.00  0.00    -0.166 F 
ATOM     23  F   UNL d   1      -8.281  11.336  -0.198  0.00  0.00    -0.166 F 
ATOM     24  F   UNL d   1      -9.559   9.777  -1.017  0.00  0.00    -0.166 F 
ENDBRANCH  18  21
ENDBRANCH  11  15
ENDBRANCH   8  11
ENDBRANCH   1   7
BRANCH   3  25
ATOM     25  C   UNL d   1      -2.405  -0.255  -0.453  0.00  0.00     0.170 C 
BRANCH  25  26
ATOM     26  N   UNL d   1      -2.867  -1.426  -1.204  0.00  0.00    -0.320 N 
ATOM     27  C   UNL d   1      -2.453  -1.597  -2.518  0.00  0.00     0.110 A 
ATOM     28  C   UNL d   1      -2.897  -2.614  -3.278  0.00  0.00     0.063 A 
ATOM     29  C   UNL d   1      -3.872  -3.529  -2.714  0.00  0.00     0.023 A 
ATOM     30  C   UNL d   1      -4.290  -3.397  -1.449  0.00  0.00     0.075 A 
ATOM     31  C   UNL d   1      -3.752  -2.312  -0.587  0.00  0.00     0.247 A 
ATOM     32  O   UNL d   1      -4.120  -2.248   0.583  0.00  0.00    -0.268 OA
BRANCH  28  33
ATOM     33  C   UNL d   1      -2.440  -2.802  -4.697  0.00  0.00     0.418 C 
ATOM     34  F   UNL d   1      -3.175  -3.720  -5.375  0.00  0.00    -0.166 F 
ATOM     35  F   UNL d   1      -2.508  -1.647  -5.406  0.00  0.00    -0.166 F 
ATOM     36  F   UNL d   1      -1.149  -3.219  -4.750  0.00  0.00    -0.166 F 
ENDBRANCH  28  33
ENDBRANCH  25  26
ENDBRANCH   3  25
TORSDOF 7
