REMARK  7 active torsions:
REMARK  status: ('A' for Active; 'I' for Inactive)
REMARK    1  A    between atoms: N_4  and  C_1 
REMARK    2  A    between atoms: C_2  and  N_4 
REMARK    3  A    between atoms: N_10  and  C_2 
REMARK    4  A    between atoms: C_15  and  N_10 
REMARK    5  A    between atoms: C_11  and  C_15 
REMARK    6  A    between atoms: O_16  and  C_11 
REMARK    7  A    between atoms: O_17  and  C_11 
ROOT
ATOM      1  N   UNL d   1       2.861   2.145  -1.226  0.00  0.00    -0.332 N 
ATOM      2  H   UNL d   1       2.277   2.902  -0.881  0.00  0.00     0.168 HD
ENDROOT
BRANCH   1   3
ATOM      3  C   UNL d   1       4.047   1.972  -0.531  0.00  0.00     0.172 C 
ATOM      4  S   UNL d   1       4.568   0.528   0.135  0.00  0.00    -0.041 SA
BRANCH   3   5
ATOM      5  N   UNL d   1       4.701   3.182  -0.408  0.00  0.00    -0.362 N 
ATOM      6  H   UNL d   1       4.415   3.877  -1.090  0.00  0.00     0.162 HD
BRANCH   5   7
ATOM      7  C   UNL d   1       6.089   3.354   0.037  0.00  0.00     0.182 C 
BRANCH   7   8
ATOM      8  C   UNL d   1       7.133   2.895  -1.014  0.00  0.00     0.275 C 
BRANCH   8   9
ATOM      9  O   UNL d   1       6.881   3.647  -2.214  0.00  0.00    -0.364 OA
ATOM     10  C   UNL d   1       7.615   3.137  -3.320  0.00  0.00     0.204 C 
ENDBRANCH   8   9
BRANCH   8  11
ATOM     11  O   UNL d   1       8.465   3.155  -0.569  0.00  0.00    -0.364 OA
ATOM     12  C   UNL d   1       8.893   2.282   0.466  0.00  0.00     0.204 C 
ENDBRANCH   8  11
ENDBRANCH   7   8
ENDBRANCH   5   7
ENDBRANCH   3   5
ENDBRANCH   1   3
BRANCH   1  13
ATOM     13  C   UNL d   1       2.240   1.237  -2.113  0.00  0.00     0.058 A 
ATOM     14  C   UNL d   1       2.999   0.335  -2.870  0.00  0.00     0.057 A 
ATOM     15  C   UNL d   1       2.383  -0.520  -3.790  0.00  0.00     0.058 A 
ATOM     16 CL   UNL d   1       3.398  -1.583  -4.699  0.00  0.00    -0.082 Cl
ATOM     17  C   UNL d   1       0.996  -0.476  -3.961  0.00  0.00     0.057 A 
ATOM     18  C   UNL d   1       0.233   0.436  -3.232  0.00  0.00     0.051 A 
ATOM     19 CL   UNL d   1       0.171  -1.507  -5.075  0.00  0.00    -0.082 Cl
ATOM     20  C   UNL d   1       0.854   1.298  -2.324  0.00  0.00     0.062 A 
ATOM     21 CL   UNL d   1      -0.130   2.425  -1.457  0.00  0.00    -0.082 Cl
ENDBRANCH   1  13
TORSDOF 7
