REMARK  5 active torsions:
REMARK  status: ('A' for Active; 'I' for Inactive)
REMARK    1  A    between atoms: C_13  and  N_1 
REMARK    2  A    between atoms: C_18  and  C_3 
REMARK    3  A    between atoms: C_7  and  C_19 
REMARK    4  A    between atoms: S_17  and  C_18 
REMARK    5  A    between atoms: C_19  and  S_17 
ROOT
ATOM      1  N   UNL d   1       4.953  -3.423  -0.878  0.00  0.00    -0.275 N 
ATOM      2  C   UNL d   1       4.379  -4.361  -1.722  0.00  0.00     0.199 A 
ATOM      3  C   UNL d   1       4.339  -2.239  -1.199  0.00  0.00     0.114 A 
ATOM      4  N   UNL d   1       3.435  -2.341  -2.136  0.00  0.00    -0.286 N 
ATOM      5  HN  UNL d   1       2.842  -1.603  -2.515  1.00  0.00     0.188 HD
ATOM      6  N   UNL d   1       3.463  -3.656  -2.495  0.00  0.00    -0.274 N 
ATOM      7  S   UNL d   1       4.553  -6.008  -1.837  0.00  0.00    -0.039 SA
ATOM      8  H   UNL d   1       2.821  -4.047  -3.177  0.00  0.00     0.189 HD
ENDROOT
BRANCH   3   9
ATOM      9  C   UNL d   1       4.710  -0.955  -0.495  0.00  0.00     0.152 C 
BRANCH   9  10
ATOM     10  S   UNL d   1       4.312   0.599  -1.339  0.00  0.00    -0.157 SA
BRANCH  10  11
ATOM     11  C   UNL d   1       4.973   1.700  -0.040  0.00  0.00     0.114 C 
BRANCH  11  12
ATOM     12  C   UNL d   1       4.661   3.190  -0.157  0.00  0.00    -0.036 C 
ATOM     13  C   UNL d   1       3.321   3.657  -0.072  0.00  0.00    -0.048 C 
ATOM     14  C   UNL d   1       3.042   5.039  -0.223  0.00  0.00    -0.049 C 
ATOM     15  C   UNL d   1       2.179   2.700   0.197  0.00  0.00     0.049 C 
ATOM     16  C   UNL d   1       1.611   5.528  -0.321  0.00  0.00     0.049 C 
ATOM     17  C   UNL d   1       4.102   5.980  -0.212  0.00  0.00    -0.049 C 
ATOM     18  C   UNL d   1       5.448   5.534  -0.153  0.00  0.00    -0.049 C 
ATOM     19  C   UNL d   1       3.760   7.458  -0.235  0.00  0.00     0.049 C 
ATOM     20  C   UNL d   1       5.729   4.141  -0.210  0.00  0.00    -0.048 C 
ATOM     21  C   UNL d   1       6.542   6.571  -0.017  0.00  0.00     0.049 C 
ATOM     22  C   UNL d   1       7.157   3.636  -0.258  0.00  0.00     0.049 C 
ENDBRANCH  11  12
ENDBRANCH  10  11
ENDBRANCH   9  10
ENDBRANCH   3   9
BRANCH   1  23
ATOM     23  C   UNL d   1       5.907  -3.661   0.140  0.00  0.00     0.043 A 
ATOM     24  C   UNL d   1       7.054  -4.427  -0.113  0.00  0.00     0.033 A 
ATOM     25  C   UNL d   1       8.020  -4.625   0.884  0.00  0.00     0.044 A 
ATOM     26  C   UNL d   1       7.834  -4.061   2.138  0.00  0.00     0.116 A 
ATOM     27  C   UNL d   1       6.698  -3.315   2.420  0.00  0.00     0.044 A 
ATOM     28  F   UNL d   1       8.759  -4.241   3.087  0.00  0.00    -0.206 F 
ATOM     29  C   UNL d   1       5.735  -3.124   1.427  0.00  0.00     0.033 A 
ENDBRANCH   1  23
TORSDOF 5
