REMARK  5 active torsions:
REMARK  status: ('A' for Active; 'I' for Inactive)
REMARK    1  A    between atoms: O_3  and  S_1 
REMARK    2  A    between atoms: C_7  and  S_1 
REMARK    3  A    between atoms: C_4  and  O_3 
REMARK    4  A    between atoms: C_5  and  C_6 
REMARK    5  A    between atoms: O_17  and  C_6 
ROOT
ATOM      1  C   UNL d   1       1.031  -1.488  -3.397  0.00  0.00     0.030 C 
ATOM      2  C   UNL d   1       0.844  -0.289  -2.432  0.00  0.00     0.148 C 
ATOM      3  C   UNL d   1      -0.235  -2.352  -3.586  0.00  0.00     0.092 C 
ATOM      4  C   UNL d   1      -0.332  -0.134  -4.527  0.00  0.00    -0.011 C 
ATOM      5  C   UNL d   1       1.052  -0.745  -4.742  0.00  0.00     0.012 C 
ATOM      6  C   UNL d   1      -1.206  -1.376  -4.282  0.00  0.00     0.020 C 
ATOM      7  C   UNL d   1      -0.167   0.594  -3.186  0.00  0.00     0.038 C 
ENDROOT
BRANCH   2   8
ATOM      8  O   UNL d   1       0.402  -0.635  -1.134  0.00  0.00    -0.266 OA
BRANCH   8   9
ATOM      9  S   UNL d   1       0.443   0.543   0.001  0.00  0.00     0.298 S 
ATOM     10  O   UNL d   1      -0.646   1.460  -0.291  0.00  0.00    -0.193 OA
ATOM     11  O   UNL d   1       1.803   1.022   0.116  0.00  0.00    -0.193 OA
BRANCH   9  12
ATOM     12  C   UNL d   1       0.049  -0.236   1.546  0.00  0.00     0.086 A 
ATOM     13  C   UNL d   1       0.491  -1.529   1.823  0.00  0.00     0.026 A 
ATOM     14  C   UNL d   1       0.209  -2.089   3.074  0.00  0.00     0.008 A 
ATOM     15  C   UNL d   1      -0.513  -1.367   4.038  0.00  0.00    -0.062 A 
ATOM     16  C   UNL d   1      -0.977  -0.083   3.729  0.00  0.00     0.008 A 
ATOM     17  C   UNL d   1      -0.803  -1.978   5.379  0.00  0.00     0.048 C 
ATOM     18  C   UNL d   1      -0.694   0.485   2.487  0.00  0.00     0.026 A 
ENDBRANCH   9  12
ENDBRANCH   8   9
ENDBRANCH   2   8
BRANCH   3  19
ATOM     19  C   UNL d   1      -0.759  -3.046  -2.347  0.00  0.00     0.263 C 
ATOM     20  O   UNL d   1      -0.056  -3.436  -1.424  0.00  0.00    -0.265 OA
BRANCH  19  21
ATOM     21  O   UNL d   1      -2.090  -3.293  -2.482  0.00  0.00    -0.326 OA
ATOM     22  C   UNL d   1      -2.728  -4.027  -1.434  0.00  0.00     0.213 C 
ENDBRANCH  19  21
ENDBRANCH   3  19
TORSDOF 5
