REMARK  4 active torsions:
REMARK  status: ('A' for Active; 'I' for Inactive)
REMARK    1  A    between atoms: C_6  and  C_1 
REMARK    2  A    between atoms: C_9  and  N_2 
REMARK    3  A    between atoms: C_7  and  C_6 
REMARK    4  A    between atoms: O_12  and  C_10 
ROOT
ATOM      1  C   UNL d   1      -0.324   1.144   0.101  0.00  0.00     0.049 A 
ATOM      2  N   UNL d   1      -0.350  -1.083   0.106  0.00  0.00    -0.267 N 
ATOM      3  N   UNL d   1       0.950  -0.739   0.308  0.00  0.00    -0.304 N 
ATOM      4  HN  UNL d   1       1.747  -1.364   0.426  1.00  0.00     0.186 HD
ATOM      5  C   UNL d   1      -1.145   0.038  -0.001  0.00  0.00     0.133 A 
ATOM      6  C   UNL d   1       0.952   0.591   0.319  0.00  0.00     0.124 A 
ENDROOT
BRANCH   1   7
ATOM      7  C   UNL d   1      -0.738   2.531   0.041  0.00  0.00     0.198 C 
ATOM      8  O   UNL d   1      -1.835   2.909   0.451  0.00  0.00    -0.286 OA
BRANCH   7   9
ATOM      9  C   UNL d   1       0.201   3.550  -0.503  0.00  0.00     0.048 A 
ATOM     10  C   UNL d   1       0.168   4.861  -0.011  0.00  0.00     0.079 A 
ATOM     11  C   UNL d   1       1.053   5.820  -0.501  0.00  0.00     0.037 A 
ATOM     12  C   UNL d   1       1.967   5.481  -1.499  0.00  0.00     0.003 A 
ATOM     13  C   UNL d   1       1.989   4.187  -2.017  0.00  0.00     0.001 A 
ATOM     14  C   UNL d   1       1.102   3.226  -1.530  0.00  0.00     0.018 A 
BRANCH  10  15
ATOM     15  O   UNL d   1      -0.705   5.277   0.958  0.00  0.00    -0.360 OA
ATOM     16  H   UNL d   1      -1.399   4.590   1.068  0.00  0.00     0.217 HD
ENDBRANCH  10  15
ENDBRANCH   7   9
ENDBRANCH   1   7
BRANCH   2  17
ATOM     17  C   UNL d   1      -0.732  -2.451   0.017  0.00  0.00     0.056 A 
ATOM     18  C   UNL d   1      -2.050  -2.824  -0.277  0.00  0.00     0.031 A 
ATOM     19  C   UNL d   1      -2.389  -4.178  -0.363  0.00  0.00     0.002 A 
ATOM     20  C   UNL d   1      -1.423  -5.161  -0.153  0.00  0.00     0.000 A 
ATOM     21  C   UNL d   1      -0.111  -4.796   0.140  0.00  0.00     0.002 A 
ATOM     22  C   UNL d   1       0.236  -3.447   0.223  0.00  0.00     0.031 A 
ENDBRANCH   2  17
TORSDOF 4
