REMARK  4 active torsions:
REMARK  status: ('A' for Active; 'I' for Inactive)
REMARK    1  A    between atoms: C_9  and  N_1 
REMARK    2  A    between atoms: C_11  and  C_9 
REMARK       I    between atoms: N_17  and  C_11 
REMARK    3  A    between atoms: N_12  and  N_17 
REMARK    4  A    between atoms: C_14  and  C_21 
ROOT
ATOM      1  C   UNL d   1      -0.993  -2.857   0.218  0.00  0.00     0.238 C 
ENDROOT
BRANCH   1   2
ATOM      2  N   UNL d   1      -0.993  -1.419   0.452  0.00  0.00    -0.291 N 
ATOM      3  C   UNL d   1       0.208  -0.706   0.203  0.00  0.00     0.121 A 
ATOM      4  C   UNL d   1       0.201   0.700   0.244  0.00  0.00     0.014 A 
ATOM      5  N   UNL d   1       1.327  -1.439  -0.033  0.00  0.00    -0.345 N 
ATOM      6  C   UNL d   1       1.409   1.375  -0.010  0.00  0.00    -0.046 A 
ATOM      7  C   UNL d   1      -1.054   1.386   0.558  0.00  0.00     0.021 A 
ATOM      8  C   UNL d   1       1.568   2.870   0.013  0.00  0.00     0.049 C 
ATOM      9  C   UNL d   1       2.563   0.611  -0.231  0.00  0.00     0.032 A 
ATOM     10  C   UNL d   1       2.487  -0.776  -0.229  0.00  0.00     0.007 A 
ATOM     11  C   UNL d   1       3.733  -1.595  -0.389  0.00  0.00     0.068 C 
ATOM     12  C   UNL d   1      -2.157   0.685   0.833  0.00  0.00     0.075 A 
ATOM     13  C   UNL d   1      -2.169  -0.794   0.804  0.00  0.00     0.249 A 
ATOM     14  O   UNL d   1      -3.208  -1.377   1.105  0.00  0.00    -0.268 OA
ATOM     15  HN  UNL d   1       1.292  -2.458  -0.061  1.00  0.00     0.167 HD
ENDBRANCH   1   2
BRANCH   1  16
ATOM     16  C   UNL d   1      -0.992  -3.138  -1.294  0.00  0.00     0.254 C 
ATOM     17  N   UNL d   1       0.164  -3.799  -1.704  0.00  0.00    -0.269 N 
ATOM     18  H   UNL d   1       0.931  -3.831  -1.037  0.00  0.00     0.190 HD
ATOM     19  O   UNL d   1      -1.913  -2.767  -2.016  0.00  0.00    -0.270 OA
BRANCH  17  20
ATOM     20  N   UNL d   1       0.559  -4.141  -2.971  0.00  0.00    -0.308 N 
ATOM     21  C   UNL d   1      -0.236  -4.012  -3.987  0.00  0.00     0.120 C 
ATOM     22  HN  UNL d   1       1.501  -4.505  -3.118  1.00  0.00     0.186 HD
BRANCH  21  23
ATOM     23  C   UNL d   1       0.238  -4.346  -5.356  0.00  0.00     0.002 A 
ATOM     24  C   UNL d   1      -0.493  -4.002  -6.500  0.00  0.00     0.045 A 
ATOM     25 CL   UNL d   1      -2.020  -3.196  -6.442  0.00  0.00    -0.083 Cl
ATOM     26  C   UNL d   1       0.020  -4.296  -7.772  0.00  0.00     0.024 A 
ATOM     27  C   UNL d   1       1.251  -4.939  -7.907  0.00  0.00     0.002 A 
ATOM     28  C   UNL d   1       1.973  -5.300  -6.773  0.00  0.00     0.001 A 
ATOM     29  C   UNL d   1       1.471  -5.004  -5.503  0.00  0.00     0.014 A 
ENDBRANCH  21  23
ENDBRANCH  17  20
ENDBRANCH   1  16
TORSDOF 4
