REMARK  3 active torsions:
REMARK  status: ('A' for Active; 'I' for Inactive)
REMARK       I    between atoms: N_2  and  C_1 
REMARK    1  A    between atoms: C_8  and  C_1 
REMARK    2  A    between atoms: C_11  and  N_2 
REMARK    3  A    between atoms: C_10  and  C_11 
ROOT
ATOM      1  C   UNL d   1       0.092  -0.507   0.992  0.00  0.00     0.251 C 
ATOM      2  N   UNL d   1       0.276  -1.228  -0.170  0.00  0.00    -0.353 N 
ATOM      3  O   UNL d   1       0.299  -0.965   2.111  0.00  0.00    -0.268 OA
ATOM      4  H   UNL d   1      -0.035  -0.854  -1.055  0.00  0.00     0.163 HD
ENDROOT
BRANCH   2   5
ATOM      5  C   UNL d   1       0.816  -2.576  -0.145  0.00  0.00     0.161 C 
BRANCH   5   6
ATOM      6  C   UNL d   1      -0.237  -3.663  -0.132  0.00  0.00    -0.040 A 
ATOM      7  C   UNL d   1      -1.138  -3.774   0.942  0.00  0.00     0.018 A 
ATOM      8  C   UNL d   1      -2.021  -4.841   0.972  0.00  0.00    -0.022 A 
ATOM      9  C   UNL d   1      -3.075  -5.167   1.957  0.00  0.00     0.068 C 
ATOM     10  C   UNL d   1      -2.035  -5.784  -0.041  0.00  0.00     0.075 A 
ATOM     11  C   UNL d   1      -3.389  -6.596   1.513  0.00  0.00     0.180 C 
ATOM     12  O   UNL d   1      -2.967  -6.772   0.138  0.00  0.00    -0.350 OA
ATOM     13  C   UNL d   1      -1.177  -5.704  -1.117  0.00  0.00     0.038 A 
ATOM     14  C   UNL d   1      -0.268  -4.640  -1.156  0.00  0.00     0.011 A 
ENDBRANCH   5   6
ENDBRANCH   2   5
BRANCH   1  15
ATOM     15  C   UNL d   1      -0.392   0.896   0.862  0.00  0.00     0.032 A 
ATOM     16  C   UNL d   1      -1.214   1.400   1.879  0.00  0.00     0.017 A 
ATOM     17  C   UNL d   1      -1.618   2.736   1.861  0.00  0.00     0.001 A 
ATOM     18  C   UNL d   1      -1.191   3.577   0.837  0.00  0.00     0.000 A 
ATOM     19  C   UNL d   1      -0.370   3.081  -0.179  0.00  0.00     0.001 A 
ATOM     20  C   UNL d   1       0.029   1.739  -0.171  0.00  0.00     0.017 A 
ENDBRANCH   1  15
TORSDOF 3
