REMARK  3 active torsions:
REMARK  status: ('A' for Active; 'I' for Inactive)
REMARK    1  A    between atoms: C_3  and  C_1 
REMARK    2  A    between atoms: C_9  and  C_2 
REMARK    3  A    between atoms: C_18  and  N_15 
ROOT
ATOM      1  C   UNL d   1      -0.020  -1.291  -0.106  0.00  0.00     0.052 A 
ATOM      2  C   UNL d   1      -1.298  -0.751  -0.447  0.00  0.00     0.081 A 
ATOM      3  N   UNL d   1      -1.323   0.561  -0.153  0.00  0.00    -0.259 N 
ATOM      4  HN  UNL d   1      -2.111   1.196  -0.281  1.00  0.00     0.195 HD
ATOM      5  O   UNL d   1      -0.086   0.883   0.354  0.00  0.00    -0.241 OA
ATOM      6  C   UNL d   1       0.690  -0.227   0.401  0.00  0.00     0.087 A 
ATOM      7  C   UNL d   1       2.044  -0.062   0.965  0.00  0.00     0.080 C 
ENDROOT
BRANCH   1   8
ATOM      8  C   UNL d   1       0.451  -2.669  -0.194  0.00  0.00     0.056 A 
ATOM      9  N   UNL d   1       1.232  -3.122   0.848  0.00  0.00    -0.335 N 
ATOM     10  C   UNL d   1       1.582  -4.377   0.675  0.00  0.00     0.149 A 
ATOM     11  HN  UNL d   1       1.504  -2.554   1.651  1.00  0.00     0.168 HD
ATOM     12  N   UNL d   1       2.342  -5.105   1.525  0.00  0.00    -0.336 N 
ATOM     13  S   UNL d   1       1.007  -5.068  -0.800  0.00  0.00    -0.064 SA
ATOM     14  H   UNL d   1       2.603  -6.042   1.240  0.00  0.00     0.168 HD
ATOM     15  C   UNL d   1       0.211  -3.594  -1.185  0.00  0.00     0.083 A 
BRANCH  12  16
ATOM     16  C   UNL d   1       2.453  -4.899   2.919  0.00  0.00     0.040 A 
ATOM     17  C   UNL d   1       3.612  -5.309   3.616  0.00  0.00    -0.035 A 
ATOM     18  C   UNL d   1       4.802  -5.937   2.942  0.00  0.00     0.050 C 
ATOM     19  C   UNL d   1       3.694  -5.101   5.006  0.00  0.00     0.009 A 
ATOM     20  C   UNL d   1       2.661  -4.487   5.705  0.00  0.00     0.001 A 
ATOM     21  C   UNL d   1       1.527  -4.059   5.022  0.00  0.00     0.002 A 
ATOM     22  C   UNL d   1       1.434  -4.259   3.646  0.00  0.00     0.030 A 
ENDBRANCH  12  16
ENDBRANCH   1   8
BRANCH   2  23
ATOM     23  C   UNL d   1      -2.510  -1.419  -0.937  0.00  0.00     0.015 A 
ATOM     24  C   UNL d   1      -3.353  -0.861  -1.920  0.00  0.00     0.048 A 
ATOM     25  C   UNL d   1      -4.525  -1.521  -2.314  0.00  0.00     0.048 A 
ATOM     26 CL   UNL d   1      -3.005   0.622  -2.746  0.00  0.00    -0.083 Cl
ATOM     27  C   UNL d   1      -4.853  -2.752  -1.756  0.00  0.00     0.035 A 
ATOM     28  C   UNL d   1      -4.030  -3.328  -0.795  0.00  0.00     0.025 A 
ATOM     29 CL   UNL d   1      -6.280  -3.569  -2.257  0.00  0.00    -0.084 Cl
ATOM     30  C   UNL d   1      -2.880  -2.656  -0.374  0.00  0.00     0.017 A 
ENDBRANCH   2  23
TORSDOF 3
