REMARK  5 active torsions:
REMARK  status: ('A' for Active; 'I' for Inactive)
REMARK    1  A    between atoms: C_2  and  S_1 
REMARK    2  A    between atoms: C_6  and  S_1 
REMARK    3  A    between atoms: N_5  and  C_3 
REMARK    4  A    between atoms: S_10  and  C_3 
REMARK    5  A    between atoms: C_14  and  N_5 
ROOT
ATOM      1  C   UNL d   1       0.215   0.815   1.231  0.00  0.00     0.177 C 
ATOM      2  C   UNL d   1      -0.326   1.980   1.669  0.00  0.00     0.098 C 
ATOM      3  C   UNL d   1       0.442  -0.242   2.149  0.00  0.00     0.115 C 
ATOM      4  N   UNL d   1       0.564  -1.086   2.942  0.00  0.00    -0.191 NA
ENDROOT
BRANCH   1   5
ATOM      5  S   UNL d   1       0.401   0.277  -0.399  0.00  0.00     0.219 S 
ATOM      6  O   UNL d   1      -0.927   0.072  -0.950  0.00  0.00    -0.216 OA
ATOM      7  O   UNL d   1       1.346  -0.834  -0.415  0.00  0.00    -0.216 OA
BRANCH   5   8
ATOM      8  C   UNL d   1       1.206   1.470  -1.451  0.00  0.00     0.065 A 
ATOM      9  C   UNL d   1       2.325   2.192  -1.043  0.00  0.00     0.025 A 
ATOM     10  C   UNL d   1       3.043   2.935  -1.992  0.00  0.00     0.025 A 
ATOM     11  C   UNL d   1       2.652   2.933  -3.333  0.00  0.00     0.034 A 
ATOM     12  C   UNL d   1       1.528   2.221  -3.740  0.00  0.00     0.025 A 
ATOM     13 CL   UNL d   1       3.587   3.779  -4.504  0.00  0.00    -0.084 Cl
ATOM     14  C   UNL d   1       0.799   1.493  -2.799  0.00  0.00     0.025 A 
ENDBRANCH   5   8
ENDBRANCH   1   5
BRANCH   2  15
ATOM     15  N   UNL d   1      -0.638   2.176   3.027  0.00  0.00    -0.378 N 
ATOM     16  H   UNL d   1      -1.067   1.346   3.442  0.00  0.00     0.160 HD
BRANCH  15  17
ATOM     17  C   UNL d   1       0.086   2.931   4.066  0.00  0.00     0.082 C 
ATOM     18  C   UNL d   1       1.036   4.025   3.586  0.00  0.00     0.025 C 
ATOM     19  C   UNL d   1       2.411   3.523   3.160  0.00  0.00     0.002 C 
ATOM     20  C   UNL d   1       3.071   2.641   4.213  0.00  0.00     0.000 C 
ATOM     21  C   UNL d   1       2.166   1.525   4.711  0.00  0.00     0.002 C 
ATOM     22  C   UNL d   1       0.757   1.983   5.077  0.00  0.00     0.025 C 
ENDBRANCH  15  17
ENDBRANCH   2  15
BRANCH   2  23
ATOM     23  S   UNL d   1      -0.894   3.198   0.521  0.00  0.00    -0.115 SA
ATOM     24  C   UNL d   1      -2.545   3.534   1.214  0.00  0.00     0.097 C 
ENDBRANCH   2  23
TORSDOF 5
