REMARK  10 active torsions:
REMARK  status: ('A' for Active; 'I' for Inactive)
REMARK    1  A    between atoms: N_4  and  C_1 
REMARK    2  A    between atoms: N_7  and  C_1 
REMARK    3  A    between atoms: C_8  and  N_4 
REMARK    4  A    between atoms: C_15  and  N_7 
REMARK    5  A    between atoms: O_12  and  C_17 
REMARK    6  A    between atoms: C_14  and  O_12 
REMARK    7  A    between atoms: C_13  and  C_15 
REMARK    8  A    between atoms: C_17  and  C_13 
REMARK    9  A    between atoms: O_23  and  C_13 
REMARK   10  A    between atoms: O_24  and  C_18 
ROOT
ATOM      1  N   UNL d   1       2.473   0.160  -0.024  0.00  0.00    -0.364 N 
ATOM      2  H   UNL d   1       2.902  -0.448  -0.720  0.00  0.00     0.162 HD
ENDROOT
BRANCH   1   3
ATOM      3  C   UNL d   1       1.124  -0.032   0.096  0.00  0.00     0.172 C 
ATOM      4  S   UNL d   1       0.389  -1.016  -1.037  0.00  0.00    -0.041 SA
BRANCH   3   5
ATOM      5  N   UNL d   1       0.519   0.642   1.127  0.00  0.00    -0.333 N 
ATOM      6  H   UNL d   1       0.844   1.592   1.254  0.00  0.00     0.168 HD
BRANCH   5   7
ATOM      7  C   UNL d   1      -0.611   0.264   1.889  0.00  0.00     0.037 A 
ATOM      8  C   UNL d   1      -1.306   1.258   2.587  0.00  0.00     0.069 A 
ATOM      9  C   UNL d   1      -2.345   0.912   3.457  0.00  0.00     0.104 A 
ATOM     10  O   UNL d   1      -2.946   1.938   4.143  0.00  0.00    -0.346 OA
ATOM     11  C   UNL d   1      -2.716  -0.424   3.618  0.00  0.00     0.102 A 
ATOM     12  C   UNL d   1      -3.606   1.442   5.313  0.00  0.00     0.202 C 
ATOM     13  C   UNL d   1      -4.484   0.249   4.970  0.00  0.00     0.202 C 
ATOM     14  O   UNL d   1      -3.705  -0.842   4.469  0.00  0.00    -0.346 OA
ATOM     15  C   UNL d   1      -2.034  -1.416   2.923  0.00  0.00     0.042 A 
ATOM     16  C   UNL d   1      -0.982  -1.074   2.068  0.00  0.00     0.032 A 
ENDBRANCH   5   7
ENDBRANCH   3   5
ENDBRANCH   1   3
BRANCH   1  17
ATOM     17  C   UNL d   1       3.381   0.714   0.974  0.00  0.00     0.155 C 
BRANCH  17  18
ATOM     18  C   UNL d   1       4.854   0.435   0.619  0.00  0.00     0.160 C 
BRANCH  18  19
ATOM     19  C   UNL d   1       5.785   1.014   1.698  0.00  0.00     0.209 C 
BRANCH  19  20
ATOM     20  O   UNL d   1       7.150   0.894   1.280  0.00  0.00    -0.349 OA
BRANCH  20  21
ATOM     21  C   UNL d   1       8.094   1.350   2.162  0.00  0.00     0.069 A 
ATOM     22  C   UNL d   1       7.906   1.517   3.535  0.00  0.00     0.039 A 
ATOM     23  C   UNL d   1       8.953   1.971   4.349  0.00  0.00     0.039 A 
ATOM     24  C   UNL d   1      10.198   2.264   3.797  0.00  0.00     0.068 A 
ATOM     25  C   UNL d   1      10.389   2.092   2.426  0.00  0.00     0.039 A 
ATOM     26  C   UNL d   1       9.347   1.629   1.614  0.00  0.00     0.039 A 
BRANCH  24  27
ATOM     27  O   UNL d   1      11.290   2.720   4.484  0.00  0.00    -0.356 OA
ATOM     28  C   UNL d   1      11.146   2.858   5.893  0.00  0.00     0.210 C 
ENDBRANCH  24  27
ENDBRANCH  20  21
ENDBRANCH  19  20
ENDBRANCH  18  19
BRANCH  18  29
ATOM     29  O   UNL d   1       5.037  -0.986   0.499  0.00  0.00    -0.392 OA
ATOM     30  H   UNL d   1       5.028  -1.380   1.385  0.00  0.00     0.210 HD
ENDBRANCH  18  29
ENDBRANCH  17  18
ENDBRANCH   1  17
TORSDOF 10
