REMARK  6 active torsions:
REMARK  status: ('A' for Active; 'I' for Inactive)
REMARK    1  A    between atoms: C_3  and  C_1 
REMARK    2  A    between atoms: N_8  and  C_2 
REMARK    3  A    between atoms: C_4  and  C_7 
REMARK    4  A    between atoms: N_20  and  C_7 
REMARK       I    between atoms: C_9  and  N_8 
REMARK    5  A    between atoms: O_16  and  C_9 
REMARK    6  A    between atoms: N_11  and  O_16 
ROOT
ATOM      1  N   UNL d   1      -2.619  -1.254  -0.349  0.00  0.00    -0.298 N 
ATOM      2  C   UNL d   1      -1.421  -0.752   0.065  0.00  0.00     0.387 C 
ATOM      3  O   UNL d   1      -1.403   0.425   0.428  0.00  0.00    -0.236 OA
ATOM      4  H   UNL d   1      -3.344  -0.565  -0.201  0.00  0.00     0.171 HD
ENDROOT
BRANCH   2   5
ATOM      5  O   UNL d   1      -0.327  -1.590   0.079  0.00  0.00    -0.179 OA
BRANCH   5   6
ATOM      6  N   UNL d   1       0.578  -1.036   1.007  0.00  0.00    -0.244 N 
ATOM      7  C   UNL d   1       1.834  -1.213   0.741  0.00  0.00     0.112 C 
ATOM      8  HN  UNL d   1       0.264  -0.529   1.835  1.00  0.00     0.196 HD
BRANCH   7   9
ATOM      9  C   UNL d   1       2.776  -0.539   1.693  0.00  0.00     0.047 A 
ATOM     10  C   UNL d   1       2.615  -0.700   3.083  0.00  0.00     0.049 A 
ATOM     11 CL   UNL d   1       1.554  -1.875   3.787  0.00  0.00    -0.083 Cl
ATOM     12  C   UNL d   1       3.361   0.076   3.979  0.00  0.00     0.025 A 
ATOM     13  C   UNL d   1       4.286   1.004   3.509  0.00  0.00     0.003 A 
ATOM     14  C   UNL d   1       4.479   1.146   2.137  0.00  0.00     0.025 A 
ATOM     15  C   UNL d   1       3.727   0.386   1.230  0.00  0.00     0.049 A 
ATOM     16 CL   UNL d   1       4.011   0.687  -0.451  0.00  0.00    -0.083 Cl
ENDBRANCH   7   9
BRANCH   7  17
ATOM     17  N   UNL d   1       2.317  -1.899  -0.345  0.00  0.00    -0.286 NA
ATOM     18  H   UNL d   1       3.195  -1.561  -0.727  0.00  0.00     0.125 HD
ATOM     19  H   UNL d   1       1.617  -2.040  -1.065  0.00  0.00     0.125 HD
ENDBRANCH   7  17
ENDBRANCH   5   6
ENDBRANCH   2   5
BRANCH   1  20
ATOM     20  C   UNL d   1      -3.022  -2.495  -0.808  0.00  0.00     0.072 A 
ATOM     21  C   UNL d   1      -4.428  -2.830  -1.005  0.00  0.00     0.079 A 
ATOM     22  N   UNL d   1      -4.671  -4.050  -1.489  0.00  0.00    -0.324 N 
ATOM     23  S   UNL d   1      -3.237  -4.843  -1.706  0.00  0.00    -0.024 SA
ATOM     24  HN  UNL d   1      -5.595  -4.432  -1.693  1.00  0.00     0.174 HD
ATOM     25  C   UNL d   1      -2.233  -3.574  -1.142  0.00  0.00     0.100 A 
BRANCH  21  26
ATOM     26  C   UNL d   1      -5.552  -1.941  -0.681  0.00  0.00     0.037 A 
ATOM     27  C   UNL d   1      -6.268  -1.274  -1.691  0.00  0.00     0.048 A 
ATOM     28 CL   UNL d   1      -5.912  -1.478  -3.372  0.00  0.00    -0.083 Cl
ATOM     29  C   UNL d   1      -7.285  -0.366  -1.364  0.00  0.00     0.025 A 
ATOM     30  C   UNL d   1      -7.596  -0.105  -0.031  0.00  0.00     0.003 A 
ATOM     31  C   UNL d   1      -6.899  -0.760   0.980  0.00  0.00     0.025 A 
ATOM     32  C   UNL d   1      -5.890  -1.677   0.660  0.00  0.00     0.048 A 
ATOM     33 CL   UNL d   1      -5.078  -2.436   1.990  0.00  0.00    -0.083 Cl
ENDBRANCH  21  26
ENDBRANCH   1  20
TORSDOF 6
