REMARK  6 active torsions:
REMARK  status: ('A' for Active; 'I' for Inactive)
REMARK    1  A    between atoms: N_2  and  C_1 
REMARK    2  A    between atoms: N_4  and  C_1 
REMARK       I    between atoms: C_3  and  N_2 
REMARK    3  A    between atoms: C_5  and  C_3 
REMARK       I    between atoms: C_7  and  N_4 
REMARK    4  A    between atoms: O_16  and  C_6 
REMARK       I    between atoms: N_15  and  C_7 
REMARK    5  A    between atoms: O_17  and  C_8 
REMARK    6  A    between atoms: O_18  and  C_9 
ROOT
ATOM      1  N   UNL d   1       0.602  -2.424  -1.653  0.00  0.00    -0.299 N 
ATOM      2  C   UNL d   1       1.056  -2.391  -0.335  0.00  0.00     0.258 C 
ATOM      3  O   UNL d   1       0.375  -2.193   0.663  0.00  0.00    -0.267 OA
ATOM      4  H   UNL d   1       1.322  -2.502  -2.370  0.00  0.00     0.171 HD
ENDROOT
BRANCH   2   5
ATOM      5  C   UNL d   1       2.529  -2.560  -0.179  0.00  0.00     0.037 A 
ATOM      6  C   UNL d   1       3.171  -1.875   0.860  0.00  0.00     0.057 A 
ATOM      7  C   UNL d   1       4.560  -1.946   1.016  0.00  0.00     0.105 A 
ATOM      8  C   UNL d   1       5.312  -2.715   0.103  0.00  0.00     0.135 A 
ATOM      9  C   UNL d   1       4.660  -3.437  -0.922  0.00  0.00     0.105 A 
ATOM     10  C   UNL d   1       3.271  -3.372  -1.043  0.00  0.00     0.057 A 
BRANCH   7  11
ATOM     11  O   UNL d   1       5.237  -1.312   2.025  0.00  0.00    -0.353 OA
ATOM     12  C   UNL d   1       4.489  -0.546   2.961  0.00  0.00     0.210 C 
ENDBRANCH   7  11
BRANCH   8  13
ATOM     13  O   UNL d   1       6.678  -2.885   0.169  0.00  0.00    -0.351 OA
ATOM     14  C   UNL d   1       7.437  -1.712   0.438  0.00  0.00     0.210 C 
ENDBRANCH   8  13
BRANCH   9  15
ATOM     15  O   UNL d   1       5.456  -4.184  -1.759  0.00  0.00    -0.353 OA
ATOM     16  C   UNL d   1       4.880  -4.604  -2.991  0.00  0.00     0.210 C 
ENDBRANCH   9  15
ENDBRANCH   2   5
BRANCH   1  17
ATOM     17  C   UNL d   1      -0.673  -2.324  -2.174  0.00  0.00     0.182 C 
ATOM     18  S   UNL d   1      -2.108  -2.102  -1.347  0.00  0.00    -0.040 SA
BRANCH  17  19
ATOM     19  N   UNL d   1      -0.755  -2.442  -3.554  0.00  0.00    -0.285 N 
ATOM     20  C   UNL d   1       0.257  -2.685  -4.451  0.00  0.00     0.320 C 
ATOM     21  O   UNL d   1       1.439  -2.812  -4.147  0.00  0.00    -0.247 OA
ATOM     22  N   UNL d   1      -0.170  -2.811  -5.732  0.00  0.00    -0.352 N 
ATOM     23  H   UNL d   1      -1.012  -2.350  -6.047  0.00  0.00     0.160 HD
ATOM     24  H   UNL d   1       0.562  -2.904  -6.427  0.00  0.00     0.160 HD
ATOM     25  H   UNL d   1      -1.694  -2.409  -3.916  0.00  0.00     0.173 HD
ENDBRANCH  17  19
ENDBRANCH   1  17
TORSDOF 6
