REMARK  5 active torsions:
REMARK  status: ('A' for Active; 'I' for Inactive)
REMARK    1  A    between atoms: C_3  and  N_1 
REMARK    2  A    between atoms: N_2  and  C_8 
REMARK    3  A    between atoms: C_9  and  N_2 
REMARK    4  A    between atoms: C_11  and  C_3 
REMARK    5  A    between atoms: O_16  and  C_10 
ROOT
ATOM      1  N   UNL d   1       1.397  -0.068   0.275  0.00  0.00     0.092 N 
ATOM      2  C   UNL d   1      -0.662   1.317   0.275  0.00  0.00     0.055 C 
ATOM      3  C   UNL d   1      -0.851  -1.161   0.244  0.00  0.00     0.055 C 
ATOM      4  C   UNL d   1       0.783   1.185  -0.193  0.00  0.00     0.275 C 
ATOM      5  C   UNL d   1       0.617  -1.230  -0.181  0.00  0.00     0.275 C 
ATOM      6  C   UNL d   1      -1.523   0.145  -0.202  0.00  0.00     0.085 C 
ENDROOT
BRANCH   6   7
ATOM      7  N   UNL d   1      -1.688   0.144  -1.666  0.00  0.00    -0.385 N 
ATOM      8  H   UNL d   1      -1.594  -0.783  -2.073  0.00  0.00     0.160 HD
BRANCH   7   9
ATOM      9  C   UNL d   1      -2.729   0.844  -2.283  0.00  0.00     0.028 A 
ATOM     10  C   UNL d   1      -3.348   1.970  -1.736  0.00  0.00     0.032 A 
ATOM     11  C   UNL d   1      -4.346   2.667  -2.429  0.00  0.00     0.039 A 
ATOM     12  C   UNL d   1      -4.745   2.248  -3.694  0.00  0.00     0.068 A 
ATOM     13  C   UNL d   1      -4.099   1.166  -4.283  0.00  0.00     0.039 A 
ATOM     14  C   UNL d   1      -3.094   0.481  -3.588  0.00  0.00     0.032 A 
BRANCH  12  15
ATOM     15  O   UNL d   1      -5.721   2.837  -4.450  0.00  0.00    -0.356 OA
ATOM     16  C   UNL d   1      -6.714   3.550  -3.715  0.00  0.00     0.210 C 
ENDBRANCH  12  15
ENDBRANCH   7   9
ENDBRANCH   6   7
BRANCH   1  17
ATOM     17  C   UNL d   1       2.783  -0.190  -0.232  0.00  0.00     0.311 C 
BRANCH  17  18
ATOM     18  C   UNL d   1       3.709   0.922   0.214  0.00  0.00    -0.030 A 
ATOM     19  C   UNL d   1       3.971   1.133   1.575  0.00  0.00     0.009 A 
ATOM     20  C   UNL d   1       4.814   2.168   1.981  0.00  0.00     0.001 A 
ATOM     21  C   UNL d   1       5.406   3.001   1.032  0.00  0.00     0.000 A 
ATOM     22  C   UNL d   1       5.156   2.800  -0.323  0.00  0.00     0.001 A 
ATOM     23  C   UNL d   1       4.313   1.765  -0.731  0.00  0.00     0.009 A 
ENDBRANCH  17  18
ENDBRANCH   1  17
TORSDOF 5
