REMARK  5 active torsions:
REMARK  status: ('A' for Active; 'I' for Inactive)
REMARK    1  A    between atoms: C_6  and  C_3 
REMARK       I    between atoms: N_8  and  C_6 
REMARK    2  A    between atoms: C_16  and  N_8 
REMARK    3  A    between atoms: C_17  and  N_8 
REMARK    4  A    between atoms: C_18  and  C_16 
REMARK    5  A    between atoms: C_19  and  C_17 
ROOT
ATOM      1  C   UNL d   1      -1.977   0.993  -1.026  0.00  0.00     0.005 A 
ATOM      2  C   UNL d   1      -1.888  -0.419  -1.052  0.00  0.00     0.027 A 
ATOM      3  C   UNL d   1      -1.409   1.644   0.071  0.00  0.00     0.044 C 
ATOM      4  C   UNL d   1      -2.418  -0.904  -2.337  0.00  0.00     0.194 A 
ATOM      5  C   UNL d   1      -2.693   1.408  -2.237  0.00  0.00    -0.010 A 
ATOM      6  C   UNL d   1      -2.923   0.282  -3.051  0.00  0.00     0.026 A 
ATOM      7  O   UNL d   1      -2.445  -2.054  -2.725  0.00  0.00    -0.287 OA
ATOM      8  C   UNL d   1      -1.394  -1.200  -0.022  0.00  0.00     0.016 C 
ATOM      9  C   UNL d   1      -0.985   0.861   1.169  0.00  0.00     0.018 C 
ATOM     10  C   UNL d   1      -3.262   2.607  -2.635  0.00  0.00     0.013 A 
ATOM     11  C   UNL d   1      -3.608   0.304  -4.255  0.00  0.00     0.016 A 
ATOM     12  C   UNL d   1      -0.971  -0.545   1.122  0.00  0.00     0.002 C 
ATOM     13  C   UNL d   1      -3.993   2.658  -3.838  0.00  0.00     0.001 A 
ATOM     14  C   UNL d   1      -4.147   1.522  -4.651  0.00  0.00     0.001 A 
ENDROOT
BRANCH   3  15
ATOM     15  C   UNL d   1      -1.253   3.117   0.185  0.00  0.00     0.254 C 
ATOM     16  N   UNL d   1      -0.002   3.680   0.528  0.00  0.00    -0.348 N 
ATOM     17  O   UNL d   1      -2.262   3.800   0.021  0.00  0.00    -0.267 OA
BRANCH  16  18
ATOM     18  C   UNL d   1       0.053   5.147   0.643  0.00  0.00     0.125 C 
BRANCH  18  19
ATOM     19  C   UNL d   1       0.789   5.847  -0.504  0.00  0.00     0.015 C 
ATOM     20  C   UNL d   1       0.084   5.698  -1.842  0.00  0.00     0.006 C 
ENDBRANCH  18  19
ENDBRANCH  16  18
BRANCH  16  21
ATOM     21  C   UNL d   1       1.288   2.955   0.552  0.00  0.00     0.125 C 
BRANCH  21  22
ATOM     22  C   UNL d   1       2.210   3.307   1.731  0.00  0.00     0.015 C 
ATOM     23  C   UNL d   1       1.602   3.028   3.099  0.00  0.00     0.006 C 
ENDBRANCH  21  22
ENDBRANCH  16  21
ENDBRANCH   3  15
TORSDOF 5
