REMARK  3 active torsions:
REMARK  status: ('A' for Active; 'I' for Inactive)
REMARK    1  A    between atoms: C_10  and  C_6 
REMARK    2  A    between atoms: C_12  and  C_7 
REMARK    3  A    between atoms: S_15  and  C_8 
ROOT
ATOM      1  N   UNL d   1       1.445   1.182   0.059  0.00  0.00    -0.340 N 
ATOM      2  HN  UNL d   1       1.947   2.068   0.124  1.00  0.00     0.167 HD
ATOM      3  C   UNL d   1      -0.606  -0.045  -0.120  0.00  0.00     0.105 A 
ATOM      4  N   UNL d   1       1.508  -1.180  -0.030  0.00  0.00    -0.335 N 
ATOM      5  HN  UNL d   1       2.049  -2.044  -0.021  1.00  0.00     0.168 HD
ATOM      6  C   UNL d   1       2.109   0.016   0.029  0.00  0.00     0.118 A 
ATOM      7  C   UNL d   1       0.086   1.154   0.001  0.00  0.00     0.067 A 
ATOM      8  C   UNL d   1       0.163  -1.200  -0.102  0.00  0.00     0.094 A 
ATOM      9  C   UNL d   1      -2.022  -0.105  -0.298  0.00  0.00     0.104 C 
ATOM     10  N   UNL d   1      -3.174  -0.141  -0.431  0.00  0.00    -0.191 NA
ENDROOT
BRANCH   7  11
ATOM     11  C   UNL d   1      -0.542   2.502   0.063  0.00  0.00    -0.008 A 
ATOM     12  C   UNL d   1      -1.738   2.756   0.763  0.00  0.00     0.014 A 
ATOM     13  C   UNL d   1      -2.333   4.023   0.765  0.00  0.00     0.001 A 
ATOM     14  C   UNL d   1      -1.722   5.082   0.105  0.00  0.00     0.000 A 
ATOM     15  C   UNL d   1      -0.513   4.877  -0.551  0.00  0.00     0.001 A 
ATOM     16  C   UNL d   1       0.067   3.603  -0.572  0.00  0.00     0.014 A 
ENDBRANCH   7  11
BRANCH   8  17
ATOM     17  S   UNL d   1      -0.592  -2.831  -0.165  0.00  0.00    -0.115 SA
ATOM     18  C   UNL d   1       0.864  -3.902  -0.042  0.00  0.00     0.097 C 
ENDBRANCH   8  17
BRANCH   6  19
ATOM     19  C   UNL d   1       3.577   0.037   0.046  0.00  0.00     0.023 A 
ATOM     20  C   UNL d   1       4.302   1.227   0.068  0.00  0.00     0.102 A 
ATOM     21  N   UNL d   1       5.659   1.317   0.078  0.00  0.00    -0.374 N 
ATOM     22  C   UNL d   1       6.345   0.156   0.067  0.00  0.00     0.087 A 
ATOM     23  HN  UNL d   1       6.135   2.219   0.093  1.00  0.00     0.164 HD
ATOM     24  C   UNL d   1       5.740  -1.086   0.043  0.00  0.00     0.018 A 
ATOM     25  C   UNL d   1       4.346  -1.140   0.031  0.00  0.00     0.018 A 
ENDBRANCH   6  19
TORSDOF 3
