REMARK  6 active torsions:
REMARK  status: ('A' for Active; 'I' for Inactive)
REMARK    1  A    between atoms: C_14  and  N_5 
REMARK    2  A    between atoms: C_18  and  N_11 
REMARK    3  A    between atoms: C_17  and  C_12 
REMARK    4  A    between atoms: C_19  and  C_14 
REMARK    5  A    between atoms: C_24  and  C_18 
REMARK    6  A    between atoms: C_25  and  C_24 
ROOT
ATOM      1  N   UNL d   1       1.208  -0.615   0.103  0.00  0.00    -0.203 N 
ATOM      2  C   UNL d   1       1.179   0.765  -0.080  0.00  0.00     0.136 A 
ATOM      3  C   UNL d   1      -1.196  -0.706   0.029  0.00  0.00     0.062 A 
ATOM      4  C   UNL d   1      -1.166   0.616  -0.166  0.00  0.00     0.118 A 
ATOM      5  N   UNL d   1      -0.029   1.409  -0.197  0.00  0.00    -0.322 N 
ATOM      6  C   UNL d   1       0.064  -1.442   0.195  0.00  0.00     0.278 A 
ATOM      7  N   UNL d   1       2.477  -1.097   0.181  0.00  0.00    -0.289 N 
ATOM      8  HN  UNL d   1       2.766  -2.064   0.327  1.00  0.00     0.188 HD
ATOM      9  C   UNL d   1       2.490   1.165  -0.104  0.00  0.00     0.082 A 
ATOM     10  C   UNL d   1      -2.586   1.016  -0.345  0.00  0.00     0.271 C 
ATOM     11  N   UNL d   1      -3.353  -0.093  -0.024  0.00  0.00    -0.342 N 
ATOM     12  C   UNL d   1       3.266  -0.021   0.022  0.00  0.00     0.062 A 
ATOM     13  C   UNL d   1      -2.548  -1.290   0.097  0.00  0.00     0.173 C 
ATOM     14  O   UNL d   1       0.131  -2.649   0.379  0.00  0.00    -0.265 OA
ATOM     15  O   UNL d   1      -2.984   2.102  -0.725  0.00  0.00    -0.266 OA
ENDROOT
BRANCH   5  16
ATOM     16  C   UNL d   1      -0.083   2.880  -0.100  0.00  0.00     0.169 C 
BRANCH  16  17
ATOM     17  C   UNL d   1      -0.260   3.336   1.337  0.00  0.00    -0.040 A 
ATOM     18  C   UNL d   1       0.848   3.533   2.176  0.00  0.00     0.009 A 
ATOM     19  C   UNL d   1       0.676   3.931   3.504  0.00  0.00     0.001 A 
ATOM     20  C   UNL d   1      -0.604   4.130   4.014  0.00  0.00     0.000 A 
ATOM     21  C   UNL d   1      -1.714   3.939   3.196  0.00  0.00     0.001 A 
ATOM     22  C   UNL d   1      -1.542   3.550   1.867  0.00  0.00     0.009 A 
ENDBRANCH  16  17
ENDBRANCH   5  16
BRANCH  12  23
ATOM     23  C   UNL d   1       4.729  -0.114  -0.018  0.00  0.00    -0.008 A 
ATOM     24  C   UNL d   1       5.492   0.905  -0.612  0.00  0.00     0.014 A 
ATOM     25  C   UNL d   1       6.886   0.827  -0.653  0.00  0.00     0.001 A 
ATOM     26  C   UNL d   1       7.537  -0.273  -0.103  0.00  0.00     0.000 A 
ATOM     27  C   UNL d   1       6.794  -1.296   0.485  0.00  0.00     0.001 A 
ATOM     28  C   UNL d   1       5.397  -1.220   0.526  0.00  0.00     0.014 A 
ENDBRANCH  12  23
BRANCH  11  29
ATOM     29  C   UNL d   1      -4.802  -0.104  -0.116  0.00  0.00     0.126 C 
BRANCH  29  30
ATOM     30  C   UNL d   1      -5.497  -0.797   1.056  0.00  0.00     0.020 C 
BRANCH  30  31
ATOM     31  C   UNL d   1      -5.215  -0.131   2.406  0.00  0.00    -0.003 C 
ATOM     32  C   UNL d   1      -5.954  -0.839   3.531  0.00  0.00     0.005 C 
ENDBRANCH  30  31
ENDBRANCH  29  30
ENDBRANCH  11  29
TORSDOF 6
