REMARK  3 active torsions:
REMARK  status: ('A' for Active; 'I' for Inactive)
REMARK       I    between atoms: N_2  and  C_1 
REMARK    1  A    between atoms: C_7  and  C_1 
REMARK    2  A    between atoms: C_3  and  N_2 
REMARK    3  A    between atoms: N_5  and  C_7 
ROOT
ATOM      1  C   UNL d   1       1.147   0.060   0.086  0.00  0.00     0.250 C 
ATOM      2  N   UNL d   1       0.789  -0.994   0.903  0.00  0.00    -0.323 N 
ATOM      3  O   UNL d   1       2.089   0.827   0.298  0.00  0.00    -0.271 OA
ATOM      4  H   UNL d   1       0.225  -1.725   0.481  0.00  0.00     0.169 HD
ENDROOT
BRANCH   2   5
ATOM      5  C   UNL d   1       1.356  -1.245   2.166  0.00  0.00     0.073 A 
ATOM      6  C   UNL d   1       1.496  -2.570   2.587  0.00  0.00     0.145 A 
ATOM      7  C   UNL d   1       2.096  -2.878   3.802  0.00  0.00     0.086 A 
ATOM      8  F   UNL d   1       1.105  -3.569   1.781  0.00  0.00    -0.204 F 
ATOM      9  C   UNL d   1       2.505  -1.840   4.630  0.00  0.00     0.119 A 
ATOM     10  C   UNL d   1       2.329  -0.511   4.258  0.00  0.00     0.044 A 
ATOM     11  F   UNL d   1       3.077  -2.123   5.807  0.00  0.00    -0.206 F 
ATOM     12  C   UNL d   1       1.767  -0.211   3.015  0.00  0.00     0.036 A 
ENDBRANCH   2   5
BRANCH   1  13
ATOM     13  C   UNL d   1       0.310   0.183  -1.188  0.00  0.00     0.374 C 
BRANCH  13  14
ATOM     14  N   UNL d   1      -1.147   0.109  -0.904  0.00  0.00     0.097 N 
ATOM     15  C   UNL d   1      -1.552   1.185   0.023  0.00  0.00     0.273 C 
ATOM     16  C   UNL d   1      -3.047   1.105   0.328  0.00  0.00     0.030 C 
ATOM     17  C   UNL d   1      -3.872   1.191  -0.949  0.00  0.00     0.003 C 
ATOM     18  C   UNL d   1      -3.397   0.154  -1.959  0.00  0.00     0.030 C 
ATOM     19  C   UNL d   1      -1.885   0.231  -2.175  0.00  0.00     0.273 C 
ENDBRANCH  13  14
ENDBRANCH   1  13
TORSDOF 3
