REMARK  5 active torsions:
REMARK  status: ('A' for Active; 'I' for Inactive)
REMARK    1  A    between atoms: C_7  and  C_2 
REMARK    2  A    between atoms: C_10  and  N_5 
REMARK       I    between atoms: N_8  and  C_7 
REMARK       I    between atoms: C_9  and  N_8 
REMARK    3  A    between atoms: O_21  and  C_9 
REMARK    4  A    between atoms: C_11  and  C_10 
REMARK    5  A    between atoms: C_22  and  O_21 
ROOT
ATOM      1  N   UNL d   1      -0.782   1.210   0.069  0.00  0.00    -0.270 N 
ATOM      2  C   UNL d   1       1.352   0.062   0.073  0.00  0.00     0.116 C 
ATOM      3  C   UNL d   1      -1.493   0.014   0.082  0.00  0.00     0.331 C 
ATOM      4  C   UNL d   1       0.560   1.266   0.394  0.00  0.00     0.268 C 
ATOM      5  N   UNL d   1      -0.710  -1.135  -0.043  0.00  0.00    -0.304 N 
ATOM      6  C   UNL d   1       0.670  -1.075  -0.134  0.00  0.00     0.118 C 
ATOM      7  O   UNL d   1      -2.713  -0.029   0.235  0.00  0.00    -0.246 OA
ATOM      8  O   UNL d   1       1.106   2.238   0.914  0.00  0.00    -0.267 OA
ATOM      9  C   UNL d   1      -1.507   2.464   0.051  0.00  0.00     0.164 C 
ENDROOT
BRANCH   2  10
ATOM     10  C   UNL d   1       2.845   0.054   0.014  0.00  0.00     0.266 C 
ATOM     11  N   UNL d   1       3.457   1.144   0.582  0.00  0.00    -0.269 N 
ATOM     12  C   UNL d   1       4.801   1.384   0.604  0.00  0.00     0.367 C 
ATOM     13  H   UNL d   1       2.893   1.861   1.024  0.00  0.00     0.174 HD
ATOM     14  O   UNL d   1       5.675   0.739   0.058  0.00  0.00    -0.238 OA
ATOM     15  O   UNL d   1       3.426  -0.903  -0.499  0.00  0.00    -0.267 OA
BRANCH  12  16
ATOM     16  O   UNL d   1       5.038   2.514   1.336  0.00  0.00    -0.304 OA
BRANCH  16  17
ATOM     17  C   UNL d   1       6.415   2.919   1.429  0.00  0.00     0.176 C 
ATOM     18  C   UNL d   1       7.127   2.163   2.537  0.00  0.00     0.034 C 
ENDBRANCH  16  17
ENDBRANCH  12  16
ENDBRANCH   2  10
BRANCH   5  19
ATOM     19  C   UNL d   1      -1.370  -2.441   0.049  0.00  0.00     0.179 C 
BRANCH  19  20
ATOM     20  C   UNL d   1      -1.911  -2.928  -1.264  0.00  0.00     0.001 A 
ATOM     21  S   UNL d   1      -0.940  -3.889  -2.302  0.00  0.00    -0.105 SA
ATOM     22  C   UNL d   1      -2.257  -4.215  -3.343  0.00  0.00     0.050 A 
ATOM     23  C   UNL d   1      -3.403  -3.567  -2.944  0.00  0.00     0.008 A 
ATOM     24  C   UNL d   1      -3.197  -2.804  -1.757  0.00  0.00     0.017 A 
ENDBRANCH  19  20
ENDBRANCH   5  19
TORSDOF 5
