REMARK  3 active torsions:
REMARK  status: ('A' for Active; 'I' for Inactive)
REMARK    1  A    between atoms: C_3  and  C_1 
REMARK    2  A    between atoms: N_4  and  C_2 
REMARK    3  A    between atoms: O_12  and  C_3 
REMARK       I    between atoms: C_7  and  N_4 
ROOT
ATOM      1  C   UNL d   1       2.503   0.092   0.145  0.00  0.00     0.064 A 
ATOM      2  C   UNL d   1       1.903  -1.177   0.283  0.00  0.00     0.053 A 
ATOM      3  C   UNL d   1       0.504  -1.254   0.257  0.00  0.00     0.054 A 
ATOM      4  C   UNL d   1       1.722   1.244  -0.031  0.00  0.00     0.022 A 
ATOM      5  C   UNL d   1      -0.269  -0.101   0.088  0.00  0.00     0.036 A 
ATOM      6  C   UNL d   1       0.334   1.147  -0.055  0.00  0.00     0.025 A 
ATOM      7 CL   UNL d   1      -1.986  -0.224   0.037  0.00  0.00    -0.084 Cl
ENDROOT
BRANCH   2   8
ATOM      8  N   UNL d   1       2.717  -2.335   0.396  0.00  0.00    -0.326 N 
ATOM      9  C   UNL d   1       2.320  -3.575   0.859  0.00  0.00     0.218 C 
ATOM     10  O   UNL d   1       1.234  -3.834   1.368  0.00  0.00    -0.274 OA
ATOM     11  C   UNL d   1       3.383  -4.635   0.737  0.00  0.00     0.117 C 
ATOM     12  H   UNL d   1       3.703  -2.228   0.162  0.00  0.00     0.169 HD
ENDBRANCH   2   8
BRANCH   1  13
ATOM     13  C   UNL d   1       3.969   0.287   0.207  0.00  0.00     0.178 C 
ATOM     14  O   UNL d   1       4.583   1.014  -0.552  0.00  0.00    -0.646 OA
BRANCH  13  15
ATOM     15  O   UNL d   1       4.546  -0.419   1.204  0.00  0.00    -0.773 OA
ATOM     16  H   UNL d   1       3.909  -0.780   1.856  0.00  0.00     0.167 HD
ENDBRANCH  13  15
ENDBRANCH   1  13
TORSDOF 3
