REMARK  7 active torsions:
REMARK  status: ('A' for Active; 'I' for Inactive)
REMARK    1  A    between atoms: C_5  and  C_1 
REMARK    2  A    between atoms: S_14  and  C_2 
REMARK    3  A    between atoms: C_8  and  C_21 
REMARK       I    between atoms: N_13  and  C_8 
REMARK    4  A    between atoms: C_16  and  C_11 
REMARK    5  A    between atoms: C_22  and  N_13 
REMARK    6  A    between atoms: C_21  and  S_14 
REMARK    7  A    between atoms: C_24  and  C_17 
ROOT
ATOM      1  C   UNL d   1       5.012  -6.173   2.346  0.00  0.00     0.144 A 
ATOM      2  N   UNL d   1       3.871  -6.245   3.044  0.00  0.00    -0.337 N 
ATOM      3  HN  UNL d   1       3.004  -6.584   2.625  1.00  0.00     0.168 HD
ATOM      4  N   UNL d   1       6.191  -5.733   2.811  0.00  0.00    -0.347 N 
ATOM      5  HN  UNL d   1       7.024  -5.694   2.225  1.00  0.00     0.167 HD
ATOM      6  C   UNL d   1       3.931  -5.847   4.329  0.00  0.00     0.035 A 
ATOM      7  C   UNL d   1       6.205  -5.348   4.095  0.00  0.00     0.092 A 
ATOM      8  C   UNL d   1       5.098  -5.393   4.908  0.00  0.00     0.046 A 
ENDROOT
BRANCH   1   9
ATOM      9  S   UNL d   1       5.082  -6.934   0.751  0.00  0.00    -0.085 SA
BRANCH   9  10
ATOM     10  C   UNL d   1       4.753  -8.631   1.285  0.00  0.00     0.185 C 
BRANCH  10  11
ATOM     11  C   UNL d   1       5.636  -9.157   2.413  0.00  0.00     0.231 C 
ATOM     12  N   UNL d   1       6.956  -8.737   2.403  0.00  0.00    -0.327 N 
ATOM     13  H   UNL d   1       7.161  -7.905   1.856  0.00  0.00     0.169 HD
ATOM     14  O   UNL d   1       5.162  -9.972   3.206  0.00  0.00    -0.272 OA
BRANCH  12  15
ATOM     15  C   UNL d   1       8.017  -9.260   3.179  0.00  0.00     0.034 A 
ATOM     16  C   UNL d   1       7.920 -10.444   3.908  0.00  0.00     0.030 A 
ATOM     17  C   UNL d   1       9.026 -10.964   4.590  0.00  0.00     0.010 A 
ATOM     18  C   UNL d   1      10.263 -10.311   4.560  0.00  0.00    -0.055 A 
ATOM     19  C   UNL d   1      10.352  -9.101   3.857  0.00  0.00     0.010 A 
ATOM     20  C   UNL d   1       9.242  -8.583   3.172  0.00  0.00     0.030 A 
BRANCH  18  21
ATOM     21  C   UNL d   1      11.491 -10.920   5.217  0.00  0.00     0.010 C 
ATOM     22  C   UNL d   1      11.317 -11.100   6.727  0.00  0.00     0.015 C 
ATOM     23  C   UNL d   1      11.855 -12.256   4.558  0.00  0.00     0.015 C 
ENDBRANCH  18  21
ENDBRANCH  12  15
ENDBRANCH  10  11
ENDBRANCH   9  10
ENDBRANCH   1   9
BRANCH   6  24
ATOM     24  C   UNL d   1       2.705  -5.927   5.145  0.00  0.00     0.031 C 
ATOM     25  C   UNL d   1       1.498  -6.280   4.673  0.00  0.00     0.021 C 
BRANCH  25  26
ATOM     26  C   UNL d   1       0.332  -6.368   5.500  0.00  0.00     0.010 A 
ATOM     27  C   UNL d   1      -0.123  -5.624   6.590  0.00  0.00    -0.044 A 
ATOM     28  C   UNL d   1      -1.383  -6.119   7.082  0.00  0.00     0.015 A 
ATOM     29  C   UNL d   1       0.521  -4.431   7.223  0.00  0.00     0.049 C 
ATOM     30  C   UNL d   1      -1.860  -7.185   6.363  0.00  0.00     0.051 A 
ATOM     31  S   UNL d   1      -0.811  -7.609   5.096  0.00  0.00    -0.102 SA
ENDBRANCH  25  26
ENDBRANCH   6  24
TORSDOF 7
