REMARK  3 active torsions:
REMARK  status: ('A' for Active; 'I' for Inactive)
REMARK    1  A    between atoms: C_3  and  C_1 
REMARK    2  A    between atoms: C_8  and  C_2 
REMARK    3  A    between atoms: C_14  and  C_9 
ROOT
ATOM      1  C   UNL d   1      -0.111  -1.314   0.044  0.00  0.00     0.059 A 
ATOM      2  C   UNL d   1       0.686  -0.185   0.418  0.00  0.00     0.085 A 
ATOM      3  N   UNL d   1      -0.004   0.948   0.174  0.00  0.00    -0.259 N 
ATOM      4  HN  UNL d   1       0.328   1.903   0.312  1.00  0.00     0.195 HD
ATOM      5  O   UNL d   1      -1.238   0.572  -0.297  0.00  0.00    -0.241 OA
ATOM      6  C   UNL d   1      -1.306  -0.779  -0.386  0.00  0.00     0.088 A 
ATOM      7  C   UNL d   1      -2.600  -1.327  -0.837  0.00  0.00     0.080 C 
ENDROOT
BRANCH   1   8
ATOM      8  C   UNL d   1       0.233  -2.768   0.088  0.00  0.00     0.089 A 
ATOM      9  N   UNL d   1       1.096  -3.257   0.953  0.00  0.00    -0.349 N 
ATOM     10  C   UNL d   1       1.297  -4.612   0.723  0.00  0.00     0.050 A 
ATOM     11  HN  UNL d   1       1.552  -2.718   1.689  1.00  0.00     0.166 HD
ATOM     12  C   UNL d   1       0.584  -5.130  -0.340  0.00  0.00     0.082 A 
ATOM     13  S   UNL d   1      -0.413  -3.920  -1.018  0.00  0.00    -0.081 SA
BRANCH  10  14
ATOM     14  C   UNL d   1       2.162  -5.410   1.582  0.00  0.00    -0.009 A 
ATOM     15  C   UNL d   1       2.292  -5.065   2.932  0.00  0.00     0.014 A 
ATOM     16  C   UNL d   1       3.076  -5.840   3.793  0.00  0.00     0.007 A 
ATOM     17  C   UNL d   1       3.749  -6.969   3.313  0.00  0.00    -0.062 A 
ATOM     18  C   UNL d   1       3.637  -7.306   1.962  0.00  0.00     0.007 A 
ATOM     19  C   UNL d   1       4.577  -7.799   4.251  0.00  0.00     0.048 C 
ATOM     20  C   UNL d   1       2.849  -6.533   1.102  0.00  0.00     0.014 A 
ENDBRANCH  10  14
ENDBRANCH   1   8
BRANCH   2  21
ATOM     21  C   UNL d   1       2.070  -0.121   0.899  0.00  0.00     0.054 A 
ATOM     22  C   UNL d   1       2.503   0.754   1.913  0.00  0.00     0.049 A 
ATOM     23 CL   UNL d   1       1.454   1.865   2.731  0.00  0.00    -0.083 Cl
ATOM     24  C   UNL d   1       3.842   0.756   2.337  0.00  0.00     0.025 A 
ATOM     25  C   UNL d   1       4.767  -0.124   1.781  0.00  0.00     0.005 A 
ATOM     26  C   UNL d   1       4.363  -0.980   0.764  0.00  0.00     0.043 A 
ATOM     27  C   UNL d   1       3.042  -0.950   0.315  0.00  0.00     0.130 A 
ATOM     28  F   UNL d   1       2.741  -1.723  -0.742  0.00  0.00    -0.205 F 
ENDBRANCH   2  21
TORSDOF 3
