REMARK  3 active torsions:
REMARK  status: ('A' for Active; 'I' for Inactive)
REMARK    1  A    between atoms: C_3  and  C_1 
REMARK       I    between atoms: N_5  and  C_1 
REMARK       I    between atoms: C_2  and  N_6 
REMARK    2  A    between atoms: C_4  and  C_2 
REMARK    3  A    between atoms: N_6  and  N_5 
ROOT
ATOM      1  C   UNL d   1       0.955  -0.009   0.129  0.00  0.00     0.343 C 
ATOM      2  N   UNL d   1       0.285  -0.542   1.224  0.00  0.00    -0.260 N 
ATOM      3  O   UNL d   1       0.336   0.466  -0.827  0.00  0.00    -0.262 OA
ATOM      4  H   UNL d   1       0.767  -0.950   2.030  0.00  0.00     0.190 HD
ENDROOT
BRANCH   2   5
ATOM      5  N   UNL d   1      -1.116  -0.544   1.235  0.00  0.00    -0.260 N 
ATOM      6  C   UNL d   1      -1.772  -1.097   2.329  0.00  0.00     0.343 C 
ATOM      7  O   UNL d   1      -1.137  -1.571   3.275  0.00  0.00    -0.262 OA
ATOM      8  H   UNL d   1      -1.603  -0.147   0.427  0.00  0.00     0.190 HD
BRANCH   6   9
ATOM      9  C   UNL d   1      -3.306  -1.059   2.240  0.00  0.00     0.473 C 
ATOM     10  F   UNL d   1      -3.738  -0.482   1.081  0.00  0.00    -0.162 F 
ATOM     11  F   UNL d   1      -3.859  -2.301   2.276  0.00  0.00    -0.162 F 
ATOM     12  F   UNL d   1      -3.868  -0.347   3.253  0.00  0.00    -0.162 F 
ENDBRANCH   6   9
ENDBRANCH   2   5
BRANCH   1  13
ATOM     13  C   UNL d   1       2.487  -0.077   0.235  0.00  0.00     0.473 C 
ATOM     14  F   UNL d   1       2.893  -0.644   1.409  0.00  0.00    -0.162 F 
ATOM     15  F   UNL d   1       3.046  -0.819  -0.759  0.00  0.00    -0.162 F 
ATOM     16  F   UNL d   1       3.070   1.151   0.185  0.00  0.00    -0.162 F 
ENDBRANCH   1  13
TORSDOF 3
