REMARK  1 active torsions:
REMARK  status: ('A' for Active; 'I' for Inactive)
REMARK    1  A    between atoms: C_7  and  C_6 
REMARK       I    between atoms: N_10  and  C_7 
ROOT
ATOM      1  C   UNL d   1      -0.676   0.840   0.018  0.00  0.00     0.005 A 
ATOM      2  C   UNL d   1      -1.165  -0.486  -0.040  0.00  0.00     0.027 A 
ATOM      3  C   UNL d   1      -0.016  -1.412  -0.054  0.00  0.00     0.194 A 
ATOM      4  C   UNL d   1       0.786   0.774  -0.003  0.00  0.00    -0.010 A 
ATOM      5  C   UNL d   1       1.192  -0.575  -0.031  0.00  0.00     0.026 A 
ATOM      6  C   UNL d   1      -1.616   1.869   0.075  0.00  0.00     0.044 A 
ATOM      7  O   UNL d   1      -0.066  -2.622  -0.086  0.00  0.00    -0.287 OA
ATOM      8  C   UNL d   1      -2.502  -0.837  -0.073  0.00  0.00     0.016 A 
ATOM      9  C   UNL d   1       1.778   1.741  -0.032  0.00  0.00     0.013 A 
ATOM     10  C   UNL d   1       2.508  -1.000  -0.060  0.00  0.00     0.016 A 
ATOM     11  C   UNL d   1      -2.992   1.532   0.042  0.00  0.00     0.018 A 
ATOM     12  C   UNL d   1      -3.428   0.197  -0.042  0.00  0.00     0.002 A 
ATOM     13  C   UNL d   1       3.127   1.344  -0.056  0.00  0.00     0.001 A 
ATOM     14  C   UNL d   1       3.490  -0.013  -0.067  0.00  0.00     0.001 A 
ENDROOT
BRANCH   6  15
ATOM     15  C   UNL d   1      -1.251   3.297   0.273  0.00  0.00     0.252 C 
ATOM     16  O   UNL d   1      -0.352   3.604   1.046  0.00  0.00    -0.268 OA
ATOM     17  N   UNL d   1      -2.002   4.226  -0.420  0.00  0.00    -0.361 N 
ATOM     18  C   UNL d   1      -1.781   5.646  -0.278  0.00  0.00     0.149 C 
ATOM     19  H   UNL d   1      -2.751   3.925  -1.029  0.00  0.00     0.162 HD
ENDBRANCH   6  15
TORSDOF 1
