REMARK  4 active torsions:
REMARK  status: ('A' for Active; 'I' for Inactive)
REMARK    1  A    between atoms: C_5  and  C_4 
REMARK    2  A    between atoms: C_11  and  C_6 
REMARK    3  A    between atoms: O_21  and  C_8 
REMARK    4  A    between atoms: O_22  and  C_11 
ROOT
ATOM      1  N   UNL d   1      -1.421   1.441  -0.025  0.00  0.00    -0.354 N 
ATOM      2  HN  UNL d   1      -0.920   2.329  -0.037  1.00  0.00     0.166 HD
ATOM      3  C   UNL d   1      -0.716   0.279  -0.018  0.00  0.00     0.055 A 
ATOM      4  C   UNL d   1      -2.775   1.442  -0.017  0.00  0.00     0.046 A 
ATOM      5  C   UNL d   1      -2.791  -0.956   0.030  0.00  0.00     0.052 A 
ATOM      6  C   UNL d   1      -1.373  -0.978   0.024  0.00  0.00     0.008 A 
ATOM      7  C   UNL d   1      -3.481   0.257   0.010  0.00  0.00     0.049 A 
ATOM      8  C   UNL d   1       0.699   0.325  -0.025  0.00  0.00     0.002 A 
ATOM      9  C   UNL d   1      -0.583  -2.150   0.095  0.00  0.00     0.016 A 
ATOM     10  C   UNL d   1       1.463  -0.866   0.005  0.00  0.00    -0.024 A 
ATOM     11  C   UNL d   1       0.809  -2.094   0.061  0.00  0.00     0.013 A 
ATOM     12  C   UNL d   1       1.414   1.546  -0.054  0.00  0.00     0.014 A 
ATOM     13  C   UNL d   1       2.869  -0.813   0.003  0.00  0.00     0.012 A 
ATOM     14  C   UNL d   1       2.811   1.590  -0.043  0.00  0.00     0.001 A 
ATOM     15  C   UNL d   1       3.539   0.409  -0.017  0.00  0.00     0.001 A 
ENDROOT
BRANCH   4  16
ATOM     16  C   UNL d   1      -3.434   2.769   0.031  0.00  0.00     0.027 A 
ATOM     17  C   UNL d   1      -2.842   3.893   0.651  0.00  0.00     0.100 A 
ATOM     18  C   UNL d   1      -3.531   5.114   0.758  0.00  0.00     0.069 A 
ATOM     19 CL   UNL d   1      -2.827   6.483   1.541  0.00  0.00    -0.081 Cl
ATOM     20  C   UNL d   1      -4.814   5.247   0.234  0.00  0.00     0.050 A 
ATOM     21  C   UNL d   1      -5.400   4.165  -0.407  0.00  0.00     0.036 A 
ATOM     22  C   UNL d   1      -4.723   2.949  -0.515  0.00  0.00     0.040 A 
ATOM     23 CL   UNL d   1      -6.983   4.314  -1.064  0.00  0.00    -0.084 Cl
BRANCH  17  24
ATOM     24  O   UNL d   1      -1.578   3.819   1.186  0.00  0.00    -0.358 OA
ATOM     25  H   UNL d   1      -1.191   2.962   0.906  0.00  0.00     0.217 HD
ENDBRANCH  17  24
ENDBRANCH   4  16
BRANCH   5  26
ATOM     26  C   UNL d   1      -3.684  -2.144   0.140  0.00  0.00     0.177 C 
ATOM     27  O   UNL d   1      -4.715  -2.111   0.784  0.00  0.00    -0.646 OA
BRANCH  26  28
ATOM     28  O   UNL d   1      -3.326  -3.214  -0.599  0.00  0.00    -0.773 OA
ATOM     29  H   UNL d   1      -2.604  -3.071  -1.233  0.00  0.00     0.167 HD
ENDBRANCH  26  28
ENDBRANCH   5  26
TORSDOF 4
