REMARK  8 active torsions:
REMARK  status: ('A' for Active; 'I' for Inactive)
REMARK    1  A    between atoms: N_2  and  S_1 
REMARK    2  A    between atoms: C_5  and  S_1 
REMARK    3  A    between atoms: N_3  and  N_2 
REMARK    4  A    between atoms: C_4  and  N_3 
REMARK    5  A    between atoms: N_9  and  C_4 
REMARK    6  A    between atoms: C_15  and  N_9 
REMARK    7  A    between atoms: C_17  and  C_15 
REMARK    8  A    between atoms: C_16  and  C_17 
ROOT
ATOM      1  N   UNL d   1       1.220  -1.514   2.284  0.00  0.00    -0.284 N 
ATOM      2  H   UNL d   1       1.249  -2.183   1.516  0.00  0.00     0.184 HD
ENDROOT
BRANCH   1   3
ATOM      3  N   UNL d   1       1.091  -0.092   1.877  0.00  0.00    -0.123 NA
ATOM      4  H   UNL d   1       0.733   0.494   2.643  0.00  0.00     0.166 HD
BRANCH   3   5
ATOM      5  S   UNL d   1       0.235   0.196   0.431  0.00  0.00     0.258 S 
ATOM      6  O   UNL d   1      -1.173   0.122   0.745  0.00  0.00    -0.204 OA
ATOM      7  O   UNL d   1       0.822  -0.637  -0.601  0.00  0.00    -0.204 OA
BRANCH   5   8
ATOM      8  C   UNL d   1       0.646   1.891   0.114  0.00  0.00     0.076 A 
ATOM      9  C   UNL d   1       1.728   2.204  -0.711  0.00  0.00     0.025 A 
ATOM     10  C   UNL d   1       2.008   3.542  -1.003  0.00  0.00     0.008 A 
ATOM     11  C   UNL d   1       1.204   4.567  -0.477  0.00  0.00    -0.062 A 
ATOM     12  C   UNL d   1       0.123   4.237   0.353  0.00  0.00     0.008 A 
ATOM     13  C   UNL d   1       1.493   5.995  -0.832  0.00  0.00     0.048 C 
ATOM     14  C   UNL d   1      -0.161   2.901   0.646  0.00  0.00     0.025 A 
ENDBRANCH   5   8
ENDBRANCH   3   5
ENDBRANCH   1   3
BRANCH   1  15
ATOM     15  C   UNL d   1       0.699  -1.910   3.510  0.00  0.00     0.182 C 
ATOM     16  S   UNL d   1      -0.127  -0.875   4.539  0.00  0.00    -0.040 SA
BRANCH  15  17
ATOM     17  N   UNL d   1       0.976  -3.234   3.778  0.00  0.00    -0.366 N 
ATOM     18  H   UNL d   1       1.536  -3.735   3.098  0.00  0.00     0.161 HD
BRANCH  17  19
ATOM     19  C   UNL d   1       0.351  -4.048   4.821  0.00  0.00     0.126 C 
BRANCH  19  20
ATOM     20  C   UNL d   1       1.138  -5.321   5.149  0.00  0.00     0.058 C 
BRANCH  20  21
ATOM     21  C   UNL d   1       1.395  -6.225   3.965  0.00  0.00    -0.057 A 
ATOM     22  C   UNL d   1       2.711  -6.558   3.611  0.00  0.00     0.007 A 
ATOM     23  C   UNL d   1       2.964  -7.394   2.524  0.00  0.00     0.001 A 
ATOM     24  C   UNL d   1       1.906  -7.910   1.779  0.00  0.00     0.000 A 
ATOM     25  C   UNL d   1       0.594  -7.593   2.125  0.00  0.00     0.001 A 
ATOM     26  C   UNL d   1       0.338  -6.759   3.215  0.00  0.00     0.007 A 
ENDBRANCH  20  21
ENDBRANCH  19  20
ENDBRANCH  17  19
ENDBRANCH  15  17
ENDBRANCH   1  15
TORSDOF 8
