REMARK  6 active torsions:
REMARK  status: ('A' for Active; 'I' for Inactive)
REMARK    1  A    between atoms: C_5  and  C_1 
REMARK    2  A    between atoms: C_2  and  C_6 
REMARK    3  A    between atoms: C_20  and  C_3 
REMARK    4  A    between atoms: C_19  and  C_4 
REMARK       I    between atoms: N_13  and  C_5 
REMARK       I    between atoms: C_6  and  N_14 
REMARK    5  A    between atoms: C_11  and  N_13 
REMARK    6  A    between atoms: N_14  and  C_12 
ROOT
ATOM      1  C   UNL d   1      -1.657  -3.482  -0.332  0.00  0.00     0.048 C 
ATOM      2  C   UNL d   1      -4.378  -2.759   0.087  0.00  0.00     0.048 C 
ATOM      3  C   UNL d   1      -3.884  -3.994   0.533  0.00  0.00    -0.026 C 
ATOM      4  C   UNL d   1      -3.607  -2.067  -0.874  0.00  0.00    -0.026 C 
ATOM      5  C   UNL d   1      -2.484  -4.267   0.491  0.00  0.00    -0.026 C 
ATOM      6  C   UNL d   1      -2.251  -2.450  -1.107  0.00  0.00    -0.026 C 
ATOM      7  C   UNL d   1      -1.429  -1.776  -2.188  0.00  0.00     0.051 C 
ATOM      8  C   UNL d   1      -1.960  -5.371   1.378  0.00  0.00     0.051 C 
ATOM      9  C   UNL d   1      -4.812  -5.171   0.753  0.00  0.00     0.051 C 
ATOM     10  C   UNL d   1      -4.241  -1.017  -1.760  0.00  0.00     0.051 C 
ENDROOT
BRANCH   1  11
ATOM     11  N   UNL d   1      -0.245  -3.606  -0.385  0.00  0.00    -0.322 N 
ATOM     12  C   UNL d   1       0.542  -4.737  -0.239  0.00  0.00     0.261 C 
ATOM     13  O   UNL d   1       0.168  -5.885  -0.410  0.00  0.00    -0.267 OA
ATOM     14  H   UNL d   1       0.261  -2.792  -0.709  0.00  0.00     0.169 HD
BRANCH  12  15
ATOM     15  C   UNL d   1       1.918  -4.428   0.110  0.00  0.00     0.093 A 
ATOM     16  C   UNL d   1       3.130  -5.091  -0.255  0.00  0.00     0.085 A 
ATOM     17  N   UNL d   1       4.183  -4.509   0.345  0.00  0.00    -0.259 N 
ATOM     18  O   UNL d   1       3.680  -3.492   1.120  0.00  0.00    -0.241 OA
ATOM     19  HN  UNL d   1       5.164  -4.771   0.244  1.00  0.00     0.195 HD
ATOM     20  C   UNL d   1       2.330  -3.454   1.002  0.00  0.00     0.090 A 
ATOM     21  C   UNL d   1       1.637  -2.474   1.862  0.00  0.00     0.080 C 
BRANCH  16  22
ATOM     22  C   UNL d   1       3.346  -6.248  -1.119  0.00  0.00     0.015 A 
ATOM     23  C   UNL d   1       2.928  -6.296  -2.458  0.00  0.00     0.046 A 
ATOM     24 CL   UNL d   1       2.159  -4.958  -3.244  0.00  0.00    -0.083 Cl
ATOM     25  C   UNL d   1       3.183  -7.434  -3.233  0.00  0.00     0.025 A 
ATOM     26  C   UNL d   1       3.865  -8.524  -2.690  0.00  0.00     0.002 A 
ATOM     27  C   UNL d   1       4.307  -8.478  -1.372  0.00  0.00     0.001 A 
ATOM     28  C   UNL d   1       4.049  -7.349  -0.592  0.00  0.00     0.015 A 
ENDBRANCH  16  22
ENDBRANCH  12  15
ENDBRANCH   1  11
BRANCH   2  29
ATOM     29  N   UNL d   1      -5.511  -2.087   0.663  0.00  0.00    -0.322 N 
ATOM     30  C   UNL d   1      -6.234  -2.446   1.802  0.00  0.00     0.261 C 
ATOM     31  O   UNL d   1      -6.282  -3.546   2.324  0.00  0.00    -0.267 OA
ATOM     32  H   UNL d   1      -5.603  -1.111   0.405  0.00  0.00     0.169 HD
BRANCH  30  33
ATOM     33  C   UNL d   1      -6.916  -1.335   2.441  0.00  0.00     0.093 A 
ATOM     34  C   UNL d   1      -6.614  -0.663   3.689  0.00  0.00     0.085 A 
ATOM     35  N   UNL d   1      -7.551   0.276   3.899  0.00  0.00    -0.259 N 
ATOM     36  O   UNL d   1      -8.492   0.160   2.919  0.00  0.00    -0.241 OA
ATOM     37  HN  UNL d   1      -7.557   0.957   4.658  1.00  0.00     0.195 HD
ATOM     38  C   UNL d   1      -8.139  -0.821   2.057  0.00  0.00     0.090 A 
ATOM     39  C   UNL d   1      -9.140  -1.134   1.024  0.00  0.00     0.080 C 
BRANCH  34  40
ATOM     40  C   UNL d   1      -5.515  -0.877   4.674  0.00  0.00     0.015 A 
ATOM     41  C   UNL d   1      -5.376  -0.158   5.888  0.00  0.00     0.046 A 
ATOM     42 CL   UNL d   1      -6.426   1.114   6.427  0.00  0.00    -0.083 Cl
ATOM     43  C   UNL d   1      -4.326  -0.442   6.784  0.00  0.00     0.025 A 
ATOM     44  C   UNL d   1      -3.396  -1.437   6.509  0.00  0.00     0.002 A 
ATOM     45  C   UNL d   1      -3.509  -2.155   5.332  0.00  0.00     0.001 A 
ATOM     46  C   UNL d   1      -4.545  -1.874   4.434  0.00  0.00     0.015 A 
ENDBRANCH  34  40
ENDBRANCH  30  33
ENDBRANCH   2  29
TORSDOF 6
