REMARK  4 active torsions:
REMARK  status: ('A' for Active; 'I' for Inactive)
REMARK    1  A    between atoms: C_4  and  C_1 
REMARK    2  A    between atoms: C_6  and  N_3 
REMARK    3  A    between atoms: C_5  and  C_6 
REMARK       I    between atoms: N_9  and  C_5 
REMARK    4  A    between atoms: C_12  and  N_9 
ROOT
ATOM      1  C   UNL d   1       2.841   1.315   0.103  0.00  0.00     0.234 C 
ENDROOT
BRANCH   1   2
ATOM      2  C   UNL d   1       3.862   0.368  -0.563  0.00  0.00     0.240 C 
ATOM      3  N   UNL d   1       4.451  -0.481   0.359  0.00  0.00    -0.326 N 
ATOM      4  H   UNL d   1       4.043  -0.447   1.295  0.00  0.00     0.169 HD
ATOM      5  O   UNL d   1       4.043   0.367  -1.776  0.00  0.00    -0.271 OA
BRANCH   3   6
ATOM      6  C   UNL d   1       5.326  -1.560   0.146  0.00  0.00     0.036 A 
ATOM      7  C   UNL d   1       5.872  -1.903  -1.089  0.00  0.00     0.053 A 
ATOM      8  C   UNL d   1       6.704  -3.022  -1.185  0.00  0.00     0.036 A 
ATOM      9 CL   UNL d   1       7.364  -3.467  -2.713  0.00  0.00    -0.084 Cl
ATOM     10  C   UNL d   1       7.005  -3.796  -0.063  0.00  0.00     0.024 A 
ATOM     11  C   UNL d   1       6.470  -3.449   1.174  0.00  0.00     0.004 A 
ATOM     12  C   UNL d   1       5.634  -2.337   1.274  0.00  0.00     0.029 A 
ENDBRANCH   3   6
ENDBRANCH   1   2
BRANCH   1  13
ATOM     13  N   UNL d   1       1.545   0.651   0.260  0.00  0.00    -0.315 N 
ATOM     14  C   UNL d   1       1.456  -0.439   1.137  0.00  0.00     0.263 C 
ATOM     15  C   UNL d   1       0.224  -1.251   1.021  0.00  0.00     0.115 C 
ATOM     16  O   UNL d   1       2.354  -0.742   1.921  0.00  0.00    -0.267 OA
ATOM     17  C   UNL d   1      -0.853  -0.709   0.425  0.00  0.00     0.023 C 
ATOM     18  C   UNL d   1      -0.784   0.607  -0.160  0.00  0.00     0.018 C 
ATOM     19  C   UNL d   1       0.406   1.206  -0.296  0.00  0.00     0.095 C 
BRANCH  15  20
ATOM     20  C   UNL d   1       0.345  -2.655   1.482  0.00  0.00     0.422 C 
ATOM     21  F   UNL d   1       1.544  -3.220   1.182  0.00  0.00    -0.166 F 
ATOM     22  F   UNL d   1       0.158  -2.782   2.816  0.00  0.00    -0.166 F 
ATOM     23  F   UNL d   1      -0.591  -3.450   0.889  0.00  0.00    -0.166 F 
ENDBRANCH  15  20
ENDBRANCH   1  13
TORSDOF 4
