REMARK  7 active torsions:
REMARK  status: ('A' for Active; 'I' for Inactive)
REMARK    1  A    between atoms: C_2  and  C_1 
REMARK       I    between atoms: N_6  and  C_2 
REMARK    2  A    between atoms: C_3  and  O_5 
REMARK    3  A    between atoms: N_8  and  C_3 
REMARK    4  A    between atoms: O_5  and  C_4 
REMARK    5  A    between atoms: C_12  and  N_6 
REMARK    6  A    between atoms: C_22  and  N_8 
REMARK    7  A    between atoms: C_23  and  N_8 
ROOT
ATOM      1  C   UNL d   1       2.454  -1.747  -0.255  0.00  0.00     0.067 A 
ATOM      2  C   UNL d   1       2.926  -0.990   0.837  0.00  0.00     0.094 A 
ATOM      3  C   UNL d   1       1.213  -1.404  -0.800  0.00  0.00     0.039 A 
ATOM      4  C   UNL d   1       2.286   0.162   1.285  0.00  0.00     0.040 A 
ATOM      5  C   UNL d   1       0.533  -0.280  -0.311  0.00  0.00     0.012 A 
ATOM      6  C   UNL d   1       1.088   0.533   0.682  0.00  0.00     0.022 A 
ATOM      7 BR   UNL d   1      -1.179   0.143  -1.001  0.00  0.00    -0.051 Br
ENDROOT
BRANCH   1   8
ATOM      8  C   UNL d   1       3.367  -2.765  -0.863  0.00  0.00     0.259 C 
ATOM      9  N   UNL d   1       2.859  -3.650  -1.802  0.00  0.00    -0.323 N 
ATOM     10  H   UNL d   1       1.871  -3.635  -2.000  0.00  0.00     0.169 HD
ATOM     11  O   UNL d   1       4.556  -2.709  -0.549  0.00  0.00    -0.267 OA
BRANCH   9  12
ATOM     12  C   UNL d   1       3.631  -4.541  -2.595  0.00  0.00     0.035 A 
ATOM     13  C   UNL d   1       5.017  -4.712  -2.457  0.00  0.00     0.032 A 
ATOM     14  C   UNL d   1       5.723  -5.575  -3.299  0.00  0.00     0.044 A 
ATOM     15  C   UNL d   1       5.048  -6.275  -4.281  0.00  0.00     0.116 A 
ATOM     16  C   UNL d   1       3.671  -6.131  -4.434  0.00  0.00     0.044 A 
ATOM     17  F   UNL d   1       5.724  -7.090  -5.098  0.00  0.00    -0.206 F 
ATOM     18  C   UNL d   1       2.963  -5.269  -3.590  0.00  0.00     0.032 A 
ENDBRANCH   9  12
ENDBRANCH   1   8
BRANCH   2  19
ATOM     19  O   UNL d   1       3.916  -1.612   1.684  0.00  0.00    -0.283 OA
BRANCH  19  20
ATOM     20  C   UNL d   1       5.076  -1.293   2.408  0.00  0.00     0.217 C 
ATOM     21  S   UNL d   1       5.798   0.195   2.182  0.00  0.00    -0.033 SA
BRANCH  20  22
ATOM     22  N   UNL d   1       5.483  -2.336   3.258  0.00  0.00    -0.353 N 
BRANCH  22  23
ATOM     23  C   UNL d   1       6.745  -2.237   4.013  0.00  0.00     0.121 C 
ATOM     24  C   UNL d   1       7.147  -3.418   4.889  0.00  0.00     0.026 C 
ENDBRANCH  22  23
BRANCH  22  25
ATOM     25  C   UNL d   1       4.687  -3.572   3.328  0.00  0.00     0.121 C 
ATOM     26  C   UNL d   1       5.154  -4.647   2.359  0.00  0.00     0.026 C 
ENDBRANCH  22  25
ENDBRANCH  20  22
ENDBRANCH  19  20
ENDBRANCH   2  19
TORSDOF 7
