REMARK  5 active torsions:
REMARK  status: ('A' for Active; 'I' for Inactive)
REMARK    1  A    between atoms: C_2  and  N_1 
REMARK    2  A    between atoms: S_4  and  C_3 
REMARK    3  A    between atoms: C_11  and  S_4 
REMARK    4  A    between atoms: C_9  and  C_11 
REMARK    5  A    between atoms: O_12  and  C_9 
ROOT
ATOM      1  C   UNL d   1       0.206   1.157   0.197  0.00  0.00     0.136 A 
ATOM      2  C   UNL d   1      -0.882   0.922   1.032  0.00  0.00     0.103 A 
ATOM      3  N   UNL d   1      -1.674   1.952   1.458  0.00  0.00    -0.359 N 
ATOM      4  HN  UNL d   1      -2.488   1.782   2.050  1.00  0.00     0.166 HD
ATOM      5  C   UNL d   1       0.511   2.455  -0.225  0.00  0.00     0.040 A 
ATOM      6  C   UNL d   1      -1.339   3.210   1.065  0.00  0.00     0.089 A 
ATOM      7  C   UNL d   1      -0.276   3.506   0.227  0.00  0.00     0.020 A 
ENDROOT
BRANCH   2   8
ATOM      8  S   UNL d   1      -1.340  -0.703   1.616  0.00  0.00    -0.099 SA
BRANCH   8   9
ATOM      9  C   UNL d   1      -3.083  -0.472   2.067  0.00  0.00     0.190 C 
BRANCH   9  10
ATOM     10  C   UNL d   1      -3.935  -0.227   0.843  0.00  0.00     0.149 C 
ATOM     11  O   UNL d   1      -4.484  -1.110   0.198  0.00  0.00    -0.649 OA
BRANCH  10  12
ATOM     12  O   UNL d   1      -4.035   1.079   0.499  0.00  0.00    -0.776 OA
ATOM     13  H   UNL d   1      -3.422   1.638   1.032  0.00  0.00     0.167 HD
ENDBRANCH  10  12
ENDBRANCH   9  10
ENDBRANCH   8   9
ENDBRANCH   2   8
BRANCH   1  14
ATOM     14  N   UNL d   1       1.035   0.080  -0.277  0.00  0.00    -0.113 N 
ATOM     15  O   UNL d   1       1.747  -0.497   0.555  0.00  0.00    -0.532 OA
ATOM     16  O   UNL d   1       1.032  -0.129  -1.496  0.00  0.00    -0.532 OA
ENDBRANCH   1  14
TORSDOF 5
