REMARK  6 active torsions:
REMARK  status: ('A' for Active; 'I' for Inactive)
REMARK    1  A    between atoms: S_6  and  C_1 
REMARK    2  A    between atoms: C_10  and  C_2 
REMARK    3  A    between atoms: S_14  and  C_3 
REMARK    4  A    between atoms: C_9  and  S_6 
REMARK    5  A    between atoms: O_16  and  C_10 
REMARK    6  A    between atoms: C_27  and  O_16 
ROOT
ATOM      1  C   UNL d   1       2.598  -0.414   0.068  0.00  0.00     0.037 A 
ATOM      2  C   UNL d   1       2.986   0.938  -0.032  0.00  0.00     0.090 A 
ATOM      3  C   UNL d   1       1.989   1.905  -0.074  0.00  0.00     0.087 A 
ATOM      4  N   UNL d   1       0.676   1.576  -0.062  0.00  0.00    -0.348 N 
ATOM      5  HN  UNL d   1      -0.024   2.316  -0.120  1.00  0.00     0.166 HD
ATOM      6  C   UNL d   1       1.206  -0.756   0.106  0.00  0.00     0.011 A 
ATOM      7  C   UNL d   1       0.274   0.295   0.023  0.00  0.00     0.066 A 
ATOM      8  C   UNL d   1      -1.096  -0.014   0.022  0.00  0.00     0.061 A 
ATOM      9 CL   UNL d   1      -2.288   1.241  -0.122  0.00  0.00    -0.082 Cl
ATOM     10  C   UNL d   1       0.702  -2.084   0.228  0.00  0.00     0.015 A 
ATOM     11  C   UNL d   1      -0.661  -2.365   0.239  0.00  0.00     0.003 A 
ATOM     12  C   UNL d   1      -1.569  -1.321   0.127  0.00  0.00     0.026 A 
ENDROOT
BRANCH   1  13
ATOM     13  S   UNL d   1       3.794  -1.748  -0.022  0.00  0.00    -0.085 SA
BRANCH  13  14
ATOM     14  C   UNL d   1       4.639  -1.981   1.546  0.00  0.00     0.049 A 
ATOM     15  C   UNL d   1       4.281  -1.461   2.807  0.00  0.00     0.052 A 
ATOM     16 CL   UNL d   1       2.897  -0.473   3.116  0.00  0.00    -0.083 Cl
ATOM     17  C   UNL d   1       5.036  -1.762   3.958  0.00  0.00     0.025 A 
ATOM     18  C   UNL d   1       6.142  -2.600   3.895  0.00  0.00     0.003 A 
ATOM     19  C   UNL d   1       6.506  -3.146   2.675  0.00  0.00     0.025 A 
ATOM     20  C   UNL d   1       5.771  -2.843   1.519  0.00  0.00     0.052 A 
ATOM     21 CL   UNL d   1       6.342  -3.628   0.071  0.00  0.00    -0.083 Cl
ENDBRANCH  13  14
ENDBRANCH   1  13
BRANCH   2  22
ATOM     22  C   UNL d   1       4.403   1.348  -0.058  0.00  0.00     0.297 C 
ATOM     23  O   UNL d   1       4.934   2.035   0.796  0.00  0.00    -0.259 OA
BRANCH  22  24
ATOM     24  O   UNL d   1       4.983   0.862  -1.183  0.00  0.00    -0.318 OA
BRANCH  24  25
ATOM     25  C   UNL d   1       6.334   1.278  -1.439  0.00  0.00     0.174 C 
ATOM     26  C   UNL d   1       7.352   0.493  -0.629  0.00  0.00     0.034 C 
ENDBRANCH  24  25
ENDBRANCH  22  24
ENDBRANCH   2  22
BRANCH   3  27
ATOM     27  S   UNL d   1       2.303   3.664  -0.229  0.00  0.00    -0.116 SA
ATOM     28  C   UNL d   1       0.610   4.327  -0.137  0.00  0.00     0.097 C 
ENDBRANCH   3  27
TORSDOF 6
