REMARK  8 active torsions:
REMARK  status: ('A' for Active; 'I' for Inactive)
REMARK    1  A    between atoms: C_7  and  N_1 
REMARK    2  A    between atoms: S_10  and  C_2 
REMARK    3  A    between atoms: C_9  and  C_15 
REMARK    4  A    between atoms: C_15  and  S_10 
REMARK    5  A    between atoms: C_14  and  C_11 
REMARK    6  A    between atoms: O_23  and  C_13 
REMARK    7  A    between atoms: O_24  and  C_16 
REMARK    8  A    between atoms: O_25  and  C_17 
ROOT
ATOM      1  N   UNL d   1       0.502   0.537  -0.129  0.00  0.00    -0.219 N 
ATOM      2  C   UNL d   1       0.921  -0.754   0.150  0.00  0.00     0.177 C 
ATOM      3  N   UNL d   1      -0.107  -1.465   0.554  0.00  0.00    -0.264 N 
ATOM      4  HN  UNL d   1      -0.118  -2.461   0.774  1.00  0.00     0.186 HD
ATOM      5  N   UNL d   1      -1.160  -0.592   0.619  0.00  0.00    -0.006 NA
ATOM      6  N   UNL d   1      -0.791   0.635   0.273  0.00  0.00     0.001 NA
ENDROOT
BRANCH   2   7
ATOM      7  S   UNL d   1       2.578  -1.244   0.247  0.00  0.00    -0.087 SA
BRANCH   7   8
ATOM      8  C   UNL d   1       2.451  -3.039   0.013  0.00  0.00     0.123 C 
BRANCH   8   9
ATOM      9  C   UNL d   1       3.771  -3.785   0.067  0.00  0.00    -0.014 A 
ATOM     10  C   UNL d   1       4.981  -3.155  -0.297  0.00  0.00     0.026 A 
ATOM     11  C   UNL d   1       6.225  -3.780  -0.119  0.00  0.00     0.010 A 
ATOM     12  C   UNL d   1       6.274  -5.093   0.340  0.00  0.00     0.018 A 
ATOM     13  C   UNL d   1       5.082  -5.760   0.634  0.00  0.00     0.038 A 
ATOM     14  C   UNL d   1       3.840  -5.124   0.490  0.00  0.00     0.075 A 
BRANCH  11  15
ATOM     15  C   UNL d   1       7.449  -2.979  -0.400  0.00  0.00     0.155 C 
ATOM     16  O   UNL d   1       7.407  -2.097  -1.256  0.00  0.00    -0.293 OA
ATOM     17  C   UNL d   1       8.697  -3.222   0.410  0.00  0.00     0.096 C 
ENDBRANCH  11  15
BRANCH  14  18
ATOM     18  O   UNL d   1       2.768  -5.867   0.908  0.00  0.00    -0.355 OA
ATOM     19  C   UNL d   1       1.723  -6.018  -0.053  0.00  0.00     0.210 C 
ENDBRANCH  14  18
ENDBRANCH   8   9
ENDBRANCH   7   8
ENDBRANCH   2   7
BRANCH   1  20
ATOM     20  C   UNL d   1       1.175   1.628  -0.736  0.00  0.00     0.059 A 
ATOM     21  C   UNL d   1       2.206   1.413  -1.663  0.00  0.00     0.071 A 
ATOM     22  C   UNL d   1       2.911   2.483  -2.233  0.00  0.00     0.103 A 
ATOM     23  C   UNL d   1       2.567   3.794  -1.864  0.00  0.00     0.101 A 
ATOM     24  C   UNL d   1       1.497   4.002  -0.978  0.00  0.00     0.042 A 
ATOM     25  C   UNL d   1       0.789   2.932  -0.425  0.00  0.00     0.034 A 
BRANCH  22  26
ATOM     26  O   UNL d   1       3.908   2.304  -3.158  0.00  0.00    -0.353 OA
ATOM     27  C   UNL d   1       4.317   0.978  -3.475  0.00  0.00     0.210 C 
ENDBRANCH  22  26
BRANCH  23  28
ATOM     28  O   UNL d   1       3.138   4.973  -2.269  0.00  0.00    -0.353 OA
ATOM     29  C   UNL d   1       4.348   4.927  -3.011  0.00  0.00     0.210 C 
ENDBRANCH  23  28
ENDBRANCH   1  20
TORSDOF 8
