REMARK  11 active torsions:
REMARK  status: ('A' for Active; 'I' for Inactive)
REMARK    1  A    between atoms: C_6  and  N_1 
REMARK    2  A    between atoms: C_11  and  C_6 
REMARK    3  A    between atoms: C_12  and  C_11 
REMARK    4  A    between atoms: O_20  and  C_11 
REMARK    5  A    between atoms: N_15  and  C_12 
REMARK    6  A    between atoms: C_21  and  N_15 
REMARK    7  A    between atoms: C_22  and  N_15 
REMARK    8  A    between atoms: C_23  and  C_21 
REMARK    9  A    between atoms: C_24  and  C_22 
REMARK   10  A    between atoms: C_25  and  C_23 
REMARK   11  A    between atoms: C_26  and  C_24 
ROOT
ATOM      1  N   UNL d   1       1.740  -5.031  -1.695  0.00  0.00    -0.343 N 
ATOM      2  C   UNL d   1       2.203  -6.760  -3.055  0.00  0.00     0.005 A 
ATOM      3  C   UNL d   1       3.335  -5.899  -3.019  0.00  0.00     0.005 A 
ATOM      4  C   UNL d   1       1.182  -6.153  -2.311  0.00  0.00     0.046 A 
ATOM      5  C   UNL d   1       3.011  -4.806  -2.225  0.00  0.00     0.046 A 
ATOM      6  C   UNL d   1      -0.123  -6.677  -2.324  0.00  0.00     0.032 A 
ATOM      7  C   UNL d   1       3.861  -3.701  -2.095  0.00  0.00     0.032 A 
ATOM      8  C   UNL d   1       1.943  -7.958  -3.761  0.00  0.00     0.038 A 
ATOM      9  C   UNL d   1       4.580  -5.923  -3.677  0.00  0.00     0.038 A 
ATOM     10  C   UNL d   1       0.650  -8.469  -3.776  0.00  0.00     0.035 A 
ATOM     11  C   UNL d   1       5.428  -4.821  -3.568  0.00  0.00     0.035 A 
ATOM     12  C   UNL d   1      -0.377  -7.830  -3.086  0.00  0.00     0.026 A 
ATOM     13  C   UNL d   1       5.072  -3.723  -2.793  0.00  0.00     0.026 A 
ATOM     14 CL   UNL d   1       0.315  -9.884  -4.702  0.00  0.00    -0.084 Cl
ATOM     15 CL   UNL d   1       6.913  -4.806  -4.436  0.00  0.00    -0.084 Cl
ENDROOT
BRANCH   1  16
ATOM     16  C   UNL d   1       1.034  -4.075  -0.836  0.00  0.00     0.163 C 
BRANCH  16  17
ATOM     17  C   UNL d   1       1.066  -4.330   0.686  0.00  0.00     0.164 C 
BRANCH  17  18
ATOM     18  C   UNL d   1       2.333  -3.897   1.511  0.00  0.00     0.305 C 
BRANCH  18  19
ATOM     19  N   UNL d   1       2.836  -2.504   1.548  0.00  0.00     0.090 N 
BRANCH  19  20
ATOM     20  C   UNL d   1       1.845  -1.456   1.896  0.00  0.00     0.272 C 
BRANCH  20  21
ATOM     21  C   UNL d   1       1.062  -1.474   3.236  0.00  0.00     0.030 C 
BRANCH  21  22
ATOM     22  C   UNL d   1       1.742  -1.110   4.565  0.00  0.00    -0.003 C 
ATOM     23  C   UNL d   1       2.338   0.286   4.634  0.00  0.00     0.005 C 
ENDBRANCH  21  22
ENDBRANCH  20  21
ENDBRANCH  19  20
BRANCH  19  24
ATOM     24  C   UNL d   1       4.054  -2.324   2.369  0.00  0.00     0.272 C 
BRANCH  24  25
ATOM     25  C   UNL d   1       5.221  -3.319   2.270  0.00  0.00     0.030 C 
BRANCH  25  26
ATOM     26  C   UNL d   1       5.894  -3.463   0.911  0.00  0.00    -0.003 C 
ATOM     27  C   UNL d   1       6.503  -2.176   0.380  0.00  0.00     0.005 C 
ENDBRANCH  25  26
ENDBRANCH  24  25
ENDBRANCH  19  24
ENDBRANCH  18  19
ENDBRANCH  17  18
BRANCH  17  28
ATOM     28  O   UNL d   1      -0.121  -3.743   1.250  0.00  0.00    -0.392 OA
ATOM     29  H   UNL d   1      -0.149  -3.992   2.189  0.00  0.00     0.210 HD
ENDBRANCH  17  28
ENDBRANCH  16  17
ENDBRANCH   1  16
TORSDOF 11
