REMARK  3 active torsions:
REMARK  status: ('A' for Active; 'I' for Inactive)
REMARK       I    between atoms: N_2  and  C_1 
REMARK       I    between atoms: N_4  and  C_1 
REMARK    1  A    between atoms: C_3  and  N_2 
REMARK    2  A    between atoms: C_7  and  N_4 
REMARK    3  A    between atoms: C_8  and  C_7 
ROOT
ATOM      1  C   UNL d   1       1.144   0.004  -0.183  0.00  0.00     0.321 C 
ATOM      2  N   UNL d   1       0.626   1.186  -0.664  0.00  0.00    -0.308 N 
ATOM      3  N   UNL d   1       0.189  -0.686   0.543  0.00  0.00    -0.339 N 
ATOM      4  O   UNL d   1       2.299  -0.381  -0.302  0.00  0.00    -0.247 OA
ATOM      5  H   UNL d   1      -0.172   1.515  -0.148  0.00  0.00     0.170 HD
ATOM      6  H   UNL d   1      -0.779  -0.465   0.386  0.00  0.00     0.164 HD
ENDROOT
BRANCH   2   7
ATOM      7  C   UNL d   1       1.399   2.158  -1.335  0.00  0.00     0.042 A 
ATOM      8  C   UNL d   1       1.240   3.519  -1.023  0.00  0.00    -0.035 A 
ATOM      9  C   UNL d   1       0.368   4.027   0.094  0.00  0.00     0.050 C 
ATOM     10  C   UNL d   1       1.991   4.471  -1.735  0.00  0.00     0.009 A 
ATOM     11  C   UNL d   1       2.882   4.082  -2.735  0.00  0.00     0.001 A 
ATOM     12  C   UNL d   1       3.039   2.734  -3.035  0.00  0.00     0.002 A 
ATOM     13  C   UNL d   1       2.303   1.775  -2.337  0.00  0.00     0.030 A 
ENDBRANCH   2   7
BRANCH   3  14
ATOM     14  C   UNL d   1       0.500  -1.939   1.187  0.00  0.00     0.162 C 
BRANCH  14  15
ATOM     15  C   UNL d   1       0.661  -1.808   2.682  0.00  0.00    -0.040 A 
ATOM     16  C   UNL d   1      -0.203  -2.487   3.555  0.00  0.00     0.009 A 
ATOM     17  C   UNL d   1       0.041  -2.495   4.934  0.00  0.00     0.001 A 
ATOM     18  C   UNL d   1       1.141  -1.816   5.452  0.00  0.00     0.000 A 
ATOM     19  C   UNL d   1       1.982  -1.101   4.601  0.00  0.00     0.001 A 
ATOM     20  C   UNL d   1       1.740  -1.093   3.224  0.00  0.00     0.009 A 
ENDBRANCH  14  15
ENDBRANCH   3  14
TORSDOF 3
