REMARK  3 active torsions:
REMARK  status: ('A' for Active; 'I' for Inactive)
REMARK    1  A    between atoms: C_10  and  C_1 
REMARK    2  A    between atoms: C_13  and  C_11 
REMARK    3  A    between atoms: O_22  and  C_19 
ROOT
ATOM      1  C   UNL d   1       0.920  -1.379   0.025  0.00  0.00     0.144 A 
ATOM      2  N   UNL d   1      -0.254  -0.638   0.030  0.00  0.00    -0.235 N 
ATOM      3  C   UNL d   1      -0.202   0.764   0.057  0.00  0.00     0.129 A 
ATOM      4  N   UNL d   1       0.976   1.458   0.058  0.00  0.00    -0.340 N 
ATOM      5  HN  UNL d   1       0.995   2.478   0.086  1.00  0.00     0.167 HD
ATOM      6  C   UNL d   1       2.106  -0.741   0.033  0.00  0.00     0.067 A 
ATOM      7  N   UNL d   1      -1.537  -1.071   0.018  0.00  0.00    -0.297 N 
ATOM      8  HN  UNL d   1      -1.861  -2.038   0.002  1.00  0.00     0.187 HD
ATOM      9  C   UNL d   1      -1.507   1.199   0.062  0.00  0.00     0.076 A 
ATOM     10  C   UNL d   1       2.072   0.756   0.022  0.00  0.00     0.046 A 
ATOM     11  C   UNL d   1      -2.289   0.031   0.032  0.00  0.00     0.026 A 
ATOM     12  C   UNL d   1      -3.768  -0.073   0.009  0.00  0.00     0.070 C 
ENDROOT
BRANCH  10  13
ATOM     13  C   UNL d   1       3.391   1.453  -0.021  0.00  0.00    -0.009 A 
ATOM     14  C   UNL d   1       3.529   2.690   0.622  0.00  0.00     0.016 A 
ATOM     15  C   UNL d   1       4.754   3.371   0.596  0.00  0.00     0.037 A 
ATOM     16  C   UNL d   1       5.843   2.824  -0.082  0.00  0.00     0.068 A 
ATOM     17  C   UNL d   1       5.707   1.591  -0.721  0.00  0.00     0.037 A 
ATOM     18  C   UNL d   1       4.485   0.914  -0.707  0.00  0.00     0.016 A 
BRANCH  16  19
ATOM     19  O   UNL d   1       7.094   3.373  -0.141  0.00  0.00    -0.356 OA
ATOM     20  C   UNL d   1       7.146   4.795  -0.138  0.00  0.00     0.210 C 
ENDBRANCH  16  19
ENDBRANCH  10  13
BRANCH   1  21
ATOM     21  C   UNL d   1       0.846  -2.860   0.018  0.00  0.00     0.434 C 
ATOM     22  F   UNL d   1      -0.385  -3.418  -0.007  0.00  0.00    -0.165 F 
ATOM     23  F   UNL d   1       1.514  -3.361  -1.060  0.00  0.00    -0.165 F 
ATOM     24  F   UNL d   1       1.479  -3.375   1.109  0.00  0.00    -0.165 F 
ENDBRANCH   1  21
TORSDOF 3
