REMARK  3 active torsions:
REMARK  status: ('A' for Active; 'I' for Inactive)
REMARK    1  A    between atoms: C_10  and  C_5 
REMARK    2  A    between atoms: C_11  and  C_6 
REMARK    3  A    between atoms: C_9  and  C_8 
ROOT
ATOM      1  N   UNL d   1      -0.332   1.288  -0.383  0.00  0.00    -0.358 N 
ATOM      2  HN  UNL d   1      -0.613   2.117  -0.907  1.00  0.00     0.162 HD
ATOM      3  N   UNL d   1      -0.734  -1.097  -0.360  0.00  0.00    -0.358 N 
ATOM      4  HN  UNL d   1      -1.263  -1.785  -0.895  1.00  0.00     0.162 HD
ATOM      5  C   UNL d   1       0.870   1.159   0.047  0.00  0.00     0.084 C 
ATOM      6  C   UNL d   1       0.431  -1.380   0.099  0.00  0.00     0.084 C 
ATOM      7  S   UNL d   1       1.415  -0.223   0.958  0.00  0.00    -0.053 SA
ATOM      8  C   UNL d   1      -1.284   0.225  -0.102  0.00  0.00     0.217 C 
ENDROOT
BRANCH   8   9
ATOM      9  C   UNL d   1      -2.497   0.430  -0.998  0.00  0.00    -0.015 A 
ATOM     10  C   UNL d   1      -2.341   0.365  -2.395  0.00  0.00     0.036 A 
ATOM     11  C   UNL d   1      -3.424   0.570  -3.250  0.00  0.00     0.056 A 
ATOM     12 CL   UNL d   1      -3.133   0.473  -4.951  0.00  0.00    -0.083 Cl
ATOM     13  C   UNL d   1      -4.684   0.844  -2.714  0.00  0.00     0.055 A 
ATOM     14  C   UNL d   1      -4.853   0.909  -1.327  0.00  0.00     0.026 A 
ATOM     15 CL   UNL d   1      -6.072   1.115  -3.708  0.00  0.00    -0.083 Cl
ATOM     16  C   UNL d   1      -3.765   0.704  -0.471  0.00  0.00     0.013 A 
ENDBRANCH   8   9
BRANCH   6  17
ATOM     17  C   UNL d   1       1.004  -2.743  -0.129  0.00  0.00    -0.002 A 
ATOM     18  C   UNL d   1       0.508  -3.504  -1.200  0.00  0.00     0.016 A 
ATOM     19  C   UNL d   1       1.016  -4.782  -1.463  0.00  0.00     0.024 A 
ATOM     20  C   UNL d   1       2.016  -5.309  -0.650  0.00  0.00     0.034 A 
ATOM     21  C   UNL d   1       2.507  -4.573   0.426  0.00  0.00     0.024 A 
ATOM     22 CL   UNL d   1       2.647  -6.875  -0.972  0.00  0.00    -0.084 Cl
ATOM     23  C   UNL d   1       2.002  -3.295   0.689  0.00  0.00     0.016 A 
ENDBRANCH   6  17
BRANCH   5  24
ATOM     24  C   UNL d   1       1.854   2.252  -0.185  0.00  0.00    -0.002 A 
ATOM     25  C   UNL d   1       1.396   3.577  -0.148  0.00  0.00     0.016 A 
ATOM     26  C   UNL d   1       2.288   4.638  -0.328  0.00  0.00     0.024 A 
ATOM     27  C   UNL d   1       3.635   4.375  -0.565  0.00  0.00     0.034 A 
ATOM     28  C   UNL d   1       4.096   3.061  -0.640  0.00  0.00     0.024 A 
ATOM     29 CL   UNL d   1       4.739   5.678  -0.764  0.00  0.00    -0.084 Cl
ATOM     30  C   UNL d   1       3.206   1.997  -0.453  0.00  0.00     0.016 A 
ENDBRANCH   5  24
TORSDOF 3
