REMARK  8 active torsions:
REMARK  status: ('A' for Active; 'I' for Inactive)
REMARK    1  A    between atoms: C_3  and  S_1 
REMARK    2  A    between atoms: O_6  and  S_1 
REMARK    3  A    between atoms: S_2  and  O_5 
REMARK    4  A    between atoms: C_4  and  S_2 
REMARK    5  A    between atoms: O_5  and  C_19 
REMARK    6  A    between atoms: C_20  and  O_6 
REMARK    7  A    between atoms: C_19  and  C_17 
REMARK    8  A    between atoms: C_18  and  C_20 
ROOT
ATOM      1  C   UNL d   1      -1.622   3.941  -3.037  0.00  0.00    -0.023 C 
ATOM      2  C   UNL d   1      -1.099   2.734  -2.818  0.00  0.00    -0.023 C 
ATOM      3  C   UNL d   1      -0.578   5.008  -3.180  0.00  0.00     0.034 C 
ATOM      4  C   UNL d   1       0.397   2.756  -2.757  0.00  0.00     0.034 C 
ATOM      5  C   UNL d   1       0.731   4.261  -2.866  0.00  0.00     0.021 C 
ENDROOT
BRANCH   3   6
ATOM      6  C   UNL d   1      -0.596   5.643  -4.573  0.00  0.00     0.199 C 
BRANCH   6   7
ATOM      7  O   UNL d   1      -1.818   6.356  -4.727  0.00  0.00    -0.271 OA
BRANCH   7   8
ATOM      8  S   UNL d   1      -2.119   7.040  -6.175  0.00  0.00     0.298 S 
ATOM      9  O   UNL d   1      -1.163   8.113  -6.357  0.00  0.00    -0.193 OA
ATOM     10  O   UNL d   1      -2.264   5.979  -7.150  0.00  0.00    -0.193 OA
BRANCH   8  11
ATOM     11  C   UNL d   1      -3.715   7.799  -5.993  0.00  0.00     0.086 A 
ATOM     12  C   UNL d   1      -4.438   7.667  -4.806  0.00  0.00     0.026 A 
ATOM     13  C   UNL d   1      -5.641   8.359  -4.656  0.00  0.00     0.008 A 
ATOM     14  C   UNL d   1      -6.128   9.175  -5.688  0.00  0.00    -0.062 A 
ATOM     15  C   UNL d   1      -5.409   9.268  -6.887  0.00  0.00     0.008 A 
ATOM     16  C   UNL d   1      -7.376   9.981  -5.473  0.00  0.00     0.048 C 
ATOM     17  C   UNL d   1      -4.203   8.581  -7.043  0.00  0.00     0.026 A 
ENDBRANCH   8  11
ENDBRANCH   7   8
ENDBRANCH   6   7
ENDBRANCH   3   6
BRANCH   4  18
ATOM     18  C   UNL d   1       0.946   2.154  -1.459  0.00  0.00     0.199 C 
BRANCH  18  19
ATOM     19  O   UNL d   1       0.616   0.770  -1.346  0.00  0.00    -0.271 OA
BRANCH  19  20
ATOM     20  S   UNL d   1       1.080   0.051   0.043  0.00  0.00     0.298 S 
ATOM     21  O   UNL d   1       2.526  -0.043   0.013  0.00  0.00    -0.193 OA
ATOM     22  O   UNL d   1       0.396   0.704   1.142  0.00  0.00    -0.193 OA
BRANCH  20  23
ATOM     23  C   UNL d   1       0.446  -1.606  -0.022  0.00  0.00     0.086 A 
ATOM     24  C   UNL d   1       1.143  -2.615   0.650  0.00  0.00     0.026 A 
ATOM     25  C   UNL d   1       0.650  -3.920   0.639  0.00  0.00     0.008 A 
ATOM     26  C   UNL d   1      -0.532  -4.225  -0.049  0.00  0.00    -0.062 A 
ATOM     27  C   UNL d   1      -1.217  -3.203  -0.724  0.00  0.00     0.008 A 
ATOM     28  C   UNL d   1      -1.055  -5.632  -0.034  0.00  0.00     0.048 C 
ATOM     29  C   UNL d   1      -0.730  -1.892  -0.716  0.00  0.00     0.026 A 
ENDBRANCH  20  23
ENDBRANCH  19  20
ENDBRANCH  18  19
ENDBRANCH   4  18
TORSDOF 8
