REMARK  9 active torsions:
REMARK  status: ('A' for Active; 'I' for Inactive)
REMARK    1  A    between atoms: N_2  and  C_1 
REMARK    2  A    between atoms: C_3  and  C_1 
REMARK    3  A    between atoms: C_5  and  C_1 
REMARK    4  A    between atoms: N_6  and  C_1 
REMARK       I    between atoms: C_4  and  N_2 
REMARK    5  A    between atoms: C_7  and  C_4 
REMARK    6  A    between atoms: O_18  and  C_5 
REMARK    7  A    between atoms: C_17  and  N_6 
REMARK    8  A    between atoms: C_25  and  O_18 
REMARK    9  A    between atoms: O_24  and  C_19 
ROOT
ATOM      1  C   UNL d   1       0.813  -0.053   0.036  0.00  0.00     0.297 C 
ENDROOT
BRANCH   1   2
ATOM      2  N   UNL d   1       0.438   1.207  -0.583  0.00  0.00    -0.313 N 
ATOM      3  C   UNL d   1      -0.863   1.600  -0.732  0.00  0.00     0.277 C 
ATOM      4  O   UNL d   1      -1.794   0.895  -0.342  0.00  0.00    -0.265 OA
ATOM      5  H   UNL d   1       1.185   1.822  -0.879  0.00  0.00     0.166 HD
BRANCH   3   6
ATOM      6  C   UNL d   1      -1.027   2.875  -1.388  0.00  0.00     0.142 A 
ATOM      7  O   UNL d   1       0.064   3.480  -1.964  0.00  0.00    -0.317 OA
ATOM      8  C   UNL d   1      -0.374   4.632  -2.537  0.00  0.00     0.143 A 
ATOM      9  C   UNL d   1      -1.723   4.792  -2.329  0.00  0.00     0.027 A 
ATOM     10  C   UNL d   1      -2.145   3.663  -1.588  0.00  0.00     0.045 A 
ENDBRANCH   3   6
ENDBRANCH   1   2
BRANCH   1  11
ATOM     11  C   UNL d   1       0.082  -1.353  -0.465  0.00  0.00     0.442 C 
ATOM     12  F   UNL d   1      -0.531  -1.170  -1.664  0.00  0.00    -0.166 F 
ATOM     13  F   UNL d   1       0.967  -2.371  -0.654  0.00  0.00    -0.166 F 
ATOM     14  F   UNL d   1      -0.855  -1.827   0.390  0.00  0.00    -0.166 F 
ENDBRANCH   1  11
BRANCH   1  15
ATOM     15  C   UNL d   1       0.489   0.032   1.560  0.00  0.00     0.318 C 
ATOM     16  O   UNL d   1      -0.089   0.960   2.116  0.00  0.00    -0.260 OA
BRANCH  15  17
ATOM     17  O   UNL d   1       1.009  -1.045   2.226  0.00  0.00    -0.318 OA
BRANCH  17  18
ATOM     18  C   UNL d   1       0.659  -1.115   3.621  0.00  0.00     0.174 C 
ATOM     19  C   UNL d   1       1.606  -0.270   4.452  0.00  0.00     0.034 C 
ENDBRANCH  17  18
ENDBRANCH  15  17
ENDBRANCH   1  15
BRANCH   1  20
ATOM     20  N   UNL d   1       2.304  -0.060  -0.106  0.00  0.00    -0.348 N 
ATOM     21  H   UNL d   1       2.738  -0.647   0.610  0.00  0.00     0.163 HD
BRANCH  20  22
ATOM     22  C   UNL d   1       2.986  -0.166  -1.316  0.00  0.00     0.030 A 
ATOM     23  C   UNL d   1       2.377  -0.113  -2.574  0.00  0.00     0.032 A 
ATOM     24  C   UNL d   1       3.130  -0.118  -3.755  0.00  0.00     0.039 A 
ATOM     25  C   UNL d   1       4.519  -0.150  -3.707  0.00  0.00     0.068 A 
ATOM     26  C   UNL d   1       5.145  -0.179  -2.463  0.00  0.00     0.039 A 
ATOM     27  C   UNL d   1       4.387  -0.182  -1.285  0.00  0.00     0.032 A 
BRANCH  25  28
ATOM     28  O   UNL d   1       5.357  -0.146  -4.786  0.00  0.00    -0.356 OA
ATOM     29  C   UNL d   1       4.742  -0.084  -6.068  0.00  0.00     0.210 C 
ENDBRANCH  25  28
ENDBRANCH  20  22
ENDBRANCH   1  20
TORSDOF 9
