REMARK  3 active torsions:
REMARK  status: ('A' for Active; 'I' for Inactive)
REMARK    1  A    between atoms: O_3  and  C_1 
REMARK       I    between atoms: N_5  and  C_1 
REMARK    2  A    between atoms: C_4  and  O_3 
REMARK    3  A    between atoms: C_9  and  N_5 
ROOT
ATOM      1  C   UNL d   1      -1.504  -2.850  -1.081  0.00  0.00     0.045 A 
ATOM      2  C   UNL d   1      -1.122  -1.410  -0.782  0.00  0.00     0.183 C 
ATOM      3  N   UNL d   1      -2.363  -3.022  -2.124  0.00  0.00    -0.367 N 
ATOM      4  HN  UNL d   1      -2.655  -2.232  -2.699  1.00  0.00     0.165 HD
ATOM      5  C   UNL d   1      -1.064  -3.920  -0.292  0.00  0.00    -0.033 A 
ATOM      6  C   UNL d   1      -1.648  -0.979   0.596  0.00  0.00     0.039 C 
ATOM      7  C   UNL d   1      -2.815  -4.267  -2.374  0.00  0.00     0.088 A 
ATOM      8  C   UNL d   1      -1.563  -5.196  -0.584  0.00  0.00     0.010 A 
ATOM      9  C   UNL d   1      -0.135  -3.738   0.878  0.00  0.00     0.040 C 
ATOM     10  C   UNL d   1      -2.457  -5.374  -1.632  0.00  0.00     0.018 A 
ATOM     11  C   UNL d   1      -0.856  -1.464   1.813  0.00  0.00     0.003 C 
ATOM     12  C   UNL d   1      -0.803  -2.977   2.019  0.00  0.00     0.005 C 
ENDROOT
BRANCH   2  13
ATOM     13  O   UNL d   1       0.300  -1.267  -0.925  0.00  0.00    -0.292 OA
BRANCH  13  14
ATOM     14  C   UNL d   1       0.753  -0.049  -1.292  0.00  0.00     0.365 C 
ATOM     15  N   UNL d   1       2.078   0.000  -1.655  0.00  0.00    -0.303 N 
ATOM     16  H   UNL d   1       2.364   0.951  -1.852  0.00  0.00     0.171 HD
ATOM     17  O   UNL d   1       0.071   0.970  -1.303  0.00  0.00    -0.238 OA
BRANCH  15  18
ATOM     18  C   UNL d   1       3.042  -1.011  -1.833  0.00  0.00     0.038 A 
ATOM     19  C   UNL d   1       2.787  -2.381  -1.732  0.00  0.00     0.053 A 
ATOM     20  C   UNL d   1       3.817  -3.306  -1.904  0.00  0.00     0.036 A 
ATOM     21 CL   UNL d   1       3.480  -4.989  -1.744  0.00  0.00    -0.084 Cl
ATOM     22  C   UNL d   1       5.109  -2.889  -2.201  0.00  0.00     0.024 A 
ATOM     23  C   UNL d   1       5.370  -1.529  -2.338  0.00  0.00     0.004 A 
ATOM     24  C   UNL d   1       4.343  -0.597  -2.151  0.00  0.00     0.029 A 
ENDBRANCH  15  18
ENDBRANCH  13  14
ENDBRANCH   2  13
TORSDOF 3
