REMARK  2 active torsions:
REMARK  status: ('A' for Active; 'I' for Inactive)
REMARK    1  A    between atoms: C_6  and  C_7 
REMARK       I    between atoms: N_8  and  C_6 
REMARK    2  A    between atoms: C_11  and  N_8 
ROOT
ATOM      1  C   UNL d   1      -0.482   0.723  -0.024  0.00  0.00     0.005 A 
ATOM      2  C   UNL d   1      -0.939  -0.591   0.186  0.00  0.00     0.027 A 
ATOM      3  C   UNL d   1       0.216  -1.500   0.063  0.00  0.00     0.194 A 
ATOM      4  C   UNL d   1       0.952   0.686  -0.255  0.00  0.00    -0.010 A 
ATOM      5  C   UNL d   1       1.391  -0.650  -0.222  0.00  0.00     0.026 A 
ATOM      6  C   UNL d   1      -1.422   1.741  -0.023  0.00  0.00     0.044 A 
ATOM      7  O   UNL d   1       0.203  -2.706   0.187  0.00  0.00    -0.287 OA
ATOM      8  C   UNL d   1      -2.264  -0.927   0.411  0.00  0.00     0.016 A 
ATOM      9  C   UNL d   1       1.883   1.686  -0.481  0.00  0.00     0.013 A 
ATOM     10  C   UNL d   1       2.699  -1.038  -0.424  0.00  0.00     0.016 A 
ATOM     11  C   UNL d   1      -2.778   1.436   0.204  0.00  0.00     0.018 A 
ATOM     12  C   UNL d   1      -3.194   0.111   0.424  0.00  0.00     0.002 A 
ATOM     13  C   UNL d   1       3.223   1.322  -0.683  0.00  0.00     0.001 A 
ATOM     14  C   UNL d   1       3.626  -0.026  -0.662  0.00  0.00     0.001 A 
ENDROOT
BRANCH   6  15
ATOM     15  C   UNL d   1      -1.098   3.110  -0.445  0.00  0.00     0.257 C 
ATOM     16  N   UNL d   1      -0.844   3.993   0.585  0.00  0.00    -0.323 N 
ATOM     17  H   UNL d   1      -0.821   3.618   1.526  0.00  0.00     0.169 HD
ATOM     18  O   UNL d   1      -1.135   3.335  -1.649  0.00  0.00    -0.267 OA
BRANCH  16  19
ATOM     19  C   UNL d   1      -0.760   5.400   0.468  0.00  0.00     0.035 A 
ATOM     20  C   UNL d   1      -0.675   6.148   1.648  0.00  0.00     0.029 A 
ATOM     21  C   UNL d   1      -0.711   7.546   1.607  0.00  0.00     0.002 A 
ATOM     22  C   UNL d   1      -0.815   8.209   0.387  0.00  0.00     0.000 A 
ATOM     23  C   UNL d   1      -0.855   7.475  -0.794  0.00  0.00     0.002 A 
ATOM     24  C   UNL d   1      -0.821   6.077  -0.753  0.00  0.00     0.029 A 
ENDBRANCH  16  19
ENDBRANCH   6  15
TORSDOF 2
