REMARK  3 active torsions:
REMARK  status: ('A' for Active; 'I' for Inactive)
REMARK    1  A    between atoms: C_2  and  C_1 
REMARK       I    between atoms: N_3  and  C_1 
REMARK    2  A    between atoms: N_6  and  N_3 
REMARK    3  A    between atoms: C_13  and  N_6 
ROOT
ATOM      1  N   UNL d   1      -0.951  -0.301   1.417  0.00  0.00    -0.203 NA
ATOM      2  H   UNL d   1      -1.544  -0.427   0.586  0.00  0.00     0.153 HD
ENDROOT
BRANCH   1   3
ATOM      3  N   UNL d   1       0.093   0.604   1.174  0.00  0.00    -0.282 N 
ATOM      4  C   UNL d   1       0.329   0.977  -0.145  0.00  0.00     0.273 C 
ATOM      5  O   UNL d   1      -0.471   0.695  -1.038  0.00  0.00    -0.266 OA
ATOM      6  H   UNL d   1       0.877   0.560   1.817  0.00  0.00     0.184 HD
BRANCH   4   7
ATOM      7  C   UNL d   1       1.578   1.687  -0.389  0.00  0.00     0.073 A 
ATOM      8  S   UNL d   1       2.596   2.222   0.885  0.00  0.00    -0.097 SA
ATOM      9  C   UNL d   1       3.700   2.945  -0.202  0.00  0.00     0.050 A 
ATOM     10  C   UNL d   1       3.322   2.768  -1.513  0.00  0.00     0.009 A 
ATOM     11  C   UNL d   1       2.102   2.040  -1.621  0.00  0.00     0.025 A 
ENDBRANCH   4   7
ENDBRANCH   1   3
BRANCH   1  12
ATOM     12  C   UNL d   1      -1.731  -0.041   2.570  0.00  0.00     0.028 A 
ATOM     13  C   UNL d   1      -1.337   0.822   3.603  0.00  0.00     0.032 A 
ATOM     14  C   UNL d   1      -2.090   0.958   4.786  0.00  0.00    -0.054 A 
ATOM     15  C   UNL d   1      -1.623   1.917   5.847  0.00  0.00     0.049 C 
ATOM     16  C   UNL d   1      -3.251   0.182   4.959  0.00  0.00    -0.056 A 
ATOM     17  C   UNL d   1      -3.644  -0.688   3.936  0.00  0.00     0.009 A 
ATOM     18  C   UNL d   1      -4.065   0.256   6.221  0.00  0.00     0.049 C 
ATOM     19  C   UNL d   1      -2.891  -0.801   2.763  0.00  0.00     0.026 A 
ENDBRANCH   1  12
TORSDOF 3
