REMARK  8 active torsions:
REMARK  status: ('A' for Active; 'I' for Inactive)
REMARK    1  A    between atoms: N_4  and  C_1 
REMARK    2  A    between atoms: N_5  and  C_2 
REMARK    3  A    between atoms: O_20  and  C_3 
REMARK    4  A    between atoms: CA_6  and  C_17 
REMARK    5  A    between atoms: C_7  and  CA_6 
REMARK    6  A    between atoms: N_8  and  CA_6 
REMARK    7  A    between atoms: OXT_21  and  C_7 
REMARK       I    between atoms: C_14  and  N_8 
REMARK    8  A    between atoms: C_17  and  C_9 
ROOT
ATOM      1  C   UNL d   1       0.159   0.535   1.500  0.00  0.00     0.139 A 
ATOM      2  C   UNL d   1       0.225  -1.161  -0.188  0.00  0.00     0.139 A 
ATOM      3  C   UNL d   1       0.887  -0.446   0.820  0.00  0.00     0.132 A 
ATOM      4  C   UNL d   1      -1.864   0.052   0.247  0.00  0.00    -0.051 A 
ATOM      5  C   UNL d   1      -1.203   0.779   1.244  0.00  0.00     0.046 A 
ATOM      6  C   UNL d   1      -1.133  -0.910  -0.474  0.00  0.00     0.046 A 
ENDROOT
BRANCH   4   7
ATOM      7  C   UNL d   1      -3.339   0.240  -0.038  0.00  0.00     0.074 C 
BRANCH   7   8
ATOM      8  CA  UNL d   1      -3.822   1.666  -0.362  0.00  0.00     0.186 C 
BRANCH   8   9
ATOM      9  C   UNL d   1      -3.155   2.181  -1.652  0.00  0.00     0.163 C 
ATOM     10  O   UNL d   1      -1.948   2.226  -1.837  0.00  0.00    -0.648 OA
BRANCH   9  11
ATOM     11  OXT UNL d   1      -4.035   2.571  -2.604  0.00  0.00    -0.775 OA
ATOM     12  HXT UNL d   1      -4.944   2.557  -2.245  0.00  0.00     0.167 HD
ENDBRANCH   9  11
ENDBRANCH   8   9
BRANCH   8  13
ATOM     13  N   UNL d   1      -5.300   1.666  -0.507  0.00  0.00    -0.347 N 
ATOM     14  C   UNL d   1      -6.077   2.702  -0.035  0.00  0.00     0.214 C 
ATOM     15  O   UNL d   1      -5.598   3.716   0.452  0.00  0.00    -0.274 OA
ATOM     16  C   UNL d   1      -7.556   2.525  -0.248  0.00  0.00     0.117 C 
ATOM     17  H   UNL d   1      -5.752   0.825  -0.853  0.00  0.00     0.163 HD
ENDBRANCH   8  13
ENDBRANCH   7   8
ENDBRANCH   4   7
BRANCH   1  18
ATOM     18  N   UNL d   1       0.800   1.327   2.533  0.00  0.00    -0.113 N 
ATOM     19  O   UNL d   1       1.735   2.064   2.193  0.00  0.00    -0.532 OA
ATOM     20  O   UNL d   1       0.311   1.256   3.669  0.00  0.00    -0.532 OA
ENDBRANCH   1  18
BRANCH   2  21
ATOM     21  N   UNL d   1       0.913  -2.208  -0.953  0.00  0.00    -0.113 N 
ATOM     22  O   UNL d   1       2.058  -2.520  -0.590  0.00  0.00    -0.532 OA
ATOM     23  O   UNL d   1       0.309  -2.728  -1.900  0.00  0.00    -0.532 OA
ENDBRANCH   2  21
BRANCH   3  24
ATOM     24  O   UNL d   1       2.181  -0.682   1.200  0.00  0.00    -0.356 OA
ATOM     25  H   UNL d   1       2.581  -1.407   0.674  0.00  0.00     0.218 HD
ENDBRANCH   3  24
TORSDOF 8
