REMARK  3 active torsions:
REMARK  status: ('A' for Active; 'I' for Inactive)
REMARK       I    between atoms: N_2  and  C_1 
REMARK       I    between atoms: N_6  and  C_1 
REMARK    1  A    between atoms: C_3  and  N_2 
REMARK    2  A    between atoms: C_12  and  N_6 
REMARK    3  A    between atoms: C_7  and  C_8 
ROOT
ATOM      1  C   UNL d   1       1.241  -2.003  -0.771  0.00  0.00     0.326 C 
ATOM      2  N   UNL d   1       2.535  -1.580  -0.559  0.00  0.00    -0.294 N 
ATOM      3  N   UNL d   1       0.289  -1.022  -0.700  0.00  0.00    -0.309 N 
ATOM      4  O   UNL d   1       1.048  -3.177  -1.067  0.00  0.00    -0.247 OA
ATOM      5  H   UNL d   1       3.224  -2.291  -0.747  0.00  0.00     0.172 HD
ATOM      6  H   UNL d   1       0.673  -0.099  -0.520  0.00  0.00     0.170 HD
ENDROOT
BRANCH   2   7
ATOM      7  C   UNL d   1       2.957  -0.335  -0.080  0.00  0.00     0.109 A 
ATOM      8  N   UNL d   1       2.026   0.546   0.348  0.00  0.00    -0.346 N 
ATOM      9  C   UNL d   1       2.427   1.729   0.861  0.00  0.00     0.007 A 
ATOM     10  HN  UNL d   1       1.033   0.321   0.283  1.00  0.00     0.167 HD
ATOM     11  C   UNL d   1       1.355   2.620   1.408  0.00  0.00     0.068 C 
ATOM     12  C   UNL d   1       3.764   2.096   0.902  0.00  0.00     0.025 A 
ATOM     13  C   UNL d   1       4.715   1.195   0.431  0.00  0.00     0.006 A 
ATOM     14  C   UNL d   1       4.312  -0.050  -0.051  0.00  0.00     0.049 A 
ENDBRANCH   2   7
BRANCH   3  15
ATOM     15  C   UNL d   1      -1.098  -1.105  -0.828  0.00  0.00     0.036 A 
ATOM     16  C   UNL d   1      -1.810  -2.295  -0.774  0.00  0.00     0.030 A 
ATOM     17  C   UNL d   1      -3.207  -2.275  -0.850  0.00  0.00     0.010 A 
ATOM     18  C   UNL d   1      -3.926  -1.073  -1.009  0.00  0.00    -0.051 A 
ATOM     19  C   UNL d   1      -3.184   0.113  -1.087  0.00  0.00     0.010 A 
ATOM     20  C   UNL d   1      -1.791   0.098  -0.979  0.00  0.00     0.030 A 
BRANCH  18  21
ATOM     21  C   UNL d   1      -5.461  -1.094  -1.073  0.00  0.00    -0.024 C 
ATOM     22  C   UNL d   1      -6.095   0.304  -1.259  0.00  0.00     0.019 C 
ATOM     23  C   UNL d   1      -5.922  -1.969  -2.257  0.00  0.00     0.019 C 
ATOM     24  C   UNL d   1      -6.021  -1.678   0.242  0.00  0.00     0.019 C 
ENDBRANCH  18  21
ENDBRANCH   3  15
TORSDOF 3
