REMARK  8 active torsions:
REMARK  status: ('A' for Active; 'I' for Inactive)
REMARK    1  A    between atoms: C_2  and  S_1 
REMARK    2  A    between atoms: N_3  and  S_1 
REMARK    3  A    between atoms: N_4  and  N_3 
REMARK    4  A    between atoms: C_6  and  C_8 
REMARK    5  A    between atoms: C_14  and  C_7 
REMARK    6  A    between atoms: N_23  and  C_7 
REMARK    7  A    between atoms: C_9  and  O_13 
REMARK    8  A    between atoms: O_13  and  C_10 
ROOT
ATOM      1  N   UNL d   1       0.618  -0.277  -2.498  0.00  0.00    -0.279 N 
ATOM      2  HN  UNL d   1       0.255  -0.606  -1.604  1.00  0.00     0.189 HD
ATOM      3  C   UNL d   1       0.281  -0.837  -3.625  0.00  0.00     0.120 C 
ENDROOT
BRANCH   1   4
ATOM      4  N   UNL d   1       1.524   0.823  -2.584  0.00  0.00    -0.222 N 
ATOM      5  H   UNL d   1       2.141   0.926  -3.393  0.00  0.00     0.200 HD
BRANCH   4   6
ATOM      6  S   UNL d   1       2.024   1.641  -1.188  0.00  0.00     0.279 S 
ATOM      7  O   UNL d   1       3.091   2.549  -1.578  0.00  0.00    -0.199 OA
ATOM      8  O   UNL d   1       0.842   2.143  -0.517  0.00  0.00    -0.199 OA
BRANCH   6   9
ATOM      9  C   UNL d   1       2.747   0.375  -0.157  0.00  0.00     0.114 A 
ATOM     10  C   UNL d   1       3.914  -0.301  -0.547  0.00  0.00     0.101 A 
ATOM     11  C   UNL d   1       4.449  -1.260   0.324  0.00  0.00     0.039 A 
ATOM     12  C   UNL d   1       3.892  -1.469   1.591  0.00  0.00     0.003 A 
ATOM     13  C   UNL d   1       2.763  -0.759   1.986  0.00  0.00     0.002 A 
ATOM     14  C   UNL d   1       2.176   0.148   1.107  0.00  0.00     0.028 A 
BRANCH  10  15
ATOM     15  O   UNL d   1       4.461   0.020  -1.757  0.00  0.00    -0.254 OA
BRANCH  15  16
ATOM     16  C   UNL d   1       5.823  -0.309  -2.005  0.00  0.00     0.530 C 
ATOM     17  F   UNL d   1       6.597  -0.215  -0.905  0.00  0.00    -0.144 F 
ATOM     18  F   UNL d   1       5.905  -1.562  -2.502  0.00  0.00    -0.144 F 
ATOM     19  F   UNL d   1       6.311   0.546  -2.930  0.00  0.00    -0.144 F 
ENDBRANCH  15  16
ENDBRANCH  10  15
ENDBRANCH   6   9
ENDBRANCH   4   6
ENDBRANCH   1   4
BRANCH   3  20
ATOM     20  C   UNL d   1      -0.608  -2.050  -3.562  0.00  0.00     0.071 A 
ATOM     21  N   UNL d   1      -0.929  -2.614  -4.760  0.00  0.00    -0.362 N 
ATOM     22  C   UNL d   1      -1.685  -3.739  -4.710  0.00  0.00     0.104 A 
ATOM     23  HN  UNL d   1      -0.619  -2.212  -5.645  1.00  0.00     0.165 HD
ATOM     24  C   UNL d   1      -2.145  -4.321  -3.533  0.00  0.00     0.063 A 
ATOM     25  C   UNL d   1      -1.824  -3.689  -2.327  0.00  0.00     0.020 A 
ATOM     26  C   UNL d   1      -1.046  -2.538  -2.338  0.00  0.00     0.034 A 
BRANCH  24  27
ATOM     27  C   UNL d   1      -2.943  -5.590  -3.547  0.00  0.00     0.418 C 
ATOM     28  F   UNL d   1      -3.161  -6.084  -4.795  0.00  0.00    -0.166 F 
ATOM     29  F   UNL d   1      -2.334  -6.589  -2.850  0.00  0.00    -0.166 F 
ATOM     30  F   UNL d   1      -4.172  -5.437  -2.983  0.00  0.00    -0.166 F 
ENDBRANCH  24  27
ENDBRANCH   3  20
BRANCH   3  31
ATOM     31  N   UNL d   1       0.672  -0.374  -4.870  0.00  0.00    -0.286 NA
ATOM     32  H   UNL d   1       0.619   0.637  -4.939  0.00  0.00     0.125 HD
ATOM     33  H   UNL d   1       0.142  -0.823  -5.619  0.00  0.00     0.125 HD
ENDBRANCH   3  31
TORSDOF 8
