REMARK  1 active torsions:
REMARK  status: ('A' for Active; 'I' for Inactive)
REMARK    1  A    between atoms: C_2  and  N_1 
ROOT
ATOM      1  N   UNL d   1       1.911   0.014  -0.127  0.00  0.00    -0.227 N 
ATOM      2  C   UNL d   1       1.162  -1.117   0.109  0.00  0.00     0.267 A 
ATOM      3  C   UNL d   1       1.134   1.147  -0.190  0.00  0.00     0.267 A 
ATOM      4  C   UNL d   1      -0.235  -0.684   0.076  0.00  0.00     0.048 A 
ATOM      5  C   UNL d   1      -0.250   0.691  -0.070  0.00  0.00     0.048 A 
ATOM      6  O   UNL d   1       1.435   2.322  -0.282  0.00  0.00    -0.267 OA
ATOM      7  O   UNL d   1       1.490  -2.275   0.294  0.00  0.00    -0.267 OA
ATOM      8  C   UNL d   1      -1.401  -1.421   0.151  0.00  0.00     0.018 A 
ATOM      9  C   UNL d   1      -1.429   1.413  -0.095  0.00  0.00     0.018 A 
ATOM     10  C   UNL d   1      -2.609  -0.716   0.100  0.00  0.00     0.001 A 
ATOM     11  C   UNL d   1      -2.621   0.691  -0.009  0.00  0.00     0.001 A 
ENDROOT
BRANCH   1  12
ATOM     12  C   UNL d   1       3.293   0.022  -0.146  0.00  0.00     0.136 A 
ATOM     13  N   UNL d   1       4.081   0.875  -0.889  0.00  0.00    -0.280 N 
ATOM     14  N   UNL d   1       5.402   0.725  -0.646  0.00  0.00    -0.302 N 
ATOM     15  C   UNL d   1       3.713   1.682  -2.031  0.00  0.00     0.179 C 
ATOM     16  C   UNL d   1       5.467  -0.295   0.214  0.00  0.00     0.025 A 
ATOM     17  HN  UNL d   1       6.174   1.267  -1.032  1.00  0.00     0.186 HD
ATOM     18  C   UNL d   1       4.185  -0.806   0.508  0.00  0.00     0.076 A 
ATOM     19  C   UNL d   1       6.779  -0.749   0.730  0.00  0.00     0.070 C 
ENDBRANCH   1  12
TORSDOF 1
