REMARK  4 active torsions:
REMARK  status: ('A' for Active; 'I' for Inactive)
REMARK    1  A    between atoms: O_5  and  C_1 
REMARK       I    between atoms: C_3  and  N_8 
REMARK    2  A    between atoms: C_18  and  C_3 
REMARK    3  A    between atoms: C_11  and  O_5 
REMARK    4  A    between atoms: N_8  and  C_19 
ROOT
ATOM      1  N   UNL d   1       3.254   3.333  -1.117  0.00  0.00    -0.344 N 
ATOM      2  HN  UNL d   1       2.917   2.870  -1.961  1.00  0.00     0.167 HD
ATOM      3  C   UNL d   1       2.504   3.404   0.004  0.00  0.00     0.149 A 
ATOM      4  C   UNL d   1       4.968   4.625   0.029  0.00  0.00     0.050 A 
ATOM      5  C   UNL d   1       4.478   3.909  -1.062  0.00  0.00     0.119 A 
ATOM      6  C   UNL d   1       2.878   4.120   1.128  0.00  0.00     0.059 A 
ATOM      7  C   UNL d   1       4.127   4.737   1.134  0.00  0.00     0.035 A 
ENDROOT
BRANCH   3   8
ATOM      8  O   UNL d   1       1.253   2.813   0.051  0.00  0.00    -0.276 OA
BRANCH   8   9
ATOM      9  C   UNL d   1       1.077   1.642  -0.674  0.00  0.00     0.163 A 
ATOM     10  C   UNL d   1      -0.214   1.374  -1.134  0.00  0.00     0.042 A 
ATOM     11  C   UNL d   1      -0.343   0.167  -1.833  0.00  0.00     0.049 A 
ATOM     12  C   UNL d   1      -1.341   2.208  -0.935  0.00  0.00     0.020 A 
ATOM     13  C   UNL d   1      -1.594  -0.186  -2.317  0.00  0.00     0.054 A 
ATOM     14  N   UNL d   1       0.689  -0.658  -2.044  0.00  0.00    -0.351 N 
ATOM     15  C   UNL d   1      -2.707   0.632  -2.119  0.00  0.00     0.036 A 
ATOM     16  C   UNL d   1      -2.587   1.832  -1.428  0.00  0.00     0.025 A 
ATOM     17 CL   UNL d   1      -4.240   0.150  -2.732  0.00  0.00    -0.084 Cl
ATOM     18  C   UNL d   1       1.872  -0.301  -1.525  0.00  0.00     0.182 A 
ATOM     19  HN  UNL d   1       0.580  -1.520  -2.578  1.00  0.00     0.166 HD
ATOM     20  N   UNL d   1       2.115   0.793  -0.805  0.00  0.00    -0.332 N 
ATOM     21  HN  UNL d   1       3.025   0.975  -0.382  1.00  0.00     0.168 HD
ENDBRANCH   8   9
ENDBRANCH   3   8
BRANCH   4  22
ATOM     22  N   UNL d   1       6.277   5.157  -0.021  0.00  0.00    -0.322 N 
ATOM     23  C   UNL d   1       6.804   6.067   0.877  0.00  0.00     0.256 C 
ATOM     24  O   UNL d   1       6.177   6.619   1.778  0.00  0.00    -0.267 OA
ATOM     25  H   UNL d   1       6.861   4.825  -0.776  0.00  0.00     0.169 HD
BRANCH  23  26
ATOM     26  C   UNL d   1       8.249   6.408   0.741  0.00  0.00     0.032 A 
ATOM     27  C   UNL d   1       8.964   6.295  -0.457  0.00  0.00     0.017 A 
ATOM     28  C   UNL d   1      10.314   6.662  -0.497  0.00  0.00     0.001 A 
ATOM     29  C   UNL d   1      10.949   7.145   0.649  0.00  0.00     0.000 A 
ATOM     30  C   UNL d   1      10.240   7.266   1.841  0.00  0.00     0.001 A 
ATOM     31  C   UNL d   1       8.897   6.900   1.886  0.00  0.00     0.017 A 
ENDBRANCH  23  26
ENDBRANCH   4  22
TORSDOF 4
