REMARK  5 active torsions:
REMARK  status: ('A' for Active; 'I' for Inactive)
REMARK    1  A    between atoms: C_3  and  C_1 
REMARK    2  A    between atoms: N_9  and  C_2 
REMARK       I    between atoms: C_6  and  N_9 
REMARK       I    between atoms: N_11  and  C_6 
REMARK       I    between atoms: C_8  and  N_7 
REMARK    3  A    between atoms: O_22  and  C_8 
REMARK    4  A    between atoms: C_21  and  N_11 
REMARK    5  A    between atoms: C_24  and  O_22 
ROOT
ATOM      1  C   UNL d   1       0.942  -2.660   0.858  0.00  0.00     0.321 C 
ATOM      2  N   UNL d   1       0.804  -3.950   1.227  0.00  0.00    -0.306 N 
ATOM      3  N   UNL d   1       2.178  -2.136   0.683  0.00  0.00    -0.338 N 
ATOM      4  O   UNL d   1      -0.090  -2.046   0.605  0.00  0.00    -0.247 OA
ATOM      5  H   UNL d   1      -0.160  -4.223   1.060  0.00  0.00     0.170 HD
ATOM      6  H   UNL d   1       2.965  -2.764   0.718  0.00  0.00     0.164 HD
ENDROOT
BRANCH   2   7
ATOM      7  C   UNL d   1       1.612  -4.966   1.693  0.00  0.00     0.077 A 
ATOM      8  C   UNL d   1       2.833  -5.030   2.348  0.00  0.00     0.186 A 
ATOM      9  O   UNL d   1       3.148  -6.355   2.576  0.00  0.00    -0.308 OA
ATOM     10  C   UNL d   1       2.125  -7.122   2.127  0.00  0.00     0.052 A 
ATOM     11  C   UNL d   1       2.245  -8.583   2.293  0.00  0.00     0.077 C 
ATOM     12  C   UNL d   1       1.149  -6.316   1.601  0.00  0.00     0.064 A 
BRANCH   8  13
ATOM     13  C   UNL d   1       3.821  -4.096   2.940  0.00  0.00     0.441 C 
ATOM     14  F   UNL d   1       3.599  -2.794   2.645  0.00  0.00    -0.164 F 
ATOM     15  F   UNL d   1       3.849  -4.181   4.297  0.00  0.00    -0.164 F 
ATOM     16  F   UNL d   1       5.084  -4.363   2.509  0.00  0.00    -0.164 F 
ENDBRANCH   8  13
ENDBRANCH   2   7
BRANCH   3  17
ATOM     17  C   UNL d   1       2.409  -0.806   0.100  0.00  0.00     0.089 C 
ATOM     18  C   UNL d   1       1.974  -0.767  -1.369  0.00  0.00     0.045 C 
ATOM     19  C   UNL d   1       2.046   0.623  -1.983  0.00  0.00     0.130 C 
ATOM     20  N   UNL d   1       1.481   1.664  -1.141  0.00  0.00    -0.328 N 
ATOM     21  C   UNL d   1       1.894   1.677   0.258  0.00  0.00     0.130 C 
ATOM     22  C   UNL d   1       1.089   2.841  -1.780  0.00  0.00     0.362 C 
ATOM     23  C   UNL d   1       1.769   0.315   0.925  0.00  0.00     0.045 C 
ATOM     24  O   UNL d   1       1.036   2.970  -2.995  0.00  0.00    -0.238 OA
BRANCH  22  25
ATOM     25  O   UNL d   1       0.804   3.841  -0.900  0.00  0.00    -0.304 OA
BRANCH  25  26
ATOM     26  C   UNL d   1       0.499   5.122  -1.470  0.00  0.00     0.176 C 
ATOM     27  C   UNL d   1       1.767   5.953  -1.528  0.00  0.00     0.034 C 
ENDBRANCH  25  26
ENDBRANCH  22  25
ENDBRANCH   3  17
TORSDOF 5
