REMARK  3 active torsions:
REMARK  status: ('A' for Active; 'I' for Inactive)
REMARK    1  A    between atoms: C_6  and  C_1 
REMARK    2  A    between atoms: O_9  and  C_1 
REMARK    3  A    between atoms: C_5  and  C_6 
ROOT
ATOM      1  N   UNL d   1      -3.158  -0.663  -0.259  0.00  0.00    -0.373 N 
ATOM      2  HN  UNL d   1      -3.537  -1.609  -0.305  1.00  0.00     0.164 HD
ATOM      3  C   UNL d   1      -1.250   0.829  -0.156  0.00  0.00    -0.032 A 
ATOM      4  C   UNL d   1      -2.120   1.927  -0.107  0.00  0.00     0.029 A 
ATOM      5  C   UNL d   1      -3.496   1.720  -0.128  0.00  0.00     0.026 A 
ATOM      6 BR   UNL d   1      -4.686   3.179  -0.074  0.00  0.00    -0.050 Br
ATOM      7  C   UNL d   1      -1.824  -0.438  -0.256  0.00  0.00     0.095 A 
ATOM      8  C   UNL d   1      -3.967   0.420  -0.199  0.00  0.00     0.106 A 
ENDROOT
BRANCH   3   9
ATOM      9  C   UNL d   1       0.241   1.047  -0.199  0.00  0.00     0.149 C 
BRANCH   9  10
ATOM     10  C   UNL d   1       1.072  -0.030   0.456  0.00  0.00     0.143 C 
ATOM     11  O   UNL d   1       1.941  -0.663  -0.127  0.00  0.00    -0.650 OA
BRANCH  10  12
ATOM     12  O   UNL d   1       0.795  -0.226   1.765  0.00  0.00    -0.776 OA
ATOM     13  H   UNL d   1       0.076   0.336   2.115  0.00  0.00     0.167 HD
ENDBRANCH  10  12
ENDBRANCH   9  10
ENDBRANCH   3   9
TORSDOF 3
