REMARK  2 active torsions:
REMARK  status: ('A' for Active; 'I' for Inactive)
REMARK    1  A    between atoms: C_5  and  C_1 
REMARK    2  A    between atoms: C_8  and  C_7 
ROOT
ATOM      1  C   UNL d   1       1.116  -0.557   0.000  0.00  0.00     0.134 A 
ATOM      2  C   UNL d   1       1.084   0.818  -0.060  0.00  0.00     0.067 A 
ATOM      3  N   UNL d   1      -1.051   0.071   0.132  0.00  0.00    -0.300 N 
ATOM      4  HN  UNL d   1      -2.065   0.023   0.222  1.00  0.00     0.187 HD
ATOM      5  N   UNL d   1      -0.183  -0.951   0.096  0.00  0.00    -0.296 N 
ATOM      6  C   UNL d   1      -0.289   1.173   0.021  0.00  0.00     0.060 A 
ATOM      7  H   UNL d   1      -0.553  -1.896   0.152  0.00  0.00     0.187 HD
ENDROOT
BRANCH   6   8
ATOM      8  C   UNL d   1      -0.871   2.514   0.014  0.00  0.00    -0.005 A 
ATOM      9  C   UNL d   1      -0.233   3.569  -0.643  0.00  0.00     0.030 A 
ATOM     10  C   UNL d   1      -0.819   4.824  -0.601  0.00  0.00     0.088 A 
ATOM     11  N   UNL d   1      -1.974   5.093   0.042  0.00  0.00    -0.375 N 
ATOM     12  C   UNL d   1      -2.578   4.057   0.663  0.00  0.00     0.088 A 
ATOM     13  HN  UNL d   1      -2.371   6.032   0.059  1.00  0.00     0.164 HD
ATOM     14  C   UNL d   1      -2.075   2.767   0.674  0.00  0.00     0.030 A 
ENDBRANCH   6   8
BRANCH   1  15
ATOM     15  C   UNL d   1       2.203  -1.544  -0.015  0.00  0.00     0.434 C 
ATOM     16  F   UNL d   1       3.425  -0.964  -0.082  0.00  0.00    -0.165 F 
ATOM     17  F   UNL d   1       2.186  -2.317   1.098  0.00  0.00    -0.165 F 
ATOM     18  F   UNL d   1       2.096  -2.382  -1.075  0.00  0.00    -0.165 F 
ENDBRANCH   1  15
TORSDOF 2
