REMARK  6 active torsions:
REMARK  status: ('A' for Active; 'I' for Inactive)
REMARK    1  A    between atoms: C_8  and  C_1 
REMARK    2  A    between atoms: S_2  and  C_3 
REMARK    3  A    between atoms: C_6  and  S_2 
REMARK    4  A    between atoms: N_4  and  C_9 
REMARK    5  A    between atoms: C_10  and  C_5 
REMARK    6  A    between atoms: O_19  and  C_8 
REMARK       I    between atoms: N_18  and  C_10 
ROOT
ATOM      1  C   UNL d   1       3.695  -3.100  -0.737  0.00  0.00     0.059 A 
ATOM      2  C   UNL d   1       2.584  -2.389  -0.256  0.00  0.00     0.053 A 
ATOM      3  C   UNL d   1       4.949  -2.460  -0.837  0.00  0.00     0.055 A 
ATOM      4  C   UNL d   1       5.101  -1.135  -0.411  0.00  0.00     0.104 A 
ATOM      5  C   UNL d   1       2.770  -1.062   0.184  0.00  0.00     0.025 A 
ATOM      6  C   UNL d   1       4.013  -0.433   0.110  0.00  0.00     0.037 A 
ENDROOT
BRANCH   2   7
ATOM      7  S   UNL d   1       0.924  -3.046   0.008  0.00  0.00     0.087 S 
ATOM      8  O   UNL d   1       1.189  -4.192   0.948  0.00  0.00    -0.247 OA
BRANCH   7   9
ATOM      9  C   UNL d   1       0.566  -3.826  -1.595  0.00  0.00     0.052 A 
ATOM     10  C   UNL d   1       0.762  -3.253  -2.863  0.00  0.00     0.051 A 
ATOM     11  C   UNL d   1       0.409  -3.978  -4.021  0.00  0.00     0.018 A 
ATOM     12  C   UNL d   1      -0.153  -5.250  -3.928  0.00  0.00     0.001 A 
ATOM     13  C   UNL d   1      -0.387  -5.808  -2.681  0.00  0.00     0.002 A 
ATOM     14  C   UNL d   1      -0.036  -5.101  -1.531  0.00  0.00     0.022 A 
BRANCH  10  15
ATOM     15  C   UNL d   1       1.241  -1.861  -3.056  0.00  0.00     0.252 C 
ATOM     16  O   UNL d   1       0.859  -0.969  -2.309  0.00  0.00    -0.268 OA
ATOM     17  N   UNL d   1       2.110  -1.669  -4.109  0.00  0.00    -0.361 N 
ATOM     18  C   UNL d   1       2.609  -0.363  -4.460  0.00  0.00     0.149 C 
ATOM     19  H   UNL d   1       2.512  -2.472  -4.579  0.00  0.00     0.162 HD
ENDBRANCH  10  15
ENDBRANCH   7   9
ENDBRANCH   2   7
BRANCH   1  20
ATOM     20  C   UNL d   1       3.664  -4.496  -1.223  0.00  0.00     0.177 C 
ATOM     21  O   UNL d   1       4.207  -4.802  -2.273  0.00  0.00    -0.646 OA
BRANCH  20  22
ATOM     22  O   UNL d   1       3.103  -5.393  -0.394  0.00  0.00    -0.773 OA
ATOM     23  H   UNL d   1       2.594  -5.039   0.374  0.00  0.00     0.167 HD
ENDBRANCH  20  22
ENDBRANCH   1  20
BRANCH   4  24
ATOM     24  N   UNL d   1       6.410  -0.471  -0.506  0.00  0.00    -0.116 N 
ATOM     25  O   UNL d   1       7.350  -1.126  -0.974  0.00  0.00    -0.532 OA
ATOM     26  O   UNL d   1       6.491   0.698  -0.114  0.00  0.00    -0.532 OA
ENDBRANCH   4  24
TORSDOF 6
