REMARK  8 active torsions:
REMARK  status: ('A' for Active; 'I' for Inactive)
REMARK    1  A    between atoms: C_10  and  C_3 
REMARK    2  A    between atoms: C_17  and  N_4 
REMARK    3  A    between atoms: C_19  and  C_5 
REMARK    4  A    between atoms: C_7  and  C_8 
REMARK       I    between atoms: C_8  and  N_11 
REMARK    5  A    between atoms: N_11  and  C_9 
REMARK    6  A    between atoms: C_12  and  C_9 
REMARK       I    between atoms: N_15  and  C_12 
REMARK    7  A    between atoms: C_23  and  N_15 
REMARK    8  A    between atoms: C_26  and  C_23 
ROOT
ATOM      1  C   UNL d   1      -1.975   2.978  -0.385  0.00  0.00     0.104 C 
ATOM      2  C   UNL d   1      -0.728   2.765  -0.847  0.00  0.00     0.050 C 
ENDROOT
BRANCH   1   3
ATOM      3  N   UNL d   1      -2.920   1.952  -0.286  0.00  0.00    -0.318 N 
ATOM      4  C   UNL d   1      -2.846   0.630  -0.671  0.00  0.00     0.258 C 
ATOM      5  O   UNL d   1      -1.976   0.127  -1.372  0.00  0.00    -0.267 OA
ATOM      6  H   UNL d   1      -3.745   2.244   0.242  0.00  0.00     0.169 HD
BRANCH   4   7
ATOM      7  C   UNL d   1      -3.983  -0.232  -0.251  0.00  0.00     0.054 A 
ATOM      8  C   UNL d   1      -4.534  -0.239   1.039  0.00  0.00     0.051 A 
ATOM      9  C   UNL d   1      -5.606  -1.088   1.338  0.00  0.00     0.048 A 
ATOM     10 CL   UNL d   1      -3.918   0.725   2.333  0.00  0.00    -0.083 Cl
ATOM     11  C   UNL d   1      -6.117  -1.938   0.359  0.00  0.00     0.035 A 
ATOM     12  C   UNL d   1      -5.561  -1.959  -0.917  0.00  0.00     0.025 A 
ATOM     13 CL   UNL d   1      -7.434  -2.977   0.733  0.00  0.00    -0.084 Cl
ATOM     14  C   UNL d   1      -4.494  -1.111  -1.221  0.00  0.00     0.020 A 
ENDBRANCH   4   7
ENDBRANCH   1   3
BRANCH   1  15
ATOM     15  C   UNL d   1      -2.535   4.261   0.188  0.00  0.00     0.268 C 
ATOM     16  N   UNL d   1      -2.048   5.470  -0.231  0.00  0.00    -0.351 N 
ATOM     17  H   UNL d   1      -1.305   5.526  -0.913  0.00  0.00     0.163 HD
ATOM     18  O   UNL d   1      -3.514   4.175   0.936  0.00  0.00    -0.266 OA
BRANCH  16  19
ATOM     19  C   UNL d   1      -2.711   6.672   0.231  0.00  0.00     0.161 C 
BRANCH  19  20
ATOM     20  C   UNL d   1      -2.070   7.975  -0.170  0.00  0.00    -0.041 A 
ATOM     21  C   UNL d   1      -1.570   8.211  -1.457  0.00  0.00     0.009 A 
ATOM     22  C   UNL d   1      -1.045   9.463  -1.795  0.00  0.00     0.001 A 
ATOM     23  C   UNL d   1      -1.035  10.498  -0.861  0.00  0.00     0.000 A 
ATOM     24  C   UNL d   1      -1.559  10.290   0.410  0.00  0.00     0.001 A 
ATOM     25  C   UNL d   1      -2.076   9.039   0.751  0.00  0.00     0.009 A 
ENDBRANCH  19  20
ENDBRANCH  16  19
ENDBRANCH   1  15
BRANCH   2  26
ATOM     26  C   UNL d   1       0.457   3.560  -0.828  0.00  0.00     0.013 C 
ATOM     27  C   UNL d   1       1.575   3.488  -1.718  0.00  0.00     0.070 C 
ATOM     28  N   UNL d   1       2.628   4.134  -1.188  0.00  0.00    -0.293 N 
ATOM     29  N   UNL d   1       2.212   4.581   0.027  0.00  0.00    -0.266 N 
ATOM     30  HN  UNL d   1       3.548   4.263  -1.610  1.00  0.00     0.187 HD
ATOM     31  C   UNL d   1       0.862   4.370   0.202  0.00  0.00     0.130 C 
BRANCH  27  32
ATOM     32  C   UNL d   1       1.650   2.773  -3.001  0.00  0.00    -0.007 A 
ATOM     33  C   UNL d   1       0.525   2.690  -3.841  0.00  0.00     0.014 A 
ATOM     34  C   UNL d   1       0.561   1.944  -5.021  0.00  0.00     0.001 A 
ATOM     35  C   UNL d   1       1.728   1.284  -5.393  0.00  0.00     0.000 A 
ATOM     36  C   UNL d   1       2.863   1.386  -4.588  0.00  0.00     0.001 A 
ATOM     37  C   UNL d   1       2.828   2.125  -3.402  0.00  0.00     0.014 A 
ENDBRANCH  27  32
BRANCH  29  38
ATOM     38  C   UNL d   1       3.119   5.079   1.008  0.00  0.00     0.056 A 
ATOM     39  C   UNL d   1       4.503   4.992   0.797  0.00  0.00     0.031 A 
ATOM     40  C   UNL d   1       5.393   5.366   1.811  0.00  0.00     0.002 A 
ATOM     41  C   UNL d   1       4.911   5.842   3.030  0.00  0.00     0.000 A 
ATOM     42  C   UNL d   1       3.540   5.960   3.237  0.00  0.00     0.002 A 
ATOM     43  C   UNL d   1       2.647   5.582   2.232  0.00  0.00     0.031 A 
ENDBRANCH  29  38
ENDBRANCH   2  26
TORSDOF 8
