REMARK  8 active torsions:
REMARK  status: ('A' for Active; 'I' for Inactive)
REMARK    1  A    between atoms: N_3  and  N_2 
REMARK    2  A    between atoms: C_14  and  C_5 
REMARK    3  A    between atoms: C_21  and  N_8 
REMARK    4  A    between atoms: O_25  and  C_10 
REMARK    5  A    between atoms: O_26  and  C_12 
REMARK    6  A    between atoms: O_27  and  C_13 
REMARK    7  A    between atoms: C_18  and  C_14 
REMARK    8  A    between atoms: O_29  and  C_16 
ROOT
ATOM      1  C   UNL d   1       0.022   0.684  -0.050  0.00  0.00    -0.024 A 
ATOM      2  N   UNL d   1       2.445   0.614   0.395  0.00  0.00    -0.304 N 
ATOM      3  C   UNL d   1       1.375   1.327  -0.333  0.00  0.00     0.141 C 
ATOM      4  C   UNL d   1      -0.069  -0.714  -0.020  0.00  0.00    -0.045 A 
ATOM      5  C   UNL d   1      -1.143   1.455   0.098  0.00  0.00     0.049 A 
ATOM      6  C   UNL d   1      -2.405   0.855   0.234  0.00  0.00     0.102 A 
ATOM      7  C   UNL d   1      -1.321  -1.319   0.081  0.00  0.00     0.047 A 
ATOM      8  C   UNL d   1      -2.492  -0.551   0.208  0.00  0.00     0.102 A 
ATOM      9  C   UNL d   1       2.317  -0.823   0.672  0.00  0.00     0.149 C 
ATOM     10  C   UNL d   1       1.204  -1.510  -0.129  0.00  0.00     0.060 C 
ENDROOT
BRANCH   2  11
ATOM     11  N   UNL d   1       3.474   1.371   0.900  0.00  0.00    -0.244 N 
ATOM     12  N   UNL d   1       4.215   0.741   1.684  0.00  0.00    -0.287 N 
ATOM     13  HN  UNL d   1       4.021  -0.208   2.006  1.00  0.00     0.188 HD
ATOM     14  HN  UNL d   1       3.618   2.351   0.659  1.00  0.00     0.208 HD
BRANCH  12  15
ATOM     15  C   UNL d   1       5.350   1.485   2.075  0.00  0.00     0.052 A 
ATOM     16  C   UNL d   1       5.326   2.857   2.347  0.00  0.00     0.073 A 
ATOM     17  C   UNL d   1       6.504   3.521   2.690  0.00  0.00     0.118 A 
ATOM     18  F   UNL d   1       6.472   4.840   2.923  0.00  0.00    -0.206 F 
ATOM     19  C   UNL d   1       7.716   2.845   2.788  0.00  0.00     0.042 A 
ATOM     20  C   UNL d   1       7.746   1.471   2.562  0.00  0.00     0.005 A 
ATOM     21  C   UNL d   1       6.569   0.801   2.215  0.00  0.00     0.031 A 
ENDBRANCH  12  15
ENDBRANCH   2  11
BRANCH   3  22
ATOM     22  C   UNL d   1       1.685   1.361  -1.858  0.00  0.00     0.070 C 
BRANCH  22  23
ATOM     23  C   UNL d   1       0.677   2.140  -2.677  0.00  0.00    -0.053 A 
ATOM     24  C   UNL d   1       0.832   3.522  -2.842  0.00  0.00     0.046 A 
ATOM     25  C   UNL d   1      -0.149   4.296  -3.487  0.00  0.00     0.102 A 
ATOM     26  C   UNL d   1      -1.290   3.661  -4.002  0.00  0.00     0.101 A 
ATOM     27  C   UNL d   1      -1.435   2.276  -3.853  0.00  0.00     0.040 A 
ATOM     28  C   UNL d   1      -0.456   1.518  -3.209  0.00  0.00     0.010 A 
BRANCH  25  29
ATOM     29  O   UNL d   1      -0.064   5.661  -3.592  0.00  0.00    -0.353 OA
ATOM     30  C   UNL d   1       1.092   6.298  -3.063  0.00  0.00     0.210 C 
ENDBRANCH  25  29
BRANCH  26  31
ATOM     31  O   UNL d   1      -2.374   4.253  -4.600  0.00  0.00    -0.353 OA
ATOM     32  C   UNL d   1      -2.126   5.418  -5.375  0.00  0.00     0.210 C 
ENDBRANCH  26  31
ENDBRANCH  22  23
ENDBRANCH   3  22
BRANCH   6  33
ATOM     33  O   UNL d   1      -3.560   1.575   0.376  0.00  0.00    -0.353 OA
ATOM     34  C   UNL d   1      -3.480   2.994   0.394  0.00  0.00     0.210 C 
ENDBRANCH   6  33
BRANCH   8  35
ATOM     35  O   UNL d   1      -3.609  -1.343   0.293  0.00  0.00    -0.353 OA
ATOM     36  C   UNL d   1      -4.878  -0.729   0.451  0.00  0.00     0.210 C 
ENDBRANCH   8  35
TORSDOF 8
