REMARK  3 active torsions:
REMARK  status: ('A' for Active; 'I' for Inactive)
REMARK    1  A    between atoms: C_2  and  C_1 
REMARK       I    between atoms: N_3  and  C_1 
REMARK    2  A    between atoms: C_12  and  N_3 
REMARK    3  A    between atoms: O_15  and  C_7 
ROOT
ATOM      1  N   UNL d   1      -3.354   1.826   1.625  0.00  0.00    -0.345 N 
ATOM      2  HN  UNL d   1      -3.863   2.663   1.912  1.00  0.00     0.167 HD
ATOM      3  C   UNL d   1      -3.995   0.687   1.304  0.00  0.00     0.141 A 
ATOM      4  C   UNL d   1      -1.245   0.706   1.159  0.00  0.00     0.050 A 
ATOM      5  C   UNL d   1      -2.001   1.810   1.549  0.00  0.00     0.119 A 
ATOM      6  C   UNL d   1      -3.342  -0.470   0.912  0.00  0.00     0.058 A 
ATOM      7  C   UNL d   1      -1.947  -0.455   0.831  0.00  0.00     0.035 A 
ENDROOT
BRANCH   4   8
ATOM      8  N   UNL d   1       0.163   0.694   1.048  0.00  0.00    -0.321 N 
ATOM      9  C   UNL d   1       1.026   1.706   1.437  0.00  0.00     0.263 C 
ATOM     10  O   UNL d   1       0.663   2.713   2.040  0.00  0.00    -0.267 OA
ATOM     11  H   UNL d   1       0.592  -0.134   0.654  0.00  0.00     0.169 HD
BRANCH   9  12
ATOM     12  C   UNL d   1       2.433   1.507   1.099  0.00  0.00     0.072 A 
ATOM     13  S   UNL d   1       2.999   0.175   0.183  0.00  0.00    -0.097 SA
ATOM     14  C   UNL d   1       4.613   0.745   0.223  0.00  0.00     0.050 A 
ATOM     15  C   UNL d   1       4.729   1.919   0.931  0.00  0.00     0.009 A 
ATOM     16  C   UNL d   1       3.473   2.355   1.437  0.00  0.00     0.025 A 
ENDBRANCH   9  12
ENDBRANCH   4   8
BRANCH   3  17
ATOM     17  O   UNL d   1      -5.373   0.640   1.356  0.00  0.00    -0.341 OA
ATOM     18  C   UNL d   1      -5.952   1.899   1.690  0.00  0.00     0.211 C 
ENDBRANCH   3  17
TORSDOF 3
