REMARK  5 active torsions:
REMARK  status: ('A' for Active; 'I' for Inactive)
REMARK       I    between atoms: C_2  and  N_1 
REMARK    1  A    between atoms: C_3  and  N_1 
REMARK    2  A    between atoms: C_7  and  C_2 
REMARK    3  A    between atoms: N_5  and  C_3 
REMARK    4  A    between atoms: C_11  and  N_5 
REMARK    5  A    between atoms: C_10  and  C_11 
ROOT
ATOM      1  C   UNL d   1       2.356   0.064  -0.093  0.00  0.00     0.174 C 
ATOM      2  S   UNL d   1       3.164   1.340  -0.797  0.00  0.00    -0.041 SA
ENDROOT
BRANCH   1   3
ATOM      3  N   UNL d   1       1.004  -0.052   0.160  0.00  0.00    -0.300 N 
ATOM      4  C   UNL d   1       0.033   0.946   0.170  0.00  0.00     0.257 C 
ATOM      5  O   UNL d   1       0.267   2.149   0.239  0.00  0.00    -0.267 OA
ATOM      6  H   UNL d   1       0.674  -1.000   0.086  0.00  0.00     0.171 HD
BRANCH   4   7
ATOM      7  C   UNL d   1      -1.394   0.502   0.197  0.00  0.00     0.032 A 
ATOM      8  C   UNL d   1      -1.802  -0.773   0.617  0.00  0.00     0.017 A 
ATOM      9  C   UNL d   1      -3.163  -1.095   0.660  0.00  0.00     0.001 A 
ATOM     10  C   UNL d   1      -4.122  -0.150   0.295  0.00  0.00     0.000 A 
ATOM     11  C   UNL d   1      -3.726   1.119  -0.119  0.00  0.00     0.001 A 
ATOM     12  C   UNL d   1      -2.369   1.443  -0.168  0.00  0.00     0.017 A 
ENDBRANCH   4   7
ENDBRANCH   1   3
BRANCH   1  13
ATOM     13  N   UNL d   1       3.113  -1.012   0.294  0.00  0.00    -0.363 N 
ATOM     14  H   UNL d   1       4.105  -0.879   0.126  0.00  0.00     0.162 HD
BRANCH  13  15
ATOM     15  C   UNL d   1       2.755  -2.020   1.280  0.00  0.00     0.162 C 
BRANCH  15  16
ATOM     16  C   UNL d   1       2.003  -3.179   0.697  0.00  0.00    -0.025 A 
ATOM     17  C   UNL d   1       1.092  -3.885   1.478  0.00  0.00     0.096 A 
ATOM     18  N   UNL d   1       0.379  -4.946   1.041  0.00  0.00    -0.375 N 
ATOM     19  C   UNL d   1       0.605  -5.352  -0.226  0.00  0.00     0.087 A 
ATOM     20  HN  UNL d   1      -0.299  -5.417   1.641  1.00  0.00     0.164 HD
ATOM     21  C   UNL d   1       1.505  -4.739  -1.079  0.00  0.00     0.018 A 
ATOM     22  C   UNL d   1       2.215  -3.640  -0.607  0.00  0.00     0.011 A 
ENDBRANCH  15  16
ENDBRANCH  13  15
ENDBRANCH   1  13
TORSDOF 5
