REMARK  4 active torsions:
REMARK  status: ('A' for Active; 'I' for Inactive)
REMARK    1  A    between atoms: S_12  and  C_2 
REMARK    2  A    between atoms: S_13  and  C_3 
REMARK    3  A    between atoms: C_15  and  S_12 
REMARK    4  A    between atoms: C_14  and  S_13 
ROOT
ATOM      1  N   UNL d   1      -1.296  -2.663  -3.405  0.00  0.00    -0.197 NA
ATOM      2  C   UNL d   1      -1.254  -3.047  -2.312  0.00  0.00     0.069 C 
ATOM      3  C   UNL d   1      -1.183  -3.536  -0.925  0.00  0.00     0.205 C 
ENDROOT
BRANCH   3   4
ATOM      4  S   UNL d   1       0.265  -2.902  -0.020  0.00  0.00    -0.089 SA
BRANCH   4   5
ATOM      5  C   UNL d   1      -0.066  -1.184  -0.025  0.00  0.00     0.130 A 
ATOM      6  S   UNL d   1       1.172   0.001  -0.028  0.00  0.00    -0.038 SA
ATOM      7  C   UNL d   1      -0.068   1.184  -0.011  0.00  0.00     0.130 A 
ATOM      8  N   UNL d   1      -1.288   0.692  -0.007  0.00  0.00    -0.287 N 
ATOM      9  N   UNL d   1      -1.287  -0.694  -0.012  0.00  0.00    -0.287 N 
ATOM     10  HN  UNL d   1      -2.133   1.262  -0.001  1.00  0.00     0.188 HD
ATOM     11  HN  UNL d   1      -2.132  -1.265  -0.006  1.00  0.00     0.188 HD
BRANCH   7  12
ATOM     12  S   UNL d   1       0.261   2.902  -0.017  0.00  0.00    -0.089 SA
BRANCH  12  13
ATOM     13  C   UNL d   1      -1.182   3.540   0.894  0.00  0.00     0.205 C 
ATOM     14  C   UNL d   1      -1.246   3.062   2.286  0.00  0.00     0.069 C 
ATOM     15  N   UNL d   1      -1.287   2.691   3.388  0.00  0.00    -0.197 NA
ENDBRANCH  12  13
ENDBRANCH   7  12
ENDBRANCH   4   5
ENDBRANCH   3   4
TORSDOF 4
