REMARK  6 active torsions:
REMARK  status: ('A' for Active; 'I' for Inactive)
REMARK    1  A    between atoms: C_9  and  C_1 
REMARK       I    between atoms: C_2  and  N_6 
REMARK    2  A    between atoms: C_11  and  C_2 
REMARK    3  A    between atoms: N_6  and  N_3 
REMARK    4  A    between atoms: O_17  and  C_5 
REMARK    5  A    between atoms: N_10  and  C_11 
REMARK    6  A    between atoms: C_14  and  N_10 
ROOT
ATOM      1  C   UNL d   1       2.252  -6.322   0.003  0.00  0.00     0.249 C 
ATOM      2  N   UNL d   1       2.828  -5.055  -0.056  0.00  0.00    -0.269 N 
ATOM      3  O   UNL d   1       1.050  -6.569   0.050  0.00  0.00    -0.270 OA
ATOM      4  H   UNL d   1       3.781  -4.968   0.291  0.00  0.00     0.190 HD
ENDROOT
BRANCH   2   5
ATOM      5  N   UNL d   1       2.131  -3.867  -0.078  0.00  0.00    -0.308 N 
ATOM      6  C   UNL d   1       0.977  -3.863  -0.674  0.00  0.00     0.121 C 
ATOM      7  HN  UNL d   1       2.506  -3.024   0.356  1.00  0.00     0.186 HD
BRANCH   6   8
ATOM      8  C   UNL d   1       0.109  -2.671  -0.739  0.00  0.00     0.015 A 
ATOM      9  C   UNL d   1      -0.864  -2.459  -1.731  0.00  0.00     0.080 A 
ATOM     10  C   UNL d   1      -1.692  -1.328  -1.616  0.00  0.00     0.039 A 
ATOM     11  C   UNL d   1      -1.570  -0.430  -0.555  0.00  0.00     0.022 A 
ATOM     12  C   UNL d   1      -0.599  -0.648   0.412  0.00  0.00     0.011 A 
ATOM     13  C   UNL d   1       0.242  -1.754   0.323  0.00  0.00     0.034 A 
ATOM     14 BR   UNL d   1      -0.444   0.544   1.870  0.00  0.00    -0.051 Br
BRANCH   9  15
ATOM     15  O   UNL d   1      -1.186  -3.174  -2.849  0.00  0.00    -0.355 OA
ATOM     16  C   UNL d   1      -0.391  -4.247  -3.317  0.00  0.00     0.210 C 
ENDBRANCH   9  15
ENDBRANCH   6   8
ENDBRANCH   2   5
BRANCH   1  17
ATOM     17  C   UNL d   1       3.287  -7.446   0.056  0.00  0.00     0.197 C 
BRANCH  17  18
ATOM     18  N   UNL d   1       3.749  -7.624   1.433  0.00  0.00    -0.284 NA
ATOM     19  H   UNL d   1       3.014  -7.406   2.108  0.00  0.00     0.128 HD
BRANCH  18  20
ATOM     20  C   UNL d   1       4.356  -8.843   1.775  0.00  0.00     0.008 A 
ATOM     21  C   UNL d   1       4.965  -9.700   0.851  0.00  0.00     0.023 A 
ATOM     22  C   UNL d   1       5.599 -10.876   1.267  0.00  0.00     0.002 A 
ATOM     23  C   UNL d   1       5.667 -11.194   2.620  0.00  0.00     0.000 A 
ATOM     24  C   UNL d   1       5.110 -10.331   3.558  0.00  0.00     0.002 A 
ATOM     25  C   UNL d   1       4.472  -9.162   3.136  0.00  0.00     0.023 A 
ENDBRANCH  18  20
ENDBRANCH  17  18
ENDBRANCH   1  17
TORSDOF 6
