REMARK  7 active torsions:
REMARK  status: ('A' for Active; 'I' for Inactive)
REMARK    1  A    between atoms: C_5  and  N_1 
REMARK    2  A    between atoms: O_14  and  C_2 
REMARK    3  A    between atoms: O_17  and  C_3 
REMARK    4  A    between atoms: O_18  and  C_4 
REMARK    5  A    between atoms: C_10  and  C_16 
REMARK    6  A    between atoms: O_13  and  C_15 
REMARK    7  A    between atoms: C_16  and  O_13 
ROOT
ATOM      1  C   UNL d   1      -3.635  -1.438  -9.396  0.00  0.00     0.135 A 
ATOM      2  C   UNL d   1      -3.351  -0.274  -8.642  0.00  0.00     0.104 A 
ATOM      3  C   UNL d   1      -3.281  -2.698  -8.881  0.00  0.00     0.104 A 
ATOM      4  C   UNL d   1      -2.593  -2.772  -7.661  0.00  0.00     0.049 A 
ATOM      5  C   UNL d   1      -2.616  -0.376  -7.455  0.00  0.00     0.049 A 
ATOM      6  C   UNL d   1      -2.248  -1.623  -6.945  0.00  0.00    -0.029 A 
ENDROOT
BRANCH   6   7
ATOM      7  C   UNL d   1      -1.464  -1.721  -5.665  0.00  0.00     0.214 C 
BRANCH   7   8
ATOM      8  O   UNL d   1      -0.084  -1.593  -5.998  0.00  0.00    -0.347 OA
BRANCH   8   9
ATOM      9  C   UNL d   1       0.812  -1.628  -4.969  0.00  0.00     0.069 A 
ATOM     10  C   UNL d   1       2.151  -1.523  -5.364  0.00  0.00     0.039 A 
ATOM     11  C   UNL d   1       3.178  -1.545  -4.418  0.00  0.00     0.039 A 
ATOM     12  C   UNL d   1       2.857  -1.670  -3.062  0.00  0.00     0.103 A 
ATOM     13  C   UNL d   1       1.518  -1.775  -2.657  0.00  0.00     0.039 A 
ATOM     14  C   UNL d   1       0.497  -1.756  -3.613  0.00  0.00     0.039 A 
BRANCH  12  15
ATOM     15  N   UNL d   1       3.923  -1.692  -2.059  0.00  0.00    -0.116 N 
ATOM     16  O   UNL d   1       3.594  -1.823  -0.870  0.00  0.00    -0.532 OA
ATOM     17  O   UNL d   1       5.093  -1.581  -2.454  0.00  0.00    -0.532 OA
ENDBRANCH  12  15
ENDBRANCH   8   9
ENDBRANCH   7   8
ENDBRANCH   6   7
BRANCH   3  18
ATOM     18  O   UNL d   1      -3.505  -3.945  -9.401  0.00  0.00    -0.353 OA
ATOM     19  C   UNL d   1      -4.188  -4.074 -10.636  0.00  0.00     0.210 C 
ENDBRANCH   3  18
BRANCH   2  20
ATOM     20  O   UNL d   1      -3.832   0.924  -9.118  0.00  0.00    -0.353 OA
ATOM     21  C   UNL d   1      -3.895   2.002  -8.191  0.00  0.00     0.210 C 
ENDBRANCH   2  20
BRANCH   1  22
ATOM     22  O   UNL d   1      -4.347  -1.369 -10.568  0.00  0.00    -0.351 OA
ATOM     23  C   UNL d   1      -3.793  -0.500 -11.558  0.00  0.00     0.210 C 
ENDBRANCH   1  22
TORSDOF 7
