REMARK  4 active torsions:
REMARK  status: ('A' for Active; 'I' for Inactive)
REMARK    1  A    between atoms: C_3  and  C_1 
REMARK    2  A    between atoms: C_9  and  C_1 
REMARK    3  A    between atoms: C_7  and  C_2 
REMARK    4  A    between atoms: N_4  and  C_3 
ROOT
ATOM      1  C   UNL d   1       1.072  -0.020   0.066  0.00  0.00     0.073 C 
ATOM      2  C   UNL d   1       0.388   0.803   0.885  0.00  0.00     0.044 C 
ENDROOT
BRANCH   1   3
ATOM      3  C   UNL d   1       2.592  -0.020   0.066  0.00  0.00    -0.033 C 
BRANCH   3   4
ATOM      4  N   UNL d   1       3.853  -0.020   0.066  0.00  0.00    -0.365 N 
ATOM      5  HN2 UNL d   1       2.833  -0.020   0.066  1.00  0.00     0.165 HD
ATOM      6  HN1 UNL d   1       4.873  -0.020   0.066  1.00  0.00     0.165 HD
ENDBRANCH   3   4
ENDBRANCH   1   3
BRANCH   1   7
ATOM      7  C   UNL d   1       0.311  -0.924  -0.844  0.00  0.00     0.165 C 
ATOM      8  O   UNL d   1      -0.921  -0.939  -0.824  0.00  0.00    -0.292 OA
ATOM      9  C   UNL d   1       1.052  -1.810  -1.817  0.00  0.00     0.097 C 
ENDBRANCH   1   7
BRANCH   2  10
ATOM     10  C   UNL d   1       1.056   1.708   1.757  0.00  0.00     0.006 A 
ATOM     11  S   UNL d   1       1.512   1.215   3.341  0.00  0.00    -0.102 SA
ATOM     12  C   UNL d   1       2.277   2.710   3.661  0.00  0.00     0.050 A 
ATOM     13  C   UNL d   1       2.153   3.589   2.611  0.00  0.00     0.008 A 
ATOM     14  C   UNL d   1       1.437   3.016   1.519  0.00  0.00     0.019 A 
ENDBRANCH   2  10
TORSDOF 4
