REMARK  4 active torsions:
REMARK  status: ('A' for Active; 'I' for Inactive)
REMARK    1  A    between atoms: C_4  and  N_1 
REMARK    2  A    between atoms: C_7  and  C_2 
REMARK    3  A    between atoms: C_5  and  C_7 
REMARK    4  A    between atoms: N_14  and  C_9 
ROOT
ATOM      1  C   UNL d   1      -1.216  -3.086  -1.629  0.00  0.00     0.036 A 
ATOM      2  C   UNL d   1       0.172  -3.309  -1.565  0.00  0.00     0.050 A 
ATOM      3  C   UNL d   1       0.471  -1.198  -0.418  0.00  0.00     0.104 A 
ATOM      4  C   UNL d   1       1.015  -2.370  -0.954  0.00  0.00     0.060 A 
ATOM      5  C   UNL d   1      -1.745  -1.903  -1.086  0.00  0.00     0.020 A 
ATOM      6  C   UNL d   1      -0.905  -0.952  -0.497  0.00  0.00     0.037 A 
ATOM      7 CL   UNL d   1       0.939  -4.701  -2.247  0.00  0.00    -0.083 Cl
ENDROOT
BRANCH   1   8
ATOM      8  C   UNL d   1      -2.138  -4.146  -2.101  0.00  0.00     0.185 C 
ATOM      9  O   UNL d   1      -1.967  -5.301  -1.714  0.00  0.00    -0.287 OA
BRANCH   8  10
ATOM     10  C   UNL d   1      -3.333  -3.861  -2.941  0.00  0.00     0.072 C 
ATOM     11  C   UNL d   1      -3.640  -2.746  -3.616  0.00  0.00     0.088 C 
BRANCH  11  12
ATOM     12  N   UNL d   1      -4.769  -2.477  -4.384  0.00  0.00    -0.398 N 
ATOM     13  C   UNL d   1      -5.817  -3.454  -4.695  0.00  0.00     0.148 C 
ATOM     14  C   UNL d   1      -5.026  -1.152  -4.953  0.00  0.00     0.148 C 
ENDBRANCH  11  12
ENDBRANCH   8  10
ENDBRANCH   1   8
BRANCH   3  15
ATOM     15  N   UNL d   1       1.349  -0.226   0.247  0.00  0.00    -0.116 N 
ATOM     16  O   UNL d   1       2.554  -0.497   0.327  0.00  0.00    -0.532 OA
ATOM     17  O   UNL d   1       0.830   0.810   0.686  0.00  0.00    -0.532 OA
ENDBRANCH   3  15
TORSDOF 4
