REMARK  6 active torsions:
REMARK  status: ('A' for Active; 'I' for Inactive)
REMARK    1  A    between atoms: C_2  and  S_1 
REMARK    2  A    between atoms: N_3  and  S_1 
REMARK    3  A    between atoms: C_6  and  N_3 
REMARK       I    between atoms: C_7  and  N_12 
REMARK    4  A    between atoms: C_15  and  C_7 
REMARK    5  A    between atoms: C_16  and  C_8 
REMARK    6  A    between atoms: N_12  and  C_16 
ROOT
ATOM      1  C   UNL d   1       0.193   0.444  -1.623  0.00  0.00     0.116 A 
ATOM      2  S   UNL d   1       0.266   2.030  -2.261  0.00  0.00    -0.080 SA
ATOM      3  C   UNL d   1      -0.275  -0.455  -2.564  0.00  0.00     0.033 A 
ATOM      4  C   UNL d   1      -0.304   1.523  -3.793  0.00  0.00     0.002 A 
ATOM      5  C   UNL d   1      -0.566   0.168  -3.812  0.00  0.00     0.018 A 
ENDROOT
BRANCH   1   6
ATOM      6  S   UNL d   1       0.720   0.224   0.064  0.00  0.00     0.252 S 
ATOM      7  O   UNL d   1       1.580   1.339   0.395  0.00  0.00    -0.205 OA
ATOM      8  O   UNL d   1       1.218  -1.135   0.110  0.00  0.00    -0.205 OA
BRANCH   6   9
ATOM      9  N   UNL d   1      -0.638   0.251   1.090  0.00  0.00    -0.179 NA
ATOM     10  H   UNL d   1      -0.298  -0.026   2.015  0.00  0.00     0.146 HD
BRANCH   9  11
ATOM     11  C   UNL d   1      -1.385   1.477   1.148  0.00  0.00     0.044 A 
ATOM     12  C   UNL d   1      -1.088   2.500   2.061  0.00  0.00     0.056 A 
ATOM     13 CL   UNL d   1       0.182   2.335   3.219  0.00  0.00    -0.082 Cl
ATOM     14  C   UNL d   1      -1.864   3.662   2.088  0.00  0.00     0.026 A 
ATOM     15  C   UNL d   1      -2.937   3.807   1.206  0.00  0.00     0.002 A 
ATOM     16  C   UNL d   1      -3.226   2.797   0.289  0.00  0.00     0.002 A 
ATOM     17  C   UNL d   1      -2.449   1.637   0.255  0.00  0.00     0.026 A 
ENDBRANCH   9  11
ENDBRANCH   6   9
ENDBRANCH   1   6
BRANCH   4  18
ATOM     18  C   UNL d   1      -0.454   2.507  -4.910  0.00  0.00     0.169 C 
BRANCH  18  19
ATOM     19  N   UNL d   1      -1.758   3.119  -4.822  0.00  0.00    -0.352 N 
ATOM     20  C   UNL d   1      -2.847   2.616  -5.501  0.00  0.00     0.251 C 
ATOM     21  O   UNL d   1      -2.802   1.626  -6.225  0.00  0.00    -0.268 OA
ATOM     22  H   UNL d   1      -1.906   3.778  -4.070  0.00  0.00     0.163 HD
BRANCH  20  23
ATOM     23  C   UNL d   1      -4.130   3.336  -5.284  0.00  0.00     0.032 A 
ATOM     24  C   UNL d   1      -4.162   4.713  -5.022  0.00  0.00     0.017 A 
ATOM     25  C   UNL d   1      -5.384   5.361  -4.829  0.00  0.00     0.001 A 
ATOM     26  C   UNL d   1      -6.575   4.639  -4.904  0.00  0.00     0.000 A 
ATOM     27  C   UNL d   1      -6.550   3.272  -5.182  0.00  0.00     0.001 A 
ATOM     28  C   UNL d   1      -5.330   2.621  -5.378  0.00  0.00     0.017 A 
ENDBRANCH  20  23
ENDBRANCH  18  19
ENDBRANCH   4  18
TORSDOF 6
