REMARK  4 active torsions:
REMARK  status: ('A' for Active; 'I' for Inactive)
REMARK    1  A    between atoms: C_3  and  C_1 
REMARK    2  A    between atoms: C_4  and  C_3 
REMARK    3  A    between atoms: S_7  and  C_5 
REMARK    4  A    between atoms: C_9  and  S_7 
ROOT
ATOM      1  C   UNL d   1       1.054  -2.935  -0.292  0.00  0.00     0.183 C 
ATOM      2  O   UNL d   1       2.058  -3.555  -0.625  0.00  0.00    -0.288 OA
ENDROOT
BRANCH   1   3
ATOM      3  C   UNL d   1       1.083  -1.447  -0.197  0.00  0.00     0.025 A 
ATOM      4  C   UNL d   1       0.015  -0.602  -0.608  0.00  0.00    -0.012 A 
ATOM      5  C   UNL d   1       0.102   0.778  -0.285  0.00  0.00    -0.025 A 
ATOM      6  C   UNL d   1      -1.127  -1.022  -1.337  0.00  0.00     0.013 A 
ATOM      7  C   UNL d   1      -0.970   1.638  -0.577  0.00  0.00     0.012 A 
ATOM      8  C   UNL d   1       1.266   1.290   0.310  0.00  0.00     0.012 A 
ATOM      9  C   UNL d   1      -2.108   1.173  -1.236  0.00  0.00     0.001 A 
ATOM     10  C   UNL d   1      -2.173  -0.151  -1.642  0.00  0.00     0.001 A 
ATOM     11  C   UNL d   1       2.347   0.463   0.600  0.00  0.00     0.002 A 
ATOM     12  C   UNL d   1       2.252  -0.903   0.361  0.00  0.00     0.016 A 
ENDBRANCH   1   3
BRANCH   1  13
ATOM     13  C   UNL d   1      -0.196  -3.633   0.119  0.00  0.00     0.063 C 
ATOM     14  C   UNL d   1      -0.329  -4.942  -0.129  0.00  0.00     0.054 C 
BRANCH  14  15
ATOM     15  S   UNL d   1      -1.818  -5.768   0.171  0.00  0.00    -0.102 SA
BRANCH  15  16
ATOM     16  C   UNL d   1      -1.323  -7.121   1.226  0.00  0.00     0.004 A 
ATOM     17  C   UNL d   1      -2.249  -7.559   2.186  0.00  0.00     0.020 A 
ATOM     18  C   UNL d   1      -1.947  -8.623   3.043  0.00  0.00     0.025 A 
ATOM     19  C   UNL d   1      -0.717  -9.262   2.941  0.00  0.00     0.034 A 
ATOM     20  C   UNL d   1       0.206  -8.856   1.980  0.00  0.00     0.025 A 
ATOM     21 CL   UNL d   1      -0.336 -10.563   3.998  0.00  0.00    -0.084 Cl
ATOM     22  C   UNL d   1      -0.101  -7.795   1.120  0.00  0.00     0.020 A 
ENDBRANCH  15  16
ENDBRANCH  14  15
ENDBRANCH   1  13
TORSDOF 4
