REMARK  4 active torsions:
REMARK  status: ('A' for Active; 'I' for Inactive)
REMARK    1  A    between atoms: S_7  and  C_2 
REMARK    2  A    between atoms: C_14  and  C_3 
REMARK    3  A    between atoms: C_12  and  S_7 
REMARK    4  A    between atoms: N_16  and  C_15 
ROOT
ATOM      1  C   UNL d   1       0.267   1.019   0.021  0.00  0.00     0.043 A 
ATOM      2  C   UNL d   1       1.653   1.299   0.085  0.00  0.00     0.089 A 
ATOM      3  C   UNL d   1      -0.993   1.788   0.006  0.00  0.00    -0.004 A 
ATOM      4  C   UNL d   1      -2.085   0.936  -0.074  0.00  0.00     0.065 A 
ATOM      5  C   UNL d   1      -0.010  -0.345  -0.046  0.00  0.00     0.088 A 
ATOM      6  S   UNL d   1      -1.666  -0.711  -0.109  0.00  0.00    -0.082 SA
ATOM      7  N   UNL d   1       2.565   0.300   0.058  0.00  0.00    -0.346 N 
ATOM      8  HN  UNL d   1       3.563   0.507   0.088  1.00  0.00     0.167 HD
ATOM      9  N   UNL d   1       0.871  -1.362  -0.063  0.00  0.00    -0.346 N 
ATOM     10  HN  UNL d   1       0.596  -2.343  -0.111  1.00  0.00     0.167 HD
ATOM     11  C   UNL d   1       2.134  -0.958  -0.010  0.00  0.00     0.182 A 
ENDROOT
BRANCH   2  12
ATOM     12  S   UNL d   1       2.296   2.919   0.300  0.00  0.00    -0.070 SA
BRANCH  12  13
ATOM     13  C   UNL d   1       3.256   3.235  -1.189  0.00  0.00     0.028 A 
ATOM     14  C   UNL d   1       2.830   3.076  -2.530  0.00  0.00     0.023 A 
ATOM     15  C   UNL d   1       3.645   3.582  -3.562  0.00  0.00     0.024 A 
ATOM     16  C   UNL d   1       4.901   4.135  -3.290  0.00  0.00     0.002 A 
ATOM     17  C   UNL d   1       5.341   4.241  -1.979  0.00  0.00     0.001 A 
ATOM     18  C   UNL d   1       4.516   3.810  -0.937  0.00  0.00     0.021 A 
BRANCH  14  19
ATOM     19  N   UNL d   1       1.538   2.671  -2.912  0.00  0.00    -0.302 NA
ATOM     20  H   UNL d   1       1.113   1.989  -2.301  0.00  0.00     0.124 HD
ATOM     21  H   UNL d   1       1.446   2.409  -3.889  0.00  0.00     0.124 HD
ENDBRANCH  14  19
ENDBRANCH  12  13
ENDBRANCH   2  12
BRANCH   3  22
ATOM     22  C   UNL d   1      -1.244   3.248   0.047  0.00  0.00    -0.025 A 
ATOM     23  C   UNL d   1      -0.451   4.141  -0.671  0.00  0.00     0.012 A 
ATOM     24  C   UNL d   1      -0.588   5.526  -0.558  0.00  0.00     0.001 A 
ATOM     25  C   UNL d   1      -1.606   6.048   0.215  0.00  0.00     0.000 A 
ATOM     26  C   UNL d   1      -2.491   5.181   0.859  0.00  0.00     0.001 A 
ATOM     27  C   UNL d   1      -2.302   3.792   0.785  0.00  0.00     0.012 A 
ENDBRANCH   3  22
TORSDOF 4
