REMARK  7 active torsions:
REMARK  status: ('A' for Active; 'I' for Inactive)
REMARK    1  A    between atoms: N_2  and  C_1 
REMARK    2  A    between atoms: N_3  and  C_1 
REMARK    3  A    between atoms: C_7  and  N_2 
REMARK    4  A    between atoms: C_19  and  N_2 
REMARK    5  A    between atoms: C_10  and  N_3 
REMARK    6  A    between atoms: C_13  and  C_7 
REMARK    7  A    between atoms: C_11  and  C_19 
ROOT
ATOM      1  N   UNL d   1       2.425  -3.554   4.316  0.00  0.00    -0.197 NA
ATOM      2  C   UNL d   1       1.956  -2.709   3.672  0.00  0.00     0.060 C 
ATOM      3  C   UNL d   1       1.349  -1.655   2.847  0.00  0.00     0.143 C 
ENDROOT
BRANCH   3   4
ATOM      4  C   UNL d   1       1.267  -2.115   1.390  0.00  0.00     0.139 C 
BRANCH   4   5
ATOM      5  N   UNL d   1       0.669  -1.125   0.453  0.00  0.00    -0.353 N 
BRANCH   5   6
ATOM      6  C   UNL d   1       1.457  -0.123  -0.176  0.00  0.00     0.174 C 
ATOM      7  S   UNL d   1       3.024   0.236   0.330  0.00  0.00    -0.041 SA
BRANCH   6   8
ATOM      8  N   UNL d   1       0.833   0.449  -1.286  0.00  0.00    -0.333 N 
ATOM      9  H   UNL d   1       0.189  -0.176  -1.753  0.00  0.00     0.168 HD
BRANCH   8  10
ATOM     10  C   UNL d   1       1.236   1.546  -2.096  0.00  0.00     0.034 A 
ATOM     11  C   UNL d   1       0.851   1.526  -3.446  0.00  0.00     0.032 A 
ATOM     12  C   UNL d   1       1.252   2.543  -4.320  0.00  0.00     0.044 A 
ATOM     13  C   UNL d   1       2.017   3.597  -3.840  0.00  0.00     0.116 A 
ATOM     14  C   UNL d   1       2.365   3.664  -2.499  0.00  0.00     0.044 A 
ATOM     15  F   UNL d   1       2.415   4.564  -4.678  0.00  0.00    -0.206 F 
ATOM     16  C   UNL d   1       1.960   2.647  -1.625  0.00  0.00     0.032 A 
ENDBRANCH   8  10
ENDBRANCH   6   8
ENDBRANCH   5   6
BRANCH   5  17
ATOM     17  C   UNL d   1      -0.779  -1.286   0.224  0.00  0.00     0.164 C 
BRANCH  17  18
ATOM     18  C   UNL d   1      -1.143  -2.449  -0.679  0.00  0.00    -0.038 A 
ATOM     19  C   UNL d   1      -0.227  -3.058  -1.546  0.00  0.00     0.025 A 
ATOM     20  C   UNL d   1      -0.646  -4.124  -2.328  0.00  0.00     0.088 A 
ATOM     21  N   UNL d   1      -1.904  -4.610  -2.322  0.00  0.00    -0.375 N 
ATOM     22  C   UNL d   1      -2.780  -4.007  -1.494  0.00  0.00     0.088 A 
ATOM     23  HN  UNL d   1      -2.178  -5.394  -2.914  1.00  0.00     0.164 HD
ATOM     24  C   UNL d   1      -2.455  -2.940  -0.670  0.00  0.00     0.025 A 
ENDBRANCH  17  18
ENDBRANCH   5  17
ENDBRANCH   4   5
ENDBRANCH   3   4
TORSDOF 7
