REMARK  6 active torsions:
REMARK  status: ('A' for Active; 'I' for Inactive)
REMARK    1  A    between atoms: C_3  and  N_1 
REMARK    2  A    between atoms: C_4  and  C_5 
REMARK    3  A    between atoms: O_14  and  C_4 
REMARK    4  A    between atoms: C_8  and  C_6 
REMARK    5  A    between atoms: O_16  and  C_11 
REMARK    6  A    between atoms: C_19  and  O_14 
ROOT
ATOM      1  C   UNL d   1       0.166  -1.148   0.651  0.00  0.00     0.054 A 
ATOM      2  C   UNL d   1      -1.520  -2.904   0.472  0.00  0.00     0.041 A 
ATOM      3  C   UNL d   1      -0.808  -1.836  -0.086  0.00  0.00     0.049 A 
ATOM      4  C   UNL d   1       0.457  -1.602   1.951  0.00  0.00     0.060 A 
ATOM      5  C   UNL d   1      -1.235  -3.324   1.775  0.00  0.00     0.019 A 
ATOM      6  C   UNL d   1      -0.235  -2.680   2.509  0.00  0.00     0.027 A 
ATOM      7 CL   UNL d   1       1.684  -0.846   2.907  0.00  0.00    -0.082 Cl
ENDROOT
BRANCH   1   8
ATOM      8  N   UNL d   1       0.876  -0.060   0.089  0.00  0.00    -0.364 N 
ATOM      9  C   UNL d   1       0.214   0.812  -0.607  0.00  0.00     0.102 C 
ATOM     10  HN  UNL d   1       1.882   0.035   0.228  1.00  0.00     0.165 HD
BRANCH   9  11
ATOM     11  C   UNL d   1       0.864   1.998  -1.192  0.00  0.00     0.012 A 
ATOM     12  C   UNL d   1       2.194   2.330  -0.921  0.00  0.00     0.077 A 
ATOM     13  C   UNL d   1       2.744   3.493  -1.454  0.00  0.00     0.037 A 
ATOM     14  C   UNL d   1       1.967   4.324  -2.264  0.00  0.00     0.003 A 
ATOM     15  C   UNL d   1       0.643   3.987  -2.550  0.00  0.00     0.001 A 
ATOM     16  C   UNL d   1       0.089   2.823  -2.015  0.00  0.00     0.015 A 
BRANCH  12  17
ATOM     17  O   UNL d   1       3.007   1.568  -0.129  0.00  0.00    -0.360 OA
ATOM     18  H   UNL d   1       2.481   0.795   0.178  0.00  0.00     0.217 HD
ENDBRANCH  12  17
ENDBRANCH   9  11
ENDBRANCH   1   8
BRANCH   2  19
ATOM     19  C   UNL d   1      -2.529  -3.652  -0.304  0.00  0.00     0.293 C 
ATOM     20  O   UNL d   1      -3.109  -4.634   0.117  0.00  0.00    -0.259 OA
BRANCH  19  21
ATOM     21  O   UNL d   1      -2.650  -3.135  -1.554  0.00  0.00    -0.318 OA
BRANCH  21  22
ATOM     22  C   UNL d   1      -3.228  -4.013  -2.528  0.00  0.00     0.174 C 
ATOM     23  C   UNL d   1      -2.112  -4.869  -3.105  0.00  0.00     0.034 C 
ENDBRANCH  21  22
ENDBRANCH  19  21
ENDBRANCH   2  19
TORSDOF 6
