REMARK  1 active torsions:
REMARK  status: ('A' for Active; 'I' for Inactive)
REMARK    1  A    between atoms: C_8  and  N_5 
ROOT
ATOM      1  C   UNL d   1       0.843   0.798   0.023  0.00  0.00     0.141 C 
ATOM      2  N   UNL d   1      -0.378   1.168   0.204  0.00  0.00    -0.370 N 
ATOM      3  HN  UNL d   1      -0.687   2.137   0.276  1.00  0.00     0.161 HD
ATOM      4  S   UNL d   1       1.143  -0.931   0.043  0.00  0.00    -0.088 SA
ATOM      5  N   UNL d   1       1.954   1.562  -0.182  0.00  0.00    -0.337 N 
ATOM      6  C   UNL d   1      -1.268  -0.004   0.292  0.00  0.00     0.137 C 
ATOM      7  C   UNL d   1      -0.485  -1.213   0.785  0.00  0.00     0.069 C 
ATOM      8  C   UNL d   1      -0.380  -1.255   2.305  0.00  0.00     0.023 C 
ATOM      9  H   UNL d   1       2.791   1.055  -0.434  0.00  0.00     0.168 HD
ENDROOT
BRANCH   5  10
ATOM     10  C   UNL d   1       2.049   2.962  -0.153  0.00  0.00     0.035 A 
ATOM     11  C   UNL d   1       3.059   3.594  -0.895  0.00  0.00     0.056 A 
ATOM     12  C   UNL d   1       3.132   4.989  -0.959  0.00  0.00     0.074 A 
ATOM     13 CL   UNL d   1       4.370   5.728  -1.901  0.00  0.00    -0.081 Cl
ATOM     14  C   UNL d   1       2.202   5.768  -0.278  0.00  0.00     0.138 A 
ATOM     15  C   UNL d   1       1.198   5.165   0.467  0.00  0.00     0.046 A 
ATOM     16  F   UNL d   1       2.251   7.107  -0.333  0.00  0.00    -0.204 F 
ATOM     17  C   UNL d   1       1.121   3.772   0.520  0.00  0.00     0.032 A 
ENDBRANCH   5  10
TORSDOF 1
