REMARK  0 active torsions:
REMARK  status: ('A' for Active; 'I' for Inactive)
ROOT
ATOM      1  C   UNL d   1      -0.463  -0.781   0.201  0.00  0.00     0.067 A 
ATOM      2  C   UNL d   1      -0.348   0.561   0.252  0.00  0.00     0.067 A 
ATOM      3  S   UNL d   1      -2.063  -1.434  -0.080  0.00  0.00    -0.062 SA
ATOM      4  S   UNL d   1      -1.840   1.465   0.018  0.00  0.00    -0.062 SA
ATOM      5  C   UNL d   1      -2.914   0.092  -0.128  0.00  0.00     0.115 A 
ATOM      6  S   UNL d   1       1.045   1.539   0.590  0.00  0.00    -0.115 SA
ATOM      7  S   UNL d   1       0.810  -1.936   0.418  0.00  0.00    -0.115 SA
ATOM      8  C   UNL d   1       2.591  -0.255  -1.072  0.00  0.00     0.181 C 
ATOM      9  S   UNL d   1      -4.566   0.224  -0.295  0.00  0.00    -0.064 SA
ATOM     10  O   UNL d   1       3.992  -0.587  -1.272  0.00  0.00    -0.351 OA
ATOM     11  O   UNL d   1       2.161   0.561  -2.183  0.00  0.00    -0.351 OA
ATOM     12  C   UNL d   1       1.784  -1.573  -1.082  0.00  0.00     0.149 C 
ATOM     13  C   UNL d   1       2.528   0.554   0.242  0.00  0.00     0.149 C 
ATOM     14  C   UNL d   1       3.365   1.074  -2.750  0.00  0.00     0.198 C 
ATOM     15  C   UNL d   1       4.337  -0.054  -2.551  0.00  0.00     0.198 C 
ENDROOT
TORSDOF 0
