REMARK  6 active torsions:
REMARK  status: ('A' for Active; 'I' for Inactive)
REMARK    1  A    between atoms: C_2  and  C_1 
REMARK    2  A    between atoms: C_3  and  C_1 
REMARK    3  A    between atoms: N_4  and  C_1 
REMARK    4  A    between atoms: N_5  and  C_1 
REMARK       I    between atoms: C_6  and  N_4 
REMARK    5  A    between atoms: C_7  and  N_5 
REMARK    6  A    between atoms: C_19  and  C_6 
ROOT
ATOM      1  C   UNL d   1       0.640  -0.015  -0.240  0.00  0.00     0.290 C 
ENDROOT
BRANCH   1   2
ATOM      2  C   UNL d   1      -0.156   1.284  -0.633  0.00  0.00     0.435 C 
ATOM      3  F   UNL d   1      -1.310   1.048  -1.289  0.00  0.00    -0.167 F 
ATOM      4  F   UNL d   1      -0.462   2.014   0.479  0.00  0.00    -0.167 F 
ATOM      5  F   UNL d   1       0.558   2.133  -1.413  0.00  0.00    -0.167 F 
ENDBRANCH   1   2
BRANCH   1   6
ATOM      6  C   UNL d   1       0.274  -1.140  -1.276  0.00  0.00     0.435 C 
ATOM      7  F   UNL d   1       0.070  -0.682  -2.530  0.00  0.00    -0.167 F 
ATOM      8  F   UNL d   1       1.300  -2.042  -1.355  0.00  0.00    -0.167 F 
ATOM      9  F   UNL d   1      -0.806  -1.881  -0.946  0.00  0.00    -0.167 F 
ENDBRANCH   1   6
BRANCH   1  10
ATOM     10  N   UNL d   1       0.351  -0.418   1.177  0.00  0.00    -0.324 N 
ATOM     11  C   UNL d   1      -0.965  -0.573   1.558  0.00  0.00     0.219 C 
ATOM     12  O   UNL d   1      -1.887  -0.475   0.759  0.00  0.00    -0.274 OA
ATOM     13  H   UNL d   1       0.971  -0.023   1.867  0.00  0.00     0.165 HD
BRANCH  11  14
ATOM     14  C   UNL d   1      -1.170  -0.840   3.034  0.00  0.00     0.098 C 
ATOM     15  C   UNL d   1      -2.642  -1.062   3.350  0.00  0.00     0.014 C 
ENDBRANCH  11  14
ENDBRANCH   1  10
BRANCH   1  16
ATOM     16  N   UNL d   1       2.138   0.189  -0.097  0.00  0.00    -0.251 NA
ATOM     17  H   UNL d   1       2.520  -0.593   0.438  0.00  0.00     0.130 HD
BRANCH  16  18
ATOM     18  C   UNL d   1       3.011   0.423  -1.172  0.00  0.00     0.012 A 
ATOM     19  C   UNL d   1       2.635   0.733  -2.482  0.00  0.00     0.047 A 
ATOM     20  C   UNL d   1       3.587   0.972  -3.482  0.00  0.00     0.035 A 
ATOM     21 CL   UNL d   1       3.064   1.303  -5.089  0.00  0.00    -0.084 Cl
ATOM     22  C   UNL d   1       4.942   0.942  -3.193  0.00  0.00     0.024 A 
ATOM     23  C   UNL d   1       5.347   0.680  -1.888  0.00  0.00     0.003 A 
ATOM     24  C   UNL d   1       4.391   0.430  -0.896  0.00  0.00     0.023 A 
ENDBRANCH  16  18
ENDBRANCH   1  16
TORSDOF 6
