REMARK  9 active torsions:
REMARK  status: ('A' for Active; 'I' for Inactive)
REMARK    1  A    between atoms: C_17  and  C_1 
REMARK    2  A    between atoms: C_13  and  C_2 
REMARK    3  A    between atoms: C_3  and  S_8 
REMARK    4  A    between atoms: S_8  and  C_6 
REMARK    5  A    between atoms: S_21  and  C_10 
REMARK    6  A    between atoms: O_29  and  C_17 
REMARK    7  A    between atoms: C_20  and  C_28 
REMARK    8  A    between atoms: C_28  and  S_21 
REMARK    9  A    between atoms: C_30  and  O_29 
ROOT
ATOM      1  C   UNL d   1      -1.580   1.329   0.047  0.00  0.00     0.072 A 
ATOM      2  C   UNL d   1      -2.230   0.100  -0.025  0.00  0.00     0.134 A 
ATOM      3  N   UNL d   1      -1.509  -1.071  -0.036  0.00  0.00    -0.345 N 
ATOM      4  HN  UNL d   1      -1.995  -1.968  -0.036  1.00  0.00     0.166 HD
ATOM      5  C   UNL d   1      -0.150  -1.037  -0.048  0.00  0.00     0.098 A 
ATOM      6  C   UNL d   1       0.551   0.162  -0.086  0.00  0.00     0.079 A 
ATOM      7  C   UNL d   1      -0.179   1.357  -0.017  0.00  0.00     0.045 A 
ATOM      8  C   UNL d   1       1.978   0.225  -0.155  0.00  0.00     0.102 C 
ATOM      9  N   UNL d   1       3.130   0.318  -0.211  0.00  0.00    -0.191 NA
ENDROOT
BRANCH   5  10
ATOM     10  S   UNL d   1       0.628  -2.619   0.207  0.00  0.00    -0.044 SA
BRANCH  10  11
ATOM     11  C   UNL d   1       0.758  -3.159  -1.446  0.00  0.00     0.135 A 
ATOM     12  S   UNL d   1       0.703  -4.823  -1.868  0.00  0.00    -0.037 SA
ATOM     13  C   UNL d   1       1.083  -4.348  -3.468  0.00  0.00     0.129 A 
ATOM     14  N   UNL d   1       1.192  -3.049  -3.636  0.00  0.00    -0.287 N 
ATOM     15  N   UNL d   1       1.002  -2.351  -2.455  0.00  0.00    -0.286 N 
ATOM     16  HN  UNL d   1       1.394  -2.606  -4.533  1.00  0.00     0.188 HD
ATOM     17  HN  UNL d   1       1.046  -1.335  -2.377  1.00  0.00     0.188 HD
BRANCH  13  18
ATOM     18  S   UNL d   1       1.303  -5.495  -4.771  0.00  0.00    -0.103 SA
BRANCH  18  19
ATOM     19  C   UNL d   1       2.638  -4.681  -5.690  0.00  0.00     0.086 C 
BRANCH  19  20
ATOM     20  C   UNL d   1       2.957  -5.481  -6.918  0.00  0.00    -0.005 A 
ATOM     21  C   UNL d   1       3.631  -6.831  -6.847  0.00  0.00     0.006 A 
ATOM     22  C   UNL d   1       4.392  -5.643  -7.361  0.00  0.00     0.006 A 
ENDBRANCH  19  20
ENDBRANCH  18  19
ENDBRANCH  13  18
ENDBRANCH  10  11
ENDBRANCH   5  10
BRANCH   1  23
ATOM     23  C   UNL d   1      -2.313   2.592   0.252  0.00  0.00     0.295 C 
ATOM     24  O   UNL d   1      -3.262   2.702   1.002  0.00  0.00    -0.259 OA
BRANCH  23  25
ATOM     25  O   UNL d   1      -1.771   3.535  -0.550  0.00  0.00    -0.318 OA
BRANCH  25  26
ATOM     26  C   UNL d   1      -2.554   4.725  -0.744  0.00  0.00     0.174 C 
ATOM     27  C   UNL d   1      -3.282   4.565  -2.064  0.00  0.00     0.034 C 
ENDBRANCH  25  26
ENDBRANCH  23  25
ENDBRANCH   1  23
BRANCH   2  28
ATOM     28  C   UNL d   1      -3.742  -0.037  -0.157  0.00  0.00     0.433 C 
ATOM     29  F   UNL d   1      -4.416   1.098  -0.485  0.00  0.00    -0.165 F 
ATOM     30  F   UNL d   1      -4.073  -0.914  -1.155  0.00  0.00    -0.165 F 
ATOM     31  F   UNL d   1      -4.331  -0.529   0.969  0.00  0.00    -0.165 F 
ENDBRANCH   2  28
TORSDOF 9
