REMARK  8 active torsions:
REMARK  status: ('A' for Active; 'I' for Inactive)
REMARK    1  A    between atoms: O_5  and  C_1 
REMARK    2  A    between atoms: C_6  and  C_1 
REMARK    3  A    between atoms: N_2  and  O_5 
REMARK    4  A    between atoms: C_7  and  C_4 
REMARK    5  A    between atoms: N_11  and  C_4 
REMARK    6  A    between atoms: O_12  and  C_13 
REMARK    7  A    between atoms: C_16  and  O_12 
REMARK    8  A    between atoms: C_19  and  C_16 
ROOT
ATOM      1  C   UNL d   1      -1.048  -2.929  -2.146  0.00  0.00     0.004 A 
ATOM      2  C   UNL d   1       0.078  -3.576  -1.627  0.00  0.00     0.017 A 
ATOM      3  C   UNL d   1      -1.529  -3.284  -3.409  0.00  0.00     0.017 A 
ATOM      4  C   UNL d   1       0.272  -4.882  -3.663  0.00  0.00     0.069 A 
ATOM      5  C   UNL d   1      -0.879  -4.265  -4.158  0.00  0.00     0.037 A 
ATOM      6  C   UNL d   1       0.727  -4.561  -2.381  0.00  0.00     0.037 A 
ENDROOT
BRANCH   1   7
ATOM      7  C   UNL d   1      -1.731  -1.841  -1.377  0.00  0.00     0.109 C 
ATOM      8  N   UNL d   1      -1.015  -1.141  -0.549  0.00  0.00    -0.246 N 
ATOM      9  HN  UNL d   1      -0.026  -1.307  -0.362  1.00  0.00     0.196 HD
BRANCH   8  10
ATOM     10  O   UNL d   1      -1.776  -0.124   0.058  0.00  0.00    -0.196 OA
BRANCH  10  11
ATOM     11  C   UNL d   1      -0.987   0.601   0.930  0.00  0.00     0.314 C 
ATOM     12  O   UNL d   1       0.200   0.386   1.155  0.00  0.00    -0.260 OA
BRANCH  11  13
ATOM     13  C   UNL d   1      -1.766   1.784   1.477  0.00  0.00     0.279 C 
ATOM     14 CL   UNL d   1      -3.473   1.375   1.795  0.00  0.00    -0.097 Cl
ATOM     15 CL   UNL d   1      -1.029   2.379   2.987  0.00  0.00    -0.097 Cl
ENDBRANCH  11  13
ENDBRANCH  10  11
ENDBRANCH   8  10
BRANCH   7  16
ATOM     16  N   UNL d   1      -3.078  -1.638  -1.587  0.00  0.00    -0.286 NA
ATOM     17  H   UNL d   1      -3.511  -1.092  -0.851  0.00  0.00     0.125 HD
ATOM     18  H   UNL d   1      -3.611  -2.474  -1.804  0.00  0.00     0.125 HD
ENDBRANCH   7  16
ENDBRANCH   1   7
BRANCH   4  19
ATOM     19  O   UNL d   1       1.025  -5.795  -4.354  0.00  0.00    -0.347 OA
BRANCH  19  20
ATOM     20  C   UNL d   1       0.889  -5.727  -5.776  0.00  0.00     0.214 C 
BRANCH  20  21
ATOM     21  C   UNL d   1       2.085  -6.357  -6.440  0.00  0.00    -0.034 A 
ATOM     22  C   UNL d   1       2.049  -7.689  -6.872  0.00  0.00     0.009 A 
ATOM     23  C   UNL d   1       3.148  -8.245  -7.528  0.00  0.00     0.001 A 
ATOM     24  C   UNL d   1       4.293  -7.481  -7.748  0.00  0.00     0.000 A 
ATOM     25  C   UNL d   1       4.345  -6.161  -7.305  0.00  0.00     0.001 A 
ATOM     26  C   UNL d   1       3.249  -5.603  -6.648  0.00  0.00     0.009 A 
ENDBRANCH  20  21
ENDBRANCH  19  20
ENDBRANCH   4  19
TORSDOF 8
