REMARK  8 active torsions:
REMARK  status: ('A' for Active; 'I' for Inactive)
REMARK    1  A    between atoms: C_2  and  N_1 
REMARK    2  A    between atoms: C_12  and  C_2 
REMARK    3  A    between atoms: C_13  and  C_2 
REMARK    4  A    between atoms: C_3  and  C_14 
REMARK       I    between atoms: N_9  and  C_3 
REMARK    5  A    between atoms: S_10  and  C_6 
REMARK    6  A    between atoms: N_7  and  N_9 
REMARK    7  A    between atoms: C_14  and  S_10 
REMARK    8  A    between atoms: C_16  and  C_15 
ROOT
ATOM      1  N   UNL d   1       0.300   0.916  -0.227  0.00  0.00     0.104 N 
ATOM      2  C   UNL d   1      -1.006   0.290   0.098  0.00  0.00     0.290 C 
ATOM      3  C   UNL d   1       0.978  -0.327   0.246  0.00  0.00     0.290 C 
ATOM      4  C   UNL d   1      -0.333  -1.095  -0.032  0.00  0.00     0.104 C 
ENDROOT
BRANCH   4   5
ATOM      5  S   UNL d   1      -0.426  -1.944  -1.680  0.00  0.00    -0.151 SA
BRANCH   5   6
ATOM      6  C   UNL d   1       0.021  -0.591  -2.799  0.00  0.00     0.178 C 
BRANCH   6   7
ATOM      7  C   UNL d   1       0.179  -0.948  -4.268  0.00  0.00     0.245 C 
ATOM      8  N   UNL d   1       0.123  -2.285  -4.628  0.00  0.00    -0.270 N 
ATOM      9  H   UNL d   1      -0.071  -3.003  -3.937  0.00  0.00     0.190 HD
ATOM     10  O   UNL d   1       0.377  -0.036  -5.079  0.00  0.00    -0.271 OA
BRANCH   8  11
ATOM     11  N   UNL d   1       0.286  -2.590  -5.944  0.00  0.00    -0.308 N 
ATOM     12  C   UNL d   1       0.211  -3.826  -6.321  0.00  0.00     0.118 C 
ATOM     13  HN  UNL d   1       0.466  -1.853  -6.627  1.00  0.00     0.186 HD
BRANCH  12  14
ATOM     14  C   UNL d   1       0.379  -4.168  -7.757  0.00  0.00    -0.019 A 
ATOM     15  C   UNL d   1       0.652  -3.159  -8.690  0.00  0.00     0.013 A 
ATOM     16  C   UNL d   1       0.798  -3.474 -10.042  0.00  0.00     0.001 A 
ATOM     17  C   UNL d   1       0.673  -4.795 -10.465  0.00  0.00     0.000 A 
ATOM     18  C   UNL d   1       0.406  -5.804  -9.539  0.00  0.00     0.001 A 
ATOM     19  C   UNL d   1       0.259  -5.495  -8.180  0.00  0.00     0.013 A 
ENDBRANCH  12  14
ENDBRANCH   8  11
ENDBRANCH   6   7
ENDBRANCH   5   6
ENDBRANCH   4   5
BRANCH   1  20
ATOM     20  C   UNL d   1       0.652   2.073   0.632  0.00  0.00     0.289 C 
BRANCH  20  21
ATOM     21  C   UNL d   1       2.023   2.631   0.222  0.00  0.00    -0.021 A 
ATOM     22  C   UNL d   1       2.254   3.079  -1.093  0.00  0.00     0.010 A 
ATOM     23  C   UNL d   1       3.475   3.651  -1.453  0.00  0.00     0.001 A 
ATOM     24  C   UNL d   1       4.490   3.774  -0.509  0.00  0.00     0.000 A 
ATOM     25  C   UNL d   1       4.288   3.315   0.792  0.00  0.00     0.001 A 
ATOM     26  C   UNL d   1       3.063   2.748   1.157  0.00  0.00     0.010 A 
ENDBRANCH  20  21
BRANCH  20  27
ATOM     27  C   UNL d   1      -0.385   3.207   0.639  0.00  0.00    -0.021 A 
ATOM     28  C   UNL d   1      -0.511   4.016   1.785  0.00  0.00     0.010 A 
ATOM     29  C   UNL d   1      -1.415   5.079   1.817  0.00  0.00     0.001 A 
ATOM     30  C   UNL d   1      -2.204   5.356   0.703  0.00  0.00     0.000 A 
ATOM     31  C   UNL d   1      -2.081   4.577  -0.446  0.00  0.00     0.001 A 
ATOM     32  C   UNL d   1      -1.174   3.517  -0.481  0.00  0.00     0.010 A 
ENDBRANCH  20  27
ENDBRANCH   1  20
TORSDOF 8
