REMARK  5 active torsions:
REMARK  status: ('A' for Active; 'I' for Inactive)
REMARK    1  A    between atoms: C_8  and  C_2 
REMARK    2  A    between atoms: S_9  and  C_5 
REMARK    3  A    between atoms: C_14  and  S_9 
REMARK    4  A    between atoms: C_10  and  C_14 
REMARK    5  A    between atoms: O_18  and  C_10 
ROOT
ATOM      1  N   UNL d   1      -1.192  -0.091   0.011  0.00  0.00    -0.320 N 
ATOM      2  C   UNL d   1      -0.407   1.035  -0.005  0.00  0.00     0.132 A 
ATOM      3  N   UNL d   1       0.859   0.649  -0.009  0.00  0.00    -0.283 N 
ATOM      4  HN  UNL d   1       1.670   1.267  -0.011  1.00  0.00     0.188 HD
ATOM      5  C   UNL d   1      -0.340  -1.148   0.003  0.00  0.00     0.161 A 
ATOM      6  N   UNL d   1       0.899  -0.729  -0.013  0.00  0.00    -0.278 N 
ATOM      7  HN  UNL d   1       1.736  -1.311  -0.025  1.00  0.00     0.189 HD
ATOM      8  H   UNL d   1      -2.196  -0.140   0.072  0.00  0.00     0.169 HD
ENDROOT
BRANCH   2   9
ATOM      9  C   UNL d   1      -0.903   2.410   0.019  0.00  0.00     0.009 A 
ATOM     10  C   UNL d   1      -0.078   3.428   0.522  0.00  0.00     0.017 A 
ATOM     11  C   UNL d   1      -0.515   4.756   0.556  0.00  0.00     0.025 A 
ATOM     12  C   UNL d   1      -1.781   5.078   0.076  0.00  0.00     0.034 A 
ATOM     13  C   UNL d   1      -2.611   4.084  -0.435  0.00  0.00     0.025 A 
ATOM     14 CL   UNL d   1      -2.319   6.711   0.106  0.00  0.00    -0.084 Cl
ATOM     15  C   UNL d   1      -2.176   2.753  -0.463  0.00  0.00     0.017 A 
ENDBRANCH   2   9
BRANCH   5  16
ATOM     16  S   UNL d   1      -0.923  -2.765   0.043  0.00  0.00    -0.083 SA
BRANCH  16  17
ATOM     17  C   UNL d   1       0.510  -3.598   0.798  0.00  0.00     0.193 C 
BRANCH  17  18
ATOM     18  C   UNL d   1       0.753  -3.120   2.216  0.00  0.00     0.268 C 
ATOM     19  O   UNL d   1      -0.091  -2.653   2.971  0.00  0.00    -0.264 OA
BRANCH  18  20
ATOM     20  O   UNL d   1       2.054  -3.356   2.560  0.00  0.00    -0.326 OA
ATOM     21  C   UNL d   1       2.393  -2.912   3.875  0.00  0.00     0.213 C 
ENDBRANCH  18  20
ENDBRANCH  17  18
ENDBRANCH  16  17
ENDBRANCH   5  16
TORSDOF 5
