REMARK  8 active torsions:
REMARK  status: ('A' for Active; 'I' for Inactive)
REMARK    1  A    between atoms: S_16  and  C_2 
REMARK    2  A    between atoms: S_17  and  C_3 
REMARK    3  A    between atoms: C_8  and  N_11 
REMARK    4  A    between atoms: C_9  and  N_10 
REMARK       I    between atoms: N_10  and  C_13 
REMARK       I    between atoms: N_11  and  C_12 
REMARK    5  A    between atoms: C_12  and  C_26 
REMARK    6  A    between atoms: C_13  and  C_27 
REMARK    7  A    between atoms: C_26  and  S_16 
REMARK    8  A    between atoms: C_27  and  S_17 
ROOT
ATOM      1  S   UNL d   1       1.521  -0.012  -0.015  0.00  0.00    -0.038 SA
ATOM      2  C   UNL d   1       0.279   1.003  -0.615  0.00  0.00     0.129 A 
ATOM      3  C   UNL d   1       0.280  -1.023   0.593  0.00  0.00     0.129 A 
ATOM      4  N   UNL d   1      -0.940   0.586  -0.357  0.00  0.00    -0.287 N 
ATOM      5  HN  UNL d   1      -1.785   1.079  -0.644  1.00  0.00     0.188 HD
ATOM      6  N   UNL d   1      -0.938  -0.600   0.350  0.00  0.00    -0.287 N 
ATOM      7  HN  UNL d   1      -1.782  -1.089   0.648  1.00  0.00     0.188 HD
ENDROOT
BRANCH   2   8
ATOM      8  S   UNL d   1       0.507   2.493  -1.499  0.00  0.00    -0.094 SA
BRANCH   8   9
ATOM      9  C   UNL d   1       1.580   1.978  -2.853  0.00  0.00     0.184 C 
BRANCH   9  10
ATOM     10  C   UNL d   1       0.989   1.013  -3.873  0.00  0.00     0.231 C 
ATOM     11  N   UNL d   1      -0.343   0.671  -3.731  0.00  0.00    -0.326 N 
ATOM     12  H   UNL d   1      -0.865   1.193  -3.039  0.00  0.00     0.169 HD
ATOM     13  O   UNL d   1       1.730   0.609  -4.770  0.00  0.00    -0.272 OA
BRANCH  11  14
ATOM     14  C   UNL d   1      -1.056  -0.323  -4.452  0.00  0.00     0.043 A 
ATOM     15  C   UNL d   1      -0.395  -1.230  -5.293  0.00  0.00     0.072 A 
ATOM     16  C   UNL d   1      -1.095  -2.233  -5.955  0.00  0.00     0.118 A 
ATOM     17  F   UNL d   1      -0.431  -3.087  -6.746  0.00  0.00    -0.206 F 
ATOM     18  C   UNL d   1      -2.461  -2.374  -5.800  0.00  0.00     0.043 A 
ATOM     19  C   UNL d   1      -3.140  -1.482  -4.975  0.00  0.00     0.012 A 
ATOM     20  C   UNL d   1      -2.457  -0.445  -4.301  0.00  0.00    -0.035 A 
ATOM     21  C   UNL d   1      -3.317   0.467  -3.462  0.00  0.00     0.050 C 
ENDBRANCH  11  14
ENDBRANCH   9  10
ENDBRANCH   8   9
ENDBRANCH   2   8
BRANCH   3  22
ATOM     22  S   UNL d   1       0.512  -2.522   1.460  0.00  0.00    -0.094 SA
BRANCH  22  23
ATOM     23  C   UNL d   1       1.591  -2.018   2.816  0.00  0.00     0.184 C 
BRANCH  23  24
ATOM     24  C   UNL d   1       0.999  -1.069   3.850  0.00  0.00     0.231 C 
ATOM     25  N   UNL d   1      -0.335  -0.731   3.719  0.00  0.00    -0.326 N 
ATOM     26  H   UNL d   1      -0.857  -1.244   3.020  0.00  0.00     0.169 HD
ATOM     27  O   UNL d   1       1.744  -0.675   4.750  0.00  0.00    -0.272 OA
BRANCH  25  28
ATOM     28  C   UNL d   1      -1.049   0.245   4.460  0.00  0.00     0.043 A 
ATOM     29  C   UNL d   1      -0.392   1.140   5.317  0.00  0.00     0.072 A 
ATOM     30  C   UNL d   1      -1.094   2.127   6.000  0.00  0.00     0.118 A 
ATOM     31  F   UNL d   1      -0.433   2.970   6.804  0.00  0.00    -0.206 F 
ATOM     32  C   UNL d   1      -2.462   2.263   5.851  0.00  0.00     0.043 A 
ATOM     33  C   UNL d   1      -3.138   1.384   5.011  0.00  0.00     0.012 A 
ATOM     34  C   UNL d   1      -2.452   0.362   4.316  0.00  0.00    -0.035 A 
ATOM     35  C   UNL d   1      -3.309  -0.538   3.463  0.00  0.00     0.050 C 
ENDBRANCH  25  28
ENDBRANCH  23  24
ENDBRANCH  22  23
ENDBRANCH   3  22
TORSDOF 8
