REMARK  4 active torsions:
REMARK  status: ('A' for Active; 'I' for Inactive)
REMARK    1  A    between atoms: C_15  and  C_4 
REMARK    2  A    between atoms: C_9  and  C_16 
REMARK    3  A    between atoms: C_11  and  C_13 
REMARK    4  A    between atoms: C_22  and  C_12 
ROOT
ATOM      1  N   UNL d   1       0.799  -0.141   0.801  0.00  0.00    -0.317 N 
ATOM      2  HN  UNL d   1       1.429  -0.169   1.603  1.00  0.00     0.169 HD
ATOM      3  C   UNL d   1       0.546  -1.095  -0.075  0.00  0.00     0.206 A 
ATOM      4  C   UNL d   1       0.005   0.902   0.373  0.00  0.00     0.138 A 
ATOM      5  N   UNL d   1      -0.725   0.611  -0.716  0.00  0.00    -0.242 N 
ATOM      6  HN  UNL d   1      -1.388   1.211  -1.207  1.00  0.00     0.196 HD
ATOM      7  C   UNL d   1       1.151  -2.395  -0.044  0.00  0.00     0.130 A 
ATOM      8  O   UNL d   1      -0.366  -0.702  -1.017  0.00  0.00    -0.215 OA
ATOM      9  O   UNL d   1       0.948  -3.365  -1.004  0.00  0.00    -0.297 OA
ATOM     10  C   UNL d   1       1.673  -4.455  -0.638  0.00  0.00     0.129 A 
ATOM     11  C   UNL d   1       2.014  -2.903   0.917  0.00  0.00     0.045 A 
ATOM     12  C   UNL d   1       2.339  -4.227   0.540  0.00  0.00     0.049 A 
ENDROOT
BRANCH   4  13
ATOM     13  C   UNL d   1       0.011   2.211   1.027  0.00  0.00     0.011 A 
ATOM     14  C   UNL d   1       0.874   2.463   2.106  0.00  0.00     0.031 A 
ATOM     15  C   UNL d   1       0.954   3.741   2.692  0.00  0.00     0.048 A 
ATOM     16  C   UNL d   1       0.124   4.763   2.209  0.00  0.00     0.016 A 
ATOM     17  C   UNL d   1      -0.755   4.520   1.156  0.00  0.00     0.002 A 
ATOM     18  C   UNL d   1      -0.807   3.254   0.566  0.00  0.00     0.015 A 
BRANCH  15  19
ATOM     19  C   UNL d   1       1.944   4.035   3.794  0.00  0.00     0.417 C 
ATOM     20  F   UNL d   1       2.705   2.963   4.147  0.00  0.00    -0.166 F 
ATOM     21  F   UNL d   1       2.824   5.016   3.446  0.00  0.00    -0.166 F 
ATOM     22  F   UNL d   1       1.345   4.462   4.939  0.00  0.00    -0.166 F 
ENDBRANCH  15  19
ENDBRANCH   4  13
BRANCH  10  23
ATOM     23  C   UNL d   1       1.631  -5.606  -1.464  0.00  0.00    -0.036 C 
ATOM     24  C   UNL d   1       1.633  -6.628  -2.095  0.00  0.00    -0.059 C 
BRANCH  24  25
ATOM     25  C   UNL d   1       1.646  -7.883  -2.786  0.00  0.00     0.018 A 
ATOM     26  C   UNL d   1       0.519  -8.301  -3.498  0.00  0.00     0.020 A 
ATOM     27  C   UNL d   1       0.511  -9.546  -4.133  0.00  0.00     0.001 A 
ATOM     28  C   UNL d   1       1.630 -10.374  -4.062  0.00  0.00     0.000 A 
ATOM     29  C   UNL d   1       2.762  -9.957  -3.362  0.00  0.00     0.001 A 
ATOM     30  C   UNL d   1       2.771  -8.713  -2.725  0.00  0.00     0.020 A 
ENDBRANCH  24  25
ENDBRANCH  10  23
TORSDOF 4
