REMARK  6 active torsions:
REMARK  status: ('A' for Active; 'I' for Inactive)
REMARK    1  A    between atoms: C_13  and  C_5 
REMARK    2  A    between atoms: N_7  and  C_9 
REMARK    3  A    between atoms: N_8  and  C_14 
REMARK    4  A    between atoms: O_20  and  C_13 
REMARK    5  A    between atoms: C_24  and  O_20 
REMARK    6  A    between atoms: C_25  and  C_24 
ROOT
ATOM      1  C   UNL d   1      -0.665   0.692  -0.272  0.00  0.00     0.006 C 
ATOM      2  C   UNL d   1      -1.172  -0.615  -0.064  0.00  0.00     0.029 C 
ATOM      3  C   UNL d   1       1.181  -0.754  -0.192  0.00  0.00     0.028 A 
ATOM      4  C   UNL d   1       0.781   0.568  -0.470  0.00  0.00    -0.010 A 
ATOM      5  C   UNL d   1      -1.568   1.757  -0.188  0.00  0.00     0.053 C 
ATOM      6  C   UNL d   1      -0.034  -1.545   0.050  0.00  0.00     0.194 C 
ATOM      7  C   UNL d   1      -3.409   0.115  -0.007  0.00  0.00     0.104 C 
ATOM      8  C   UNL d   1      -2.510  -0.943   0.056  0.00  0.00     0.052 C 
ATOM      9  C   UNL d   1      -2.950   1.448  -0.098  0.00  0.00     0.054 C 
ATOM     10  C   UNL d   1       2.487  -1.210  -0.228  0.00  0.00     0.052 A 
ATOM     11  C   UNL d   1       3.453  -0.286  -0.630  0.00  0.00     0.103 A 
ATOM     12  C   UNL d   1       1.744   1.437  -0.960  0.00  0.00     0.016 A 
ATOM     13  O   UNL d   1      -0.094  -2.731   0.287  0.00  0.00    -0.287 OA
ATOM     14  C   UNL d   1       3.084   1.015  -1.032  0.00  0.00     0.037 A 
ENDROOT
BRANCH   5  15
ATOM     15  C   UNL d   1      -1.131   3.186  -0.035  0.00  0.00     0.294 C 
ATOM     16  O   UNL d   1       0.020   3.573  -0.054  0.00  0.00    -0.259 OA
BRANCH  15  17
ATOM     17  O   UNL d   1      -2.210   3.963   0.226  0.00  0.00    -0.313 OA
BRANCH  17  18
ATOM     18  C   UNL d   1      -1.950   5.319   0.629  0.00  0.00     0.217 C 
BRANCH  18  19
ATOM     19  C   UNL d   1      -2.007   5.426   2.134  0.00  0.00    -0.034 A 
ATOM     20  C   UNL d   1      -0.925   5.952   2.852  0.00  0.00     0.009 A 
ATOM     21  C   UNL d   1      -0.979   6.053   4.244  0.00  0.00     0.001 A 
ATOM     22  C   UNL d   1      -2.114   5.631   4.933  0.00  0.00     0.000 A 
ATOM     23  C   UNL d   1      -3.200   5.113   4.230  0.00  0.00     0.001 A 
ATOM     24  C   UNL d   1      -3.149   5.014   2.838  0.00  0.00     0.009 A 
ENDBRANCH  18  19
ENDBRANCH  17  18
ENDBRANCH  15  17
ENDBRANCH   5  15
BRANCH   7  25
ATOM     25  N   UNL d   1      -4.852  -0.153   0.056  0.00  0.00    -0.116 N 
ATOM     26  O   UNL d   1      -5.215  -1.336   0.090  0.00  0.00    -0.532 OA
ATOM     27  O   UNL d   1      -5.616   0.821   0.058  0.00  0.00    -0.532 OA
ENDBRANCH   7  25
BRANCH  11  28
ATOM     28  N   UNL d   1       4.868  -0.676  -0.642  0.00  0.00    -0.116 N 
ATOM     29  O   UNL d   1       5.163  -1.779  -0.163  0.00  0.00    -0.532 OA
ATOM     30  O   UNL d   1       5.681   0.126  -1.121  0.00  0.00    -0.532 OA
ENDBRANCH  11  28
TORSDOF 6
