REMARK  3 active torsions:
REMARK  status: ('A' for Active; 'I' for Inactive)
REMARK    1  A    between atoms: C_2  and  C_1 
REMARK       I    between atoms: N_6  and  C_2 
REMARK    2  A    between atoms: N_9  and  C_3 
REMARK    3  A    between atoms: N_10  and  N_6 
ROOT
ATOM      1  C   UNL d   1       1.694   1.310  -0.190  0.00  0.00     0.061 A 
ATOM      2  C   UNL d   1       2.441   0.128   0.012  0.00  0.00     0.043 A 
ATOM      3  C   UNL d   1       0.289   1.261  -0.325  0.00  0.00     0.043 A 
ATOM      4  C   UNL d   1       1.702  -1.077   0.087  0.00  0.00     0.032 A 
ATOM      5  C   UNL d   1      -0.392   0.054  -0.232  0.00  0.00     0.035 A 
ATOM      6  C   UNL d   1       0.310  -1.123  -0.033  0.00  0.00     0.026 A 
ATOM      7 CL   UNL d   1      -2.106   0.022  -0.361  0.00  0.00    -0.084 Cl
ENDROOT
BRANCH   1   8
ATOM      8  C   UNL d   1       2.291   2.659  -0.377  0.00  0.00     0.268 C 
ATOM      9  O   UNL d   1       3.170   2.870  -1.208  0.00  0.00    -0.266 OA
ATOM     10  N   UNL d   1       1.731   3.673   0.400  0.00  0.00    -0.290 N 
ATOM     11  H   UNL d   1       0.939   3.486   1.011  0.00  0.00     0.183 HD
BRANCH  10  12
ATOM     12  N   UNL d   1       2.079   5.014   0.129  0.00  0.00    -0.247 NA
ATOM     13  H   UNL d   1       2.688   4.999  -0.701  0.00  0.00     0.143 HD
ATOM     14  H   UNL d   1       2.695   5.339   0.882  0.00  0.00     0.143 HD
ENDBRANCH  10  12
ENDBRANCH   1   8
BRANCH   2  15
ATOM     15  N   UNL d   1       3.794  -0.012   0.312  0.00  0.00    -0.393 N 
ATOM     16  C   UNL d   1       4.767   1.059   0.349  0.00  0.00     0.146 C 
ATOM     17  H   UNL d   1       4.187  -0.875  -0.059  0.00  0.00     0.159 HD
ENDBRANCH   2  15
TORSDOF 3
