REMARK  7 active torsions:
REMARK  status: ('A' for Active; 'I' for Inactive)
REMARK    1  A    between atoms: N_2  and  S_1 
REMARK    2  A    between atoms: C_10  and  S_1 
REMARK    3  A    between atoms: C_3  and  N_2 
REMARK       I    between atoms: C_4  and  N_14 
REMARK       I    between atoms: N_13  and  C_4 
REMARK    4  A    between atoms: C_9  and  O_17 
REMARK    5  A    between atoms: C_26  and  N_13 
REMARK    6  A    between atoms: N_14  and  C_25 
REMARK    7  A    between atoms: O_17  and  C_27 
ROOT
ATOM      1  C   UNL d   1       1.033   0.832  -1.546  0.00  0.00     0.075 A 
ATOM      2  C   UNL d   1       0.865  -0.111  -2.565  0.00  0.00     0.027 A 
ATOM      3  C   UNL d   1       0.651   2.153  -1.746  0.00  0.00     0.027 A 
ATOM      4  C   UNL d   1      -0.123   1.597  -3.989  0.00  0.00     0.036 A 
ATOM      5  C   UNL d   1       0.084   2.529  -2.964  0.00  0.00     0.031 A 
ATOM      6  C   UNL d   1       0.301   0.277  -3.788  0.00  0.00     0.031 A 
ENDROOT
BRANCH   4   7
ATOM      7  N   UNL d   1      -0.785   1.901  -5.207  0.00  0.00    -0.309 N 
ATOM      8  C   UNL d   1      -1.405   3.104  -5.511  0.00  0.00     0.325 C 
ATOM      9  N   UNL d   1      -2.114   3.038  -6.705  0.00  0.00    -0.309 N 
ATOM     10  O   UNL d   1      -1.367   4.096  -4.793  0.00  0.00    -0.247 OA
ATOM     11  H   UNL d   1      -2.145   2.149  -7.176  0.00  0.00     0.170 HD
ATOM     12  H   UNL d   1      -0.884   1.146  -5.864  0.00  0.00     0.170 HD
BRANCH   9  13
ATOM     13  C   UNL d   1      -2.984   4.044  -7.193  0.00  0.00     0.036 A 
ATOM     14  C   UNL d   1      -3.070   5.327  -6.645  0.00  0.00     0.032 A 
ATOM     15  C   UNL d   1      -4.042   6.235  -7.072  0.00  0.00     0.039 A 
ATOM     16  C   UNL d   1      -4.962   5.862  -8.042  0.00  0.00     0.078 A 
ATOM     17  C   UNL d   1      -4.817   4.627  -8.676  0.00  0.00     0.039 A 
ATOM     18  C   UNL d   1      -3.835   3.720  -8.255  0.00  0.00     0.032 A 
BRANCH  16  19
ATOM     19  O   UNL d   1      -5.974   6.659  -8.479  0.00  0.00    -0.255 OA
BRANCH  19  20
ATOM     20  C   UNL d   1      -6.741   7.342  -7.489  0.00  0.00     0.530 C 
ATOM     21  F   UNL d   1      -6.334   7.137  -6.218  0.00  0.00    -0.144 F 
ATOM     22  F   UNL d   1      -6.701   8.670  -7.742  0.00  0.00    -0.144 F 
ATOM     23  F   UNL d   1      -8.027   6.937  -7.582  0.00  0.00    -0.144 F 
ENDBRANCH  19  20
ENDBRANCH  16  19
ENDBRANCH   9  13
ENDBRANCH   4   7
BRANCH   1  24
ATOM     24  S   UNL d   1       1.546   0.314   0.071  0.00  0.00     0.248 S 
ATOM     25  O   UNL d   1       1.019   1.284   1.015  0.00  0.00    -0.205 OA
ATOM     26  O   UNL d   1       1.208  -1.086   0.215  0.00  0.00    -0.205 OA
BRANCH  24  27
ATOM     27  N   UNL d   1       3.205   0.543   0.074  0.00  0.00    -0.151 NA
ATOM     28  H   UNL d   1       3.501   0.762   1.017  0.00  0.00     0.149 HD
BRANCH  27  29
ATOM     29  C   UNL d   1       3.898  -0.547  -0.440  0.00  0.00     0.171 A 
ATOM     30  N   UNL d   1       4.066  -0.600  -1.762  0.00  0.00    -0.336 N 
ATOM     31  C   UNL d   1       4.646  -1.723  -2.228  0.00  0.00     0.009 A 
ATOM     32  HN  UNL d   1       3.775   0.158  -2.378  1.00  0.00     0.168 HD
ATOM     33  C   UNL d   1       4.914  -1.800  -3.700  0.00  0.00     0.068 C 
ATOM     34  C   UNL d   1       4.974  -2.783  -1.401  0.00  0.00     0.049 A 
ATOM     35  C   UNL d   1       4.723  -2.623  -0.050  0.00  0.00     0.009 A 
ATOM     36  N   UNL d   1       4.216  -1.481   0.455  0.00  0.00    -0.336 N 
ATOM     37  C   UNL d   1       4.964  -3.747   0.909  0.00  0.00     0.068 C 
ATOM     38  HN  UNL d   1       4.083  -1.342   1.457  1.00  0.00     0.168 HD
ENDBRANCH  27  29
ENDBRANCH  24  27
ENDBRANCH   1  24
TORSDOF 7
