REMARK  6 active torsions:
REMARK  status: ('A' for Active; 'I' for Inactive)
REMARK    1  A    between atoms: S_2  and  C_1 
REMARK    2  A    between atoms: C_12  and  S_2 
REMARK    3  A    between atoms: C_7  and  C_4 
REMARK       I    between atoms: N_11  and  C_7 
REMARK    4  A    between atoms: C_8  and  C_10 
REMARK    5  A    between atoms: C_9  and  N_13 
REMARK    6  A    between atoms: N_13  and  N_11 
ROOT
ATOM      1  C   UNL d   1       0.388  -2.455   0.004  0.00  0.00     0.273 C 
ATOM      2  N   UNL d   1      -0.672  -3.357   0.113  0.00  0.00    -0.282 N 
ATOM      3  O   UNL d   1       1.506  -2.971  -0.091  0.00  0.00    -0.266 OA
ATOM      4  H   UNL d   1      -0.407  -4.319  -0.096  0.00  0.00     0.184 HD
ENDROOT
BRANCH   1   5
ATOM      5  C   UNL d   1       0.214  -0.984   0.031  0.00  0.00     0.081 A 
ATOM      6  C   UNL d   1       1.240  -0.018   0.021  0.00  0.00    -0.017 A 
ATOM      7  C   UNL d   1       0.697   1.329   0.018  0.00  0.00     0.078 A 
ATOM      8  C   UNL d   1       2.697  -0.389   0.014  0.00  0.00     0.051 C 
ATOM      9  C   UNL d   1      -0.680   1.331   0.048  0.00  0.00     0.075 A 
ATOM     10  S   UNL d   1      -1.321  -0.227   0.103  0.00  0.00    -0.094 SA
BRANCH   7  11
ATOM     11  S   UNL d   1       1.555   2.852   0.050  0.00  0.00     0.207 S 
ATOM     12  O   UNL d   1       2.861   2.611  -0.515  0.00  0.00    -0.217 OA
ATOM     13  O   UNL d   1       0.632   3.808  -0.534  0.00  0.00    -0.217 OA
BRANCH  11  14
ATOM     14  C   UNL d   1       1.705   3.212   1.781  0.00  0.00     0.064 A 
ATOM     15  C   UNL d   1       2.860   2.837   2.473  0.00  0.00     0.025 A 
ATOM     16  C   UNL d   1       2.959   3.113   3.839  0.00  0.00     0.025 A 
ATOM     17  C   UNL d   1       1.915   3.764   4.497  0.00  0.00     0.034 A 
ATOM     18  C   UNL d   1       0.773   4.158   3.800  0.00  0.00     0.025 A 
ATOM     19 CL   UNL d   1       2.038   4.090   6.182  0.00  0.00    -0.084 Cl
ATOM     20  C   UNL d   1       0.667   3.889   2.434  0.00  0.00     0.025 A 
ENDBRANCH  11  14
ENDBRANCH   7  11
ENDBRANCH   1   5
BRANCH   2  21
ATOM     21  N   UNL d   1      -2.019  -3.058  -0.141  0.00  0.00    -0.201 NA
ATOM     22  H   UNL d   1      -2.197  -2.059  -0.023  0.00  0.00     0.153 HD
BRANCH  21  23
ATOM     23  C   UNL d   1      -2.960  -3.804   0.629  0.00  0.00     0.050 A 
ATOM     24  C   UNL d   1      -4.114  -3.111   1.058  0.00  0.00     0.043 A 
ATOM     25  C   UNL d   1      -5.180  -3.755   1.709  0.00  0.00     0.049 A 
ATOM     26  C   UNL d   1      -5.099  -5.133   1.925  0.00  0.00     0.018 A 
ATOM     27  C   UNL d   1      -3.975  -5.846   1.502  0.00  0.00     0.026 A 
ATOM     28  C   UNL d   1      -2.916  -5.195   0.852  0.00  0.00     0.056 A 
ATOM     29 CL   UNL d   1      -1.618  -6.199   0.301  0.00  0.00    -0.082 Cl
BRANCH  25  30
ATOM     30  C   UNL d   1      -6.404  -2.982   2.141  0.00  0.00     0.417 C 
ATOM     31  F   UNL d   1      -6.321  -1.647   1.879  0.00  0.00    -0.166 F 
ATOM     32  F   UNL d   1      -7.537  -3.414   1.522  0.00  0.00    -0.166 F 
ATOM     33  F   UNL d   1      -6.641  -3.085   3.477  0.00  0.00    -0.166 F 
ENDBRANCH  25  30
ENDBRANCH  21  23
ENDBRANCH   2  21
TORSDOF 6
