REMARK  7 active torsions:
REMARK  status: ('A' for Active; 'I' for Inactive)
REMARK    1  A    between atoms: C_9  and  N_1 
REMARK    2  A    between atoms: S_14  and  C_2 
REMARK    3  A    between atoms: C_11  and  C_3 
REMARK       I    between atoms: C_8  and  N_10 
REMARK    4  A    between atoms: O_12  and  C_8 
REMARK    5  A    between atoms: C_16  and  C_9 
REMARK    6  A    between atoms: N_10  and  C_11 
REMARK    7  A    between atoms: C_15  and  O_12 
ROOT
ATOM      1  N   UNL d   1      -0.105  -0.762   0.931  0.00  0.00    -0.309 N 
ATOM      2  C   UNL d   1       1.077  -0.699   0.237  0.00  0.00     0.160 A 
ATOM      3  C   UNL d   1      -1.071  -0.321   0.046  0.00  0.00     0.118 A 
ATOM      4  N   UNL d   1       0.856  -0.206  -0.961  0.00  0.00    -0.278 N 
ATOM      5  HN  UNL d   1       1.562  -0.026  -1.674  1.00  0.00     0.189 HD
ATOM      6  N   UNL d   1      -0.486   0.025  -1.084  0.00  0.00    -0.285 N 
ATOM      7  HN  UNL d   1      -0.954   0.401  -1.909  1.00  0.00     0.188 HD
ENDROOT
BRANCH   3   8
ATOM      8  C   UNL d   1      -2.537  -0.283   0.303  0.00  0.00     0.203 C 
BRANCH   8   9
ATOM      9  N   UNL d   1      -3.054  -1.624   0.158  0.00  0.00    -0.330 N 
ATOM     10  C   UNL d   1      -4.093  -2.179   0.838  0.00  0.00     0.361 C 
ATOM     11  O   UNL d   1      -4.487  -3.304   0.570  0.00  0.00    -0.238 OA
ATOM     12  H   UNL d   1      -2.767  -2.156  -0.655  0.00  0.00     0.165 HD
BRANCH  10  13
ATOM     13  O   UNL d   1      -4.568  -1.388   1.832  0.00  0.00    -0.294 OA
BRANCH  13  14
ATOM     14  C   UNL d   1      -5.559  -1.907   2.761  0.00  0.00     0.061 C 
ATOM     15  C   UNL d   1      -5.003  -3.127   3.510  0.00  0.00     0.046 C 
ATOM     16  C   UNL d   1      -5.803  -0.772   3.771  0.00  0.00     0.046 C 
ATOM     17  C   UNL d   1      -6.888  -2.224   2.065  0.00  0.00     0.046 C 
ENDBRANCH  13  14
ENDBRANCH  10  13
ENDBRANCH   8   9
ENDBRANCH   3   8
BRANCH   1  18
ATOM     18  C   UNL d   1      -0.346  -1.255   2.276  0.00  0.00     0.171 C 
BRANCH  18  19
ATOM     19  C   UNL d   1      -0.423  -0.140   3.291  0.00  0.00    -0.040 A 
ATOM     20  C   UNL d   1      -1.625   0.110   3.970  0.00  0.00     0.009 A 
ATOM     21  C   UNL d   1      -1.718   1.140   4.907  0.00  0.00     0.001 A 
ATOM     22  C   UNL d   1      -0.605   1.929   5.188  0.00  0.00     0.000 A 
ATOM     23  C   UNL d   1       0.600   1.684   4.535  0.00  0.00     0.001 A 
ATOM     24  C   UNL d   1       0.692   0.656   3.596  0.00  0.00     0.009 A 
ENDBRANCH  18  19
ENDBRANCH   1  18
BRANCH   2  25
ATOM     25  S   UNL d   1       2.641  -1.179   0.797  0.00  0.00    -0.105 SA
ATOM     26  H   UNL d   1       2.337  -1.812   1.934  0.00  0.00     0.110 HD
ENDBRANCH   2  25
TORSDOF 7
