REMARK  4 active torsions:
REMARK  status: ('A' for Active; 'I' for Inactive)
REMARK    1  A    between atoms: C_2  and  C_1 
REMARK       I    between atoms: N_4  and  C_1 
REMARK    2  A    between atoms: O_6  and  C_3 
REMARK    3  A    between atoms: C_11  and  N_4 
REMARK    4  A    between atoms: C_17  and  O_6 
ROOT
ATOM      1  C   UNL d   1       0.238  -0.448   1.087  0.00  0.00     0.083 A 
ATOM      2  C   UNL d   1      -0.677  -1.460   0.797  0.00  0.00     0.163 A 
ATOM      3  N   UNL d   1      -1.174  -2.288   1.759  0.00  0.00    -0.346 N 
ATOM      4  HN  UNL d   1      -1.795  -3.060   1.515  1.00  0.00     0.167 HD
ATOM      5  C   UNL d   1       0.595  -0.251   2.430  0.00  0.00     0.023 A 
ATOM      6  C   UNL d   1      -0.823  -2.062   3.038  0.00  0.00     0.090 A 
ATOM      7  C   UNL d   1       0.051  -1.063   3.420  0.00  0.00     0.018 A 
ENDROOT
BRANCH   1   8
ATOM      8  C   UNL d   1       0.758   0.476   0.051  0.00  0.00     0.260 C 
ATOM      9  N   UNL d   1       2.092   0.834   0.195  0.00  0.00    -0.323 N 
ATOM     10  H   UNL d   1       2.655   0.290   0.836  0.00  0.00     0.169 HD
ATOM     11  O   UNL d   1      -0.005   0.860  -0.828  0.00  0.00    -0.267 OA
BRANCH   9  12
ATOM     12  C   UNL d   1       2.792   1.783  -0.589  0.00  0.00     0.037 A 
ATOM     13  C   UNL d   1       2.159   2.695  -1.437  0.00  0.00     0.069 A 
ATOM     14  C   UNL d   1       2.910   3.551  -2.243  0.00  0.00     0.104 A 
ATOM     15  O   UNL d   1       2.207   4.396  -3.062  0.00  0.00    -0.346 OA
ATOM     16  C   UNL d   1       4.304   3.524  -2.191  0.00  0.00     0.102 A 
ATOM     17  C   UNL d   1       3.024   4.879  -4.131  0.00  0.00     0.202 C 
ATOM     18  C   UNL d   1       4.370   5.360  -3.613  0.00  0.00     0.202 C 
ATOM     19  O   UNL d   1       5.105   4.304  -2.983  0.00  0.00    -0.346 OA
ATOM     20  C   UNL d   1       4.945   2.654  -1.313  0.00  0.00     0.042 A 
ATOM     21  C   UNL d   1       4.191   1.798  -0.502  0.00  0.00     0.032 A 
ENDBRANCH   9  12
ENDBRANCH   1   8
BRANCH   2  22
ATOM     22  O   UNL d   1      -1.068  -1.681  -0.520  0.00  0.00    -0.293 OA
BRANCH  22  23
ATOM     23  C   UNL d   1      -2.228  -2.405  -0.712  0.00  0.00     0.077 A 
ATOM     24  C   UNL d   1      -3.432  -2.069  -0.087  0.00  0.00     0.037 A 
ATOM     25  C   UNL d   1      -4.563  -2.865  -0.270  0.00  0.00     0.003 A 
ATOM     26  C   UNL d   1      -4.505  -3.973  -1.114  0.00  0.00     0.000 A 
ATOM     27  C   UNL d   1      -3.321  -4.273  -1.790  0.00  0.00     0.003 A 
ATOM     28  C   UNL d   1      -2.183  -3.485  -1.596  0.00  0.00     0.037 A 
ENDBRANCH  22  23
ENDBRANCH   2  22
TORSDOF 4
