REMARK  3 active torsions:
REMARK  status: ('A' for Active; 'I' for Inactive)
REMARK    1  A    between atoms: N_5  and  C_1 
REMARK    2  A    between atoms: O_8  and  C_2 
REMARK    3  A    between atoms: C_14  and  O_8 
ROOT
ATOM      1  C   UNL d   1       0.580  -1.588   0.020  0.00  0.00     0.123 A 
ATOM      2  C   UNL d   1      -0.762  -1.384   0.222  0.00  0.00     0.154 A 
ATOM      3  C   UNL d   1       0.861  -0.135   0.006  0.00  0.00     0.254 A 
ATOM      4  C   UNL d   1      -0.587   0.083   0.232  0.00  0.00     0.259 A 
ATOM      5  O   UNL d   1       1.806   0.614  -0.066  0.00  0.00    -0.281 OA
ATOM      6  O   UNL d   1      -1.257   1.081   0.357  0.00  0.00    -0.281 OA
ENDROOT
BRANCH   1   7
ATOM      7  N   UNL d   1       1.387  -2.627  -0.117  0.00  0.00    -0.374 N 
ATOM      8  C   UNL d   1       1.925  -3.286   1.091  0.00  0.00     0.133 C 
ATOM      9  C   UNL d   1       1.939  -4.806   0.919  0.00  0.00     0.093 C 
ATOM     10  S   UNL d   1       2.984  -5.338  -0.485  0.00  0.00    -0.166 SA
ATOM     11  C   UNL d   1       2.299  -4.216  -1.758  0.00  0.00     0.093 C 
ATOM     12  C   UNL d   1       2.267  -2.754  -1.293  0.00  0.00     0.133 C 
ENDBRANCH   1   7
BRANCH   2  13
ATOM     13  O   UNL d   1      -1.742  -2.211   0.323  0.00  0.00    -0.345 OA
BRANCH  13  14
ATOM     14  C   UNL d   1      -2.949  -1.618   0.785  0.00  0.00     0.171 C 
ATOM     15  C   UNL d   1      -4.053  -2.657   0.684  0.00  0.00     0.034 C 
ENDBRANCH  13  14
ENDBRANCH   2  13
TORSDOF 3
