REMARK  6 active torsions:
REMARK  status: ('A' for Active; 'I' for Inactive)
REMARK    1  A    between atoms: C_11  and  C_1 
REMARK    2  A    between atoms: C_4  and  C_2 
REMARK    3  A    between atoms: N_5  and  C_14 
REMARK    4  A    between atoms: C_15  and  C_10 
REMARK    5  A    between atoms: O_21  and  C_11 
REMARK    6  A    between atoms: C_26  and  O_21 
ROOT
ATOM      1  C   UNL d   1       1.438   1.085   0.004  0.00  0.00     0.068 C 
ATOM      2  C   UNL d   1       0.216   1.973  -0.048  0.00  0.00     0.185 C 
ATOM      3  C   UNL d   1       1.336  -0.262  -0.031  0.00  0.00     0.024 C 
ATOM      4  C   UNL d   1      -1.097  -0.143  -0.046  0.00  0.00     0.321 C 
ATOM      5  N   UNL d   1       0.079  -0.821  -0.106  0.00  0.00    -0.312 N 
ATOM      6  N   UNL d   1      -1.009   1.200   0.078  0.00  0.00    -0.328 N 
ATOM      7  O   UNL d   1      -2.178  -0.720  -0.069  0.00  0.00    -0.247 OA
ATOM      8  C   UNL d   1       2.446  -1.281  -0.001  0.00  0.00     0.069 C 
ATOM      9  H   UNL d   1      -0.023  -1.829  -0.150  0.00  0.00     0.170 HD
ATOM     10  H   UNL d   1      -1.895   1.685   0.103  0.00  0.00     0.165 HD
ENDROOT
BRANCH   2  11
ATOM     11  C   UNL d   1       0.139   3.027   1.016  0.00  0.00     0.081 A 
ATOM     12  O   UNL d   1       0.104   4.332   0.606  0.00  0.00    -0.312 OA
ATOM     13  C   UNL d   1       0.128   5.111   1.729  0.00  0.00     0.086 A 
ATOM     14  C   UNL d   1       0.140   4.304   2.850  0.00  0.00     0.040 A 
ATOM     15  C   UNL d   1       0.150   2.968   2.394  0.00  0.00     0.038 A 
BRANCH  13  16
ATOM     16  C   UNL d   1       0.199   6.556   1.538  0.00  0.00     0.000 A 
ATOM     17  C   UNL d   1       0.714   7.111   0.359  0.00  0.00     0.050 A 
ATOM     18  C   UNL d   1       0.901   8.499   0.261  0.00  0.00     0.103 A 
ATOM     19  C   UNL d   1       0.555   9.347   1.322  0.00  0.00     0.036 A 
ATOM     20  C   UNL d   1       0.009   8.802   2.481  0.00  0.00     0.003 A 
ATOM     21  C   UNL d   1      -0.167   7.420   2.585  0.00  0.00     0.014 A 
BRANCH  18  22
ATOM     22  N   UNL d   1       1.503   9.069  -0.951  0.00  0.00    -0.116 N 
ATOM     23  O   UNL d   1       1.827   8.288  -1.857  0.00  0.00    -0.532 OA
ATOM     24  O   UNL d   1       1.661  10.297  -0.993  0.00  0.00    -0.532 OA
ENDBRANCH  18  22
ENDBRANCH  13  16
ENDBRANCH   2  11
BRANCH   1  25
ATOM     25  C   UNL d   1       2.755   1.759   0.133  0.00  0.00     0.293 C 
ATOM     26  O   UNL d   1       3.737   1.252   0.662  0.00  0.00    -0.259 OA
BRANCH  25  27
ATOM     27  O   UNL d   1       2.722   3.012  -0.380  0.00  0.00    -0.318 OA
BRANCH  27  28
ATOM     28  C   UNL d   1       3.943   3.765  -0.246  0.00  0.00     0.174 C 
ATOM     29  C   UNL d   1       4.170   4.234   1.183  0.00  0.00     0.034 C 
ENDBRANCH  27  28
ENDBRANCH  25  27
ENDBRANCH   1  25
TORSDOF 6
