REMARK  4 active torsions:
REMARK  status: ('A' for Active; 'I' for Inactive)
REMARK    1  A    between atoms: C_6  and  C_1 
REMARK    2  A    between atoms: C_7  and  N_3 
REMARK    3  A    between atoms: O_10  and  C_6 
REMARK    4  A    between atoms: C_14  and  O_10 
ROOT
ATOM      1  C   UNL d   1      -0.325  -1.209  -0.011  0.00  0.00     0.064 A 
ATOM      2  C   UNL d   1       0.988  -0.742   0.041  0.00  0.00     0.029 A 
ATOM      3  N   UNL d   1       0.969   0.661   0.042  0.00  0.00    -0.319 N 
ATOM      4  C   UNL d   1      -1.158  -0.069   0.077  0.00  0.00     0.044 A 
ATOM      5  C   UNL d   1      -0.366   1.062   0.076  0.00  0.00     0.014 A 
ATOM      6  C   UNL d   1       2.235  -1.565   0.137  0.00  0.00     0.070 C 
ATOM      7  C   UNL d   1      -0.859   2.467  -0.023  0.00  0.00     0.068 C 
ENDROOT
BRANCH   3   8
ATOM      8  C   UNL d   1       2.108   1.528  -0.021  0.00  0.00     0.039 A 
ATOM      9  C   UNL d   1       3.216   1.191  -0.816  0.00  0.00     0.030 A 
ATOM     10  C   UNL d   1       4.324   2.039  -0.887  0.00  0.00     0.002 A 
ATOM     11  C   UNL d   1       4.332   3.242  -0.185  0.00  0.00     0.000 A 
ATOM     12  C   UNL d   1       3.234   3.591   0.598  0.00  0.00     0.002 A 
ATOM     13  C   UNL d   1       2.132   2.734   0.688  0.00  0.00     0.030 A 
ENDBRANCH   3   8
BRANCH   1  14
ATOM     14  C   UNL d   1      -0.759  -2.598  -0.159  0.00  0.00     0.295 C 
ATOM     15  O   UNL d   1       0.003  -3.546  -0.310  0.00  0.00    -0.259 OA
BRANCH  14  16
ATOM     16  O   UNL d   1      -2.122  -2.697  -0.207  0.00  0.00    -0.318 OA
BRANCH  16  17
ATOM     17  C   UNL d   1      -2.632  -3.942  -0.701  0.00  0.00     0.174 C 
ATOM     18  C   UNL d   1      -2.676  -3.883  -2.218  0.00  0.00     0.034 C 
ENDBRANCH  16  17
ENDBRANCH  14  16
ENDBRANCH   1  14
TORSDOF 4
