REMARK  2 active torsions:
REMARK  status: ('A' for Active; 'I' for Inactive)
REMARK    1  A    between atoms: C_14  and  N_11 
REMARK    2  A    between atoms: C_17  and  C_14 
ROOT
ATOM      1  C   UNL d   1      -0.839   0.544  -0.341  0.00  0.00     0.160 A 
ATOM      2  C   UNL d   1      -0.837  -0.797  -0.133  0.00  0.00     0.162 A 
ATOM      3  N   UNL d   1      -2.105   1.034  -0.426  0.00  0.00    -0.174 N 
ATOM      4  HN  UNL d   1      -2.385   1.991  -0.642  1.00  0.00     0.186 HD
ATOM      5  N   UNL d   1       0.333   1.257  -0.404  0.00  0.00    -0.287 N 
ATOM      6  N   UNL d   1       1.504  -0.804  -0.047  0.00  0.00    -0.269 N 
ATOM      7  C   UNL d   1       1.549   0.597  -0.199  0.00  0.00     0.332 A 
ATOM      8  C   UNL d   1       0.337  -1.572   0.004  0.00  0.00     0.282 A 
ATOM      9  C   UNL d   1      -2.895   0.008  -0.171  0.00  0.00     0.682 A 
ATOM     10  N   UNL d   1      -2.151  -1.147  -0.055  0.00  0.00    -0.182 N 
ATOM     11  N   UNL d   1      -4.242   0.016  -0.019  0.00  0.00    -0.218 N 
ATOM     12  O   UNL d   1       2.614   1.220  -0.142  0.00  0.00    -0.246 OA
ATOM     13  O   UNL d   1       0.311  -2.791   0.170  0.00  0.00    -0.265 OA
ATOM     14  C   UNL d   1       0.327   2.702  -0.515  0.00  0.00     0.163 C 
ATOM     15  C   UNL d   1       2.751  -1.521   0.127  0.00  0.00     0.164 C 
ATOM     16  C   UNL d   1      -4.985  -1.045   0.636  0.00  0.00     0.169 C 
ATOM     17  H   UNL d   1      -2.507  -2.078   0.092  0.00  0.00     0.184 HD
ENDROOT
BRANCH  11  18
ATOM     18  C   UNL d   1      -5.020   1.104  -0.620  0.00  0.00     0.179 C 
BRANCH  18  19
ATOM     19  C   UNL d   1      -5.248   2.329   0.247  0.00  0.00    -0.040 A 
ATOM     20  C   UNL d   1      -4.561   2.582   1.442  0.00  0.00     0.009 A 
ATOM     21  C   UNL d   1      -4.822   3.738   2.186  0.00  0.00     0.001 A 
ATOM     22  C   UNL d   1      -5.764   4.663   1.742  0.00  0.00     0.000 A 
ATOM     23  C   UNL d   1      -6.439   4.443   0.546  0.00  0.00     0.001 A 
ATOM     24  C   UNL d   1      -6.179   3.288  -0.196  0.00  0.00     0.009 A 
ENDBRANCH  18  19
ENDBRANCH  11  18
TORSDOF 2
