REMARK  3 active torsions:
REMARK  status: ('A' for Active; 'I' for Inactive)
REMARK    1  A    between atoms: C_10  and  C_1 
REMARK    2  A    between atoms: O_15  and  N_5 
REMARK    3  A    between atoms: C_14  and  C_10 
ROOT
ATOM      1  C   UNL d   1       1.428   5.397   2.630  0.00  0.00    -0.034 C 
ATOM      2  C   UNL d   1      -0.525   7.021   2.398  0.00  0.00    -0.013 C 
ATOM      3  C   UNL d   1       1.492   7.278   0.919  0.00  0.00    -0.013 C 
ATOM      4  C   UNL d   1       1.653   7.818   3.375  0.00  0.00    -0.013 C 
ATOM      5  C   UNL d   1       1.902   5.826   1.220  0.00  0.00     0.014 C 
ATOM      6  C   UNL d   1       2.055   6.360   3.670  0.00  0.00     0.014 C 
ATOM      7  C   UNL d   1      -0.117   5.569   2.694  0.00  0.00     0.014 C 
ATOM      8  C   UNL d   1       0.123   7.951   3.437  0.00  0.00     0.009 C 
ATOM      9  C   UNL d   1       2.134   8.204   1.966  0.00  0.00     0.009 C 
ATOM     10  C   UNL d   1      -0.036   7.404   0.993  0.00  0.00     0.009 C 
ENDROOT
BRANCH   1  11
ATOM     11  C   UNL d   1       1.756   3.916   2.926  0.00  0.00     0.063 C 
BRANCH  11  12
ATOM     12  C   UNL d   1       3.235   3.548   2.954  0.00  0.00     0.006 C 
ATOM     13  N   UNL d   1       3.873   3.705   4.077  0.00  0.00    -0.278 N 
ATOM     14  HN  UNL d   1       3.446   4.073   4.927  1.00  0.00     0.193 HD
ATOM     15  C   UNL d   1       3.841   2.994   1.681  0.00  0.00     0.065 C 
BRANCH  13  16
ATOM     16  O   UNL d   1       5.209   3.313   3.985  0.00  0.00    -0.290 OA
ATOM     17  H   UNL d   1       5.532   3.458   4.894  0.00  0.00     0.244 HD
ENDBRANCH  13  16
ENDBRANCH  11  12
ENDBRANCH   1  11
TORSDOF 3
