REMARK  5 active torsions:
REMARK  status: ('A' for Active; 'I' for Inactive)
REMARK    1  A    between atoms: C_8  and  C_3 
REMARK    2  A    between atoms: C_15  and  C_6 
REMARK    3  A    between atoms: C_9  and  S_14 
REMARK    4  A    between atoms: C_10  and  C_11 
REMARK    5  A    between atoms: S_14  and  C_15 
ROOT
ATOM      1  N   UNL d   1       0.744   0.221  -1.038  0.00  0.00    -0.322 N 
ATOM      2  HN  UNL d   1       1.282   0.475  -1.867  1.00  0.00     0.169 HD
ATOM      3  C   UNL d   1       0.197   1.047  -0.080  0.00  0.00     0.137 A 
ATOM      4  N   UNL d   1      -0.519   0.394   0.852  0.00  0.00    -0.242 N 
ATOM      5  HN  UNL d   1      -1.042   0.788   1.634  1.00  0.00     0.196 HD
ATOM      6  C   UNL d   1       0.402  -0.977  -0.618  0.00  0.00     0.158 A 
ATOM      7  O   UNL d   1      -0.378  -0.949   0.500  0.00  0.00    -0.222 OA
ENDROOT
BRANCH   3   8
ATOM      8  C   UNL d   1       0.441   2.485  -0.076  0.00  0.00     0.010 A 
ATOM      9  C   UNL d   1       1.219   3.068  -1.082  0.00  0.00     0.016 A 
ATOM     10  C   UNL d   1       1.505   4.438  -1.064  0.00  0.00     0.009 A 
ATOM     11  C   UNL d   1       1.026   5.276  -0.040  0.00  0.00    -0.051 A 
ATOM     12  C   UNL d   1       0.235   4.682   0.957  0.00  0.00     0.009 A 
ATOM     13  C   UNL d   1      -0.053   3.309   0.939  0.00  0.00     0.016 A 
BRANCH  11  14
ATOM     14  C   UNL d   1       1.385   6.773  -0.037  0.00  0.00    -0.024 C 
ATOM     15  C   UNL d   1       0.791   7.554   1.156  0.00  0.00     0.019 C 
ATOM     16  C   UNL d   1       2.920   6.937   0.029  0.00  0.00     0.019 C 
ATOM     17  C   UNL d   1       0.861   7.439  -1.327  0.00  0.00     0.019 C 
ENDBRANCH  11  14
ENDBRANCH   3   8
BRANCH   6  18
ATOM     18  C   UNL d   1       0.787  -2.311  -1.142  0.00  0.00     0.167 C 
BRANCH  18  19
ATOM     19  S   UNL d   1       2.590  -2.533  -0.940  0.00  0.00    -0.104 SA
BRANCH  19  20
ATOM     20  C   UNL d   1       2.823  -4.116  -1.715  0.00  0.00     0.069 A 
ATOM     21  N   UNL d   1       1.740  -4.799  -2.147  0.00  0.00    -0.361 N 
ATOM     22  C   UNL d   1       1.964  -6.006  -2.715  0.00  0.00     0.089 A 
ATOM     23  HN  UNL d   1       0.797  -4.422  -2.050  1.00  0.00     0.165 HD
ATOM     24  C   UNL d   1       3.220  -6.570  -2.870  0.00  0.00     0.017 A 
ATOM     25  C   UNL d   1       4.320  -5.850  -2.421  0.00  0.00     0.004 A 
ATOM     26  C   UNL d   1       4.119  -4.605  -1.835  0.00  0.00     0.037 A 
ENDBRANCH  19  20
ENDBRANCH  18  19
ENDBRANCH   6  18
TORSDOF 5
