REMARK  4 active torsions:
REMARK  status: ('A' for Active; 'I' for Inactive)
REMARK    1  A    between atoms: C_2  and  C_1 
REMARK       I    between atoms: N_7  and  C_2 
REMARK    2  A    between atoms: C_3  and  C_11 
REMARK       I    between atoms: C_6  and  N_8 
REMARK    3  A    between atoms: C_12  and  C_6 
REMARK    4  A    between atoms: N_8  and  N_7 
ROOT
ATOM      1  C   UNL d   1       0.802   5.320   0.002  0.00  0.00     0.270 C 
ATOM      2  N   UNL d   1       0.376   4.011   0.100  0.00  0.00    -0.263 N 
ATOM      3  O   UNL d   1       0.051   6.255  -0.261  0.00  0.00    -0.266 OA
ATOM      4  H   UNL d   1       1.009   3.214   0.048  0.00  0.00     0.190 HD
ENDROOT
BRANCH   1   5
ATOM      5  C   UNL d   1       2.249   5.562   0.242  0.00  0.00     0.033 A 
ATOM      6  C   UNL d   1       2.886   6.596  -0.452  0.00  0.00     0.018 A 
ATOM      7  C   UNL d   1       4.226   6.900  -0.188  0.00  0.00     0.017 A 
ATOM      8  C   UNL d   1       4.941   6.186   0.786  0.00  0.00     0.048 A 
ATOM      9  C   UNL d   1       4.295   5.149   1.477  0.00  0.00     0.017 A 
ATOM     10  C   UNL d   1       2.958   4.834   1.207  0.00  0.00     0.018 A 
BRANCH   8  11
ATOM     11  C   UNL d   1       6.375   6.558   1.094  0.00  0.00     0.417 C 
ATOM     12  F   UNL d   1       6.926   5.815   2.093  0.00  0.00    -0.166 F 
ATOM     13  F   UNL d   1       7.193   6.402   0.017  0.00  0.00    -0.166 F 
ATOM     14  F   UNL d   1       6.505   7.858   1.479  0.00  0.00    -0.166 F 
ENDBRANCH   8  11
ENDBRANCH   1   5
BRANCH   2  15
ATOM     15  N   UNL d   1      -0.981   3.745  -0.122  0.00  0.00    -0.263 N 
ATOM     16  C   UNL d   1      -1.379   2.483  -0.525  0.00  0.00     0.277 C 
ATOM     17  O   UNL d   1      -0.550   1.582  -0.670  0.00  0.00    -0.265 OA
ATOM     18  H   UNL d   1      -1.625   4.534  -0.080  0.00  0.00     0.190 HD
BRANCH  16  19
ATOM     19  C   UNL d   1      -2.807   2.300  -0.758  0.00  0.00     0.074 A 
ATOM     20  S   UNL d   1      -3.951   3.545  -0.484  0.00  0.00    -0.096 SA
ATOM     21  C   UNL d   1      -5.255   2.553  -0.967  0.00  0.00     0.057 A 
ATOM     22  C   UNL d   1      -4.853   1.285  -1.338  0.00  0.00    -0.054 A 
ATOM     23  C   UNL d   1      -3.433   1.147  -1.200  0.00  0.00     0.031 A 
ATOM     24  C   UNL d   1      -5.774   0.213  -1.816  0.00  0.00     0.048 C 
ENDBRANCH  16  19
ENDBRANCH   2  15
TORSDOF 4
