REMARK  4 active torsions:
REMARK  status: ('A' for Active; 'I' for Inactive)
REMARK    1  A    between atoms: C_10  and  C_1 
REMARK    2  A    between atoms: N_3  and  C_10 
REMARK    3  A    between atoms: S_19  and  C_4 
REMARK    4  A    between atoms: C_11  and  C_15 
ROOT
ATOM      1  N   UNL d   1       1.811   2.803  -0.214  0.00  0.00    -0.309 N 
ATOM      2  C   UNL d   1       2.497   3.404   0.903  0.00  0.00     0.055 A 
ATOM      3  C   UNL d   1       2.481   2.289  -1.326  0.00  0.00     0.234 C 
ATOM      4  C   UNL d   1       1.816   4.221   1.824  0.00  0.00     0.047 A 
ATOM      5  S   UNL d   1       4.842   2.151   0.049  0.00  0.00    -0.118 SA
ATOM      6  C   UNL d   1       2.467   4.821   2.919  0.00  0.00     0.050 A 
ATOM      7  C   UNL d   1       3.868   3.178   1.127  0.00  0.00     0.028 A 
ATOM      8  C   UNL d   1       3.963   2.566  -1.460  0.00  0.00     0.182 C 
ATOM      9  O   UNL d   1       1.887   1.709  -2.241  0.00  0.00    -0.272 OA
ATOM     10  C   UNL d   1       3.821   4.548   3.130  0.00  0.00     0.017 A 
ATOM     11  C   UNL d   1       4.514   3.726   2.245  0.00  0.00     0.021 A 
ENDROOT
BRANCH   1  12
ATOM     12  C   UNL d   1       0.367   2.544  -0.134  0.00  0.00     0.210 C 
BRANCH  12  13
ATOM     13  C   UNL d   1      -0.449   3.675  -0.669  0.00  0.00     0.118 A 
ATOM     14  N   UNL d   1      -0.963   3.799  -1.943  0.00  0.00    -0.318 N 
ATOM     15  C   UNL d   1      -1.672   4.971  -1.938  0.00  0.00     0.162 A 
ATOM     16  C   UNL d   1      -0.812   2.888  -3.049  0.00  0.00     0.160 C 
ATOM     17  N   UNL d   1      -1.625   5.515  -0.746  0.00  0.00    -0.278 N 
ATOM     18  N   UNL d   1      -0.875   4.700   0.051  0.00  0.00    -0.285 N 
ATOM     19  HN  UNL d   1      -2.068   6.389  -0.465  1.00  0.00     0.189 HD
ATOM     20  HN  UNL d   1      -0.675   4.855   1.039  1.00  0.00     0.188 HD
BRANCH  15  21
ATOM     21  S   UNL d   1      -2.509   5.616  -3.306  0.00  0.00    -0.097 SA
ATOM     22  C   UNL d   1      -3.200   7.122  -2.576  0.00  0.00     0.099 C 
ENDBRANCH  15  21
ENDBRANCH  12  13
ENDBRANCH   1  12
BRANCH   6  23
ATOM     23  C   UNL d   1       1.730   5.753   3.852  0.00  0.00     0.417 C 
ATOM     24  F   UNL d   1       0.444   6.000   3.487  0.00  0.00    -0.166 F 
ATOM     25  F   UNL d   1       1.672   5.268   5.123  0.00  0.00    -0.166 F 
ATOM     26  F   UNL d   1       2.334   6.971   3.947  0.00  0.00    -0.166 F 
ENDBRANCH   6  23
TORSDOF 4
