REMARK  8 active torsions:
REMARK  status: ('A' for Active; 'I' for Inactive)
REMARK    1  A    between atoms: N_6  and  C_1 
REMARK    2  A    between atoms: N_7  and  C_1 
REMARK    3  A    between atoms: N_2  and  N_6 
REMARK    4  A    between atoms: N_4  and  C_17 
REMARK    5  A    between atoms: C_21  and  N_7 
REMARK    6  A    between atoms: C_10  and  C_9 
REMARK    7  A    between atoms: C_17  and  C_18 
REMARK    8  A    between atoms: C_18  and  C_21 
ROOT
ATOM      1  C   UNL d   1       2.281   1.210   0.655  0.00  0.00     0.186 C 
ATOM      2  S   UNL d   1       2.758   2.652  -0.059  0.00  0.00    -0.040 SA
ENDROOT
BRANCH   1   3
ATOM      3  N   UNL d   1       1.899   1.089   1.993  0.00  0.00    -0.277 N 
ATOM      4  H   UNL d   1       1.561   0.202   2.341  0.00  0.00     0.189 HD
BRANCH   3   5
ATOM      5  N   UNL d   1       2.392   1.994   2.888  0.00  0.00    -0.309 N 
ATOM      6  C   UNL d   1       2.154   1.801   4.142  0.00  0.00     0.118 C 
ATOM      7  HN  UNL d   1       2.933   2.800   2.575  1.00  0.00     0.186 HD
BRANCH   6   8
ATOM      8  C   UNL d   1       2.764   2.710   5.144  0.00  0.00    -0.019 A 
ATOM      9  C   UNL d   1       3.708   3.666   4.740  0.00  0.00     0.014 A 
ATOM     10  C   UNL d   1       4.270   4.538   5.679  0.00  0.00     0.024 A 
ATOM     11  C   UNL d   1       3.886   4.445   7.012  0.00  0.00     0.034 A 
ATOM     12  C   UNL d   1       2.957   3.479   7.425  0.00  0.00     0.024 A 
ATOM     13 CL   UNL d   1       4.560   5.529   8.169  0.00  0.00    -0.084 Cl
ATOM     14  C   UNL d   1       2.392   2.612   6.488  0.00  0.00     0.014 A 
ENDBRANCH   6   8
ENDBRANCH   3   5
ENDBRANCH   1   3
BRANCH   1  15
ATOM     15  N   UNL d   1       2.313  -0.027   0.023  0.00  0.00    -0.366 N 
ATOM     16  H   UNL d   1       1.682  -0.742   0.358  0.00  0.00     0.161 HD
BRANCH  15  17
ATOM     17  C   UNL d   1       3.094  -0.347  -1.170  0.00  0.00     0.123 C 
BRANCH  17  18
ATOM     18  C   UNL d   1       4.604  -0.315  -0.897  0.00  0.00     0.050 C 
BRANCH  18  19
ATOM     19  C   UNL d   1       5.394  -0.586  -2.181  0.00  0.00     0.274 C 
BRANCH  19  20
ATOM     20  N   UNL d   1       6.858  -0.526  -2.009  0.00  0.00     0.092 N 
ATOM     21  C   UNL d   1       7.350   0.807  -1.580  0.00  0.00     0.298 C 
ATOM     22  C   UNL d   1       7.208   1.892  -2.659  0.00  0.00     0.198 C 
ATOM     23  O   UNL d   1       7.903   1.519  -3.858  0.00  0.00    -0.388 OA
ATOM     24  C   UNL d   1       7.437   0.257  -4.351  0.00  0.00     0.198 C 
ATOM     25  C   UNL d   1       7.548  -0.849  -3.284  0.00  0.00     0.298 C 
ENDBRANCH  19  20
ENDBRANCH  18  19
ENDBRANCH  17  18
ENDBRANCH  15  17
ENDBRANCH   1  15
TORSDOF 8
