REMARK  6 active torsions:
REMARK  status: ('A' for Active; 'I' for Inactive)
REMARK    1  A    between atoms: C_3  and  C_1 
REMARK    2  A    between atoms: C_10  and  N_2 
REMARK    3  A    between atoms: C_8  and  C_9 
REMARK    4  A    between atoms: S_11  and  C_8 
REMARK    5  A    between atoms: C_9  and  C_10 
REMARK    6  A    between atoms: C_17  and  S_11 
ROOT
ATOM      1  C   UNL d   1      -2.910   0.346   0.436  0.00  0.00     0.140 C 
ENDROOT
BRANCH   1   2
ATOM      2  C   UNL d   1      -3.796   1.524   0.049  0.00  0.00     0.111 C 
BRANCH   2   3
ATOM      3  C   UNL d   1      -5.156   1.151  -0.496  0.00  0.00     0.192 C 
ATOM      4  O   UNL d   1      -5.425   1.353  -1.677  0.00  0.00    -0.285 OA
BRANCH   3   5
ATOM      5  S   UNL d   1      -6.321   0.576   0.685  0.00  0.00    -0.053 SA
BRANCH   5   6
ATOM      6  C   UNL d   1      -7.599  -0.331  -0.176  0.00  0.00     0.008 A 
ATOM      7  C   UNL d   1      -7.827  -0.333  -1.554  0.00  0.00     0.019 A 
ATOM      8  C   UNL d   1      -8.851  -1.105  -2.121  0.00  0.00     0.008 A 
ATOM      9  C   UNL d   1      -9.689  -1.882  -1.320  0.00  0.00    -0.062 A 
ATOM     10  C   UNL d   1      -9.489  -1.871   0.062  0.00  0.00     0.008 A 
ATOM     11  C   UNL d   1     -10.738  -2.749  -1.948  0.00  0.00     0.048 C 
ATOM     12  C   UNL d   1      -8.461  -1.101   0.623  0.00  0.00     0.019 A 
ENDBRANCH   5   6
ENDBRANCH   3   5
ENDBRANCH   2   3
ENDBRANCH   1   2
BRANCH   1  13
ATOM     13  N   UNL d   1      -2.519  -0.649  -0.567  0.00  0.00    -0.323 N 
ATOM     14  C   UNL d   1      -2.762  -0.501  -1.926  0.00  0.00     0.110 A 
ATOM     15  C   UNL d   1      -2.433  -1.449  -2.822  0.00  0.00     0.063 A 
ATOM     16  C   UNL d   1      -1.778  -2.655  -2.353  0.00  0.00     0.023 A 
ATOM     17  C   UNL d   1      -1.478  -2.816  -1.059  0.00  0.00     0.075 A 
ATOM     18  C   UNL d   1      -1.831  -1.766  -0.069  0.00  0.00     0.247 A 
ATOM     19  O   UNL d   1      -1.520  -1.924   1.109  0.00  0.00    -0.268 OA
BRANCH  15  20
ATOM     20  C   UNL d   1      -2.748  -1.306  -4.286  0.00  0.00     0.418 C 
ATOM     21  F   UNL d   1      -2.644  -2.478  -4.966  0.00  0.00    -0.166 F 
ATOM     22  F   UNL d   1      -4.011  -0.851  -4.492  0.00  0.00    -0.166 F 
ATOM     23  F   UNL d   1      -1.909  -0.427  -4.892  0.00  0.00    -0.166 F 
ENDBRANCH  15  20
ENDBRANCH   1  13
TORSDOF 6
