REMARK  4 active torsions:
REMARK  status: ('A' for Active; 'I' for Inactive)
REMARK    1  A    between atoms: S_11  and  C_2 
REMARK    2  A    between atoms: C_8  and  C_3 
REMARK    3  A    between atoms: C_16  and  S_11 
REMARK    4  A    between atoms: C_17  and  C_16 
ROOT
ATOM      1  C   UNL d   1       2.506   0.761   0.204  0.00  0.00     0.090 A 
ATOM      2  C   UNL d   1       2.493  -0.634   0.116  0.00  0.00     0.092 A 
ATOM      3  C   UNL d   1       1.285   1.477   0.120  0.00  0.00     0.013 A 
ATOM      4  N   UNL d   1       1.349  -1.341  -0.009  0.00  0.00    -0.352 N 
ATOM      5  HN  UNL d   1       1.370  -2.358  -0.084  1.00  0.00     0.166 HD
ATOM      6  C   UNL d   1       0.080   0.734  -0.009  0.00  0.00    -0.022 A 
ATOM      7  C   UNL d   1       0.170  -0.668  -0.033  0.00  0.00     0.017 A 
ATOM      8  C   UNL d   1       3.754   1.444   0.402  0.00  0.00     0.103 C 
ATOM      9  N   UNL d   1       4.756   2.009   0.535  0.00  0.00    -0.191 NA
ATOM     10  C   UNL d   1      -1.284   1.397  -0.049  0.00  0.00     0.041 C 
ATOM     11  C   UNL d   1      -1.058  -1.546  -0.115  0.00  0.00     0.057 C 
ATOM     12  C   UNL d   1      -2.440   0.486  -0.457  0.00  0.00     0.005 C 
ATOM     13  C   UNL d   1      -2.344  -0.835   0.287  0.00  0.00     0.006 C 
ENDROOT
BRANCH   2  14
ATOM     14  S   UNL d   1       3.997  -1.594   0.298  0.00  0.00    -0.106 SA
BRANCH  14  15
ATOM     15  C   UNL d   1       3.713  -2.986  -0.849  0.00  0.00     0.119 C 
BRANCH  15  16
ATOM     16  C   UNL d   1       4.976  -3.819  -0.970  0.00  0.00    -0.049 A 
ATOM     17  C   UNL d   1       5.290  -4.777   0.009  0.00  0.00     0.008 A 
ATOM     18  C   UNL d   1       6.485  -5.498  -0.055  0.00  0.00     0.001 A 
ATOM     19  C   UNL d   1       7.383  -5.269  -1.095  0.00  0.00     0.000 A 
ATOM     20  C   UNL d   1       7.083  -4.325  -2.076  0.00  0.00     0.001 A 
ATOM     21  C   UNL d   1       5.887  -3.603  -2.014  0.00  0.00     0.008 A 
ENDBRANCH  15  16
ENDBRANCH  14  15
ENDBRANCH   2  14
BRANCH   3  22
ATOM     22  C   UNL d   1       1.305   2.967   0.146  0.00  0.00     0.017 A 
ATOM     23  S   UNL d   1       0.365   3.857   1.282  0.00  0.00    -0.101 SA
ATOM     24  C   UNL d   1       0.878   5.361   0.660  0.00  0.00     0.050 A 
ATOM     25  C   UNL d   1       1.852   5.210  -0.297  0.00  0.00     0.008 A 
ATOM     26  C   UNL d   1       2.085   3.837  -0.604  0.00  0.00     0.020 A 
ENDBRANCH   3  22
TORSDOF 4
