REMARK  2 active torsions:
REMARK  status: ('A' for Active; 'I' for Inactive)
REMARK    1  A    between atoms: C_5  and  N_1 
REMARK    2  A    between atoms: C_6  and  C_5 
REMARK       I    between atoms: N_8  and  C_6 
ROOT
ATOM      1  N   UNL d   1       1.392  -1.102  -0.179  0.00  0.00    -0.282 N 
ATOM      2  C   UNL d   1       1.631  -0.176  -1.173  0.00  0.00     0.373 A 
ATOM      3  C   UNL d   1       0.374  -0.617   0.610  0.00  0.00     0.074 A 
ATOM      4  O   UNL d   1       0.867   0.981  -0.981  0.00  0.00    -0.259 OA
ATOM      5  C   UNL d   1       0.092   0.641   0.116  0.00  0.00     0.107 A 
ATOM      6  O   UNL d   1       2.377  -0.333  -2.134  0.00  0.00    -0.237 OA
ATOM      7  C   UNL d   1      -0.349  -1.175   1.644  0.00  0.00     0.039 A 
ATOM      8  C   UNL d   1      -0.904   1.429   0.653  0.00  0.00     0.040 A 
ATOM      9  C   UNL d   1      -1.410  -0.422   2.174  0.00  0.00    -0.060 A 
ATOM     10  C   UNL d   1      -1.663   0.885   1.693  0.00  0.00     0.009 A 
ATOM     11  C   UNL d   1      -2.322  -1.004   3.217  0.00  0.00     0.048 C 
ENDROOT
BRANCH   1  12
ATOM     12  C   UNL d   1       2.015  -2.397  -0.125  0.00  0.00     0.237 C 
BRANCH  12  13
ATOM     13  C   UNL d   1       3.514  -2.293   0.210  0.00  0.00     0.238 C 
ATOM     14  N   UNL d   1       4.254  -3.470   0.162  0.00  0.00    -0.347 N 
ATOM     15  C   UNL d   1       5.704  -3.415   0.375  0.00  0.00     0.152 C 
ATOM     16  C   UNL d   1       3.776  -4.771  -0.316  0.00  0.00     0.152 C 
ATOM     17  C   UNL d   1       6.162  -4.588   1.245  0.00  0.00     0.187 C 
ATOM     18  O   UNL d   1       5.755  -5.841   0.670  0.00  0.00    -0.388 OA
ATOM     19  C   UNL d   1       4.327  -5.907   0.556  0.00  0.00     0.187 C 
ATOM     20  O   UNL d   1       4.028  -1.228   0.558  0.00  0.00    -0.272 OA
ENDBRANCH  12  13
ENDBRANCH   1  12
TORSDOF 2
