REMARK  8 active torsions:
REMARK  status: ('A' for Active; 'I' for Inactive)
REMARK    1  A    between atoms: C_3  and  C_1 
REMARK    2  A    between atoms: O_9  and  C_2 
REMARK    3  A    between atoms: N_22  and  C_3 
REMARK    4  A    between atoms: C_4  and  C_8 
REMARK    5  A    between atoms: O_15  and  N_5 
REMARK    6  A    between atoms: C_7  and  O_15 
REMARK       I    between atoms: N_14  and  C_7 
REMARK    7  A    between atoms: C_17  and  O_9 
REMARK    8  A    between atoms: C_23  and  N_14 
ROOT
ATOM      1  C   UNL d   1      -3.283  -1.962  -0.138  0.00  0.00     0.124 A 
ATOM      2  C   UNL d   1      -3.861  -3.209   0.067  0.00  0.00     0.178 A 
ATOM      3  N   UNL d   1      -4.003  -0.840  -0.443  0.00  0.00    -0.358 N 
ATOM      4  HN  UNL d   1      -3.566   0.066  -0.608  1.00  0.00     0.165 HD
ATOM      5  N   UNL d   1      -5.207  -3.380  -0.047  0.00  0.00    -0.343 N 
ATOM      6  HN  UNL d   1      -5.646  -4.294   0.063  1.00  0.00     0.167 HD
ATOM      7  C   UNL d   1      -5.339  -1.026  -0.509  0.00  0.00     0.105 A 
ATOM      8  C   UNL d   1      -5.928  -2.265  -0.314  0.00  0.00     0.107 A 
ENDROOT
BRANCH   1   9
ATOM      9  C   UNL d   1      -1.845  -1.685   0.119  0.00  0.00     0.130 C 
ATOM     10  N   UNL d   1      -1.471  -1.719   1.363  0.00  0.00    -0.243 N 
ATOM     11  HN  UNL d   1      -2.066  -2.026   2.132  1.00  0.00     0.196 HD
BRANCH  10  12
ATOM     12  O   UNL d   1      -0.130  -1.274   1.520  0.00  0.00    -0.179 OA
BRANCH  12  13
ATOM     13  C   UNL d   1      -0.008  -0.457   2.640  0.00  0.00     0.387 C 
ATOM     14  N   UNL d   1      -1.227  -0.019   3.099  0.00  0.00    -0.301 N 
ATOM     15  H   UNL d   1      -1.978  -0.370   2.517  0.00  0.00     0.171 HD
ATOM     16  O   UNL d   1       1.093  -0.147   3.075  0.00  0.00    -0.236 OA
BRANCH  14  17
ATOM     17  C   UNL d   1      -1.549   0.732   4.232  0.00  0.00     0.037 A 
ATOM     18  C   UNL d   1      -0.623   1.102   5.206  0.00  0.00     0.031 A 
ATOM     19  C   UNL d   1      -1.045   1.783   6.354  0.00  0.00     0.026 A 
ATOM     20  C   UNL d   1      -2.391   2.107   6.518  0.00  0.00     0.034 A 
ATOM     21  C   UNL d   1      -3.319   1.768   5.538  0.00  0.00     0.026 A 
ATOM     22 CL   UNL d   1      -2.912   2.917   7.942  0.00  0.00    -0.084 Cl
ATOM     23  C   UNL d   1      -2.897   1.079   4.398  0.00  0.00     0.031 A 
ENDBRANCH  14  17
ENDBRANCH  12  13
ENDBRANCH  10  12
BRANCH   9  24
ATOM     24  N   UNL d   1      -1.052  -1.285  -0.934  0.00  0.00    -0.285 NA
ATOM     25  H   UNL d   1      -1.536  -0.789  -1.676  0.00  0.00     0.125 HD
ATOM     26  H   UNL d   1      -0.191  -0.828  -0.648  0.00  0.00     0.125 HD
ENDBRANCH   9  24
ENDBRANCH   1   9
BRANCH   2  27
ATOM     27  O   UNL d   1      -3.049  -4.304   0.332  0.00  0.00    -0.291 OA
BRANCH  27  28
ATOM     28  C   UNL d   1      -3.665  -5.443   0.808  0.00  0.00     0.078 A 
ATOM     29  C   UNL d   1      -3.455  -6.638   0.119  0.00  0.00     0.053 A 
ATOM     30  C   UNL d   1      -4.041  -7.831   0.578  0.00  0.00     0.050 A 
ATOM     31  C   UNL d   1      -4.827  -7.798   1.742  0.00  0.00     0.016 A 
ATOM     32  C   UNL d   1      -5.007  -6.606   2.444  0.00  0.00     0.004 A 
ATOM     33  C   UNL d   1      -4.413  -5.432   1.987  0.00  0.00     0.037 A 
BRANCH  30  34
ATOM     34  C   UNL d   1      -3.848  -9.136  -0.152  0.00  0.00     0.417 C 
ATOM     35  F   UNL d   1      -3.019  -9.047  -1.230  0.00  0.00    -0.166 F 
ATOM     36  F   UNL d   1      -3.317 -10.106   0.645  0.00  0.00    -0.166 F 
ATOM     37  F   UNL d   1      -5.020  -9.647  -0.624  0.00  0.00    -0.166 F 
ENDBRANCH  30  34
ENDBRANCH  27  28
ENDBRANCH   2  27
TORSDOF 8
