REMARK  6 active torsions:
REMARK  status: ('A' for Active; 'I' for Inactive)
REMARK    1  A    between atoms: N_6  and  C_1 
REMARK    2  A    between atoms: N_9  and  C_1 
REMARK    3  A    between atoms: N_2  and  N_6 
REMARK    4  A    between atoms: O_14  and  C_4 
REMARK    5  A    between atoms: O_15  and  C_7 
REMARK    6  A    between atoms: C_12  and  C_11 
ROOT
ATOM      1  C   UNL d   1      -5.175  -1.283  -1.141  0.00  0.00     0.102 A 
ATOM      2  C   UNL d   1      -5.932  -2.281  -0.486  0.00  0.00     0.101 A 
ATOM      3  C   UNL d   1      -3.773  -1.354  -1.101  0.00  0.00     0.052 A 
ATOM      4  C   UNL d   1      -5.280  -3.306   0.207  0.00  0.00     0.040 A 
ATOM      5  C   UNL d   1      -3.138  -2.391  -0.409  0.00  0.00    -0.017 A 
ATOM      6  C   UNL d   1      -3.892  -3.367   0.243  0.00  0.00     0.016 A 
ENDROOT
BRANCH   5   7
ATOM      7  C   UNL d   1      -1.662  -2.447  -0.349  0.00  0.00     0.118 C 
ATOM      8  N   UNL d   1      -1.086  -3.422   0.275  0.00  0.00    -0.309 N 
ATOM      9  HN  UNL d   1      -1.626  -4.160   0.725  1.00  0.00     0.186 HD
BRANCH   8  10
ATOM     10  N   UNL d   1       0.277  -3.418   0.303  0.00  0.00    -0.277 N 
ATOM     11  H   UNL d   1       0.815  -2.684  -0.147  0.00  0.00     0.189 HD
BRANCH  10  12
ATOM     12  C   UNL d   1       0.947  -4.432   0.966  0.00  0.00     0.186 C 
ATOM     13  S   UNL d   1       2.609  -4.447   1.014  0.00  0.00    -0.040 SA
BRANCH  12  14
ATOM     14  N   UNL d   1       0.090  -5.342   1.528  0.00  0.00    -0.370 N 
ATOM     15  C   UNL d   1       0.372  -6.534   2.290  0.00  0.00     0.148 C 
ATOM     16  H   UNL d   1      -0.879  -5.100   1.337  0.00  0.00     0.161 HD
ENDBRANCH  12  14
ENDBRANCH  10  12
ENDBRANCH   8  10
ENDBRANCH   5   7
BRANCH   1  17
ATOM     17  O   UNL d   1      -5.864  -0.269  -1.750  0.00  0.00    -0.353 OA
ATOM     18  C   UNL d   1      -5.123   0.758  -2.394  0.00  0.00     0.210 C 
ENDBRANCH   1  17
BRANCH   2  19
ATOM     19  O   UNL d   1      -7.295  -2.357  -0.376  0.00  0.00    -0.353 OA
ATOM     20  C   UNL d   1      -8.063  -1.881  -1.473  0.00  0.00     0.210 C 
ENDBRANCH   2  19
TORSDOF 6
