REMARK  1 active torsions:
REMARK  status: ('A' for Active; 'I' for Inactive)
REMARK    1  A    between atoms: C_6  and  N_1 
ROOT
ATOM      1  N   UNL d   1      -0.004   0.906  -0.041  0.00  0.00    -0.245 N 
ATOM      2  C   UNL d   1       0.917   0.105  -0.660  0.00  0.00     0.255 A 
ATOM      3  C   UNL d   1      -0.930   0.122   0.590  0.00  0.00     0.255 A 
ATOM      4  C   UNL d   1      -0.558  -1.278   0.357  0.00  0.00     0.080 A 
ATOM      5  C   UNL d   1       0.544  -1.289  -0.387  0.00  0.00     0.080 A 
ATOM      6  O   UNL d   1       1.917   0.374  -1.303  0.00  0.00    -0.268 OA
ATOM      7  O   UNL d   1      -1.937   0.410   1.216  0.00  0.00    -0.268 OA
ENDROOT
BRANCH   1   8
ATOM      8  C   UNL d   1      -0.000   2.330  -0.055  0.00  0.00     0.046 A 
ATOM      9  C   UNL d   1       0.714   3.047  -1.030  0.00  0.00     0.033 A 
ATOM     10  C   UNL d   1       0.712   4.447  -1.048  0.00  0.00     0.044 A 
ATOM     11  C   UNL d   1       0.009   5.144  -0.077  0.00  0.00     0.116 A 
ATOM     12  C   UNL d   1      -0.697   4.468   0.904  0.00  0.00     0.044 A 
ATOM     13  F   UNL d   1       0.014   6.483  -0.088  0.00  0.00    -0.206 F 
ATOM     14  C   UNL d   1      -0.710   3.068   0.909  0.00  0.00     0.033 A 
ENDBRANCH   1   8
TORSDOF 1
