REMARK  6 active torsions:
REMARK  status: ('A' for Active; 'I' for Inactive)
REMARK    1  A    between atoms: C_6  and  C_1 
REMARK    2  A    between atoms: N_9  and  C_3 
REMARK    3  A    between atoms: C_7  and  C_4 
REMARK    4  A    between atoms: O_12  and  C_6 
REMARK    5  A    between atoms: C_16  and  C_13 
REMARK    6  A    between atoms: C_17  and  C_16 
ROOT
ATOM      1  C   UNL d   1      -0.720   0.737  -0.791  0.00  0.00     0.107 A 
ATOM      2  S   UNL d   1       0.137  -0.528  -1.579  0.00  0.00    -0.081 SA
ATOM      3  C   UNL d   1      -0.531   0.671   0.574  0.00  0.00     0.050 A 
ATOM      4  C   UNL d   1       0.754  -1.159  -0.108  0.00  0.00     0.018 A 
ATOM      5  C   UNL d   1       0.304  -0.408   0.963  0.00  0.00     0.050 A 
ENDROOT
BRANCH   4   6
ATOM      6  C   UNL d   1       1.638  -2.338  -0.081  0.00  0.00    -0.019 A 
ATOM      7  C   UNL d   1       2.613  -2.458   0.922  0.00  0.00     0.013 A 
ATOM      8  C   UNL d   1       3.414  -3.602   1.022  0.00  0.00     0.008 A 
ATOM      9  C   UNL d   1       3.260  -4.659   0.119  0.00  0.00    -0.058 A 
ATOM     10  C   UNL d   1       2.306  -4.536  -0.897  0.00  0.00     0.008 A 
ATOM     11  C   UNL d   1       1.510  -3.389  -0.999  0.00  0.00     0.013 A 
BRANCH   9  12
ATOM     12  C   UNL d   1       4.069  -5.926   0.278  0.00  0.00     0.042 C 
BRANCH  12  13
ATOM     13  C   UNL d   1       4.926  -6.316  -0.942  0.00  0.00    -0.019 C 
ATOM     14  C   UNL d   1       5.988  -5.264  -1.268  0.00  0.00     0.010 C 
ATOM     15  C   UNL d   1       5.609  -7.665  -0.692  0.00  0.00     0.010 C 
ENDBRANCH  12  13
ENDBRANCH   9  12
ENDBRANCH   4   6
BRANCH   1  16
ATOM     16  C   UNL d   1      -1.488   1.663  -1.610  0.00  0.00     0.302 C 
ATOM     17  O   UNL d   1      -1.611   1.632  -2.829  0.00  0.00    -0.259 OA
BRANCH  16  18
ATOM     18  O   UNL d   1      -2.078   2.615  -0.817  0.00  0.00    -0.322 OA
ATOM     19  C   UNL d   1      -2.848   3.580  -1.531  0.00  0.00     0.213 C 
ENDBRANCH  16  18
ENDBRANCH   1  16
BRANCH   3  20
ATOM     20  N   UNL d   1      -1.061   1.514   1.482  0.00  0.00    -0.398 N 
ATOM     21  H   UNL d   1      -1.646   2.300   1.204  0.00  0.00     0.156 HD
ATOM     22  H   UNL d   1      -0.887   1.447   2.480  0.00  0.00     0.156 HD
ENDBRANCH   3  20
TORSDOF 6
