REMARK  3 active torsions:
REMARK  status: ('A' for Active; 'I' for Inactive)
REMARK    1  A    between atoms: C_2  and  C_1 
REMARK       I    between atoms: N_7  and  C_2 
REMARK    2  A    between atoms: C_3  and  N_8 
REMARK    3  A    between atoms: C_6  and  C_10 
ROOT
ATOM      1  C   UNL d   1      -0.072   2.854  -0.099  0.00  0.00     0.262 C 
ATOM      2  N   UNL d   1       1.091   3.577   0.216  0.00  0.00    -0.346 N 
ATOM      3  N   UNL d   1       2.103   6.358   0.427  0.00  0.00    -0.216 N 
ATOM      4  O   UNL d   1      -0.189   2.321  -1.204  0.00  0.00    -0.267 OA
ATOM      5  C   UNL d   1       1.360   4.264   1.488  0.00  0.00     0.146 C 
ATOM      6  C   UNL d   1       1.150   5.780   1.373  0.00  0.00     0.161 C 
ATOM      7  C   UNL d   1       1.938   5.007  -1.680  0.00  0.00     0.040 C 
ATOM      8  C   UNL d   1       2.114   3.760  -0.815  0.00  0.00     0.127 C 
ATOM      9  C   UNL d   1       1.756   6.359  -0.982  0.00  0.00     0.143 C 
ENDROOT
BRANCH   3  10
ATOM     10  C   UNL d   1       3.237   6.966   0.901  0.00  0.00     0.680 A 
ATOM     11  N   UNL d   1       3.426   7.000   2.229  0.00  0.00    -0.186 N 
ATOM     12  C   UNL d   1       4.503   7.663   2.729  0.00  0.00     0.133 A 
ATOM     13  HN  UNL d   1       2.770   6.534   2.856  1.00  0.00     0.184 HD
ATOM     14  C   UNL d   1       5.426   8.271   1.901  0.00  0.00     0.052 A 
ATOM     15  C   UNL d   1       5.177   8.160   0.556  0.00  0.00     0.108 A 
ATOM     16  N   UNL d   1       4.106   7.521   0.046  0.00  0.00    -0.202 N 
ATOM     17  HN  UNL d   1       3.961   7.460  -0.962  1.00  0.00     0.183 HD
BRANCH  12  18
ATOM     18  C   UNL d   1       4.679   7.756   4.232  0.00  0.00     0.433 C 
ATOM     19  F   UNL d   1       3.710   7.117   4.949  0.00  0.00    -0.165 F 
ATOM     20  F   UNL d   1       5.863   7.223   4.652  0.00  0.00    -0.165 F 
ATOM     21  F   UNL d   1       4.680   9.046   4.679  0.00  0.00    -0.165 F 
ENDBRANCH  12  18
ENDBRANCH   3  10
BRANCH   1  22
ATOM     22  C   UNL d   1      -1.119   2.711   0.904  0.00  0.00     0.094 C 
ATOM     23  C   UNL d   1      -1.680   1.543   1.387  0.00  0.00     0.057 C 
ATOM     24  C   UNL d   1      -2.699   1.785   2.356  0.00  0.00     0.032 C 
ATOM     25 CL   UNL d   1      -1.230  -0.052   0.953  0.00  0.00    -0.083 Cl
ATOM     26  C   UNL d   1      -2.920   3.129   2.550  0.00  0.00     0.052 C 
ATOM     27  S   UNL d   1      -1.972   4.080   1.497  0.00  0.00    -0.095 SA
ENDBRANCH   1  22
TORSDOF 3
