REMARK  5 active torsions:
REMARK  status: ('A' for Active; 'I' for Inactive)
REMARK    1  A    between atoms: C_12  and  C_2 
REMARK    2  A    between atoms: C_15  and  C_10 
REMARK    3  A    between atoms: C_13  and  C_11 
REMARK    4  A    between atoms: O_23  and  C_16 
REMARK    5  A    between atoms: O_24  and  C_17 
ROOT
ATOM      1  N   UNL d   1       0.295   0.632   0.028  0.00  0.00    -0.235 N 
ATOM      2  C   UNL d   1      -0.821   1.460   0.032  0.00  0.00     0.144 A 
ATOM      3  C   UNL d   1       0.142  -0.759   0.036  0.00  0.00     0.130 A 
ATOM      4  N   UNL d   1       1.604   0.968   0.009  0.00  0.00    -0.295 N 
ATOM      5  HN  UNL d   1       1.995   1.910   0.001  1.00  0.00     0.187 HD
ATOM      6  N   UNL d   1      -1.078  -1.364   0.073  0.00  0.00    -0.340 N 
ATOM      7  HN  UNL d   1      -1.170  -2.380   0.074  1.00  0.00     0.167 HD
ATOM      8  C   UNL d   1      -2.053   0.909   0.057  0.00  0.00     0.067 A 
ATOM      9  C   UNL d   1       1.409  -1.290   0.016  0.00  0.00     0.077 A 
ATOM     10  C   UNL d   1       2.283  -0.183   0.004  0.00  0.00     0.037 A 
ATOM     11  C   UNL d   1      -2.123  -0.586   0.107  0.00  0.00     0.046 A 
ENDROOT
BRANCH  11  12
ATOM     12  C   UNL d   1      -3.477  -1.208   0.194  0.00  0.00    -0.006 A 
ATOM     13  C   UNL d   1      -3.660  -2.487  -0.357  0.00  0.00     0.053 A 
ATOM     14  C   UNL d   1      -4.893  -3.154  -0.266  0.00  0.00     0.102 A 
ATOM     15  C   UNL d   1      -5.962  -2.512   0.385  0.00  0.00     0.101 A 
ATOM     16  C   UNL d   1      -5.765  -1.237   0.942  0.00  0.00     0.040 A 
ATOM     17  C   UNL d   1      -4.534  -0.589   0.858  0.00  0.00     0.016 A 
BRANCH  14  18
ATOM     18  O   UNL d   1      -5.100  -4.408  -0.773  0.00  0.00    -0.353 OA
ATOM     19  C   UNL d   1      -4.023  -5.068  -1.425  0.00  0.00     0.210 C 
ENDBRANCH  14  18
BRANCH  15  20
ATOM     20  O   UNL d   1      -7.242  -2.959   0.583  0.00  0.00    -0.353 OA
ATOM     21  C   UNL d   1      -7.607  -4.240   0.092  0.00  0.00     0.210 C 
ENDBRANCH  15  20
ENDBRANCH  11  12
BRANCH   2  22
ATOM     22  C   UNL d   1      -0.630   2.929   0.003  0.00  0.00     0.434 C 
ATOM     23  F   UNL d   1       0.640   3.388  -0.049  0.00  0.00    -0.165 F 
ATOM     24  F   UNL d   1      -1.276   3.473  -1.068  0.00  0.00    -0.165 F 
ATOM     25  F   UNL d   1      -1.200   3.503   1.100  0.00  0.00    -0.165 F 
ENDBRANCH   2  22
BRANCH  10  26
ATOM     26  C   UNL d   1       3.803  -0.199  -0.008  0.00  0.00    -0.007 C 
ATOM     27  C   UNL d   1       4.396   1.227   0.001  0.00  0.00     0.021 C 
ATOM     28  C   UNL d   1       4.331  -0.942   1.236  0.00  0.00     0.021 C 
ATOM     29  C   UNL d   1       4.312  -0.917  -1.274  0.00  0.00     0.021 C 
ENDBRANCH  10  26
TORSDOF 5
