REMARK  6 active torsions:
REMARK  status: ('A' for Active; 'I' for Inactive)
REMARK    1  A    between atoms: C_8  and  C_1 
REMARK    2  A    between atoms: O_19  and  C_8 
REMARK    3  A    between atoms: C_11  and  N_14 
REMARK    4  A    between atoms: N_14  and  C_23 
REMARK    5  A    between atoms: C_22  and  O_19 
REMARK    6  A    between atoms: C_23  and  C_22 
ROOT
ATOM      1  N   UNL d   1      -5.184  -6.480  -1.382  0.00  0.00    -0.351 N 
ATOM      2  HN  UNL d   1      -5.387  -5.487  -1.266  1.00  0.00     0.166 HD
ATOM      3  C   UNL d   1      -4.229  -7.081  -0.641  0.00  0.00     0.102 A 
ATOM      4  N   UNL d   1      -6.924  -9.874  -4.353  0.00  0.00    -0.191 NA
ATOM      5  C   UNL d   1      -6.353  -9.287  -3.532  0.00  0.00     0.101 C 
ATOM      6  C   UNL d   1      -5.634  -8.570  -2.525  0.00  0.00     0.060 A 
ATOM      7  C   UNL d   1      -3.955  -8.442  -0.814  0.00  0.00     0.050 A 
ATOM      8  C   UNL d   1      -5.870  -7.229  -2.288  0.00  0.00     0.112 A 
ATOM      9  C   UNL d   1      -4.651  -9.191  -1.764  0.00  0.00     0.028 A 
ENDROOT
BRANCH   3  10
ATOM     10  N   UNL d   1      -3.450  -6.347   0.254  0.00  0.00    -0.370 N 
ATOM     11  C   UNL d   1      -3.473  -6.808   1.640  0.00  0.00     0.151 C 
BRANCH  10  12
ATOM     12  C   UNL d   1      -3.364  -4.890   0.052  0.00  0.00     0.150 C 
BRANCH  12  13
ATOM     13  C   UNL d   1      -1.888  -4.472  -0.087  0.00  0.00     0.199 C 
BRANCH  13  14
ATOM     14  O   UNL d   1      -1.115  -4.725   1.105  0.00  0.00    -0.315 OA
BRANCH  14  15
ATOM     15  C   UNL d   1      -1.248  -3.813   2.106  0.00  0.00     0.303 C 
ATOM     16  O   UNL d   1      -1.994  -2.842   2.035  0.00  0.00    -0.259 OA
BRANCH  15  17
ATOM     17  C   UNL d   1      -0.411  -4.156   3.224  0.00  0.00     0.121 A 
ATOM     18  C   UNL d   1       0.475  -5.190   3.510  0.00  0.00     0.047 A 
ATOM     19  N   UNL d   1       1.075  -5.103   4.768  0.00  0.00    -0.298 N 
ATOM     20  C   UNL d   1       0.877  -6.364   2.692  0.00  0.00     0.071 C 
ATOM     21  N   UNL d   1       0.678  -4.040   5.440  0.00  0.00    -0.269 N 
ATOM     22  HN  UNL d   1       1.744  -5.784   5.126  1.00  0.00     0.187 HD
ATOM     23  S   UNL d   1      -0.421  -3.116   4.597  0.00  0.00     0.009 SA
ATOM     24  HN  UNL d   1       1.009  -3.810   6.377  1.00  0.00     0.195 HD
ENDBRANCH  15  17
ENDBRANCH  14  15
ENDBRANCH  13  14
ENDBRANCH  12  13
ENDBRANCH  10  12
ENDBRANCH   3  10
TORSDOF 6
