REMARK  7 active torsions:
REMARK  status: ('A' for Active; 'I' for Inactive)
REMARK    1  A    between atoms: O_7  and  C_3 
REMARK    2  A    between atoms: O_8  and  C_4 
REMARK    3  A    between atoms: O_9  and  C_5 
REMARK    4  A    between atoms: C_6  and  O_10 
REMARK    5  A    between atoms: C_17  and  O_9 
REMARK    6  A    between atoms: O_10  and  C_18 
REMARK    7  A    between atoms: C_18  and  C_17 
ROOT
ATOM      1  C   UNL d   1       3.136   1.995  -0.418  0.00  0.00     0.202 C 
ENDROOT
BRANCH   1   2
ATOM      2  O   UNL d   1       1.742   2.197  -0.180  0.00  0.00    -0.349 OA
BRANCH   2   3
ATOM      3  C   UNL d   1       0.996   1.069   0.056  0.00  0.00     0.071 A 
ATOM      4  C   UNL d   1       1.490  -0.239   0.080  0.00  0.00     0.073 A 
ATOM      5  C   UNL d   1       0.632  -1.318   0.307  0.00  0.00     0.070 A 
ATOM      6  C   UNL d   1      -0.726  -1.081   0.522  0.00  0.00     0.037 A 
ATOM      7  C   UNL d   1      -1.227   0.221   0.511  0.00  0.00     0.005 A 
ATOM      8  C   UNL d   1      -0.365   1.292   0.277  0.00  0.00     0.037 A 
BRANCH   5   9
ATOM      9  O   UNL d   1       1.000  -2.636   0.338  0.00  0.00    -0.356 OA
ATOM     10  C   UNL d   1       2.377  -2.923   0.117  0.00  0.00     0.210 C 
ENDBRANCH   5   9
ENDBRANCH   2   3
ENDBRANCH   1   2
BRANCH   1  11
ATOM     11  C   UNL d   1       3.801   3.336  -0.713  0.00  0.00     0.202 C 
BRANCH  11  12
ATOM     12  O   UNL d   1       5.212   3.176  -0.907  0.00  0.00    -0.349 OA
BRANCH  12  13
ATOM     13  C   UNL d   1       5.972   3.085   0.229  0.00  0.00     0.071 A 
ATOM     14  C   UNL d   1       5.778   3.873   1.365  0.00  0.00     0.073 A 
ATOM     15  C   UNL d   1       6.602   3.716   2.481  0.00  0.00     0.070 A 
ATOM     16  C   UNL d   1       7.649   2.793   2.437  0.00  0.00     0.037 A 
ATOM     17  C   UNL d   1       7.871   2.029   1.291  0.00  0.00     0.005 A 
ATOM     18  C   UNL d   1       7.033   2.178   0.186  0.00  0.00     0.037 A 
BRANCH  15  19
ATOM     19  O   UNL d   1       6.490   4.407   3.658  0.00  0.00    -0.356 OA
ATOM     20  C   UNL d   1       5.387   5.300   3.772  0.00  0.00     0.210 C 
ENDBRANCH  15  19
ENDBRANCH  12  13
ENDBRANCH  11  12
ENDBRANCH   1  11
TORSDOF 7
