REMARK  5 active torsions:
REMARK  status: ('A' for Active; 'I' for Inactive)
REMARK    1  A    between atoms: C_5  and  C_1 
REMARK       I    between atoms: C_2  and  N_6 
REMARK    2  A    between atoms: O_11  and  C_2 
REMARK    3  A    between atoms: N_3  and  O_11 
REMARK    4  A    between atoms: N_6  and  C_18 
REMARK    5  A    between atoms: C_17  and  C_7 
ROOT
ATOM      1  C   UNL d   1      -0.137  -5.493   3.765  0.00  0.00     0.387 C 
ATOM      2  N   UNL d   1      -0.000  -4.140   3.959  0.00  0.00    -0.301 N 
ATOM      3  O   UNL d   1       0.012  -6.111   2.715  0.00  0.00    -0.236 OA
ATOM      4  H   UNL d   1      -0.114  -3.838   4.916  0.00  0.00     0.171 HD
ENDROOT
BRANCH   1   5
ATOM      5  O   UNL d   1      -0.501  -6.103   4.944  0.00  0.00    -0.181 OA
BRANCH   5   6
ATOM      6  N   UNL d   1      -1.630  -6.897   4.670  0.00  0.00    -0.265 N 
ATOM      7  C   UNL d   1      -1.590  -8.013   5.323  0.00  0.00     0.144 C 
ATOM      8  HN  UNL d   1      -2.384  -6.628   4.037  1.00  0.00     0.194 HD
BRANCH   7   9
ATOM      9  C   UNL d   1      -2.692  -8.989   5.201  0.00  0.00     0.049 A 
ATOM     10  N   UNL d   1      -2.576 -10.104   5.960  0.00  0.00    -0.365 N 
ATOM     11  C   UNL d   1      -3.603 -10.980   5.887  0.00  0.00     0.088 A 
ATOM     12  HN  UNL d   1      -1.761 -10.274   6.550  1.00  0.00     0.165 HD
ATOM     13  C   UNL d   1      -4.735 -10.789   5.106  0.00  0.00     0.017 A 
ATOM     14  C   UNL d   1      -4.822  -9.636   4.334  0.00  0.00     0.004 A 
ATOM     15  C   UNL d   1      -3.780  -8.718   4.376  0.00  0.00     0.031 A 
ENDBRANCH   7   9
ENDBRANCH   5   6
ENDBRANCH   1   5
BRANCH   2  16
ATOM     16  C   UNL d   1       0.172  -3.157   2.965  0.00  0.00     0.036 A 
ATOM     17  C   UNL d   1       0.143  -3.437   1.598  0.00  0.00     0.030 A 
ATOM     18  C   UNL d   1       0.314  -2.418   0.655  0.00  0.00     0.018 A 
ATOM     19  C   UNL d   1       0.520  -1.095   1.063  0.00  0.00     0.048 A 
ATOM     20  C   UNL d   1       0.531  -0.811   2.435  0.00  0.00     0.018 A 
ATOM     21  C   UNL d   1       0.351  -1.833   3.377  0.00  0.00     0.030 A 
BRANCH  19  22
ATOM     22  C   UNL d   1       0.725  -0.020   0.025  0.00  0.00     0.417 C 
ATOM     23  F   UNL d   1       0.917   1.220   0.557  0.00  0.00    -0.166 F 
ATOM     24  F   UNL d   1      -0.336   0.098  -0.821  0.00  0.00    -0.166 F 
ATOM     25  F   UNL d   1       1.808  -0.258  -0.764  0.00  0.00    -0.166 F 
ENDBRANCH  19  22
ENDBRANCH   2  16
TORSDOF 5
