REMARK  0 active torsions:
REMARK  status: ('A' for Active; 'I' for Inactive)
ROOT
ATOM      1  N   UNL d   1       1.881   1.410  -0.003  0.00  0.00    -0.352 N 
ATOM      2  HN  UNL d   1       1.575   2.383  -0.004  1.00  0.00     0.166 HD
ATOM      3  C   UNL d   1       1.026   0.303  -0.002  0.00  0.00     0.061 A 
ATOM      4  S   UNL d   1       3.384  -0.678   0.002  0.00  0.00    -0.075 SA
ATOM      5  C   UNL d   1       3.137   1.017  -0.001  0.00  0.00     0.048 A 
ATOM      6  C   UNL d   1       1.683  -0.930  -0.000  0.00  0.00     0.034 A 
ATOM      7  C   UNL d   1      -0.407   0.309  -0.003  0.00  0.00     0.002 A 
ATOM      8  C   UNL d   1       0.994  -2.151  -0.000  0.00  0.00     0.022 A 
ATOM      9  C   UNL d   1      -1.108  -0.925  -0.004  0.00  0.00    -0.024 A 
ATOM     10  C   UNL d   1      -0.401  -2.128  -0.002  0.00  0.00     0.014 A 
ATOM     11  C   UNL d   1       4.314   1.932  -0.001  0.00  0.00     0.076 C 
ATOM     12  C   UNL d   1      -1.135   1.516  -0.003  0.00  0.00     0.014 A 
ATOM     13  C   UNL d   1      -2.511  -0.918  -0.005  0.00  0.00     0.012 A 
ATOM     14  C   UNL d   1      -2.534   1.499  -0.004  0.00  0.00     0.001 A 
ATOM     15  C   UNL d   1      -3.218   0.286  -0.004  0.00  0.00     0.001 A 
ENDROOT
TORSDOF 0
