REMARK  3 active torsions:
REMARK  status: ('A' for Active; 'I' for Inactive)
REMARK    1  A    between atoms: C_4  and  C_1 
REMARK       I    between atoms: N_9  and  C_4 
REMARK    2  A    between atoms: N_11  and  N_9 
REMARK    3  A    between atoms: C_15  and  N_11 
ROOT
ATOM      1  C   UNL d   1       0.214  -2.223  -0.889  0.00  0.00     0.276 C 
ATOM      2  N   UNL d   1       0.907  -3.372  -0.507  0.00  0.00    -0.282 N 
ATOM      3  O   UNL d   1       0.681  -1.110  -0.652  0.00  0.00    -0.266 OA
ATOM      4  H   UNL d   1       0.405  -4.245  -0.381  0.00  0.00     0.184 HD
ENDROOT
BRANCH   2   5
ATOM      5  N   UNL d   1       2.002  -3.190   0.355  0.00  0.00    -0.203 NA
ATOM      6  H   UNL d   1       2.271  -2.199   0.428  0.00  0.00     0.153 HD
BRANCH   5   7
ATOM      7  C   UNL d   1       3.135  -4.006   0.112  0.00  0.00     0.028 A 
ATOM      8  C   UNL d   1       3.139  -5.122  -0.735  0.00  0.00     0.032 A 
ATOM      9  C   UNL d   1       4.268  -5.959  -0.854  0.00  0.00    -0.054 A 
ATOM     10  C   UNL d   1       4.224  -7.127  -1.802  0.00  0.00     0.049 C 
ATOM     11  C   UNL d   1       5.411  -5.697  -0.075  0.00  0.00    -0.056 A 
ATOM     12  C   UNL d   1       5.407  -4.590   0.782  0.00  0.00     0.009 A 
ATOM     13  C   UNL d   1       6.625  -6.583  -0.132  0.00  0.00     0.049 C 
ATOM     14  C   UNL d   1       4.285  -3.762   0.874  0.00  0.00     0.026 A 
ENDBRANCH   5   7
ENDBRANCH   2   5
BRANCH   1  15
ATOM     15  C   UNL d   1      -1.059  -2.426  -1.548  0.00  0.00     0.115 A 
ATOM     16  C   UNL d   1      -2.021  -1.507  -1.956  0.00  0.00     0.046 A 
ATOM     17  N   UNL d   1      -3.124  -2.070  -2.596  0.00  0.00    -0.298 N 
ATOM     18  C   UNL d   1      -2.027  -0.029  -1.801  0.00  0.00     0.071 C 
ATOM     19  N   UNL d   1      -3.031  -3.384  -2.683  0.00  0.00    -0.269 N 
ATOM     20  HN  UNL d   1      -3.911  -1.530  -2.954  1.00  0.00     0.187 HD
ATOM     21  S   UNL d   1      -1.632  -3.978  -2.006  0.00  0.00     0.009 SA
ATOM     22  HN  UNL d   1      -3.742  -3.972  -3.119  1.00  0.00     0.195 HD
ENDBRANCH   1  15
TORSDOF 3
