REMARK  4 active torsions:
REMARK  status: ('A' for Active; 'I' for Inactive)
REMARK    1  A    between atoms: N_3  and  C_1 
REMARK       I    between atoms: C_2  and  N_3 
REMARK       I    between atoms: N_5  and  C_2 
REMARK    2  A    between atoms: C_4  and  C_13 
REMARK    3  A    between atoms: C_13  and  N_5 
REMARK    4  A    between atoms: S_18  and  C_14 
ROOT
ATOM      1  C   UNL d   1       1.533   1.672   3.388  0.00  0.00     0.317 C 
ATOM      2  N   UNL d   1       1.696   1.602   2.040  0.00  0.00    -0.334 N 
ATOM      3  N   UNL d   1       2.023   2.776   4.011  0.00  0.00    -0.339 N 
ATOM      4  O   UNL d   1       0.973   0.815   4.060  0.00  0.00    -0.247 OA
ATOM      5  H   UNL d   1       2.069   2.410   1.583  0.00  0.00     0.165 HD
ATOM      6  H   UNL d   1       1.819   2.764   5.000  0.00  0.00     0.164 HD
ENDROOT
BRANCH   2   7
ATOM      7  C   UNL d   1       1.084   0.603   1.152  0.00  0.00     0.035 C 
ATOM      8  C   UNL d   1      -0.462   0.680   1.207  0.00  0.00     0.035 C 
ATOM      9  C   UNL d   1      -1.092  -0.287   0.190  0.00  0.00    -0.012 C 
ATOM     10  C   UNL d   1      -0.618   0.087  -1.224  0.00  0.00     0.009 C 
ATOM     11  C   UNL d   1      -0.647  -1.723   0.513  0.00  0.00     0.009 C 
ATOM     12  C   UNL d   1       0.912  -0.030  -1.313  0.00  0.00    -0.012 C 
ATOM     13  C   UNL d   1       1.544   0.930  -0.296  0.00  0.00     0.035 C 
ATOM     14  C   UNL d   1       1.343  -1.465  -0.977  0.00  0.00     0.009 C 
ATOM     15  C   UNL d   1       0.886  -1.830   0.445  0.00  0.00    -0.012 C 
ATOM     16  C   UNL d   1       1.517  -0.852   1.462  0.00  0.00     0.035 C 
ENDBRANCH   2   7
BRANCH   3  17
ATOM     17  C   UNL d   1       2.606   4.003   3.490  0.00  0.00     0.164 C 
BRANCH  17  18
ATOM     18  C   UNL d   1       3.968   4.361   4.050  0.00  0.00    -0.024 A 
ATOM     19  C   UNL d   1       4.585   5.599   3.758  0.00  0.00     0.008 A 
ATOM     20  C   UNL d   1       5.860   5.879   4.288  0.00  0.00     0.019 A 
ATOM     21  C   UNL d   1       6.521   4.963   5.104  0.00  0.00     0.001 A 
ATOM     22  C   UNL d   1       5.918   3.751   5.404  0.00  0.00     0.001 A 
ATOM     23  C   UNL d   1       4.662   3.448   4.872  0.00  0.00     0.010 A 
BRANCH  19  24
ATOM     24  S   UNL d   1       3.832   6.963   2.859  0.00  0.00    -0.134 SA
ATOM     25  C   UNL d   1       3.429   6.220   1.257  0.00  0.00     0.095 C 
ENDBRANCH  19  24
ENDBRANCH  17  18
ENDBRANCH   3  17
TORSDOF 4
