REMARK  5 active torsions:
REMARK  status: ('A' for Active; 'I' for Inactive)
REMARK    1  A    between atoms: N_3  and  C_1 
REMARK    2  A    between atoms: N_4  and  C_1 
REMARK    3  A    between atoms: C_2  and  N_3 
REMARK    4  A    between atoms: C_5  and  N_4 
REMARK    5  A    between atoms: N_10  and  C_9 
ROOT
ATOM      1  C   UNL d   1       1.159  -0.250   0.025  0.00  0.00     0.176 C 
ATOM      2  S   UNL d   1       2.384   0.155  -1.055  0.00  0.00    -0.041 SA
ENDROOT
BRANCH   1   3
ATOM      3  N   UNL d   1       0.692  -1.545   0.220  0.00  0.00    -0.330 N 
ATOM      4  H   UNL d   1      -0.271  -1.673  -0.077  0.00  0.00     0.168 HD
BRANCH   3   5
ATOM      5  C   UNL d   1       1.484  -2.731   0.165  0.00  0.00     0.078 A 
ATOM      6  C   UNL d   1       2.740  -2.861   0.790  0.00  0.00     0.062 A 
ATOM      7 CL   UNL d   1       3.400  -1.666   1.856  0.00  0.00    -0.082 Cl
ATOM      8  C   UNL d   1       3.465  -4.056   0.689  0.00  0.00     0.026 A 
ATOM      9  C   UNL d   1       2.938  -5.149   0.006  0.00  0.00     0.003 A 
ATOM     10  C   UNL d   1       1.671  -5.057  -0.566  0.00  0.00     0.026 A 
ATOM     11  C   UNL d   1       0.949  -3.863  -0.478  0.00  0.00     0.062 A 
ATOM     12 CL   UNL d   1      -0.623  -3.815  -1.206  0.00  0.00    -0.082 Cl
ENDBRANCH   3   5
ENDBRANCH   1   3
BRANCH   1  13
ATOM     13  N   UNL d   1       0.379   0.665   0.712  0.00  0.00    -0.332 N 
ATOM     14  H   UNL d   1      -0.573   0.402   0.943  0.00  0.00     0.168 HD
BRANCH  13  15
ATOM     15  C   UNL d   1       0.789   1.865   1.344  0.00  0.00     0.055 A 
ATOM     16  C   UNL d   1      -0.209   2.808   1.675  0.00  0.00     0.033 A 
ATOM     17  C   UNL d   1       0.124   3.893   2.492  0.00  0.00     0.025 A 
ATOM     18  C   UNL d   1       1.443   4.102   2.896  0.00  0.00     0.002 A 
ATOM     19  C   UNL d   1       2.436   3.199   2.523  0.00  0.00     0.002 A 
ATOM     20  C   UNL d   1       2.107   2.082   1.755  0.00  0.00     0.031 A 
BRANCH  16  21
ATOM     21  N   UNL d   1      -1.563   2.575   1.333  0.00  0.00    -0.301 NA
ATOM     22  H   UNL d   1      -1.628   2.170   0.402  0.00  0.00     0.124 HD
ATOM     23  H   UNL d   1      -2.118   3.426   1.387  0.00  0.00     0.124 HD
ENDBRANCH  16  21
ENDBRANCH  13  15
ENDBRANCH   1  13
TORSDOF 5
