REMARK  5 active torsions:
REMARK  status: ('A' for Active; 'I' for Inactive)
REMARK    1  A    between atoms: C_5  and  C_1 
REMARK    2  A    between atoms: C_6  and  C_2 
REMARK       I    between atoms: N_7  and  C_5 
REMARK    3  A    between atoms: C_20  and  N_10 
REMARK    4  A    between atoms: N_11  and  C_21 
REMARK    5  A    between atoms: C_21  and  C_20 
ROOT
ATOM      1  C   UNL d   1       0.361  -2.443   0.206  0.00  0.00     0.258 C 
ATOM      2  N   UNL d   1      -0.505  -3.502  -0.099  0.00  0.00    -0.344 N 
ATOM      3  N   UNL d   1      -3.077  -4.931   0.267  0.00  0.00     0.093 N 
ATOM      4  O   UNL d   1       1.051  -2.447   1.229  0.00  0.00    -0.267 OA
ATOM      5  C   UNL d   1      -1.494  -3.548  -1.184  0.00  0.00     0.156 C 
ATOM      6  C   UNL d   1      -0.599  -4.643   0.818  0.00  0.00     0.156 C 
ATOM      7  C   UNL d   1      -2.925  -3.800  -0.669  0.00  0.00     0.292 C 
ATOM      8  C   UNL d   1      -2.045  -4.836   1.324  0.00  0.00     0.292 C 
ENDROOT
BRANCH   1   9
ATOM      9  C   UNL d   1       0.436  -1.320  -0.708  0.00  0.00     0.093 C 
ATOM     10  C   UNL d   1       0.444   0.096  -0.437  0.00  0.00     0.088 C 
ATOM     11  N   UNL d   1       0.418   0.772  -1.601  0.00  0.00    -0.259 N 
ATOM     12  O   UNL d   1       0.610  -0.143  -2.600  0.00  0.00    -0.241 OA
ATOM     13  HN  UNL d   1       0.282   1.776  -1.716  1.00  0.00     0.195 HD
ATOM     14  C   UNL d   1       0.672  -1.388  -2.072  0.00  0.00     0.090 C 
ATOM     15  C   UNL d   1       0.975  -2.459  -3.041  0.00  0.00     0.080 C 
BRANCH  10  16
ATOM     16  C   UNL d   1       0.416   0.861   0.818  0.00  0.00     0.054 A 
ATOM     17  C   UNL d   1      -0.399   0.463   1.884  0.00  0.00     0.130 A 
ATOM     18  F   UNL d   1      -1.144  -0.650   1.800  0.00  0.00    -0.205 F 
ATOM     19  C   UNL d   1      -0.512   1.224   3.053  0.00  0.00     0.043 A 
ATOM     20  C   UNL d   1       0.173   2.428   3.176  0.00  0.00     0.005 A 
ATOM     21  C   UNL d   1       1.002   2.845   2.142  0.00  0.00     0.025 A 
ATOM     22  C   UNL d   1       1.144   2.062   0.984  0.00  0.00     0.049 A 
ATOM     23 CL   UNL d   1       2.293   2.661  -0.173  0.00  0.00    -0.083 Cl
ENDBRANCH  10  16
ENDBRANCH   1   9
BRANCH   3  24
ATOM     24  C   UNL d   1      -3.117  -6.232  -0.430  0.00  0.00     0.302 C 
BRANCH  24  25
ATOM     25  C   UNL d   1      -3.697  -7.354   0.472  0.00  0.00     0.302 C 
BRANCH  25  26
ATOM     26  N   UNL d   1      -3.957  -8.640  -0.208  0.00  0.00     0.094 N 
ATOM     27  C   UNL d   1      -2.742  -9.295  -0.738  0.00  0.00     0.298 C 
ATOM     28  C   UNL d   1      -1.814  -9.863   0.349  0.00  0.00     0.198 C 
ATOM     29  O   UNL d   1      -2.508 -10.784   1.200  0.00  0.00    -0.388 OA
ATOM     30  C   UNL d   1      -3.658 -10.168   1.794  0.00  0.00     0.198 C 
ATOM     31  C   UNL d   1      -4.608  -9.596   0.725  0.00  0.00     0.298 C 
ENDBRANCH  25  26
ENDBRANCH  24  25
ENDBRANCH   3  24
TORSDOF 5
