REMARK  5 active torsions:
REMARK  status: ('A' for Active; 'I' for Inactive)
REMARK    1  A    between atoms: C_2  and  S_1 
REMARK    2  A    between atoms: N_3  and  S_1 
REMARK    3  A    between atoms: C_8  and  N_3 
REMARK    4  A    between atoms: O_15  and  C_7 
REMARK    5  A    between atoms: O_16  and  C_11 
ROOT
ATOM      1  S   UNL d   1       1.273   0.058   0.118  0.00  0.00     0.266 S 
ATOM      2  O   UNL d   1       2.544  -0.108  -0.562  0.00  0.00    -0.200 OA
ATOM      3  O   UNL d   1       1.191   0.922   1.274  0.00  0.00    -0.200 OA
ENDROOT
BRANCH   1   4
ATOM      4  C   UNL d   1       0.654  -1.561   0.525  0.00  0.00     0.115 A 
ATOM      5  C   UNL d   1       1.203  -2.649  -0.179  0.00  0.00     0.065 A 
ATOM      6  C   UNL d   1       0.812  -3.949   0.124  0.00  0.00     0.069 A 
ATOM      7  C   UNL d   1      -0.119  -4.155   1.140  0.00  0.00     0.039 A 
ATOM      8  C   UNL d   1      -0.669  -3.076   1.839  0.00  0.00     0.041 A 
ATOM      9  C   UNL d   1      -0.286  -1.763   1.543  0.00  0.00     0.091 A 
BRANCH   6  10
ATOM     10  O   UNL d   1       1.262  -5.087  -0.484  0.00  0.00    -0.356 OA
ATOM     11  C   UNL d   1       2.169  -4.921  -1.568  0.00  0.00     0.210 C 
ENDBRANCH   6  10
BRANCH   9  12
ATOM     12  O   UNL d   1      -0.833  -0.673   2.156  0.00  0.00    -0.354 OA
ATOM     13  C   UNL d   1      -1.409  -0.875   3.443  0.00  0.00     0.210 C 
ENDBRANCH   9  12
ENDBRANCH   1   4
BRANCH   1  14
ATOM     14  N   UNL d   1       0.136   0.620  -0.989  0.00  0.00    -0.281 N 
ATOM     15  H   UNL d   1      -0.189   1.567  -0.803  0.00  0.00     0.179 HD
BRANCH  14  16
ATOM     16  C   UNL d   1       0.133   0.124  -2.316  0.00  0.00     0.043 A 
ATOM     17  C   UNL d   1      -0.922  -0.690  -2.722  0.00  0.00     0.049 A 
ATOM     18  C   UNL d   1      -0.959  -1.157  -4.036  0.00  0.00     0.013 A 
ATOM     19 BR   UNL d   1      -2.380  -2.273  -4.592  0.00  0.00    -0.051 Br
ATOM     20  C   UNL d   1       0.040  -0.807  -4.944  0.00  0.00     0.019 A 
ATOM     21  C   UNL d   1       1.084   0.024  -4.536  0.00  0.00     0.004 A 
ATOM     22  C   UNL d   1       1.125   0.498  -3.224  0.00  0.00     0.030 A 
ENDBRANCH  14  16
ENDBRANCH   1  14
TORSDOF 5
