REMARK  4 active torsions:
REMARK  status: ('A' for Active; 'I' for Inactive)
REMARK       I    between atoms: C_2  and  N_1 
REMARK    1  A    between atoms: C_3  and  N_1 
REMARK       I    between atoms: N_5  and  C_2 
REMARK    2  A    between atoms: C_4  and  C_3 
REMARK    3  A    between atoms: C_6  and  O_8 
REMARK    4  A    between atoms: O_8  and  C_7 
ROOT
ATOM      1  C   UNL d   1       2.536   0.194   0.331  0.00  0.00     0.115 C 
ATOM      2  N   UNL d   1       3.322   1.187   0.107  0.00  0.00    -0.385 N 
ATOM      3  HN  UNL d   1       4.302   1.242   0.384  1.00  0.00     0.157 HD
ATOM      4  H   UNL d   1       2.797   1.922  -0.402  0.00  0.00     0.157 HD
ENDROOT
BRANCH   1   5
ATOM      5  N   UNL d   1       1.208   0.191  -0.066  0.00  0.00    -0.294 N 
ATOM      6  C   UNL d   1       0.570   1.146  -0.827  0.00  0.00     0.324 C 
ATOM      7  N   UNL d   1      -0.769   0.881  -1.078  0.00  0.00    -0.330 N 
ATOM      8  O   UNL d   1       1.148   2.124  -1.289  0.00  0.00    -0.247 OA
ATOM      9  C   UNL d   1      -1.678   0.117  -0.216  0.00  0.00     0.153 C 
ATOM     10  C   UNL d   1      -1.471   1.704  -2.068  0.00  0.00     0.153 C 
ATOM     11  C   UNL d   1      -2.667  -0.690  -1.065  0.00  0.00     0.187 C 
ATOM     12  O   UNL d   1      -3.368   0.156  -1.988  0.00  0.00    -0.388 OA
ATOM     13  C   UNL d   1      -2.451   0.835  -2.863  0.00  0.00     0.187 C 
ATOM     14  H   UNL d   1       0.742  -0.697  -0.035  0.00  0.00     0.172 HD
ENDBRANCH   1   5
BRANCH   1  15
ATOM     15  C   UNL d   1       3.018  -1.049   0.991  0.00  0.00     0.041 A 
ATOM     16  C   UNL d   1       4.312  -1.552   0.770  0.00  0.00     0.092 A 
ATOM     17  C   UNL d   1       4.715  -2.733   1.404  0.00  0.00     0.038 A 
ATOM     18  C   UNL d   1       3.837  -3.419   2.246  0.00  0.00     0.003 A 
ATOM     19  C   UNL d   1       2.562  -2.915   2.484  0.00  0.00     0.001 A 
ATOM     20  C   UNL d   1       2.153  -1.733   1.863  0.00  0.00     0.018 A 
BRANCH  16  21
ATOM     21  O   UNL d   1       5.276  -0.883   0.070  0.00  0.00    -0.254 OA
BRANCH  21  22
ATOM     22  C   UNL d   1       5.109  -0.919  -1.341  0.00  0.00     0.530 C 
ATOM     23  F   UNL d   1       3.834  -1.133  -1.738  0.00  0.00    -0.144 F 
ATOM     24  F   UNL d   1       5.556   0.233  -1.884  0.00  0.00    -0.144 F 
ATOM     25  F   UNL d   1       5.867  -1.927  -1.839  0.00  0.00    -0.144 F 
ENDBRANCH  21  22
ENDBRANCH  16  21
ENDBRANCH   1  15
TORSDOF 4
