REMARK  3 active torsions:
REMARK  status: ('A' for Active; 'I' for Inactive)
REMARK    1  A    between atoms: C_9  and  N_1 
REMARK    2  A    between atoms: C_7  and  C_5 
REMARK    3  A    between atoms: O_22  and  C_19 
ROOT
ATOM      1  N   UNL d   1       0.949  -0.631   0.001  0.00  0.00    -0.255 N 
ATOM      2  C   UNL d   1      -0.356  -1.099   0.115  0.00  0.00     0.076 C 
ATOM      3  N   UNL d   1       0.993   0.729   0.060  0.00  0.00    -0.289 N 
ATOM      4  HN  UNL d   1       1.819   1.319   0.155  1.00  0.00     0.187 HD
ATOM      5  C   UNL d   1      -0.290   1.127  -0.034  0.00  0.00     0.135 C 
ATOM      6  C   UNL d   1      -1.163   0.011  -0.039  0.00  0.00     0.069 C 
ATOM      7  C   UNL d   1      -0.751  -2.438   0.469  0.00  0.00     0.033 A 
ATOM      8  S   UNL d   1      -2.144  -3.180  -0.198  0.00  0.00    -0.100 SA
ATOM      9  C   UNL d   1      -0.140  -3.267   1.394  0.00  0.00     0.021 A 
ATOM     10  C   UNL d   1      -1.913  -4.603   0.726  0.00  0.00     0.050 A 
ATOM     11  C   UNL d   1      -0.801  -4.520   1.529  0.00  0.00     0.008 A 
ENDROOT
BRANCH   1  12
ATOM     12  C   UNL d   1       2.156  -1.373  -0.133  0.00  0.00     0.057 A 
ATOM     13  C   UNL d   1       2.166  -2.622  -0.767  0.00  0.00     0.034 A 
ATOM     14  C   UNL d   1       3.339  -3.381  -0.811  0.00  0.00     0.039 A 
ATOM     15  C   UNL d   1       4.507  -2.899  -0.222  0.00  0.00     0.068 A 
ATOM     16  C   UNL d   1       4.513  -1.623   0.349  0.00  0.00     0.039 A 
ATOM     17  C   UNL d   1       3.347  -0.852   0.385  0.00  0.00     0.034 A 
BRANCH  15  18
ATOM     18  O   UNL d   1       5.699  -3.568  -0.180  0.00  0.00    -0.356 OA
ATOM     19  C   UNL d   1       5.607  -4.989  -0.211  0.00  0.00     0.210 C 
ENDBRANCH  15  18
ENDBRANCH   1  12
BRANCH   5  20
ATOM     20  C   UNL d   1      -0.714   2.571  -0.053  0.00  0.00     0.434 C 
ATOM     21  F   UNL d   1       0.315   3.449   0.074  0.00  0.00    -0.165 F 
ATOM     22  F   UNL d   1      -1.359   2.887  -1.209  0.00  0.00    -0.165 F 
ATOM     23  F   UNL d   1      -1.586   2.844   0.956  0.00  0.00    -0.165 F 
ENDBRANCH   5  20
TORSDOF 3
