REMARK  5 active torsions:
REMARK  status: ('A' for Active; 'I' for Inactive)
REMARK    1  A    between atoms: C_7  and  C_1 
REMARK    2  A    between atoms: C_5  and  C_8 
REMARK    3  A    between atoms: C_11  and  C_7 
REMARK    4  A    between atoms: C_8  and  O_9 
REMARK    5  A    between atoms: O_9  and  C_11 
ROOT
ATOM      1  C   UNL d   1       3.638   0.164  -0.133  0.00  0.00     0.191 C 
ATOM      2  O   UNL d   1       4.267   1.225  -0.155  0.00  0.00    -0.289 OA
ENDROOT
BRANCH   1   3
ATOM      3  C   UNL d   1       2.162   0.130  -0.092  0.00  0.00     0.060 A 
ATOM      4  S   UNL d   1       1.336  -1.366   0.044  0.00  0.00    -0.085 SA
ATOM      5  C   UNL d   1      -0.216  -0.643   0.030  0.00  0.00     0.016 A 
ATOM      6  C   UNL d   1      -1.460  -1.300   0.119  0.00  0.00     0.019 A 
ATOM      7  C   UNL d   1      -0.126   0.741  -0.085  0.00  0.00    -0.012 A 
ATOM      8  C   UNL d   1      -2.634  -0.544   0.081  0.00  0.00     0.001 A 
ATOM      9  C   UNL d   1      -2.575   0.835  -0.044  0.00  0.00     0.001 A 
ATOM     10  C   UNL d   1      -1.337   1.480  -0.127  0.00  0.00     0.013 A 
ATOM     11  C   UNL d   1       1.259   1.192  -0.143  0.00  0.00    -0.029 A 
ATOM     12  C   UNL d   1       1.593   2.652  -0.249  0.00  0.00     0.050 C 
ENDBRANCH   1   3
BRANCH   1  13
ATOM     13  C   UNL d   1       4.409  -1.170  -0.168  0.00  0.00     0.263 C 
BRANCH  13  14
ATOM     14  O   UNL d   1       5.830  -1.001  -0.322  0.00  0.00    -0.310 OA
BRANCH  14  15
ATOM     15  C   UNL d   1       6.596  -1.303   0.749  0.00  0.00     0.295 C 
ATOM     16  O   UNL d   1       6.195  -1.782   1.799  0.00  0.00    -0.259 OA
BRANCH  15  17
ATOM     17  C   UNL d   1       8.044  -1.123   0.465  0.00  0.00     0.061 A 
ATOM     18  C   UNL d   1       8.591  -0.081  -0.295  0.00  0.00     0.050 A 
ATOM     19 CL   UNL d   1       7.658   1.196  -0.989  0.00  0.00    -0.083 Cl
ATOM     20  C   UNL d   1       9.980  -0.005  -0.480  0.00  0.00     0.025 A 
ATOM     21  C   UNL d   1      10.830  -0.951   0.096  0.00  0.00     0.002 A 
ATOM     22  C   UNL d   1      10.299  -1.978   0.867  0.00  0.00     0.001 A 
ATOM     23  C   UNL d   1       8.916  -2.063   1.053  0.00  0.00     0.019 A 
ENDBRANCH  15  17
ENDBRANCH  14  15
ENDBRANCH  13  14
ENDBRANCH   1  13
TORSDOF 5
