REMARK  3 active torsions:
REMARK  status: ('A' for Active; 'I' for Inactive)
REMARK    1  A    between atoms: C_3  and  C_1 
REMARK    2  A    between atoms: C_13  and  C_2 
REMARK    3  A    between atoms: O_19  and  C_13 
ROOT
ATOM      1  C   UNL d   1       4.055   1.018   1.364  0.00  0.00     0.053 C 
ATOM      2  C   UNL d   1       3.609   0.280   0.083  0.00  0.00     0.106 C 
ATOM      3  C   UNL d   1       4.178   0.947  -1.168  0.00  0.00     0.024 C 
ATOM      4  C   UNL d   1       4.518   2.251  -1.156  0.00  0.00     0.021 C 
ATOM      5  C   UNL d   1       4.416   2.326   1.292  0.00  0.00     0.018 C 
ATOM      6  N   UNL d   1       4.514   2.940   0.044  0.00  0.00    -0.362 N 
ATOM      7  C   UNL d   1       4.354   0.146  -2.406  0.00  0.00     0.159 C 
ATOM      8  C   UNL d   1       4.897   3.021  -2.393  0.00  0.00     0.067 C 
ATOM      9  C   UNL d   1       4.538   2.307  -3.716  0.00  0.00    -0.036 C 
ATOM     10  C   UNL d   1       4.957   0.831  -3.620  0.00  0.00     0.092 C 
ATOM     11  O   UNL d   1       4.111  -1.060  -2.413  0.00  0.00    -0.293 OA
ATOM     12  C   UNL d   1       4.699   3.250   2.449  0.00  0.00     0.069 C 
ATOM     13  C   UNL d   1       5.293   2.995  -4.867  0.00  0.00     0.015 C 
ATOM     14  C   UNL d   1       3.027   2.404  -4.017  0.00  0.00     0.015 C 
ATOM     15  H   UNL d   1       4.843   3.903   0.028  0.00  0.00     0.165 HD
ENDROOT
BRANCH   2  16
ATOM     16  C   UNL d   1       2.070   0.165  -0.012  0.00  0.00     0.003 A 
ATOM     17  S   UNL d   1       1.137   1.611  -0.043  0.00  0.00    -0.092 SA
ATOM     18  C   UNL d   1      -0.345   0.776  -0.174  0.00  0.00     0.016 A 
ATOM     19  C   UNL d   1      -1.626   1.356  -0.266  0.00  0.00     0.019 A 
ATOM     20  C   UNL d   1      -0.153  -0.604  -0.180  0.00  0.00    -0.012 A 
ATOM     21  C   UNL d   1      -2.740   0.524  -0.365  0.00  0.00     0.001 A 
ATOM     22  C   UNL d   1      -2.584  -0.854  -0.369  0.00  0.00     0.001 A 
ATOM     23  C   UNL d   1      -1.309  -1.421  -0.278  0.00  0.00     0.013 A 
ATOM     24  C   UNL d   1       1.256  -0.959  -0.085  0.00  0.00    -0.036 A 
ATOM     25  C   UNL d   1       1.722  -2.382  -0.076  0.00  0.00     0.050 C 
ENDBRANCH   2  16
BRANCH   1  26
ATOM     26  C   UNL d   1       3.998   0.167   2.584  0.00  0.00     0.291 C 
ATOM     27  O   UNL d   1       3.325  -0.849   2.670  0.00  0.00    -0.260 OA
BRANCH  26  28
ATOM     28  O   UNL d   1       4.862   0.597   3.538  0.00  0.00    -0.323 OA
ATOM     29  C   UNL d   1       4.834  -0.169   4.745  0.00  0.00     0.213 C 
ENDBRANCH  26  28
ENDBRANCH   1  26
TORSDOF 3
