REMARK  2 active torsions:
REMARK  status: ('A' for Active; 'I' for Inactive)
REMARK    1  A    between atoms: C_6  and  C_1 
REMARK    2  A    between atoms: C_7  and  C_3 
REMARK       I    between atoms: N_9  and  C_6 
ROOT
ATOM      1  C   UNL d   1      -1.565  -0.744  -0.002  0.00  0.00     0.063 A 
ATOM      2  C   UNL d   1      -0.232  -1.261  -0.004  0.00  0.00     0.053 A 
ATOM      3  C   UNL d   1       0.634  -0.187   0.006  0.00  0.00     0.062 A 
ATOM      4  C   UNL d   1      -1.411   0.634   0.013  0.00  0.00     0.065 A 
ATOM      5  O   UNL d   1      -0.089   0.970   0.017  0.00  0.00    -0.318 OA
ATOM      6  C   UNL d   1      -2.352   1.778   0.024  0.00  0.00     0.077 C 
ENDROOT
BRANCH   1   7
ATOM      7  C   UNL d   1      -2.836  -1.452  -0.011  0.00  0.00     0.251 C 
ATOM      8  O   UNL d   1      -3.934  -0.904  -0.006  0.00  0.00    -0.268 OA
ATOM      9  N   UNL d   1      -2.762  -2.815  -0.027  0.00  0.00    -0.366 N 
ATOM     10  H   UNL d   1      -1.897  -3.331  -0.034  0.00  0.00     0.159 HD
ATOM     11  H   UNL d   1      -3.636  -3.321  -0.035  0.00  0.00     0.159 HD
ENDBRANCH   1   7
BRANCH   3  12
ATOM     12  C   UNL d   1       2.139  -0.053   0.009  0.00  0.00    -0.002 C 
ATOM     13  C   UNL d   1       2.807  -1.441  -0.014  0.00  0.00     0.021 C 
ATOM     14  C   UNL d   1       2.603   0.730  -1.233  0.00  0.00     0.021 C 
ATOM     15  C   UNL d   1       2.603   0.688   1.274  0.00  0.00     0.021 C 
ENDBRANCH   3  12
TORSDOF 2
