REMARK  6 active torsions:
REMARK  status: ('A' for Active; 'I' for Inactive)
REMARK    1  A    between atoms: C_9  and  C_1 
REMARK    2  A    between atoms: C_7  and  C_2 
REMARK    3  A    between atoms: S_11  and  C_5 
REMARK    4  A    between atoms: O_18  and  C_9 
REMARK    5  A    between atoms: C_17  and  S_11 
REMARK    6  A    between atoms: C_19  and  O_18 
ROOT
ATOM      1  C   UNL d   1      -1.567   1.324   0.119  0.00  0.00     0.072 A 
ATOM      2  C   UNL d   1      -2.228   0.105   0.011  0.00  0.00     0.134 A 
ATOM      3  N   UNL d   1      -1.520  -1.070  -0.031  0.00  0.00    -0.345 N 
ATOM      4  HN  UNL d   1      -2.013  -1.962  -0.071  1.00  0.00     0.166 HD
ATOM      5  C   UNL d   1      -0.160  -1.045  -0.021  0.00  0.00     0.096 A 
ATOM      6  C   UNL d   1       0.553   0.147   0.018  0.00  0.00     0.079 A 
ATOM      7  C   UNL d   1      -0.164   1.345   0.107  0.00  0.00     0.045 A 
ATOM      8  C   UNL d   1       1.982   0.189  -0.052  0.00  0.00     0.102 C 
ATOM      9  N   UNL d   1       3.136   0.261  -0.126  0.00  0.00    -0.191 NA
ENDROOT
BRANCH   5  10
ATOM     10  S   UNL d   1       0.608  -2.649  -0.119  0.00  0.00    -0.071 SA
BRANCH  10  11
ATOM     11  C   UNL d   1       0.906  -3.007   1.605  0.00  0.00     0.007 A 
ATOM     12  C   UNL d   1      -0.129  -3.017   2.547  0.00  0.00     0.019 A 
ATOM     13  C   UNL d   1       0.132  -3.344   3.880  0.00  0.00     0.001 A 
ATOM     14  C   UNL d   1       1.426  -3.673   4.279  0.00  0.00     0.000 A 
ATOM     15  C   UNL d   1       2.461  -3.674   3.345  0.00  0.00     0.001 A 
ATOM     16  C   UNL d   1       2.202  -3.343   2.013  0.00  0.00     0.019 A 
ENDBRANCH  10  11
ENDBRANCH   5  10
BRANCH   1  17
ATOM     17  C   UNL d   1      -2.307   2.589   0.259  0.00  0.00     0.295 C 
ATOM     18  O   UNL d   1      -3.240   2.732   1.024  0.00  0.00    -0.259 OA
BRANCH  17  19
ATOM     19  O   UNL d   1      -1.800   3.472  -0.628  0.00  0.00    -0.318 OA
BRANCH  19  20
ATOM     20  C   UNL d   1      -2.543   4.686  -0.818  0.00  0.00     0.174 C 
ATOM     21  C   UNL d   1      -3.260   4.586  -2.151  0.00  0.00     0.034 C 
ENDBRANCH  19  20
ENDBRANCH  17  19
ENDBRANCH   1  17
BRANCH   2  22
ATOM     22  C   UNL d   1      -3.743   0.002  -0.117  0.00  0.00     0.433 C 
ATOM     23  F   UNL d   1      -4.354   1.115  -0.609  0.00  0.00    -0.165 F 
ATOM     24  F   UNL d   1      -4.112  -0.989  -0.986  0.00  0.00    -0.165 F 
ATOM     25  F   UNL d   1      -4.358  -0.296   1.060  0.00  0.00    -0.165 F 
ENDBRANCH   2  22
TORSDOF 6
