REMARK  3 active torsions:
REMARK  status: ('A' for Active; 'I' for Inactive)
REMARK    1  A    between atoms: C_11  and  C_5 
REMARK    2  A    between atoms: C_8  and  S_12 
REMARK    3  A    between atoms: S_12  and  C_11 
ROOT
ATOM      1  N   UNL d   1      -1.930  -1.487   0.029  0.00  0.00    -0.300 N 
ATOM      2  HN  UNL d   1      -2.690  -2.167   0.058  1.00  0.00     0.186 HD
ATOM      3  N   UNL d   1      -2.195  -0.158   0.111  0.00  0.00    -0.266 N 
ATOM      4  C   UNL d   1      -1.273   0.856   0.043  0.00  0.00     0.271 A 
ATOM      5  C   UNL d   1      -0.694  -1.882  -0.087  0.00  0.00     0.046 A 
ATOM      6  C   UNL d   1       0.136   0.439  -0.013  0.00  0.00     0.045 A 
ATOM      7  C   UNL d   1       0.447  -0.921  -0.041  0.00  0.00     0.004 A 
ATOM      8  O   UNL d   1      -1.593   2.039   0.051  0.00  0.00    -0.266 OA
ATOM      9  C   UNL d   1       1.148   1.408  -0.001  0.00  0.00     0.018 A 
ATOM     10  C   UNL d   1       1.793  -1.310  -0.007  0.00  0.00     0.014 A 
ATOM     11  C   UNL d   1       2.484   1.015   0.007  0.00  0.00     0.001 A 
ATOM     12  C   UNL d   1       2.805  -0.342   0.014  0.00  0.00     0.001 A 
ATOM     13  H   UNL d   1      -3.176   0.105   0.154  0.00  0.00     0.190 HD
ENDROOT
BRANCH   5  14
ATOM     14  C   UNL d   1      -0.402  -3.377  -0.222  0.00  0.00     0.140 C 
BRANCH  14  15
ATOM     15  S   UNL d   1      -1.716  -4.247  -1.147  0.00  0.00    -0.106 SA
BRANCH  15  16
ATOM     16  C   UNL d   1      -1.110  -5.922  -1.079  0.00  0.00     0.069 A 
ATOM     17  N   UNL d   1       0.086  -6.150  -0.490  0.00  0.00    -0.361 N 
ATOM     18  C   UNL d   1       0.521  -7.430  -0.452  0.00  0.00     0.089 A 
ATOM     19  HN  UNL d   1       0.637  -5.389  -0.092  1.00  0.00     0.165 HD
ATOM     20  C   UNL d   1      -0.179  -8.502  -0.979  0.00  0.00     0.017 A 
ATOM     21  C   UNL d   1      -1.402  -8.249  -1.585  0.00  0.00     0.004 A 
ATOM     22  C   UNL d   1      -1.878  -6.941  -1.637  0.00  0.00     0.037 A 
ENDBRANCH  15  16
ENDBRANCH  14  15
ENDBRANCH   5  14
TORSDOF 3
