REMARK  4 active torsions:
REMARK  status: ('A' for Active; 'I' for Inactive)
REMARK    1  A    between atoms: N_9  and  C_1 
REMARK    2  A    between atoms: C_2  and  C_11 
REMARK    3  A    between atoms: C_15  and  C_7 
REMARK    4  A    between atoms: C_16  and  C_8 
REMARK       I    between atoms: C_11  and  N_9 
ROOT
ATOM      1  C   UNL d   1      -1.576   0.171   0.019  0.00  0.00     0.152 A 
ATOM      2  N   UNL d   1      -1.396  -1.113  -0.144  0.00  0.00    -0.335 N 
ATOM      3  HN  UNL d   1      -2.143  -1.789  -0.307  1.00  0.00     0.168 HD
ATOM      4  C   UNL d   1      -0.048  -1.427  -0.063  0.00  0.00     0.057 A 
ATOM      5  S   UNL d   1      -0.167   1.100   0.239  0.00  0.00    -0.057 SA
ATOM      6  C   UNL d   1       0.792  -0.325   0.045  0.00  0.00     0.010 A 
ATOM      7  C   UNL d   1       2.279  -0.222   0.026  0.00  0.00     0.059 C 
ENDROOT
BRANCH   1   8
ATOM      8  N   UNL d   1      -2.751   0.867   0.058  0.00  0.00    -0.302 N 
ATOM      9  C   UNL d   1      -3.933   0.288  -0.338  0.00  0.00     0.274 C 
ATOM     10  O   UNL d   1      -4.058  -0.804  -0.886  0.00  0.00    -0.266 OA
ATOM     11  H   UNL d   1      -2.751   1.833   0.356  0.00  0.00     0.171 HD
BRANCH   9  12
ATOM     12  C   UNL d   1      -5.110   1.131  -0.089  0.00  0.00     0.108 A 
ATOM     13  N   UNL d   1      -5.080   2.303   0.682  0.00  0.00    -0.345 N 
ATOM     14  C   UNL d   1      -6.309   2.778   0.828  0.00  0.00     0.091 A 
ATOM     15  HN  UNL d   1      -4.238   2.726   1.072  1.00  0.00     0.167 HD
ATOM     16  S   UNL d   1      -7.524   1.932  -0.058  0.00  0.00    -0.080 SA
ATOM     17  C   UNL d   1      -6.362   0.803  -0.578  0.00  0.00     0.087 A 
BRANCH  14  18
ATOM     18  C   UNL d   1      -6.611   3.905   1.691  0.00  0.00     0.038 A 
ATOM     19  S   UNL d   1      -8.217   4.399   2.072  0.00  0.00    -0.099 SA
ATOM     20  C   UNL d   1      -7.681   5.626   3.128  0.00  0.00     0.050 A 
ATOM     21  C   UNL d   1      -6.308   5.691   3.182  0.00  0.00     0.008 A 
ATOM     22  C   UNL d   1      -5.693   4.706   2.351  0.00  0.00     0.022 A 
ENDBRANCH  14  18
ENDBRANCH   9  12
ENDBRANCH   1   8
BRANCH   4  23
ATOM     23  C   UNL d   1       0.369  -2.829  -0.101  0.00  0.00    -0.007 A 
ATOM     24  C   UNL d   1      -0.359  -3.751  -0.864  0.00  0.00     0.038 A 
ATOM     25  C   UNL d   1      -0.023  -5.111  -0.857  0.00  0.00     0.040 A 
ATOM     26 CL   UNL d   1      -0.980  -6.190  -1.810  0.00  0.00    -0.084 Cl
ATOM     27  C   UNL d   1       1.050  -5.582  -0.085  0.00  0.00    -0.040 A 
ATOM     28  C   UNL d   1       1.772  -4.660   0.683  0.00  0.00     0.009 A 
ATOM     29  C   UNL d   1       1.420  -7.038  -0.025  0.00  0.00     0.050 C 
ATOM     30  C   UNL d   1       1.427  -3.305   0.682  0.00  0.00     0.014 A 
ENDBRANCH   4  23
TORSDOF 4
