REMARK  2 active torsions:
REMARK  status: ('A' for Active; 'I' for Inactive)
REMARK    1  A    between atoms: C_7  and  C_1 
REMARK    2  A    between atoms: C_9  and  C_3 
ROOT
ATOM      1  C   UNL d   1       1.348   1.083   0.108  0.00  0.00     0.037 C 
ATOM      2  C   UNL d   1       1.331  -0.263   0.012  0.00  0.00     0.022 C 
ATOM      3  C   UNL d   1       0.084   1.890  -0.052  0.00  0.00     0.158 C 
ATOM      4  C   UNL d   1      -1.101  -0.283  -0.137  0.00  0.00     0.321 C 
ATOM      5  N   UNL d   1       0.118  -0.891  -0.169  0.00  0.00    -0.312 N 
ATOM      6  N   UNL d   1      -1.094   1.056   0.061  0.00  0.00    -0.330 N 
ATOM      7  O   UNL d   1      -2.146  -0.913  -0.249  0.00  0.00    -0.247 OA
ATOM      8  C   UNL d   1       2.513  -1.193   0.047  0.00  0.00     0.069 C 
ATOM      9  H   UNL d   1       0.077  -1.899  -0.253  0.00  0.00     0.170 HD
ATOM     10  H   UNL d   1      -2.006   1.491   0.053  0.00  0.00     0.165 HD
ENDROOT
BRANCH   3  11
ATOM     11  C   UNL d   1      -0.083   3.073   0.885  0.00  0.00    -0.031 A 
ATOM     12  C   UNL d   1      -0.314   4.357   0.362  0.00  0.00     0.009 A 
ATOM     13  C   UNL d   1      -0.505   5.448   1.211  0.00  0.00     0.001 A 
ATOM     14  C   UNL d   1      -0.476   5.270   2.589  0.00  0.00     0.000 A 
ATOM     15  C   UNL d   1      -0.256   4.002   3.125  0.00  0.00     0.001 A 
ATOM     16  C   UNL d   1      -0.058   2.910   2.279  0.00  0.00     0.009 A 
ENDBRANCH   3  11
BRANCH   1  17
ATOM     17  C   UNL d   1       2.630   1.812   0.358  0.00  0.00     0.156 C 
ATOM     18  O   UNL d   1       3.439   1.393   1.185  0.00  0.00    -0.293 OA
ATOM     19  C   UNL d   1       2.916   3.074  -0.416  0.00  0.00     0.096 C 
ENDBRANCH   1  17
TORSDOF 2
