REMARK  6 active torsions:
REMARK  status: ('A' for Active; 'I' for Inactive)
REMARK    1  A    between atoms: N_3  and  S_1 
REMARK    2  A    between atoms: C_9  and  S_1 
REMARK    3  A    between atoms: S_2  and  C_10 
REMARK    4  A    between atoms: N_4  and  S_2 
REMARK    5  A    between atoms: C_11  and  N_3 
REMARK    6  A    between atoms: C_12  and  N_4 
ROOT
ATOM      1  C   UNL d   1       0.762   3.952  -0.251  0.00  0.00    -0.041 A 
ATOM      2  C   UNL d   1       0.448   6.264  -0.581  0.00  0.00    -0.041 A 
ATOM      3  C   UNL d   1      -0.400   4.145  -1.033  0.00  0.00    -0.019 A 
ATOM      4  C   UNL d   1      -0.590   5.567  -1.241  0.00  0.00    -0.019 A 
ATOM      5  C   UNL d   1       0.450   1.588  -0.343  0.00  0.00     0.080 A 
ATOM      6  C   UNL d   1      -0.430   8.338  -1.353  0.00  0.00     0.075 A 
ATOM      7  C   UNL d   1       1.399   5.288   0.082  0.00  0.00     0.078 A 
ATOM      8  C   UNL d   1       1.203   2.684   0.099  0.00  0.00     0.033 A 
ATOM      9  C   UNL d   1       0.533   7.648  -0.609  0.00  0.00     0.033 A 
ATOM     10  C   UNL d   1      -1.562   6.260  -1.946  0.00  0.00     0.014 A 
ATOM     11  C   UNL d   1      -1.135   3.056  -1.478  0.00  0.00     0.014 A 
ATOM     12  C   UNL d   1      -0.701   1.768  -1.136  0.00  0.00     0.026 A 
ATOM     13  C   UNL d   1      -1.482   7.658  -2.000  0.00  0.00     0.026 A 
ENDROOT
BRANCH   5  14
ATOM     14  S   UNL d   1       1.025  -0.066   0.006  0.00  0.00     0.263 S 
ATOM     15  O   UNL d   1       0.476  -0.949  -0.997  0.00  0.00    -0.200 OA
ATOM     16  O   UNL d   1       2.457   0.023   0.219  0.00  0.00    -0.200 OA
BRANCH  14  17
ATOM     17  N   UNL d   1       0.361  -0.434   1.514  0.00  0.00    -0.280 N 
ATOM     18  H   UNL d   1       0.917  -0.070   2.285  0.00  0.00     0.179 HD
BRANCH  17  19
ATOM     19  C   UNL d   1      -1.059  -0.436   1.676  0.00  0.00     0.053 A 
ATOM     20  C   UNL d   1      -1.833  -1.601   1.434  0.00  0.00     0.001 A 
ATOM     21  C   UNL d   1      -3.238  -1.520   1.606  0.00  0.00    -0.024 A 
ATOM     22  C   UNL d   1      -1.289  -2.851   1.056  0.00  0.00     0.014 A 
ATOM     23  C   UNL d   1      -4.040  -2.654   1.396  0.00  0.00     0.012 A 
ATOM     24  C   UNL d   1      -3.824  -0.305   1.994  0.00  0.00     0.012 A 
ATOM     25  C   UNL d   1      -3.476  -3.871   1.018  0.00  0.00     0.001 A 
ATOM     26  C   UNL d   1      -2.101  -3.970   0.849  0.00  0.00     0.001 A 
ATOM     27  C   UNL d   1      -3.045   0.826   2.227  0.00  0.00     0.003 A 
ATOM     28  C   UNL d   1      -1.665   0.758   2.078  0.00  0.00     0.031 A 
ENDBRANCH  17  19
ENDBRANCH  14  17
ENDBRANCH   5  14
BRANCH   6  29
ATOM     29  S   UNL d   1      -0.328  10.110  -1.478  0.00  0.00     0.245 S 
ATOM     30  O   UNL d   1      -1.666  10.596  -1.755  0.00  0.00    -0.206 OA
ATOM     31  O   UNL d   1       0.424  10.612  -0.349  0.00  0.00    -0.206 OA
BRANCH  29  32
ATOM     32  N   UNL d   1       0.541  10.335  -2.916  0.00  0.00    -0.181 NA
ATOM     33  H   UNL d   1       0.056  11.003  -3.514  0.00  0.00     0.146 HD
BRANCH  32  34
ATOM     34  C   UNL d   1       1.965  10.485  -2.832  0.00  0.00     0.034 A 
ATOM     35  C   UNL d   1       2.835   9.381  -3.011  0.00  0.00    -0.004 A 
ATOM     36  C   UNL d   1       4.230   9.592  -2.876  0.00  0.00    -0.024 A 
ATOM     37  C   UNL d   1       2.394   8.080  -3.338  0.00  0.00     0.014 A 
ATOM     38  C   UNL d   1       5.117   8.511  -3.018  0.00  0.00     0.012 A 
ATOM     39  C   UNL d   1       4.717  10.880  -2.605  0.00  0.00     0.012 A 
ATOM     40  C   UNL d   1       4.646   7.227  -3.289  0.00  0.00     0.001 A 
ATOM     41  C   UNL d   1       3.285   7.012  -3.454  0.00  0.00     0.001 A 
ATOM     42  C   UNL d   1       3.846  11.956  -2.442  0.00  0.00     0.003 A 
ATOM     43  C   UNL d   1       2.472  11.757  -2.545  0.00  0.00     0.025 A 
ENDBRANCH  32  34
ENDBRANCH  29  32
ENDBRANCH   6  29
TORSDOF 6
