REMARK  4 active torsions:
REMARK  status: ('A' for Active; 'I' for Inactive)
REMARK    1  A    between atoms: C_7  and  N_1 
REMARK    2  A    between atoms: C_9  and  C_2 
REMARK    3  A    between atoms: C_10  and  C_5 
REMARK    4  A    between atoms: O_11  and  C_6 
ROOT
ATOM      1  N   UNL d   1      -0.652   1.222   0.006  0.00  0.00    -0.277 N 
ATOM      2  C   UNL d   1      -0.664  -1.244   0.021  0.00  0.00     0.076 A 
ATOM      3  C   UNL d   1      -1.421   0.047   0.030  0.00  0.00     0.266 A 
ATOM      4  C   UNL d   1       1.435   0.030   0.018  0.00  0.00     0.000 A 
ATOM      5  C   UNL d   1       0.748   1.200   0.011  0.00  0.00     0.062 A 
ATOM      6  C   UNL d   1       0.680  -1.223   0.007  0.00  0.00     0.090 A 
ATOM      7  O   UNL d   1      -2.653   0.027   0.055  0.00  0.00    -0.267 OA
ATOM      8  C   UNL d   1       2.944  -0.056   0.055  0.00  0.00     0.054 C 
ENDROOT
BRANCH   1   9
ATOM      9  C   UNL d   1      -1.391   2.442  -0.010  0.00  0.00     0.043 A 
ATOM     10  C   UNL d   1      -1.733   3.069   1.193  0.00  0.00     0.030 A 
ATOM     11  C   UNL d   1      -2.484   4.245   1.175  0.00  0.00     0.002 A 
ATOM     12  C   UNL d   1      -2.894   4.793  -0.042  0.00  0.00     0.000 A 
ATOM     13  C   UNL d   1      -2.559   4.165  -1.242  0.00  0.00     0.002 A 
ATOM     14  C   UNL d   1      -1.810   2.987  -1.228  0.00  0.00     0.030 A 
ENDBRANCH   1   9
BRANCH   5  15
ATOM     15  C   UNL d   1       1.486   2.485   0.019  0.00  0.00    -0.008 A 
ATOM     16  C   UNL d   1       1.889   3.081  -1.185  0.00  0.00     0.014 A 
ATOM     17  C   UNL d   1       2.649   4.252  -1.168  0.00  0.00     0.001 A 
ATOM     18  C   UNL d   1       3.013   4.833   0.046  0.00  0.00     0.000 A 
ATOM     19  C   UNL d   1       2.611   4.249   1.248  0.00  0.00     0.001 A 
ATOM     20  C   UNL d   1       1.851   3.079   1.236  0.00  0.00     0.014 A 
ENDBRANCH   5  15
BRANCH   2  21
ATOM     21  C   UNL d   1      -1.393  -2.527   0.016  0.00  0.00    -0.018 A 
ATOM     22  C   UNL d   1      -1.712  -3.164   1.222  0.00  0.00     0.012 A 
ATOM     23  C   UNL d   1      -2.365  -4.398   1.216  0.00  0.00     0.001 A 
ATOM     24  C   UNL d   1      -2.704  -5.002   0.006  0.00  0.00     0.000 A 
ATOM     25  C   UNL d   1      -2.394  -4.373  -1.199  0.00  0.00     0.001 A 
ATOM     26  C   UNL d   1      -1.741  -3.139  -1.195  0.00  0.00     0.012 A 
ENDBRANCH   2  21
BRANCH   6  27
ATOM     27  O   UNL d   1       1.388  -2.416  -0.010  0.00  0.00    -0.359 OA
ATOM     28  H   UNL d   1       2.327  -2.269  -0.190  0.00  0.00     0.217 HD
ENDBRANCH   6  27
TORSDOF 4
