REMARK  5 active torsions:
REMARK  status: ('A' for Active; 'I' for Inactive)
REMARK    1  A    between atoms: C_2  and  C_1 
REMARK    2  A    between atoms: N_13  and  C_2 
REMARK    3  A    between atoms: O_7  and  N_4 
REMARK    4  A    between atoms: C_6  and  O_7 
REMARK    5  A    between atoms: C_11  and  C_6 
ROOT
ATOM      1  C   UNL d   1       2.460  -1.981  -0.011  0.00  0.00     0.133 C 
ATOM      2  N   UNL d   1       2.559  -3.267   0.159  0.00  0.00    -0.241 N 
ATOM      3  HN  UNL d   1       3.443  -3.754   0.315  1.00  0.00     0.196 HD
ENDROOT
BRANCH   1   4
ATOM      4  C   UNL d   1       3.736  -1.186   0.010  0.00  0.00     0.048 A 
ATOM      5  C   UNL d   1       3.737   0.211  -0.081  0.00  0.00     0.133 A 
ATOM      6  C   UNL d   1       4.928   0.934  -0.064  0.00  0.00     0.085 A 
ATOM      7  F   UNL d   1       2.588   0.900  -0.170  0.00  0.00    -0.205 F 
ATOM      8  C   UNL d   1       6.132   0.254   0.051  0.00  0.00     0.119 A 
ATOM      9  C   UNL d   1       6.165  -1.132   0.149  0.00  0.00     0.043 A 
ATOM     10  F   UNL d   1       7.279   0.944   0.073  0.00  0.00    -0.206 F 
ATOM     11  C   UNL d   1       4.967  -1.854   0.127  0.00  0.00     0.021 A 
ENDBRANCH   1   4
BRANCH   1  12
ATOM     12  N   UNL d   1       1.259  -1.344  -0.202  0.00  0.00    -0.383 N 
ATOM     13  H   UNL d   1       1.207  -0.356   0.027  0.00  0.00     0.157 HD
ATOM     14  H   UNL d   1       0.450  -1.883   0.078  0.00  0.00     0.157 HD
ENDBRANCH   1  12
BRANCH   2  15
ATOM     15  O   UNL d   1       1.307  -3.912   0.105  0.00  0.00    -0.193 OA
BRANCH  15  16
ATOM     16  C   UNL d   1       1.493  -5.267   0.120  0.00  0.00     0.315 C 
ATOM     17  O   UNL d   1       2.550  -5.882   0.159  0.00  0.00    -0.257 OA
BRANCH  16  18
ATOM     18  C   UNL d   1       0.179  -5.952   0.019  0.00  0.00     0.041 A 
ATOM     19  C   UNL d   1      -1.013  -5.363   0.461  0.00  0.00     0.017 A 
ATOM     20  C   UNL d   1      -2.219  -6.061   0.351  0.00  0.00     0.001 A 
ATOM     21  C   UNL d   1      -2.239  -7.344  -0.196  0.00  0.00     0.000 A 
ATOM     22  C   UNL d   1      -1.055  -7.939  -0.628  0.00  0.00     0.001 A 
ATOM     23  C   UNL d   1       0.153  -7.248  -0.516  0.00  0.00     0.017 A 
ENDBRANCH  16  18
ENDBRANCH  15  16
ENDBRANCH   2  15
TORSDOF 5
