REMARK  6 active torsions:
REMARK  status: ('A' for Active; 'I' for Inactive)
REMARK    1  A    between atoms: N_5  and  C_1 
REMARK    2  A    between atoms: O_11  and  C_2 
REMARK    3  A    between atoms: C_12  and  N_5 
REMARK    4  A    between atoms: C_6  and  C_9 
REMARK    5  A    between atoms: O_15  and  C_6 
REMARK    6  A    between atoms: C_18  and  O_11 
ROOT
ATOM      1  N   UNL d   1       1.632  -2.342  -0.170  0.00  0.00    -0.351 N 
ATOM      2  H   UNL d   1       1.438  -3.271  -0.538  0.00  0.00     0.166 HD
ENDROOT
BRANCH   1   3
ATOM      3  C   UNL d   1       0.669  -1.453  -0.057  0.00  0.00     0.125 A 
ATOM      4  C   UNL d   1      -0.127  -0.666  -0.861  0.00  0.00     0.154 A 
ATOM      5  C   UNL d   1      -0.780  -0.051   0.319  0.00  0.00     0.259 A 
ATOM      6  C   UNL d   1       0.033  -0.939   1.175  0.00  0.00     0.254 A 
ATOM      7  O   UNL d   1      -1.633   0.763   0.571  0.00  0.00    -0.281 OA
ATOM      8  O   UNL d   1       0.060  -1.131   2.366  0.00  0.00    -0.281 OA
BRANCH   4   9
ATOM      9  O   UNL d   1      -0.272  -0.434  -2.112  0.00  0.00    -0.345 OA
BRANCH   9  10
ATOM     10  C   UNL d   1       0.171  -1.471  -2.979  0.00  0.00     0.171 C 
ATOM     11  C   UNL d   1      -0.006  -1.000  -4.412  0.00  0.00     0.034 C 
ENDBRANCH   9  10
ENDBRANCH   4   9
ENDBRANCH   1   3
BRANCH   1  12
ATOM     12  C   UNL d   1       3.016  -2.113   0.014  0.00  0.00     0.032 A 
ATOM     13  C   UNL d   1       3.513  -1.029   0.751  0.00  0.00     0.030 A 
ATOM     14  C   UNL d   1       4.890  -0.788   0.840  0.00  0.00     0.020 A 
ATOM     15  C   UNL d   1       5.797  -1.614   0.171  0.00  0.00     0.037 A 
ATOM     16  C   UNL d   1       5.316  -2.676  -0.601  0.00  0.00     0.020 A 
ATOM     17  C   UNL d   1       3.938  -2.925  -0.667  0.00  0.00     0.030 A 
BRANCH  15  18
ATOM     18  C   UNL d   1       7.243  -1.280   0.259  0.00  0.00     0.176 C 
ATOM     19  O   UNL d   1       7.649  -0.144   0.434  0.00  0.00    -0.646 OA
BRANCH  18  20
ATOM     20  O   UNL d   1       8.062  -2.348   0.162  0.00  0.00    -0.773 OA
ATOM     21  H   UNL d   1       7.625  -3.216   0.221  0.00  0.00     0.167 HD
ENDBRANCH  18  20
ENDBRANCH  15  18
ENDBRANCH   1  12
TORSDOF 6
