REMARK  2 active torsions:
REMARK  status: ('A' for Active; 'I' for Inactive)
REMARK    1  A    between atoms: C_13  and  N_1 
REMARK    2  A    between atoms: N_3  and  C_4 
ROOT
ATOM      1  N   UNL d   1      -0.003   0.860  -0.064  0.00  0.00    -0.251 N 
ATOM      2  C   UNL d   1      -1.123   0.071   0.095  0.00  0.00     0.255 A 
ATOM      3  C   UNL d   1      -0.720  -1.375   0.035  0.00  0.00     0.192 A 
ATOM      4  C   UNL d   1       1.139   0.096  -0.154  0.00  0.00     0.233 A 
ATOM      5  C   UNL d   1       0.789  -1.355  -0.048  0.00  0.00     0.139 A 
ATOM      6  O   UNL d   1      -2.295   0.412   0.209  0.00  0.00    -0.270 OA
ATOM      7  O   UNL d   1       2.304   0.457  -0.246  0.00  0.00    -0.273 OA
ENDROOT
BRANCH   3   8
ATOM      8  N   UNL d   1      -1.319  -2.096  -1.077  0.00  0.00    -0.327 N 
ATOM      9  C   UNL d   1      -1.688  -1.579  -2.290  0.00  0.00     0.184 A 
ATOM     10  N   UNL d   1      -2.064  -2.519  -3.125  0.00  0.00    -0.350 N 
ATOM     11  C   UNL d   1      -1.963  -3.692  -2.421  0.00  0.00     0.060 A 
ATOM     12  HN  UNL d   1      -2.366  -2.402  -4.092  1.00  0.00     0.166 HD
ATOM     13  C   UNL d   1      -1.511  -3.459  -1.125  0.00  0.00     0.063 A 
ATOM     14  C   UNL d   1      -2.236  -5.004  -2.833  0.00  0.00     0.032 A 
ATOM     15  C   UNL d   1      -1.325  -4.489  -0.193  0.00  0.00     0.032 A 
ATOM     16  C   UNL d   1      -1.610  -5.791  -0.621  0.00  0.00     0.002 A 
ATOM     17  C   UNL d   1      -2.053  -6.048  -1.919  0.00  0.00     0.002 A 
ENDBRANCH   3   8
BRANCH   1  18
ATOM     18  C   UNL d   1      -0.033   2.287  -0.155  0.00  0.00     0.045 A 
ATOM     19  C   UNL d   1      -1.133   3.030   0.305  0.00  0.00     0.030 A 
ATOM     20  C   UNL d   1      -1.184   4.422   0.173  0.00  0.00     0.002 A 
ATOM     21  C   UNL d   1      -0.133   5.105  -0.426  0.00  0.00     0.000 A 
ATOM     22  C   UNL d   1       0.973   4.396  -0.877  0.00  0.00     0.002 A 
ATOM     23  C   UNL d   1       1.026   3.005  -0.736  0.00  0.00     0.030 A 
ENDBRANCH   1  18
TORSDOF 2
