REMARK  7 active torsions:
REMARK  status: ('A' for Active; 'I' for Inactive)
REMARK    1  A    between atoms: S_2  and  C_1 
REMARK    2  A    between atoms: C_8  and  S_2 
REMARK    3  A    between atoms: C_7  and  C_4 
REMARK       I    between atoms: N_9  and  C_7 
REMARK    4  A    between atoms: C_13  and  N_9 
REMARK    5  A    between atoms: C_16  and  C_13 
REMARK    6  A    between atoms: C_17  and  C_16 
REMARK    7  A    between atoms: O_23  and  C_16 
ROOT
ATOM      1  C   UNL d   1      -0.654   1.328  -0.025  0.00  0.00     0.106 A 
ATOM      2  S   UNL d   1      -1.301  -0.252   0.035  0.00  0.00    -0.072 SA
ATOM      3  C   UNL d   1       0.254  -0.986   0.010  0.00  0.00     0.080 A 
ATOM      4  C   UNL d   1       0.724   1.301  -0.056  0.00  0.00     0.039 A 
ATOM      5  C   UNL d   1       1.261  -0.022  -0.020  0.00  0.00    -0.037 A 
ATOM      6  C   UNL d   1       2.728  -0.309  -0.016  0.00  0.00     0.050 C 
ENDROOT
BRANCH   3   7
ATOM      7  C   UNL d   1       0.439  -2.445   0.022  0.00  0.00     0.259 C 
ATOM      8  N   UNL d   1      -0.696  -3.225   0.080  0.00  0.00    -0.354 N 
ATOM      9  H   UNL d   1      -1.598  -2.772   0.035  0.00  0.00     0.162 HD
ATOM     10  O   UNL d   1       1.550  -2.966  -0.018  0.00  0.00    -0.267 OA
BRANCH   8  11
ATOM     11  C   UNL d   1      -0.628  -4.677   0.010  0.00  0.00     0.159 C 
BRANCH  11  12
ATOM     12  C   UNL d   1       0.099  -5.388   1.178  0.00  0.00     0.169 C 
BRANCH  12  13
ATOM     13  C   UNL d   1      -0.487  -5.088   2.546  0.00  0.00    -0.028 A 
ATOM     14  C   UNL d   1      -1.817  -5.397   2.871  0.00  0.00     0.010 A 
ATOM     15  C   UNL d   1      -2.315  -5.146   4.152  0.00  0.00     0.001 A 
ATOM     16  C   UNL d   1      -1.495  -4.575   5.122  0.00  0.00     0.000 A 
ATOM     17  C   UNL d   1      -0.177  -4.248   4.812  0.00  0.00     0.001 A 
ATOM     18  C   UNL d   1       0.324  -4.503   3.534  0.00  0.00     0.010 A 
ENDBRANCH  12  13
BRANCH  12  19
ATOM     19  O   UNL d   1       0.061  -6.802   0.933  0.00  0.00    -0.389 OA
ATOM     20  H   UNL d   1      -0.744  -7.160   1.340  0.00  0.00     0.210 HD
ENDBRANCH  12  19
ENDBRANCH  11  12
ENDBRANCH   8  11
ENDBRANCH   3   7
BRANCH   1  21
ATOM     21  S   UNL d   1      -1.779   2.709  -0.019  0.00  0.00     0.213 S 
ATOM     22  O   UNL d   1      -1.030   3.805  -0.604  0.00  0.00    -0.217 OA
ATOM     23  O   UNL d   1      -3.026   2.246  -0.595  0.00  0.00    -0.217 OA
BRANCH  21  24
ATOM     24  C   UNL d   1      -2.056   3.089   1.696  0.00  0.00     0.064 A 
ATOM     25  C   UNL d   1      -1.260   4.042   2.336  0.00  0.00     0.025 A 
ATOM     26  C   UNL d   1      -1.523   4.380   3.667  0.00  0.00     0.025 A 
ATOM     27  C   UNL d   1      -2.585   3.775   4.340  0.00  0.00     0.034 A 
ATOM     28  C   UNL d   1      -3.387   2.831   3.696  0.00  0.00     0.025 A 
ATOM     29 CL   UNL d   1      -2.921   4.207   5.971  0.00  0.00    -0.084 Cl
ATOM     30  C   UNL d   1      -3.129   2.488   2.367  0.00  0.00     0.025 A 
ENDBRANCH  21  24
ENDBRANCH   1  21
TORSDOF 7
