REMARK  3 active torsions:
REMARK  status: ('A' for Active; 'I' for Inactive)
REMARK    1  A    between atoms: C_4  and  C_3 
REMARK    2  A    between atoms: C_6  and  C_11 
REMARK    3  A    between atoms: O_20  and  C_8 
ROOT
ATOM      1  N   UNL d   1      -0.409  -1.904  -0.005  0.00  0.00    -0.352 N 
ATOM      2  HN  UNL d   1      -0.052  -2.859  -0.006  1.00  0.00     0.166 HD
ATOM      3  C   UNL d   1      -1.752  -1.673  -0.005  0.00  0.00     0.119 A 
ATOM      4  C   UNL d   1       0.009   0.479  -0.001  0.00  0.00     0.025 A 
ATOM      5  C   UNL d   1       0.439  -0.864  -0.003  0.00  0.00     0.045 A 
ATOM      6  C   UNL d   1      -1.385   0.685  -0.002  0.00  0.00     0.080 A 
ATOM      7  C   UNL d   1       0.984   1.510   0.001  0.00  0.00     0.032 A 
ATOM      8  C   UNL d   1      -2.269  -0.386  -0.004  0.00  0.00     0.071 A 
ATOM      9  C   UNL d   1       2.358   1.221   0.002  0.00  0.00     0.049 A 
ATOM     10  C   UNL d   1       1.799  -1.134  -0.002  0.00  0.00     0.031 A 
ATOM     11  C   UNL d   1       2.757  -0.116  -0.000  0.00  0.00     0.018 A 
ENDROOT
BRANCH   3  12
ATOM     12  C   UNL d   1      -2.716  -2.850  -0.007  0.00  0.00     0.432 C 
ATOM     13  F   UNL d   1      -2.110  -4.072  -0.007  0.00  0.00    -0.165 F 
ATOM     14  F   UNL d   1      -3.545  -2.848   1.078  0.00  0.00    -0.165 F 
ATOM     15  F   UNL d   1      -3.541  -2.847  -1.095  0.00  0.00    -0.165 F 
ENDBRANCH   3  12
BRANCH   6  16
ATOM     16  O   UNL d   1      -1.978   1.919  -0.001  0.00  0.00    -0.360 OA
ATOM     17  H   UNL d   1      -1.311   2.621   0.003  0.00  0.00     0.217 HD
ENDBRANCH   6  16
BRANCH   9  18
ATOM     18  C   UNL d   1       3.387   2.326   0.004  0.00  0.00     0.417 C 
ATOM     19  F   UNL d   1       2.835   3.572   0.007  0.00  0.00    -0.166 F 
ATOM     20  F   UNL d   1       4.203   2.277   1.091  0.00  0.00    -0.166 F 
ATOM     21  F   UNL d   1       4.202   2.282  -1.085  0.00  0.00    -0.166 F 
ENDBRANCH   9  18
TORSDOF 3
