REMARK  5 active torsions:
REMARK  status: ('A' for Active; 'I' for Inactive)
REMARK    1  A    between atoms: N_6  and  C_1 
REMARK    2  A    between atoms: N_9  and  C_1 
REMARK    3  A    between atoms: N_2  and  N_6 
REMARK    4  A    between atoms: C_4  and  C_8 
REMARK    5  A    between atoms: O_10  and  C_7 
ROOT
ATOM      1  N   UNL d   1      -1.108  -0.936  -0.773  0.00  0.00    -0.309 N 
ATOM      2  HN  UNL d   1      -1.646  -0.089  -0.590  1.00  0.00     0.186 HD
ATOM      3  C   UNL d   1      -1.683  -2.047  -1.114  0.00  0.00     0.121 C 
ENDROOT
BRANCH   1   4
ATOM      4  N   UNL d   1       0.251  -0.954  -0.670  0.00  0.00    -0.277 N 
ATOM      5  H   UNL d   1       0.778  -1.812  -0.813  0.00  0.00     0.189 HD
BRANCH   4   6
ATOM      6  C   UNL d   1       0.947   0.189  -0.313  0.00  0.00     0.186 C 
ATOM      7  S   UNL d   1       2.600   0.135  -0.132  0.00  0.00    -0.040 SA
BRANCH   6   8
ATOM      8  N   UNL d   1       0.136   1.279  -0.147  0.00  0.00    -0.370 N 
ATOM      9  C   UNL d   1       0.458   2.634   0.234  0.00  0.00     0.148 C 
ATOM     10  H   UNL d   1      -0.835   1.067  -0.315  0.00  0.00     0.161 HD
ENDBRANCH   6   8
ENDBRANCH   4   6
ENDBRANCH   1   4
BRANCH   3  11
ATOM     11  C   UNL d   1      -3.161  -2.104  -1.219  0.00  0.00     0.014 A 
ATOM     12  C   UNL d   1      -3.960  -0.977  -0.968  0.00  0.00     0.077 A 
ATOM     13  C   UNL d   1      -5.344  -1.046  -1.061  0.00  0.00     0.037 A 
ATOM     14  C   UNL d   1      -5.949  -2.254  -1.399  0.00  0.00     0.003 A 
ATOM     15  C   UNL d   1      -5.166  -3.382  -1.649  0.00  0.00     0.001 A 
ATOM     16  C   UNL d   1      -3.772  -3.312  -1.565  0.00  0.00     0.015 A 
BRANCH  12  17
ATOM     17  O   UNL d   1      -3.441   0.238  -0.611  0.00  0.00    -0.360 OA
ATOM     18  H   UNL d   1      -2.475   0.101  -0.550  0.00  0.00     0.217 HD
ENDBRANCH  12  17
ENDBRANCH   3  11
TORSDOF 5
