REMARK  4 active torsions:
REMARK  status: ('A' for Active; 'I' for Inactive)
REMARK    1  A    between atoms: N_2  and  C_1 
REMARK    2  A    between atoms: C_5  and  C_4 
REMARK    3  A    between atoms: C_8  and  C_6 
REMARK    4  A    between atoms: O_13  and  C_8 
ROOT
ATOM      1  C   UNL d   1      -0.100   1.177   0.612  0.00  0.00     0.215 A 
ATOM      2  O   UNL d   1      -0.798   0.024   0.743  0.00  0.00    -0.289 OA
ATOM      3  C   UNL d   1      -0.068  -0.996   0.149  0.00  0.00     0.079 A 
ATOM      4  C   UNL d   1       1.079   0.974  -0.054  0.00  0.00     0.065 A 
ATOM      5  C   UNL d   1       1.092  -0.414  -0.356  0.00  0.00     0.042 A 
ENDROOT
BRANCH   3   6
ATOM      6  C   UNL d   1      -0.625  -2.305   0.082  0.00  0.00     0.050 C 
ATOM      7  C   UNL d   1      -0.020  -3.508   0.036  0.00  0.00     0.014 C 
ATOM      8  C   UNL d   1      -0.873  -4.746  -0.084  0.00  0.00     0.055 C 
BRANCH   7   9
ATOM      9  C   UNL d   1       1.448  -3.742   0.028  0.00  0.00     0.171 C 
ATOM     10  O   UNL d   1       2.251  -3.113  -0.637  0.00  0.00    -0.646 OA
BRANCH   9  11
ATOM     11  O   UNL d   1       1.823  -4.791   0.790  0.00  0.00    -0.773 OA
ATOM     12  H   UNL d   1       1.127  -5.194   1.338  0.00  0.00     0.167 HD
ENDBRANCH   9  11
ENDBRANCH   7   9
ENDBRANCH   3   6
BRANCH   1  13
ATOM     13  N   UNL d   1      -0.705   2.357   1.137  0.00  0.00    -0.090 N 
ATOM     14  O   UNL d   1      -0.072   3.410   1.001  0.00  0.00    -0.530 OA
ATOM     15  O   UNL d   1      -1.815   2.243   1.683  0.00  0.00    -0.530 OA
ENDBRANCH   1  13
TORSDOF 4
