REMARK  7 active torsions:
REMARK  status: ('A' for Active; 'I' for Inactive)
REMARK    1  A    between atoms: C_2  and  S_1 
REMARK    2  A    between atoms: N_8  and  S_1 
REMARK    3  A    between atoms: C_9  and  C_3 
REMARK    4  A    between atoms: S_4  and  C_10 
REMARK    5  A    between atoms: N_17  and  S_4 
REMARK    6  A    between atoms: C_16  and  N_8 
REMARK    7  A    between atoms: O_19  and  C_9 
ROOT
ATOM      1  N   UNL d   1       0.546  -0.399  -1.701  0.00  0.00    -0.180 NA
ATOM      2  H   UNL d   1       1.068  -1.242  -1.943  0.00  0.00     0.146 HD
ENDROOT
BRANCH   1   3
ATOM      3  S   UNL d   1       0.948   0.043  -0.112  0.00  0.00     0.268 S 
ATOM      4  O   UNL d   1       0.158  -0.754   0.804  0.00  0.00    -0.204 OA
ATOM      5  O   UNL d   1       2.392   0.065  -0.031  0.00  0.00    -0.204 OA
BRANCH   3   6
ATOM      6  C   UNL d   1       0.426   1.734   0.161  0.00  0.00     0.186 A 
ATOM      7  C   UNL d   1      -0.373   2.286   1.152  0.00  0.00     0.071 A 
ATOM      8  C   UNL d   1      -0.524   3.676   0.886  0.00  0.00     0.072 A 
ATOM      9  C   UNL d   1       0.219   3.908  -0.256  0.00  0.00     0.067 A 
ATOM     10  O   UNL d   1       0.785   2.751  -0.699  0.00  0.00    -0.301 OA
ATOM     11  C   UNL d   1       0.497   5.117  -1.063  0.00  0.00     0.078 C 
BRANCH   8  12
ATOM     12  C   UNL d   1      -1.291   4.665   1.624  0.00  0.00     0.295 C 
ATOM     13  O   UNL d   1      -1.367   5.844   1.309  0.00  0.00    -0.259 OA
BRANCH  12  14
ATOM     14  O   UNL d   1      -1.928   4.107   2.695  0.00  0.00    -0.322 OA
ATOM     15  C   UNL d   1      -2.727   5.018   3.449  0.00  0.00     0.213 C 
ENDBRANCH  12  14
ENDBRANCH   8  12
ENDBRANCH   3   6
ENDBRANCH   1   3
BRANCH   1  16
ATOM     16  C   UNL d   1      -0.843  -0.448  -2.025  0.00  0.00     0.024 A 
ATOM     17  C   UNL d   1      -1.594  -1.600  -1.800  0.00  0.00     0.049 A 
ATOM     18  C   UNL d   1      -2.951  -1.598  -2.140  0.00  0.00     0.076 A 
ATOM     19  C   UNL d   1      -3.554  -0.469  -2.704  0.00  0.00     0.025 A 
ATOM     20  C   UNL d   1      -2.799   0.685  -2.895  0.00  0.00     0.003 A 
ATOM     21  C   UNL d   1      -1.448   0.697  -2.546  0.00  0.00     0.024 A 
BRANCH  18  22
ATOM     22  S   UNL d   1      -3.929  -3.043  -1.867  0.00  0.00     0.239 S 
ATOM     23  O   UNL d   1      -5.085  -3.007  -2.733  0.00  0.00    -0.206 OA
ATOM     24  O   UNL d   1      -3.062  -4.194  -1.776  0.00  0.00    -0.206 OA
BRANCH  22  25
ATOM     25  N   UNL d   1      -4.498  -2.752  -0.317  0.00  0.00    -0.225 NA
ATOM     26  H   UNL d   1      -5.513  -2.658  -0.320  0.00  0.00     0.136 HD
ATOM     27  H   UNL d   1      -4.140  -3.453   0.333  0.00  0.00     0.136 HD
ENDBRANCH  22  25
ENDBRANCH  18  22
ENDBRANCH   1  16
TORSDOF 7
