REMARK  3 active torsions:
REMARK  status: ('A' for Active; 'I' for Inactive)
REMARK    1  A    between atoms: C_3  and  N_1 
REMARK    2  A    between atoms: N_2  and  C_4 
REMARK    3  A    between atoms: C_6  and  C_5 
ROOT
ATOM      1  C   UNL d   1       0.081   2.988   1.516  0.00  0.00     0.114 A 
ATOM      2  C   UNL d   1       0.642   2.282   0.424  0.00  0.00     0.010 A 
ATOM      3  C   UNL d   1       0.048   1.027   0.171  0.00  0.00     0.015 A 
ATOM      4  C   UNL d   1      -0.978   2.486   2.302  0.00  0.00     0.043 A 
ATOM      5  C   UNL d   1      -1.038   0.536   0.916  0.00  0.00     0.007 A 
ATOM      6  C   UNL d   1      -1.552   1.255   1.994  0.00  0.00    -0.060 A 
ATOM      7  C   UNL d   1      -2.678   0.717   2.826  0.00  0.00     0.048 C 
ENDROOT
BRANCH   2   8
ATOM      8  C   UNL d   1       1.812   2.744  -0.400  0.00  0.00     0.010 A 
ATOM      9  C   UNL d   1       1.944   2.581  -1.801  0.00  0.00     0.114 A 
ATOM     10  C   UNL d   1       3.084   2.990  -2.525  0.00  0.00     0.043 A 
ATOM     11  C   UNL d   1       4.135   3.627  -1.869  0.00  0.00    -0.060 A 
ATOM     12  C   UNL d   1       4.040   3.812  -0.491  0.00  0.00     0.007 A 
ATOM     13  C   UNL d   1       5.345   4.077  -2.632  0.00  0.00     0.048 C 
ATOM     14  C   UNL d   1       2.920   3.354   0.224  0.00  0.00     0.015 A 
BRANCH   9  15
ATOM     15  N   UNL d   1       0.897   1.975  -2.604  0.00  0.00    -0.115 N 
ATOM     16  O   UNL d   1      -0.186   2.572  -2.673  0.00  0.00    -0.532 OA
ATOM     17  O   UNL d   1       1.171   0.911  -3.174  0.00  0.00    -0.532 OA
ENDBRANCH   9  15
ENDBRANCH   2   8
BRANCH   1  18
ATOM     18  N   UNL d   1       0.571   4.294   1.919  0.00  0.00    -0.115 N 
ATOM     19  O   UNL d   1       0.445   5.224   1.115  0.00  0.00    -0.532 OA
ATOM     20  O   UNL d   1       1.067   4.380   3.052  0.00  0.00    -0.532 OA
ENDBRANCH   1  18
TORSDOF 3
