REMARK  4 active torsions:
REMARK  status: ('A' for Active; 'I' for Inactive)
REMARK    1  A    between atoms: C_7  and  C_1 
REMARK    2  A    between atoms: O_13  and  C_7 
REMARK    3  A    between atoms: N_8  and  N_10 
REMARK    4  A    between atoms: C_14  and  C_12 
ROOT
ATOM      1  C   UNL d   1      -1.014  -0.506   0.034  0.00  0.00     0.107 A 
ATOM      2  C   UNL d   1      -1.333   0.836  -0.024  0.00  0.00     0.153 A 
ATOM      3  N   UNL d   1       0.926   0.721   0.159  0.00  0.00    -0.302 N 
ATOM      4  HN  UNL d   1       1.905   0.996   0.249  1.00  0.00     0.186 HD
ATOM      5  N   UNL d   1      -0.153   1.513   0.074  0.00  0.00    -0.283 N 
ATOM      6  C   UNL d   1       0.415  -0.515   0.097  0.00  0.00     0.042 A 
ATOM      7  N   UNL d   1      -2.490   1.525  -0.157  0.00  0.00    -0.284 N 
ATOM      8  C   UNL d   1       1.357  -1.664   0.064  0.00  0.00     0.071 C 
ATOM      9  H   UNL d   1      -0.052   2.521   0.065  0.00  0.00     0.188 HD
ATOM     10  H   UNL d   1      -3.363   1.011  -0.324  0.00  0.00     0.188 HD
ENDROOT
BRANCH   1  11
ATOM     11  C   UNL d   1      -1.979  -1.585  -0.013  0.00  0.00     0.182 C 
ATOM     12  O   UNL d   1      -3.095  -1.470  -0.505  0.00  0.00    -0.646 OA
BRANCH  11  13
ATOM     13  O   UNL d   1      -1.588  -2.741   0.580  0.00  0.00    -0.772 OA
ATOM     14  H   UNL d   1      -0.784  -2.635   1.117  0.00  0.00     0.167 HD
ENDBRANCH  11  13
ENDBRANCH   1  11
BRANCH   7  15
ATOM     15  N   UNL d   1      -2.478   2.880  -0.100  0.00  0.00    -0.309 N 
ATOM     16  C   UNL d   1      -3.532   3.495  -0.528  0.00  0.00     0.118 C 
ATOM     17  HN  UNL d   1      -1.673   3.391   0.264  1.00  0.00     0.186 HD
BRANCH  16  18
ATOM     18  C   UNL d   1      -3.576   4.972  -0.513  0.00  0.00    -0.019 A 
ATOM     19  C   UNL d   1      -2.567   5.697   0.135  0.00  0.00     0.013 A 
ATOM     20  C   UNL d   1      -2.588   7.090   0.119  0.00  0.00     0.001 A 
ATOM     21  C   UNL d   1      -3.613   7.760  -0.546  0.00  0.00     0.000 A 
ATOM     22  C   UNL d   1      -4.622   7.038  -1.188  0.00  0.00     0.001 A 
ATOM     23  C   UNL d   1      -4.609   5.641  -1.171  0.00  0.00     0.013 A 
ENDBRANCH  16  18
ENDBRANCH   7  15
TORSDOF 4
