REMARK  5 active torsions:
REMARK  status: ('A' for Active; 'I' for Inactive)
REMARK    1  A    between atoms: O_11  and  C_4 
REMARK    2  A    between atoms: C_6  and  C_15 
REMARK    3  A    between atoms: C_12  and  C_7 
REMARK    4  A    between atoms: C_15  and  O_11 
REMARK    5  A    between atoms: O_23  and  C_13 
ROOT
ATOM      1  C   UNL d   1      -0.081  -0.533   0.263  0.00  0.00     0.026 A 
ATOM      2  N   UNL d   1      -1.798   1.071   0.898  0.00  0.00    -0.359 N 
ATOM      3  HN  UNL d   1      -2.070   2.038   1.073  1.00  0.00     0.166 HD
ATOM      4  C   UNL d   1      -1.057  -1.575   0.420  0.00  0.00     0.083 A 
ATOM      5  C   UNL d   1      -0.546   0.777   0.529  0.00  0.00     0.045 A 
ATOM      6  C   UNL d   1      -2.362  -1.245   0.805  0.00  0.00     0.062 A 
ATOM      7  C   UNL d   1      -2.694   0.076   1.036  0.00  0.00     0.008 A 
ATOM      8  C   UNL d   1       1.293  -0.640  -0.122  0.00  0.00     0.040 A 
ATOM      9  C   UNL d   1       0.313   1.865   0.412  0.00  0.00     0.032 A 
ATOM     10  C   UNL d   1       2.133   0.469  -0.231  0.00  0.00     0.035 A 
ATOM     11  C   UNL d   1       1.647   1.729   0.036  0.00  0.00     0.026 A 
ATOM     12 CL   UNL d   1       3.775   0.255  -0.700  0.00  0.00    -0.084 Cl
ATOM     13  C   UNL d   1      -4.082   0.461   1.445  0.00  0.00     0.068 C 
ENDROOT
BRANCH   4  14
ATOM     14  O   UNL d   1      -0.944  -2.936   0.239  0.00  0.00    -0.346 OA
BRANCH  14  15
ATOM     15  C   UNL d   1       0.323  -3.485  -0.069  0.00  0.00     0.217 C 
BRANCH  15  16
ATOM     16  C   UNL d   1       0.332  -4.994  -0.129  0.00  0.00     0.000 A 
ATOM     17  C   UNL d   1       1.248  -5.639   0.733  0.00  0.00     0.027 A 
ATOM     18  C   UNL d   1       1.393  -7.031   0.761  0.00  0.00     0.010 A 
ATOM     19  C   UNL d   1       0.620  -7.808  -0.094  0.00  0.00     0.018 A 
ATOM     20  C   UNL d   1      -0.291  -7.185  -0.955  0.00  0.00     0.038 A 
ATOM     21  C   UNL d   1      -0.432  -5.787  -0.995  0.00  0.00     0.076 A 
BRANCH  18  22
ATOM     22  C   UNL d   1       2.392  -7.602   1.706  0.00  0.00     0.155 C 
ATOM     23  O   UNL d   1       3.352  -6.914   2.057  0.00  0.00    -0.293 OA
ATOM     24  C   UNL d   1       2.201  -8.995   2.237  0.00  0.00     0.096 C 
ENDBRANCH  18  22
BRANCH  21  25
ATOM     25  O   UNL d   1      -1.392  -5.367  -1.873  0.00  0.00    -0.355 OA
ATOM     26  C   UNL d   1      -1.086  -4.242  -2.687  0.00  0.00     0.210 C 
ENDBRANCH  21  25
ENDBRANCH  15  16
ENDBRANCH  14  15
ENDBRANCH   4  14
TORSDOF 5
