REMARK  4 active torsions:
REMARK  status: ('A' for Active; 'I' for Inactive)
REMARK    1  A    between atoms: N_2  and  S_1 
REMARK    2  A    between atoms: C_6  and  S_1 
REMARK    3  A    between atoms: C_5  and  N_4 
REMARK       I    between atoms: C_14  and  N_18 
REMARK    4  A    between atoms: N_18  and  C_22 
ROOT
ATOM      1  N   UNL d   1       0.598  -0.232   1.283  0.00  0.00    -0.203 NA
ATOM      2  N   UNL d   1       2.494  -1.539   3.019  0.00  0.00    -0.378 N 
ATOM      3  C   UNL d   1       1.367   0.548   2.309  0.00  0.00     0.127 C 
ATOM      4  C   UNL d   1       0.447  -1.661   1.699  0.00  0.00     0.127 C 
ATOM      5  C   UNL d   1       1.811  -2.317   1.976  0.00  0.00     0.138 C 
ATOM      6  C   UNL d   1       2.719  -0.122   2.657  0.00  0.00     0.138 C 
ENDROOT
BRANCH   1   7
ATOM      7  S   UNL d   1       1.021   0.033  -0.340  0.00  0.00     0.243 S 
ATOM      8  O   UNL d   1       0.452  -1.020  -1.152  0.00  0.00    -0.206 OA
ATOM      9  O   UNL d   1       2.429   0.359  -0.402  0.00  0.00    -0.206 OA
BRANCH   7  10
ATOM     10  C   UNL d   1       0.097   1.506  -0.695  0.00  0.00     0.074 A 
ATOM     11  C   UNL d   1       0.734   2.672  -1.117  0.00  0.00     0.027 A 
ATOM     12  C   UNL d   1      -0.034   3.812  -1.378  0.00  0.00     0.031 A 
ATOM     13  C   UNL d   1      -1.429   3.793  -1.213  0.00  0.00     0.034 A 
ATOM     14  C   UNL d   1      -2.046   2.610  -0.803  0.00  0.00     0.031 A 
ATOM     15  C   UNL d   1      -1.289   1.467  -0.545  0.00  0.00     0.027 A 
BRANCH  13  16
ATOM     16  N   UNL d   1      -2.131   4.990  -1.470  0.00  0.00    -0.328 N 
ATOM     17  C   UNL d   1      -3.494   5.204  -1.325  0.00  0.00     0.218 C 
ATOM     18  O   UNL d   1      -4.333   4.386  -0.967  0.00  0.00    -0.274 OA
ATOM     19  C   UNL d   1      -3.910   6.615  -1.651  0.00  0.00     0.117 C 
ATOM     20  H   UNL d   1      -1.572   5.775  -1.772  0.00  0.00     0.169 HD
ENDBRANCH  13  16
ENDBRANCH   7  10
ENDBRANCH   1   7
BRANCH   2  21
ATOM     21  C   UNL d   1       3.408  -2.147   3.887  0.00  0.00     0.043 A 
ATOM     22  C   UNL d   1       4.105  -3.375   3.673  0.00  0.00     0.018 A 
ATOM     23  C   UNL d   1       4.918  -3.894   4.691  0.00  0.00     0.044 A 
ATOM     24  C   UNL d   1       4.221  -4.299   2.583  0.00  0.00     0.033 A 
ATOM     25  N   UNL d   1       5.453  -5.081   4.241  0.00  0.00    -0.365 N 
ATOM     26  C   UNL d   1       5.100  -3.267   5.926  0.00  0.00     0.030 A 
ATOM     27  C   UNL d   1       5.036  -5.338   2.967  0.00  0.00     0.089 A 
ATOM     28  H   UNL d   1       6.069  -5.670   4.784  0.00  0.00     0.165 HD
ATOM     29  C   UNL d   1       4.428  -2.071   6.141  0.00  0.00     0.005 A 
ATOM     30  C   UNL d   1       3.607  -1.537   5.152  0.00  0.00     0.030 A 
ENDBRANCH   2  21
TORSDOF 4
