REMARK  2 active torsions:
REMARK  status: ('A' for Active; 'I' for Inactive)
REMARK    1  A    between atoms: N_4  and  C_2 
REMARK    2  A    between atoms: N_5  and  C_3 
ROOT
ATOM      1  C   UNL d   1      -0.564   0.013  -0.069  0.00  0.00     0.099 A 
ATOM      2  C   UNL d   1       0.164   1.231  -0.067  0.00  0.00     0.062 A 
ATOM      3  C   UNL d   1       0.144  -1.218  -0.024  0.00  0.00     0.062 A 
ATOM      4  C   UNL d   1      -1.995   0.021  -0.100  0.00  0.00     0.104 C 
ATOM      5  N   UNL d   1      -3.154   0.025  -0.124  0.00  0.00    -0.191 NA
ATOM      6  C   UNL d   1       1.548  -1.212   0.066  0.00  0.00     0.032 A 
ATOM      7  C   UNL d   1       1.571   1.200  -0.043  0.00  0.00     0.032 A 
ATOM      8  C   UNL d   1       2.252  -0.011   0.042  0.00  0.00     0.005 A 
ENDROOT
BRANCH   2   9
ATOM      9  N   UNL d   1      -0.465   2.516  -0.094  0.00  0.00    -0.316 N 
ATOM     10  C   UNL d   1      -1.671   2.901   0.452  0.00  0.00     0.188 A 
ATOM     11  N   UNL d   1      -1.968   4.155   0.196  0.00  0.00    -0.360 N 
ATOM     12  C   UNL d   1      -0.907   4.635  -0.510  0.00  0.00     0.106 A 
ATOM     13  HN  UNL d   1      -2.812   4.661   0.468  1.00  0.00     0.166 HD
ATOM     14  C   UNL d   1       0.052   3.663  -0.665  0.00  0.00     0.115 A 
ENDBRANCH   2   9
BRANCH   3  15
ATOM     15  N   UNL d   1      -0.507  -2.490  -0.089  0.00  0.00    -0.316 N 
ATOM     16  C   UNL d   1      -1.661  -2.833  -0.762  0.00  0.00     0.188 A 
ATOM     17  N   UNL d   1      -1.996  -4.092  -0.588  0.00  0.00    -0.360 N 
ATOM     18  C   UNL d   1      -1.013  -4.615   0.196  0.00  0.00     0.106 A 
ATOM     19  HN  UNL d   1      -2.815  -4.573  -0.960  1.00  0.00     0.166 HD
ATOM     20  C   UNL d   1      -0.061  -3.666   0.482  0.00  0.00     0.115 A 
ENDBRANCH   3  15
TORSDOF 2
