REMARK  4 active torsions:
REMARK  status: ('A' for Active; 'I' for Inactive)
REMARK    1  A    between atoms: C_6  and  C_1 
REMARK    2  A    between atoms: N_10  and  C_2 
REMARK    3  A    between atoms: O_13  and  C_6 
REMARK    4  A    between atoms: C_15  and  O_13 
ROOT
ATOM      1  C   UNL d   1       1.260  -1.601   0.032  0.00  0.00     0.080 A 
ATOM      2  C   UNL d   1       2.393  -0.803   0.140  0.00  0.00     0.085 A 
ATOM      3  C   UNL d   1       0.064  -0.783   0.005  0.00  0.00    -0.022 A 
ATOM      4  C   UNL d   1       0.357   0.566   0.084  0.00  0.00     0.020 A 
ATOM      5  S   UNL d   1       2.019   0.866   0.186  0.00  0.00    -0.074 SA
ATOM      6  N   UNL d   1      -2.019   1.203   0.388  0.00  0.00     0.089 N 
ATOM      7  C   UNL d   1      -0.657   1.674   0.049  0.00  0.00     0.318 C 
ATOM      8  C   UNL d   1      -1.372  -1.230  -0.075  0.00  0.00     0.071 C 
ATOM      9  C   UNL d   1      -2.331  -0.047  -0.339  0.00  0.00     0.277 C 
ATOM     10  C   UNL d   1      -2.187   1.052   1.833  0.00  0.00     0.310 C 
ENDROOT
BRANCH   1  11
ATOM     11  C   UNL d   1       1.336  -3.060  -0.078  0.00  0.00     0.296 C 
ATOM     12  O   UNL d   1       2.383  -3.679  -0.257  0.00  0.00    -0.259 OA
BRANCH  11  13
ATOM     13  O   UNL d   1       0.107  -3.655  -0.037  0.00  0.00    -0.318 OA
BRANCH  13  14
ATOM     14  C   UNL d   1       0.047  -5.015  -0.481  0.00  0.00     0.174 C 
ATOM     15  C   UNL d   1      -0.090  -5.027  -1.995  0.00  0.00     0.034 C 
ENDBRANCH  13  14
ENDBRANCH  11  13
ENDBRANCH   1  11
BRANCH   2  16
ATOM     16  N   UNL d   1       3.683  -1.199   0.204  0.00  0.00    -0.393 N 
ATOM     17  H   UNL d   1       3.921  -2.163  -0.033  0.00  0.00     0.156 HD
ATOM     18  H   UNL d   1       4.423  -0.528   0.031  0.00  0.00     0.156 HD
ENDBRANCH   2  16
TORSDOF 4
