REMARK  3 active torsions:
REMARK  status: ('A' for Active; 'I' for Inactive)
REMARK    1  A    between atoms: C_8  and  C_1 
REMARK    2  A    between atoms: N_7  and  N_2 
REMARK    3  A    between atoms: N_4  and  C_6 
ROOT
ATOM      1  C   UNL d   1       0.708  -3.886   0.746  0.00  0.00     0.072 A 
ATOM      2  C   UNL d   1      -1.265  -2.902   1.843  0.00  0.00     0.050 A 
ATOM      3  C   UNL d   1      -0.474  -4.011   1.507  0.00  0.00     0.048 A 
ATOM      4  C   UNL d   1       1.105  -2.598   0.358  0.00  0.00     0.062 A 
ATOM      5  C   UNL d   1      -0.846  -1.631   1.430  0.00  0.00     0.018 A 
ATOM      6  C   UNL d   1       0.334  -1.480   0.697  0.00  0.00     0.027 A 
ATOM      7 CL   UNL d   1       2.556  -2.340  -0.546  0.00  0.00    -0.082 Cl
ENDROOT
BRANCH   1   8
ATOM      8  N   UNL d   1       1.501  -5.019   0.449  0.00  0.00    -0.285 N 
ATOM      9  N   UNL d   1       0.786  -5.992   0.140  0.00  0.00    -0.244 N 
ATOM     10  HN  UNL d   1      -0.208  -5.912  -0.072  1.00  0.00     0.208 HD
ATOM     11  HN  UNL d   1       2.520  -5.037   0.482  1.00  0.00     0.188 HD
BRANCH   9  12
ATOM     12  N   UNL d   1       1.462  -7.173   0.112  0.00  0.00    -0.309 N 
ATOM     13  C   UNL d   1       2.818  -7.281  -0.428  0.00  0.00     0.170 C 
ATOM     14  C   UNL d   1       2.786  -7.818  -1.864  0.00  0.00     0.189 C 
ATOM     15  O   UNL d   1       2.040  -9.048  -1.948  0.00  0.00    -0.388 OA
ATOM     16  C   UNL d   1       0.683  -8.847  -1.515  0.00  0.00     0.189 C 
ATOM     17  C   UNL d   1       0.642  -8.367  -0.064  0.00  0.00     0.170 C 
ENDBRANCH   9  12
ENDBRANCH   1   8
BRANCH   2  18
ATOM     18  C   UNL d   1      -2.542  -3.074   2.630  0.00  0.00     0.417 C 
ATOM     19  F   UNL d   1      -2.812  -4.369   2.954  0.00  0.00    -0.166 F 
ATOM     20  F   UNL d   1      -3.632  -2.626   1.950  0.00  0.00    -0.166 F 
ATOM     21  F   UNL d   1      -2.525  -2.391   3.806  0.00  0.00    -0.166 F 
ENDBRANCH   2  18
TORSDOF 3
