REMARK  7 active torsions:
REMARK  status: ('A' for Active; 'I' for Inactive)
REMARK    1  A    between atoms: N_2  and  S_1 
REMARK    2  A    between atoms: C_11  and  S_1 
REMARK    3  A    between atoms: N_9  and  N_2 
REMARK    4  A    between atoms: C_3  and  C_18 
REMARK       I    between atoms: C_10  and  N_9 
REMARK    5  A    between atoms: C_20  and  C_10 
REMARK    6  A    between atoms: S_17  and  C_20 
REMARK    7  A    between atoms: C_18  and  S_17 
ROOT
ATOM      1  N   UNL d   1      -0.245   3.405   0.491  0.00  0.00    -0.260 N 
ATOM      2  C   UNL d   1       0.015   4.115   1.654  0.00  0.00     0.245 C 
ATOM      3  O   UNL d   1      -0.259   3.675   2.770  0.00  0.00    -0.271 OA
ATOM      4  H   UNL d   1       0.024   3.745  -0.429  0.00  0.00     0.190 HD
ENDROOT
BRANCH   2   5
ATOM      5  C   UNL d   1       0.768   5.431   1.443  0.00  0.00     0.178 C 
BRANCH   5   6
ATOM      6  S   UNL d   1      -0.212   6.599   0.432  0.00  0.00    -0.155 SA
BRANCH   6   7
ATOM      7  C   UNL d   1       0.923   8.040   0.421  0.00  0.00     0.114 C 
BRANCH   7   8
ATOM      8  C   UNL d   1       0.381   9.233  -0.383  0.00  0.00    -0.036 A 
ATOM      9  C   UNL d   1      -0.313  10.296   0.269  0.00  0.00    -0.048 A 
ATOM     10  C   UNL d   1      -0.743  11.429  -0.480  0.00  0.00    -0.049 A 
ATOM     11  C   UNL d   1      -0.519  10.227   1.768  0.00  0.00     0.049 C 
ATOM     12  C   UNL d   1      -1.470  12.597   0.161  0.00  0.00     0.049 C 
ATOM     13  C   UNL d   1      -0.498  11.501  -1.886  0.00  0.00    -0.049 A 
ATOM     14  C   UNL d   1       0.190  10.448  -2.538  0.00  0.00    -0.049 A 
ATOM     15  C   UNL d   1      -0.991  12.732  -2.629  0.00  0.00     0.049 C 
ATOM     16  C   UNL d   1       0.593   9.300  -1.793  0.00  0.00    -0.048 A 
ATOM     17  C   UNL d   1       0.507  10.501  -4.018  0.00  0.00     0.049 C 
ATOM     18  C   UNL d   1       1.266   8.134  -2.494  0.00  0.00     0.049 C 
ENDBRANCH   7   8
ENDBRANCH   6   7
ENDBRANCH   5   6
ENDBRANCH   2   5
BRANCH   1  19
ATOM     19  N   UNL d   1      -0.866   2.078   0.577  0.00  0.00    -0.220 N 
ATOM     20  H   UNL d   1      -1.015   1.691   1.515  0.00  0.00     0.200 HD
BRANCH  19  21
ATOM     21  S   UNL d   1      -0.613   1.023  -0.723  0.00  0.00     0.276 S 
ATOM     22  O   UNL d   1       0.762   0.578  -0.629  0.00  0.00    -0.199 OA
ATOM     23  O   UNL d   1      -1.109   1.668  -1.918  0.00  0.00    -0.199 OA
BRANCH  21  24
ATOM     24  C   UNL d   1      -1.665  -0.370  -0.377  0.00  0.00     0.081 A 
ATOM     25  C   UNL d   1      -3.054  -0.195  -0.369  0.00  0.00     0.028 A 
ATOM     26  C   UNL d   1      -3.887  -1.304  -0.190  0.00  0.00     0.044 A 
ATOM     27  C   UNL d   1      -3.328  -2.570  -0.036  0.00  0.00     0.116 A 
ATOM     28  C   UNL d   1      -1.949  -2.752  -0.051  0.00  0.00     0.044 A 
ATOM     29  F   UNL d   1      -4.132  -3.631   0.114  0.00  0.00    -0.206 F 
ATOM     30  C   UNL d   1      -1.108  -1.647  -0.221  0.00  0.00     0.028 A 
ENDBRANCH  21  24
ENDBRANCH  19  21
ENDBRANCH   1  19
TORSDOF 7
