REMARK  2 active torsions:
REMARK  status: ('A' for Active; 'I' for Inactive)
REMARK    1  A    between atoms: C_12  and  C_7 
REMARK    2  A    between atoms: C_13  and  C_8 
ROOT
ATOM      1  N   UNL d   1       0.284   0.555  -0.048  0.00  0.00    -0.257 N 
ATOM      2  C   UNL d   1      -0.431  -0.624  -0.017  0.00  0.00     0.159 A 
ATOM      3  C   UNL d   1       1.661   0.515  -0.053  0.00  0.00     0.256 A 
ATOM      4  N   UNL d   1       0.049  -1.819   0.002  0.00  0.00    -0.335 N 
ATOM      5  HN  UNL d   1      -0.547  -2.646   0.022  1.00  0.00     0.168 HD
ATOM      6  C   UNL d   1       2.239  -0.846  -0.035  0.00  0.00     0.105 A 
ATOM      7  C   UNL d   1      -0.517   1.688  -0.063  0.00  0.00     0.061 A 
ATOM      8  C   UNL d   1       1.417  -1.902  -0.006  0.00  0.00     0.049 A 
ATOM      9  S   UNL d   1      -2.153  -0.280  -0.004  0.00  0.00    -0.063 SA
ATOM     10  C   UNL d   1      -1.833   1.427  -0.042  0.00  0.00     0.084 A 
ATOM     11  O   UNL d   1       2.432   1.470  -0.064  0.00  0.00    -0.268 OA
ENDROOT
BRANCH   7  12
ATOM     12  C   UNL d   1      -0.008   3.057  -0.112  0.00  0.00    -0.008 A 
ATOM     13  C   UNL d   1       0.199   3.781   1.069  0.00  0.00     0.014 A 
ATOM     14  C   UNL d   1       0.664   5.096   1.014  0.00  0.00     0.001 A 
ATOM     15  C   UNL d   1       0.918   5.696  -0.218  0.00  0.00     0.000 A 
ATOM     16  C   UNL d   1       0.706   4.985  -1.398  0.00  0.00     0.001 A 
ATOM     17  C   UNL d   1       0.241   3.670  -1.347  0.00  0.00     0.014 A 
ENDBRANCH   7  12
BRANCH   8  18
ATOM     18  C   UNL d   1       2.011  -3.247   0.047  0.00  0.00    -0.009 A 
ATOM     19  C   UNL d   1       2.284  -3.841   1.286  0.00  0.00     0.013 A 
ATOM     20  C   UNL d   1       2.840  -5.120   1.345  0.00  0.00     0.001 A 
ATOM     21  C   UNL d   1       3.124  -5.812   0.169  0.00  0.00     0.000 A 
ATOM     22  C   UNL d   1       2.854  -5.228  -1.068  0.00  0.00     0.001 A 
ATOM     23  C   UNL d   1       2.299  -3.948  -1.131  0.00  0.00     0.013 A 
ENDBRANCH   8  18
TORSDOF 2
