REMARK  6 active torsions:
REMARK  status: ('A' for Active; 'I' for Inactive)
REMARK    1  A    between atoms: C_2  and  C_1 
REMARK    2  A    between atoms: O_8  and  C_1 
REMARK    3  A    between atoms: O_6  and  C_7 
REMARK    4  A    between atoms: C_9  and  O_6 
REMARK    5  A    between atoms: C_13  and  O_8 
REMARK    6  A    between atoms: C_12  and  C_9 
ROOT
ATOM      1  C   UNL d   1       0.300   0.025  -1.307  0.00  0.00     0.039 A 
ATOM      2  C   UNL d   1       0.586  -0.880  -2.335  0.00  0.00     0.020 A 
ATOM      3  C   UNL d   1      -0.760   0.927  -1.465  0.00  0.00     0.020 A 
ATOM      4  C   UNL d   1      -1.279  -0.024  -3.631  0.00  0.00     0.069 A 
ATOM      5  C   UNL d   1      -0.198  -0.897  -3.494  0.00  0.00     0.038 A 
ATOM      6  C   UNL d   1      -1.540   0.908  -2.626  0.00  0.00     0.038 A 
ENDROOT
BRANCH   4   7
ATOM      7  O   UNL d   1      -2.008  -0.169  -4.781  0.00  0.00    -0.347 OA
BRANCH   7   8
ATOM      8  C   UNL d   1      -3.316   0.401  -4.759  0.00  0.00     0.214 C 
BRANCH   8   9
ATOM      9  C   UNL d   1      -4.145  -0.208  -5.859  0.00  0.00    -0.034 A 
ATOM     10  C   UNL d   1      -4.745  -1.463  -5.674  0.00  0.00     0.009 A 
ATOM     11  C   UNL d   1      -5.544  -2.020  -6.671  0.00  0.00     0.001 A 
ATOM     12  C   UNL d   1      -5.741  -1.335  -7.869  0.00  0.00     0.000 A 
ATOM     13  C   UNL d   1      -5.131  -0.098  -8.073  0.00  0.00     0.001 A 
ATOM     14  C   UNL d   1      -4.333   0.461  -7.075  0.00  0.00     0.009 A 
ENDBRANCH   8   9
ENDBRANCH   7   8
ENDBRANCH   4   7
BRANCH   1  15
ATOM     15  C   UNL d   1       1.128  -0.009  -0.072  0.00  0.00     0.293 C 
ATOM     16  O   UNL d   1       2.014  -0.824   0.130  0.00  0.00    -0.259 OA
BRANCH  15  17
ATOM     17  O   UNL d   1       0.750   0.987   0.768  0.00  0.00    -0.318 OA
BRANCH  17  18
ATOM     18  C   UNL d   1       1.464   1.077   2.008  0.00  0.00     0.174 C 
ATOM     19  C   UNL d   1       2.743   1.870   1.819  0.00  0.00     0.034 C 
ENDBRANCH  17  18
ENDBRANCH  15  17
ENDBRANCH   1  15
TORSDOF 6
