REMARK  7 active torsions:
REMARK  status: ('A' for Active; 'I' for Inactive)
REMARK    1  A    between atoms: N_2  and  C_1 
REMARK    2  A    between atoms: N_5  and  C_1 
REMARK       I    between atoms: C_4  and  N_2 
REMARK    3  A    between atoms: C_3  and  N_5 
REMARK    4  A    between atoms: O_17  and  C_4 
REMARK    5  A    between atoms: N_7  and  C_6 
REMARK       I    between atoms: C_10  and  N_7 
REMARK    6  A    between atoms: C_12  and  C_8 
REMARK    7  A    between atoms: C_22  and  O_17 
ROOT
ATOM      1  C   UNL d   1      -1.150   0.631  -1.112  0.00  0.00     0.061 A 
ATOM      2  C   UNL d   1      -1.782   0.723   0.142  0.00  0.00     0.061 A 
ATOM      3  C   UNL d   1      -3.317   0.926  -2.246  0.00  0.00    -0.048 A 
ATOM      4  C   UNL d   1      -1.925   0.724  -2.276  0.00  0.00     0.039 A 
ATOM      5  C   UNL d   1      -3.165   0.921   0.187  0.00  0.00     0.032 A 
ATOM      6  C   UNL d   1      -3.919   1.026  -0.987  0.00  0.00     0.010 A 
ENDROOT
BRANCH   1   7
ATOM      7  N   UNL d   1       0.225   0.271  -1.171  0.00  0.00    -0.331 N 
ATOM      8  H   UNL d   1       0.535  -0.305  -0.392  0.00  0.00     0.168 HD
BRANCH   7   9
ATOM      9  C   UNL d   1       1.104   0.374  -2.221  0.00  0.00     0.180 C 
ATOM     10  S   UNL d   1       1.145   1.551  -3.413  0.00  0.00    -0.040 SA
BRANCH   9  11
ATOM     11  N   UNL d   1       2.087  -0.587  -2.267  0.00  0.00    -0.279 N 
ATOM     12  C   UNL d   1       2.355  -1.589  -1.375  0.00  0.00     0.366 C 
ATOM     13  O   UNL d   1       1.823  -1.713  -0.277  0.00  0.00    -0.238 OA
ATOM     14  H   UNL d   1       2.694  -0.562  -3.076  0.00  0.00     0.173 HD
BRANCH  12  15
ATOM     15  O   UNL d   1       3.364  -2.353  -1.860  0.00  0.00    -0.304 OA
BRANCH  15  16
ATOM     16  C   UNL d   1       3.921  -3.299  -0.937  0.00  0.00     0.176 C 
ATOM     17  C   UNL d   1       4.957  -2.596  -0.081  0.00  0.00     0.034 C 
ENDBRANCH  15  16
ENDBRANCH  12  15
ENDBRANCH   9  11
ENDBRANCH   7   9
ENDBRANCH   1   7
BRANCH   2  18
ATOM     18  N   UNL d   1      -0.995   0.703   1.318  0.00  0.00    -0.326 N 
ATOM     19  C   UNL d   1      -1.453   0.453   2.598  0.00  0.00     0.218 C 
ATOM     20  O   UNL d   1      -2.558   0.010   2.896  0.00  0.00    -0.274 OA
ATOM     21  C   UNL d   1      -0.451   0.783   3.674  0.00  0.00     0.117 C 
ATOM     22  H   UNL d   1      -0.004   0.862   1.190  0.00  0.00     0.169 HD
ENDBRANCH   2  18
BRANCH   3  23
ATOM     23  C   UNL d   1      -4.104   0.991  -3.565  0.00  0.00    -0.024 C 
ATOM     24  C   UNL d   1      -3.969  -0.354  -4.312  0.00  0.00     0.019 C 
ATOM     25  C   UNL d   1      -5.612   1.264  -3.376  0.00  0.00     0.019 C 
ATOM     26  C   UNL d   1      -3.541   2.124  -4.452  0.00  0.00     0.019 C 
ENDBRANCH   3  23
TORSDOF 7
