REMARK  7 active torsions:
REMARK  status: ('A' for Active; 'I' for Inactive)
REMARK    1  A    between atoms: C_8  and  C_1 
REMARK    2  A    between atoms: C_11  and  C_2 
REMARK    3  A    between atoms: C_9  and  N_5 
REMARK    4  A    between atoms: N_7  and  C_8 
REMARK    5  A    between atoms: O_22  and  C_14 
REMARK    6  A    between atoms: O_23  and  C_19 
REMARK    7  A    between atoms: C_26  and  O_22 
ROOT
ATOM      1  C   UNL d   1       1.991   1.361   0.389  0.00  0.00     0.315 C 
ENDROOT
BRANCH   1   2
ATOM      2  N   UNL d   1       3.192   0.780  -0.225  0.00  0.00     0.096 N 
ATOM      3  C   UNL d   1       3.947  -0.042   0.751  0.00  0.00     0.292 C 
ATOM      4  C   UNL d   1       3.330  -1.422   1.074  0.00  0.00     0.153 C 
ATOM      5  N   UNL d   1       3.031  -2.177  -0.149  0.00  0.00    -0.375 N 
ATOM      6  C   UNL d   1       2.292  -1.428  -1.182  0.00  0.00     0.153 C 
ATOM      7  C   UNL d   1       2.934  -0.044  -1.428  0.00  0.00     0.292 C 
BRANCH   5   8
ATOM      8  C   UNL d   1       3.728  -3.328  -0.509  0.00  0.00     0.064 A 
ATOM      9  C   UNL d   1       3.119  -4.382  -1.247  0.00  0.00     0.095 A 
ATOM     10  C   UNL d   1       3.853  -5.528  -1.591  0.00  0.00     0.039 A 
ATOM     11  C   UNL d   1       5.181  -5.670  -1.197  0.00  0.00     0.003 A 
ATOM     12  C   UNL d   1       5.788  -4.663  -0.460  0.00  0.00     0.002 A 
ATOM     13  C   UNL d   1       5.070  -3.509  -0.128  0.00  0.00     0.032 A 
BRANCH   9  14
ATOM     14  O   UNL d   1       1.789  -4.223  -1.567  0.00  0.00    -0.349 OA
BRANCH  14  15
ATOM     15  C   UNL d   1       1.072  -5.372  -2.010  0.00  0.00     0.171 C 
ATOM     16  C   UNL d   1      -0.397  -4.999  -2.099  0.00  0.00     0.034 C 
ENDBRANCH  14  15
ENDBRANCH   9  14
ENDBRANCH   5   8
ENDBRANCH   1   2
BRANCH   1  17
ATOM     17  C   UNL d   1       1.250   2.264  -0.551  0.00  0.00     0.016 A 
ATOM     18  C   UNL d   1       1.573   3.564  -1.089  0.00  0.00     0.067 A 
ATOM     19  N   UNL d   1       0.560   3.998  -1.869  0.00  0.00    -0.300 N 
ATOM     20  N   UNL d   1      -0.359   3.038  -1.831  0.00  0.00    -0.311 N 
ATOM     21  HN  UNL d   1       0.510   4.879  -2.381  1.00  0.00     0.187 HD
ATOM     22  C   UNL d   1      -0.011   1.985  -1.052  0.00  0.00     0.118 A 
ATOM     23  H   UNL d   1      -1.215   3.173  -2.358  0.00  0.00     0.186 HD
BRANCH  18  24
ATOM     24  C   UNL d   1       2.753   4.439  -0.911  0.00  0.00    -0.007 A 
ATOM     25  C   UNL d   1       3.964   3.997  -0.371  0.00  0.00     0.016 A 
ATOM     26  C   UNL d   1       5.060   4.858  -0.214  0.00  0.00     0.037 A 
ATOM     27  C   UNL d   1       4.965   6.194  -0.594  0.00  0.00     0.068 A 
ATOM     28  C   UNL d   1       3.780   6.648  -1.165  0.00  0.00     0.037 A 
ATOM     29  C   UNL d   1       2.688   5.787  -1.313  0.00  0.00     0.016 A 
BRANCH  27  30
ATOM     30  O   UNL d   1       5.960   7.125  -0.481  0.00  0.00    -0.356 OA
ATOM     31  C   UNL d   1       6.967   6.839   0.483  0.00  0.00     0.210 C 
ENDBRANCH  27  30
ENDBRANCH  18  24
ENDBRANCH   1  17
TORSDOF 7
