REMARK  3 active torsions:
REMARK  status: ('A' for Active; 'I' for Inactive)
REMARK    1  A    between atoms: C_2  and  C_1 
REMARK       I    between atoms: N_3  and  C_2 
REMARK       I    between atoms: C_4  and  N_3 
REMARK       I    between atoms: N_13  and  C_4 
REMARK    2  A    between atoms: C_19  and  N_13 
REMARK    3  A    between atoms: C_17  and  C_19 
ROOT
ATOM      1  C   UNL d   1      -3.071   0.218   0.258  0.00  0.00     0.234 C 
ATOM      2  N   UNL d   1      -3.649   1.466   0.117  0.00  0.00    -0.279 N 
ATOM      3  C   UNL d   1      -4.972   1.839   0.125  0.00  0.00     0.323 C 
ATOM      4  O   UNL d   1      -3.728  -0.788   0.519  0.00  0.00    -0.272 OA
ATOM      5  O   UNL d   1      -5.240   3.031  -0.021  0.00  0.00    -0.247 OA
ATOM      6  N   UNL d   1      -5.919   0.872   0.272  0.00  0.00    -0.339 N 
ATOM      7  H   UNL d   1      -3.052   2.261  -0.029  0.00  0.00     0.173 HD
ATOM      8  H   UNL d   1      -5.610  -0.013   0.670  0.00  0.00     0.164 HD
ENDROOT
BRANCH   1   9
ATOM      9  C   UNL d   1      -1.520   0.190   0.116  0.00  0.00     0.042 C 
ATOM     10  C   UNL d   1      -0.824   1.021   1.225  0.00  0.00     0.024 C 
ATOM     11  C   UNL d   1       0.712   0.907   1.114  0.00  0.00    -0.013 C 
ATOM     12  C   UNL d   1       1.130  -0.567   1.242  0.00  0.00     0.009 C 
ATOM     13  C   UNL d   1       1.171   1.434  -0.256  0.00  0.00     0.009 C 
ATOM     14  C   UNL d   1       0.483  -1.392   0.118  0.00  0.00    -0.013 C 
ATOM     15  C   UNL d   1      -1.043  -1.284   0.237  0.00  0.00     0.024 C 
ATOM     16  C   UNL d   1       0.917  -0.845  -1.249  0.00  0.00     0.009 C 
ATOM     17  C   UNL d   1       0.497   0.628  -1.379  0.00  0.00    -0.013 C 
ATOM     18  C   UNL d   1      -1.039   0.743  -1.250  0.00  0.00     0.024 C 
ENDBRANCH   1   9
BRANCH   6  19
ATOM     19  C   UNL d   1      -7.302   1.270   0.401  0.00  0.00     0.150 C 
BRANCH  19  20
ATOM     20  C   UNL d   1      -8.266   0.127   0.484  0.00  0.00    -0.018 C 
ATOM     21  C   UNL d   1      -8.124  -1.125   0.031  0.00  0.00     0.008 C 
ENDBRANCH  19  20
ENDBRANCH   6  19
TORSDOF 3
