REMARK  3 active torsions:
REMARK  status: ('A' for Active; 'I' for Inactive)
REMARK    1  A    between atoms: N_7  and  C_2 
REMARK    2  A    between atoms: C_12  and  C_3 
REMARK       I    between atoms: C_4  and  N_7 
REMARK       I    between atoms: N_9  and  C_4 
REMARK    3  A    between atoms: C_10  and  N_9 
ROOT
ATOM      1  C   UNL d   1       0.184  -3.283  -0.439  0.00  0.00     0.326 C 
ATOM      2  N   UNL d   1      -0.455  -2.168   0.002  0.00  0.00    -0.293 N 
ATOM      3  N   UNL d   1       1.256  -3.133  -1.274  0.00  0.00    -0.306 N 
ATOM      4  O   UNL d   1      -0.238  -4.351   0.007  0.00  0.00    -0.247 OA
ATOM      5  H   UNL d   1      -1.236  -2.394   0.604  0.00  0.00     0.172 HD
ATOM      6  H   UNL d   1       1.669  -2.204  -1.269  0.00  0.00     0.171 HD
ENDROOT
BRANCH   2   7
ATOM      7  C   UNL d   1      -0.195  -0.841  -0.220  0.00  0.00     0.132 A 
ATOM      8  C   UNL d   1      -0.999   0.194   0.308  0.00  0.00     0.086 A 
ATOM      9  C   UNL d   1      -0.488   1.350  -0.233  0.00  0.00     0.087 A 
ATOM     10  O   UNL d   1       0.635   1.028  -0.943  0.00  0.00    -0.240 OA
ATOM     11  N   UNL d   1       0.816  -0.345  -0.939  0.00  0.00    -0.245 N 
ATOM     12  HN  UNL d   1       1.565  -0.869  -1.392  1.00  0.00     0.196 HD
BRANCH   9  13
ATOM     13  C   UNL d   1      -0.917   2.793  -0.231  0.00  0.00     0.000 C 
ATOM     14  C   UNL d   1      -0.150   3.579   0.842  0.00  0.00     0.021 C 
ATOM     15  C   UNL d   1      -0.652   3.417  -1.615  0.00  0.00     0.021 C 
ATOM     16  C   UNL d   1      -2.428   2.908   0.060  0.00  0.00     0.021 C 
ENDBRANCH   9  13
ENDBRANCH   2   7
BRANCH   3  17
ATOM     17  C   UNL d   1       2.094  -4.231  -1.597  0.00  0.00     0.075 C 
ATOM     18  C   UNL d   1       1.597  -5.525  -1.830  0.00  0.00     0.146 C 
ATOM     19  C   UNL d   1       2.442  -6.627  -1.854  0.00  0.00     0.086 C 
ATOM     20  F   UNL d   1       0.293  -5.728  -2.073  0.00  0.00    -0.204 F 
ATOM     21  C   UNL d   1       3.803  -6.428  -1.690  0.00  0.00     0.119 C 
ATOM     22  C   UNL d   1       4.332  -5.143  -1.589  0.00  0.00     0.044 C 
ATOM     23  F   UNL d   1       4.621  -7.485  -1.627  0.00  0.00    -0.206 F 
ATOM     24  C   UNL d   1       3.478  -4.035  -1.568  0.00  0.00     0.036 C 
ENDBRANCH   3  17
TORSDOF 3
