REMARK  7 active torsions:
REMARK  status: ('A' for Active; 'I' for Inactive)
REMARK    1  A    between atoms: C_9  and  N_1 
REMARK    2  A    between atoms: C_2  and  C_20 
REMARK       I    between atoms: C_8  and  N_14 
REMARK    3  A    between atoms: C_22  and  C_8 
REMARK    4  A    between atoms: N_14  and  N_10 
REMARK    5  A    between atoms: S_18  and  C_22 
REMARK    6  A    between atoms: C_20  and  S_18 
REMARK    7  A    between atoms: C_19  and  C_21 
ROOT
ATOM      1  C   UNL d   1      -0.160  12.664  -1.917  0.00  0.00     0.245 C 
ATOM      2  N   UNL d   1      -0.446  12.248  -0.621  0.00  0.00    -0.270 N 
ATOM      3  O   UNL d   1      -0.008  13.831  -2.272  0.00  0.00    -0.271 OA
ATOM      4  H   UNL d   1      -0.649  11.270  -0.436  0.00  0.00     0.190 HD
ENDROOT
BRANCH   1   5
ATOM      5  C   UNL d   1      -0.022  11.518  -2.904  0.00  0.00     0.178 C 
BRANCH   5   6
ATOM      6  S   UNL d   1      -1.571  10.551  -3.048  0.00  0.00    -0.155 SA
BRANCH   6   7
ATOM      7  C   UNL d   1      -2.653  11.859  -3.703  0.00  0.00     0.114 C 
BRANCH   7   8
ATOM      8  C   UNL d   1      -4.059  11.411  -4.110  0.00  0.00    -0.036 C 
ATOM      9  C   UNL d   1      -5.129  11.493  -3.174  0.00  0.00    -0.048 C 
ATOM     10  C   UNL d   1      -6.468  11.445  -3.635  0.00  0.00    -0.049 C 
ATOM     11  C   UNL d   1      -4.803  11.546  -1.696  0.00  0.00     0.049 C 
ATOM     12  C   UNL d   1      -7.643  11.710  -2.716  0.00  0.00     0.049 C 
ATOM     13  C   UNL d   1      -6.736  11.146  -5.000  0.00  0.00    -0.049 C 
ATOM     14  C   UNL d   1      -5.668  10.924  -5.912  0.00  0.00    -0.049 C 
ATOM     15  C   UNL d   1      -8.184  11.064  -5.453  0.00  0.00     0.049 C 
ATOM     16  C   UNL d   1      -4.326  11.028  -5.459  0.00  0.00    -0.048 C 
ATOM     17  C   UNL d   1      -6.013  10.600  -7.350  0.00  0.00     0.049 C 
ATOM     18  C   UNL d   1      -3.153  10.739  -6.371  0.00  0.00     0.049 C 
ENDBRANCH   7   8
ENDBRANCH   6   7
ENDBRANCH   5   6
ENDBRANCH   1   5
BRANCH   2  19
ATOM     19  N   UNL d   1      -0.684  13.189   0.333  0.00  0.00    -0.308 N 
ATOM     20  C   UNL d   1      -1.018  12.761   1.508  0.00  0.00     0.118 C 
ATOM     21  HN  UNL d   1      -0.603  14.185   0.131  1.00  0.00     0.186 HD
BRANCH  20  22
ATOM     22  C   UNL d   1      -1.327  13.719   2.591  0.00  0.00    -0.019 A 
ATOM     23  C   UNL d   1      -1.307  15.098   2.330  0.00  0.00     0.015 A 
ATOM     24  C   UNL d   1      -1.603  16.009   3.350  0.00  0.00     0.037 A 
ATOM     25  C   UNL d   1      -1.918  15.534   4.627  0.00  0.00     0.102 A 
ATOM     26  C   UNL d   1      -1.942  14.156   4.891  0.00  0.00     0.037 A 
ATOM     27  C   UNL d   1      -1.647  13.247   3.869  0.00  0.00     0.015 A 
BRANCH  25  28
ATOM     28  N   UNL d   1      -2.229  16.489   5.702  0.00  0.00    -0.116 N 
ATOM     29  O   UNL d   1      -2.497  16.026   6.819  0.00  0.00    -0.532 OA
ATOM     30  O   UNL d   1      -2.209  17.693   5.425  0.00  0.00    -0.532 OA
ENDBRANCH  25  28
ENDBRANCH  20  22
ENDBRANCH   2  19
TORSDOF 7
