REMARK  4 active torsions:
REMARK  status: ('A' for Active; 'I' for Inactive)
REMARK       I    between atoms: C_3  and  N_1 
REMARK    1  A    between atoms: C_5  and  C_2 
REMARK    2  A    between atoms: C_10  and  C_3 
REMARK    3  A    between atoms: C_6  and  C_5 
REMARK       I    between atoms: N_8  and  C_6 
REMARK    4  A    between atoms: C_14  and  N_8 
ROOT
ATOM      1  N   UNL d   1      -1.385  -1.289   0.419  0.00  0.00    -0.333 N 
ATOM      2  C   UNL d   1       0.098  -1.092   0.530  0.00  0.00     0.188 C 
ATOM      3  C   UNL d   1      -2.299  -2.186   0.995  0.00  0.00     0.254 C 
ATOM      4  C   UNL d   1       0.481   0.271   1.167  0.00  0.00     0.241 C 
ATOM      5  N   UNL d   1      -0.329   1.335   0.869  0.00  0.00    -0.358 N 
ATOM      6  O   UNL d   1      -3.509  -1.928   1.029  0.00  0.00    -0.267 OA
ATOM      7  O   UNL d   1       1.544   0.478   1.755  0.00  0.00    -0.271 OA
ATOM      8  C   UNL d   1      -2.012  -0.121  -0.245  0.00  0.00     0.147 C 
ATOM      9  C   UNL d   1      -1.728   1.171   0.525  0.00  0.00     0.142 C 
ATOM     10  H   UNL d   1      -0.020   2.210   1.278  0.00  0.00     0.162 HD
ENDROOT
BRANCH   2  11
ATOM     11  C   UNL d   1       1.120  -2.149   0.919  0.00  0.00     0.138 C 
BRANCH  11  12
ATOM     12  C   UNL d   1       1.346  -2.606   2.350  0.00  0.00     0.224 C 
ATOM     13  N   UNL d   1       0.450  -2.199   3.316  0.00  0.00    -0.327 N 
ATOM     14  H   UNL d   1      -0.345  -1.647   3.029  0.00  0.00     0.169 HD
ATOM     15  O   UNL d   1       2.289  -3.378   2.537  0.00  0.00    -0.273 OA
BRANCH  13  16
ATOM     16  C   UNL d   1       0.393  -2.698   4.644  0.00  0.00     0.034 A 
ATOM     17  C   UNL d   1       1.409  -3.466   5.225  0.00  0.00     0.032 A 
ATOM     18  C   UNL d   1       1.234  -4.051   6.481  0.00  0.00     0.044 A 
ATOM     19  C   UNL d   1       0.043  -3.865   7.163  0.00  0.00     0.116 A 
ATOM     20  C   UNL d   1      -0.962  -3.069   6.630  0.00  0.00     0.044 A 
ATOM     21  F   UNL d   1      -0.143  -4.464   8.346  0.00  0.00    -0.206 F 
ATOM     22  C   UNL d   1      -0.778  -2.466   5.380  0.00  0.00     0.032 A 
ENDBRANCH  13  16
ENDBRANCH  11  12
ENDBRANCH   2  11
BRANCH   3  23
ATOM     23  C   UNL d   1      -1.919  -3.469   1.623  0.00  0.00     0.032 C 
ATOM     24  C   UNL d   1      -2.554  -3.830   2.816  0.00  0.00     0.017 C 
ATOM     25  C   UNL d   1      -2.130  -4.954   3.533  0.00  0.00     0.001 C 
ATOM     26  C   UNL d   1      -1.063  -5.712   3.053  0.00  0.00     0.000 C 
ATOM     27  C   UNL d   1      -0.520  -5.424   1.802  0.00  0.00     0.001 C 
ATOM     28  C   UNL d   1      -1.000  -4.345   1.057  0.00  0.00     0.017 C 
ENDBRANCH   3  23
TORSDOF 4
