REMARK  7 active torsions:
REMARK  status: ('A' for Active; 'I' for Inactive)
REMARK    1  A    between atoms: C_2  and  C_1 
REMARK       I    between atoms: N_4  and  C_1 
REMARK    2  A    between atoms: C_3  and  N_5 
REMARK    3  A    between atoms: N_9  and  C_3 
REMARK    4  A    between atoms: C_10  and  N_4 
REMARK    5  A    between atoms: N_5  and  C_11 
REMARK    6  A    between atoms: O_12  and  C_7 
REMARK    7  A    between atoms: C_19  and  N_9 
ROOT
ATOM      1  C   UNL d   1      -1.121  -0.691  -1.132  0.00  0.00     0.035 A 
ATOM      2  C   UNL d   1      -3.927  -0.465  -1.246  0.00  0.00     0.034 A 
ATOM      3  C   UNL d   1      -1.740   0.554  -1.049  0.00  0.00     0.032 A 
ATOM      4  C   UNL d   1      -1.919  -1.819  -1.365  0.00  0.00     0.032 A 
ATOM      5  C   UNL d   1      -3.315  -1.704  -1.443  0.00  0.00     0.032 A 
ATOM      6  C   UNL d   1      -3.131   0.666  -1.096  0.00  0.00     0.032 A 
ENDROOT
BRANCH   1   7
ATOM      7  N   UNL d   1       0.269  -0.883  -0.946  0.00  0.00    -0.323 N 
ATOM      8  C   UNL d   1       1.182   0.096  -0.583  0.00  0.00     0.259 C 
ATOM      9  O   UNL d   1       0.959   1.302  -0.477  0.00  0.00    -0.267 OA
ATOM     10  H   UNL d   1       0.574  -1.846  -0.928  0.00  0.00     0.169 HD
BRANCH   8  11
ATOM     11  C   UNL d   1       2.552  -0.354  -0.210  0.00  0.00     0.065 A 
ATOM     12  C   UNL d   1       3.292   0.414   0.709  0.00  0.00     0.081 A 
ATOM     13  C   UNL d   1       4.563   0.019   1.110  0.00  0.00     0.037 A 
ATOM     14  C   UNL d   1       5.125  -1.140   0.576  0.00  0.00     0.003 A 
ATOM     15  C   UNL d   1       4.416  -1.895  -0.358  0.00  0.00     0.001 A 
ATOM     16  C   UNL d   1       3.133  -1.505  -0.756  0.00  0.00     0.020 A 
BRANCH  12  17
ATOM     17  O   UNL d   1       2.823   1.577   1.264  0.00  0.00    -0.360 OA
ATOM     18  H   UNL d   1       2.011   1.837   0.771  0.00  0.00     0.217 HD
ENDBRANCH  12  17
ENDBRANCH   8  11
ENDBRANCH   1   7
BRANCH   2  19
ATOM     19  N   UNL d   1      -5.331  -0.376  -1.281  0.00  0.00    -0.333 N 
ATOM     20  H   UNL d   1      -5.830  -1.177  -1.644  0.00  0.00     0.168 HD
BRANCH  19  21
ATOM     21  C   UNL d   1      -6.131   0.516  -0.606  0.00  0.00     0.172 C 
ATOM     22  S   UNL d   1      -5.840   1.231   0.876  0.00  0.00    -0.041 SA
BRANCH  21  23
ATOM     23  N   UNL d   1      -7.320   0.799  -1.222  0.00  0.00    -0.367 N 
ATOM     24  H   UNL d   1      -7.901   1.447  -0.700  0.00  0.00     0.161 HD
BRANCH  23  25
ATOM     25  C   UNL d   1      -7.555   0.675  -2.650  0.00  0.00     0.117 C 
ATOM     26  C   UNL d   1      -8.615   1.648  -3.125  0.00  0.00     0.026 C 
ENDBRANCH  23  25
ENDBRANCH  21  23
ENDBRANCH  19  21
ENDBRANCH   2  19
TORSDOF 7
