REMARK  2 active torsions:
REMARK  status: ('A' for Active; 'I' for Inactive)
REMARK    1  A    between atoms: N_2  and  C_1 
REMARK    2  A    between atoms: C_5  and  N_2 
ROOT
ATOM      1  N   UNL d   1       0.409  -1.083   0.757  0.00  0.00    -0.363 N 
ATOM      2  H   UNL d   1      -0.037  -1.143  -0.151  0.00  0.00     0.162 HD
ENDROOT
BRANCH   1   3
ATOM      3  C   UNL d   1       0.375   0.177   1.202  0.00  0.00     0.167 C 
ATOM      4  S   UNL d   1      -0.419   1.304   0.251  0.00  0.00    -0.041 SA
ATOM      5  N   UNL d   1       0.924   0.610   2.341  0.00  0.00    -0.372 N 
ATOM      6  C   UNL d   1       1.643  -0.046   3.405  0.00  0.00     0.148 C 
ATOM      7  H   UNL d   1       0.807   1.609   2.456  0.00  0.00     0.161 HD
ENDBRANCH   1   3
BRANCH   1   8
ATOM      8  C   UNL d   1       1.124  -2.294   1.161  0.00  0.00     0.083 C 
ATOM      9  C   UNL d   1       2.604  -2.232   0.759  0.00  0.00     0.025 C 
ATOM     10  C   UNL d   1       2.794  -2.301  -0.755  0.00  0.00     0.002 C 
ATOM     11  C   UNL d   1       2.141  -3.545  -1.348  0.00  0.00     0.000 C 
ATOM     12  C   UNL d   1       0.671  -3.665  -0.959  0.00  0.00     0.002 C 
ATOM     13  C   UNL d   1       0.457  -3.537   0.552  0.00  0.00     0.025 C 
ENDBRANCH   1   8
TORSDOF 2
