REMARK  9 active torsions:
REMARK  status: ('A' for Active; 'I' for Inactive)
REMARK    1  A    between atoms: N_2  and  C_1 
REMARK    2  A    between atoms: N_5  and  C_1 
REMARK    3  A    between atoms: C_9  and  N_2 
REMARK    4  A    between atoms: C_19  and  N_5 
REMARK    5  A    between atoms: C_20  and  N_5 
REMARK    6  A    between atoms: N_7  and  C_13 
REMARK    7  A    between atoms: C_10  and  C_19 
REMARK    8  A    between atoms: C_13  and  C_10 
REMARK    9  A    between atoms: C_11  and  C_20 
ROOT
ATOM      1  N   UNL d   1       4.235   2.454  -3.795  0.00  0.00    -0.197 NA
ATOM      2  C   UNL d   1       3.721   2.188  -2.785  0.00  0.00     0.060 C 
ATOM      3  C   UNL d   1       3.067   1.825  -1.517  0.00  0.00     0.143 C 
ENDROOT
BRANCH   3   4
ATOM      4  C   UNL d   1       3.140   0.305  -1.307  0.00  0.00     0.139 C 
BRANCH   4   5
ATOM      5  N   UNL d   1       2.586  -0.178  -0.016  0.00  0.00    -0.357 N 
BRANCH   5   6
ATOM      6  C   UNL d   1       1.203  -0.048   0.241  0.00  0.00     0.174 C 
ATOM      7  S   UNL d   1       0.597   0.817   1.550  0.00  0.00    -0.041 SA
BRANCH   6   8
ATOM      8  N   UNL d   1       0.418  -0.674  -0.721  0.00  0.00    -0.333 N 
ATOM      9  H   UNL d   1       0.831  -0.838  -1.625  0.00  0.00     0.168 HD
BRANCH   8  10
ATOM     10  C   UNL d   1      -0.880  -1.221  -0.581  0.00  0.00     0.034 A 
ATOM     11  C   UNL d   1      -1.709  -1.254  -1.710  0.00  0.00     0.031 A 
ATOM     12  C   UNL d   1      -2.958  -1.886  -1.655  0.00  0.00     0.026 A 
ATOM     13  C   UNL d   1      -3.357  -2.529  -0.487  0.00  0.00     0.034 A 
ATOM     14  C   UNL d   1      -2.536  -2.513   0.637  0.00  0.00     0.026 A 
ATOM     15 CL   UNL d   1      -4.854  -3.377  -0.444  0.00  0.00    -0.084 Cl
ATOM     16  C   UNL d   1      -1.305  -1.847   0.594  0.00  0.00     0.031 A 
ENDBRANCH   8  10
ENDBRANCH   6   8
ENDBRANCH   5   6
BRANCH   5  17
ATOM     17  C   UNL d   1       3.557  -0.407   1.110  0.00  0.00     0.127 C 
BRANCH  17  18
ATOM     18  C   UNL d   1       3.129  -1.587   2.014  0.00  0.00     0.050 C 
BRANCH  18  19
ATOM     19  C   UNL d   1       4.206  -2.315   2.849  0.00  0.00     0.274 C 
BRANCH  19  20
ATOM     20  N   UNL d   1       4.882  -1.657   3.978  0.00  0.00     0.092 N 
ATOM     21  C   UNL d   1       5.659  -2.654   4.775  0.00  0.00     0.298 C 
ATOM     22  C   UNL d   1       4.813  -3.496   5.756  0.00  0.00     0.198 C 
ATOM     23  O   UNL d   1       4.092  -2.658   6.662  0.00  0.00    -0.388 OA
ATOM     24  C   UNL d   1       3.243  -1.754   5.945  0.00  0.00     0.198 C 
ATOM     25  C   UNL d   1       4.029  -0.908   4.924  0.00  0.00     0.298 C 
ENDBRANCH  19  20
ENDBRANCH  18  19
ENDBRANCH  17  18
ENDBRANCH   5  17
ENDBRANCH   4   5
ENDBRANCH   3   4
TORSDOF 9
