REMARK  6 active torsions:
REMARK  status: ('A' for Active; 'I' for Inactive)
REMARK    1  A    between atoms: C_14  and  N_1 
REMARK    2  A    between atoms: C_6  and  C_8 
REMARK    3  A    between atoms: C_8  and  N_7 
REMARK    4  A    between atoms: N_9  and  C_22 
REMARK    5  A    between atoms: C_17  and  C_14 
REMARK    6  A    between atoms: C_22  and  C_17 
ROOT
ATOM      1  N   UNL d   1       6.380   5.209   1.114  0.00  0.00     0.096 N 
ATOM      2  N   UNL d   1       6.053   2.558  -0.122  0.00  0.00    -0.409 N 
ATOM      3  C   UNL d   1       5.938   5.069  -0.288  0.00  0.00     0.292 C 
ATOM      4  C   UNL d   1       5.855   4.049   1.869  0.00  0.00     0.292 C 
ATOM      5  C   UNL d   1       6.280   3.719  -0.966  0.00  0.00     0.147 C 
ATOM      6  C   UNL d   1       6.280   2.674   1.306  0.00  0.00     0.147 C 
ENDROOT
BRANCH   2   7
ATOM      7  C   UNL d   1       5.423   1.373  -0.649  0.00  0.00     0.118 C 
BRANCH   7   8
ATOM      8  C   UNL d   1       3.951   1.610  -0.995  0.00  0.00     0.040 C 
BRANCH   8   9
ATOM      9  C   UNL d   1       3.288   0.311  -1.453  0.00  0.00     0.137 C 
BRANCH   9  10
ATOM     10  N   UNL d   1       1.912   0.532  -1.857  0.00  0.00    -0.280 N 
ATOM     11  C   UNL d   1       1.539   0.894  -3.123  0.00  0.00     0.261 A 
ATOM     12  C   UNL d   1       0.089   1.066  -3.095  0.00  0.00     0.048 A 
ATOM     13  O   UNL d   1       2.232   1.070  -4.110  0.00  0.00    -0.267 OA
ATOM     14  C   UNL d   1      -0.793   1.416  -4.098  0.00  0.00     0.018 A 
ATOM     15  C   UNL d   1      -0.338   0.815  -1.800  0.00  0.00     0.048 A 
ATOM     16  C   UNL d   1      -2.146   1.515  -3.756  0.00  0.00     0.001 A 
ATOM     17  C   UNL d   1      -2.578   1.263  -2.437  0.00  0.00     0.001 A 
ATOM     18  C   UNL d   1      -1.666   0.907  -1.437  0.00  0.00     0.018 A 
ATOM     19  C   UNL d   1       0.844   0.486  -1.003  0.00  0.00     0.261 A 
ATOM     20  O   UNL d   1       0.820   0.236   0.186  0.00  0.00    -0.267 OA
ENDBRANCH   9  10
ENDBRANCH   8   9
ENDBRANCH   7   8
ENDBRANCH   2   7
BRANCH   1  21
ATOM     21  C   UNL d   1       7.845   5.284   1.253  0.00  0.00     0.316 C 
BRANCH  21  22
ATOM     22  C   UNL d   1       8.495   6.502   0.641  0.00  0.00     0.030 A 
ATOM     23  C   UNL d   1       9.477   6.316  -0.344  0.00  0.00     0.126 A 
ATOM     24  F   UNL d   1       9.774   5.078  -0.768  0.00  0.00    -0.205 F 
ATOM     25  C   UNL d   1      10.182   7.381  -0.898  0.00  0.00     0.043 A 
ATOM     26  C   UNL d   1       9.909   8.677  -0.479  0.00  0.00     0.005 A 
ATOM     27  C   UNL d   1       8.926   8.894   0.487  0.00  0.00     0.024 A 
ATOM     28  C   UNL d   1       8.227   7.816   1.049  0.00  0.00     0.045 A 
ATOM     29 CL   UNL d   1       7.067   8.186   2.275  0.00  0.00    -0.084 Cl
ENDBRANCH  21  22
ENDBRANCH   1  21
TORSDOF 6
