REMARK  2 active torsions:
REMARK  status: ('A' for Active; 'I' for Inactive)
REMARK       I    between atoms: N_2  and  C_1 
REMARK    1  A    between atoms: C_9  and  C_1 
REMARK    2  A    between atoms: C_4  and  N_3 
ROOT
ATOM      1  C   UNL d   1      -1.030   4.253  -3.100  0.00  0.00     0.103 A 
ATOM      2  N   UNL d   1      -1.345   5.427  -2.513  0.00  0.00    -0.351 N 
ATOM      3  HN  UNL d   1      -1.215   5.563  -1.510  1.00  0.00     0.166 HD
ATOM      4  N   UNL d   1      -3.080   8.254  -6.016  0.00  0.00    -0.191 NA
ATOM      5  C   UNL d   1      -2.622   7.379  -5.402  0.00  0.00     0.101 C 
ATOM      6  C   UNL d   1      -2.065   6.301  -4.654  0.00  0.00     0.060 A 
ATOM      7  C   UNL d   1      -1.225   4.065  -4.472  0.00  0.00     0.050 A 
ATOM      8  C   UNL d   1      -1.840   6.422  -3.293  0.00  0.00     0.112 A 
ATOM      9  C   UNL d   1      -1.748   5.092  -5.256  0.00  0.00     0.028 A 
ENDROOT
BRANCH   1  10
ATOM     10  N   UNL d   1      -0.618   3.178  -2.331  0.00  0.00    -0.364 N 
ATOM     11  C   UNL d   1      -0.839   3.249  -0.882  0.00  0.00     0.144 C 
ATOM     12  C   UNL d   1      -0.884   1.805  -0.335  0.00  0.00     0.146 C 
ATOM     13  N   UNL d   1       0.259   0.973  -0.765  0.00  0.00    -0.345 N 
ATOM     14  C   UNL d   1       0.781  -0.114  -0.066  0.00  0.00     0.253 C 
ATOM     15  C   UNL d   1       0.659   1.109  -2.175  0.00  0.00     0.146 C 
ATOM     16  O   UNL d   1       1.768  -0.739  -0.452  0.00  0.00    -0.267 OA
ATOM     17  C   UNL d   1       0.678   2.566  -2.663  0.00  0.00     0.144 C 
BRANCH  14  18
ATOM     18  C   UNL d   1       0.155  -0.565   1.201  0.00  0.00     0.032 A 
ATOM     19  C   UNL d   1      -1.221  -0.804   1.300  0.00  0.00     0.018 A 
ATOM     20  C   UNL d   1      -1.765  -1.266   2.501  0.00  0.00     0.025 A 
ATOM     21  C   UNL d   1      -0.928  -1.530   3.585  0.00  0.00     0.034 A 
ATOM     22  C   UNL d   1       0.449  -1.342   3.478  0.00  0.00     0.025 A 
ATOM     23 CL   UNL d   1      -1.600  -2.111   5.058  0.00  0.00    -0.084 Cl
ATOM     24  C   UNL d   1       0.992  -0.862   2.284  0.00  0.00     0.018 A 
ENDBRANCH  14  18
ENDBRANCH   1  10
TORSDOF 2
