REMARK  2 active torsions:
REMARK  status: ('A' for Active; 'I' for Inactive)
REMARK    1  A    between atoms: C_2  and  C_1 
REMARK    2  A    between atoms: C_6  and  C_3 
ROOT
ATOM      1  C   UNL d   1       1.096   0.082  -0.130  0.00  0.00     0.038 C 
ATOM      2  C   UNL d   1       2.447   0.057  -0.108  0.00  0.00     0.055 C 
ATOM      3  C   UNL d   1       3.198   1.283  -0.125  0.00  0.00     0.100 C 
ATOM      4  N   UNL d   1       3.789   2.281  -0.122  0.00  0.00    -0.191 NA
ENDROOT
BRANCH   2   5
ATOM      5  C   UNL d   1       3.168  -1.248  -0.055  0.00  0.00    -0.015 A 
ATOM      6  C   UNL d   1       2.692  -2.385  -0.734  0.00  0.00     0.013 A 
ATOM      7  C   UNL d   1       3.400  -3.594  -0.714  0.00  0.00     0.007 A 
ATOM      8  C   UNL d   1       4.610  -3.698  -0.025  0.00  0.00    -0.062 A 
ATOM      9  C   UNL d   1       5.093  -2.577   0.654  0.00  0.00     0.007 A 
ATOM     10  C   UNL d   1       5.373  -4.991  -0.033  0.00  0.00     0.048 C 
ATOM     11  C   UNL d   1       4.381  -1.369   0.640  0.00  0.00     0.013 A 
ENDBRANCH   2   5
BRANCH   1  12
ATOM     12  C   UNL d   1       0.265   1.300  -0.232  0.00  0.00     0.009 A 
ATOM     13  C   UNL d   1      -0.037   1.866  -1.486  0.00  0.00     0.046 A 
ATOM     14 CL   UNL d   1       0.560   1.184  -2.962  0.00  0.00    -0.083 Cl
ATOM     15  C   UNL d   1      -0.846   3.004  -1.585  0.00  0.00     0.025 A 
ATOM     16  C   UNL d   1      -1.368   3.594  -0.437  0.00  0.00     0.003 A 
ATOM     17  C   UNL d   1      -1.073   3.054   0.813  0.00  0.00     0.025 A 
ATOM     18  C   UNL d   1      -0.261   1.919   0.917  0.00  0.00     0.046 A 
ATOM     19 CL   UNL d   1       0.062   1.312   2.506  0.00  0.00    -0.083 Cl
ENDBRANCH   1  12
TORSDOF 2
