REMARK  5 active torsions:
REMARK  status: ('A' for Active; 'I' for Inactive)
REMARK    1  A    between atoms: C_2  and  C_1 
REMARK       I    between atoms: N_5  and  C_2 
REMARK    2  A    between atoms: C_15  and  N_9 
REMARK    3  A    between atoms: C_18  and  C_15 
REMARK    4  A    between atoms: O_16  and  C_18 
REMARK    5  A    between atoms: C_17  and  O_16 
ROOT
ATOM      1  C   UNL d   1       0.023   2.754  -0.075  0.00  0.00     0.258 C 
ATOM      2  N   UNL d   1      -1.286   3.224  -0.269  0.00  0.00    -0.344 N 
ATOM      3  N   UNL d   1      -4.133   3.991  -0.640  0.00  0.00     0.093 N 
ATOM      4  O   UNL d   1       0.332   2.164   0.957  0.00  0.00    -0.267 OA
ATOM      5  C   UNL d   1      -2.227   3.159   0.860  0.00  0.00     0.156 C 
ATOM      6  C   UNL d   1      -1.723   4.044  -1.395  0.00  0.00     0.156 C 
ATOM      7  C   UNL d   1      -3.710   3.055   0.426  0.00  0.00     0.292 C 
ATOM      8  C   UNL d   1      -3.198   3.850  -1.767  0.00  0.00     0.292 C 
ENDROOT
BRANCH   1   9
ATOM      9  C   UNL d   1       1.008   2.902  -1.145  0.00  0.00     0.087 A 
ATOM     10  C   UNL d   1       1.870   1.893  -1.548  0.00  0.00     0.090 A 
ATOM     11  O   UNL d   1       2.651   2.332  -2.567  0.00  0.00    -0.242 OA
ATOM     12  C   UNL d   1       2.129   0.499  -1.133  0.00  0.00     0.080 C 
ATOM     13  N   UNL d   1       2.371   3.650  -2.828  0.00  0.00    -0.265 N 
ATOM     14  C   UNL d   1       1.435   4.012  -1.941  0.00  0.00     0.047 A 
ATOM     15  HN  UNL d   1       2.791   4.235  -3.550  1.00  0.00     0.194 HD
ATOM     16  C   UNL d   1       1.032   5.439  -1.919  0.00  0.00     0.071 C 
ENDBRANCH   1   9
BRANCH   3  17
ATOM     17  C   UNL d   1      -4.287   5.373  -0.142  0.00  0.00     0.299 C 
BRANCH  17  18
ATOM     18  C   UNL d   1      -4.757   6.373  -1.220  0.00  0.00     0.206 C 
BRANCH  18  19
ATOM     19  O   UNL d   1      -5.029   7.646  -0.627  0.00  0.00    -0.349 OA
BRANCH  19  20
ATOM     20  C   UNL d   1      -5.416   8.640  -1.494  0.00  0.00     0.068 A 
ATOM     21  C   UNL d   1      -5.576   8.507  -2.875  0.00  0.00     0.037 A 
ATOM     22  C   UNL d   1      -5.974   9.599  -3.652  0.00  0.00     0.003 A 
ATOM     23  C   UNL d   1      -6.215  10.833  -3.051  0.00  0.00     0.000 A 
ATOM     24  C   UNL d   1      -6.060  10.974  -1.676  0.00  0.00     0.003 A 
ATOM     25  C   UNL d   1      -5.661   9.881  -0.898  0.00  0.00     0.037 A 
ENDBRANCH  19  20
ENDBRANCH  18  19
ENDBRANCH  17  18
ENDBRANCH   3  17
TORSDOF 5
