REMARK  7 active torsions:
REMARK  status: ('A' for Active; 'I' for Inactive)
REMARK       I    between atoms: N_3  and  C_1 
REMARK       I    between atoms: N_7  and  C_1 
REMARK    1  A    between atoms: O_9  and  C_2 
REMARK    2  A    between atoms: C_4  and  N_3 
REMARK    3  A    between atoms: O_18  and  C_6 
REMARK    4  A    between atoms: C_10  and  N_7 
REMARK    5  A    between atoms: C_19  and  O_9 
REMARK    6  A    between atoms: O_20  and  C_11 
REMARK    7  A    between atoms: O_21  and  C_15 
ROOT
ATOM      1  C   UNL d   1       1.008  -0.206   0.283  0.00  0.00     0.325 C 
ATOM      2  N   UNL d   1       2.320  -0.608   0.487  0.00  0.00    -0.306 N 
ATOM      3  N   UNL d   1       0.202  -1.248  -0.133  0.00  0.00    -0.309 N 
ATOM      4  O   UNL d   1       0.619   0.954   0.451  0.00  0.00    -0.247 OA
ATOM      5  H   UNL d   1       2.641  -1.349  -0.112  0.00  0.00     0.171 HD
ATOM      6  H   UNL d   1       0.520  -2.170   0.132  0.00  0.00     0.170 HD
ENDROOT
BRANCH   3   7
ATOM      7  C   UNL d   1      -1.178  -1.112  -0.429  0.00  0.00     0.039 A 
ATOM      8  C   UNL d   1      -1.767   0.106  -0.803  0.00  0.00     0.069 A 
ATOM      9  C   UNL d   1      -3.158   0.246  -0.941  0.00  0.00     0.104 A 
ATOM     10  C   UNL d   1      -3.965  -0.891  -0.779  0.00  0.00     0.101 A 
ATOM     11  C   UNL d   1      -3.362  -2.126  -0.484  0.00  0.00     0.042 A 
ATOM     12  C   UNL d   1      -1.982  -2.241  -0.313  0.00  0.00     0.032 A 
BRANCH   9  13
ATOM     13  O   UNL d   1      -3.742   1.444  -1.264  0.00  0.00    -0.343 OA
BRANCH  13  14
ATOM     14  C   UNL d   1      -3.101   2.660  -0.865  0.00  0.00     0.129 C 
ATOM     15  C   UNL d   1      -3.049   2.843   0.652  0.00  0.00     0.032 C 
ATOM     16  C   UNL d   1      -3.080   4.348   0.896  0.00  0.00     0.002 C 
ATOM     17  C   UNL d   1      -3.567   4.991  -0.398  0.00  0.00     0.002 C 
ATOM     18  C   UNL d   1      -3.963   3.843  -1.314  0.00  0.00     0.032 C 
ENDBRANCH  13  14
ENDBRANCH   9  13
BRANCH  10  19
ATOM     19  O   UNL d   1      -5.329  -1.000  -0.864  0.00  0.00    -0.353 OA
ATOM     20  C   UNL d   1      -6.101   0.175  -1.050  0.00  0.00     0.210 C 
ENDBRANCH  10  19
ENDBRANCH   3   7
BRANCH   2  21
ATOM     21  C   UNL d   1       3.288   0.336   0.916  0.00  0.00     0.070 A 
ATOM     22  C   UNL d   1       4.530   0.493   0.285  0.00  0.00     0.097 A 
ATOM     23  C   UNL d   1       5.437   1.454   0.773  0.00  0.00     0.075 A 
ATOM     24  C   UNL d   1       5.132   2.237   1.889  0.00  0.00     0.070 A 
ATOM     25  C   UNL d   1       3.911   2.055   2.529  0.00  0.00     0.039 A 
ATOM     26  C   UNL d   1       2.996   1.120   2.045  0.00  0.00     0.035 A 
BRANCH  22  27
ATOM     27  O   UNL d   1       5.021  -0.223  -0.775  0.00  0.00    -0.354 OA
ATOM     28  C   UNL d   1       4.141  -0.507  -1.855  0.00  0.00     0.210 C 
ENDBRANCH  22  27
BRANCH  24  29
ATOM     29  O   UNL d   1       5.936   3.188   2.456  0.00  0.00    -0.356 OA
ATOM     30  C   UNL d   1       7.166   3.465   1.801  0.00  0.00     0.210 C 
ENDBRANCH  24  29
ENDBRANCH   2  21
TORSDOF 7
