REMARK  4 active torsions:
REMARK  status: ('A' for Active; 'I' for Inactive)
REMARK       I    between atoms: N_4  and  C_1 
REMARK    1  A    between atoms: C_7  and  C_1 
REMARK    2  A    between atoms: N_2  and  C_5 
REMARK    3  A    between atoms: N_3  and  C_6 
REMARK    4  A    between atoms: C_21  and  N_4 
ROOT
ATOM      1  C   UNL d   1       2.363  -3.946   2.991  0.00  0.00     0.030 A 
ATOM      2  C   UNL d   1       1.308  -4.321   2.156  0.00  0.00     0.031 A 
ATOM      3  C   UNL d   1       2.755  -2.599   2.968  0.00  0.00     0.031 A 
ATOM      4  C   UNL d   1       0.973  -2.042   1.424  0.00  0.00     0.035 A 
ATOM      5  C   UNL d   1       0.621  -3.387   1.385  0.00  0.00     0.032 A 
ATOM      6  C   UNL d   1       2.073  -1.654   2.189  0.00  0.00     0.032 A 
ENDROOT
BRANCH   1   7
ATOM      7  N   UNL d   1       2.962  -4.835   3.885  0.00  0.00    -0.381 N 
ATOM      8  C   UNL d   1       2.197  -6.031   4.253  0.00  0.00     0.125 C 
ATOM      9  C   UNL d   1       2.695  -6.537   5.596  0.00  0.00     0.045 C 
ATOM     10  C   UNL d   1       4.213  -6.740   5.618  0.00  0.00     0.091 C 
ATOM     11  C   UNL d   1       4.987  -5.557   5.018  0.00  0.00     0.045 C 
ATOM     12  C   UNL d   1       4.402  -5.048   3.704  0.00  0.00     0.125 C 
BRANCH  10  13
ATOM     13  N   UNL d   1       4.618  -8.042   5.085  0.00  0.00    -0.362 N 
ATOM     14  C   UNL d   1       4.561  -8.473   3.785  0.00  0.00     0.091 A 
ATOM     15  C   UNL d   1       5.053  -9.759   3.732  0.00  0.00     0.019 A 
ATOM     16  C   UNL d   1       5.405 -10.129   5.048  0.00  0.00     0.019 A 
ATOM     17  C   UNL d   1       5.122  -9.058   5.863  0.00  0.00     0.091 A 
ENDBRANCH  10  13
ENDBRANCH   1   7
BRANCH   4  18
ATOM     18  N   UNL d   1       0.257  -1.053   0.726  0.00  0.00    -0.323 N 
ATOM     19  C   UNL d   1      -1.004  -1.220   0.172  0.00  0.00     0.256 C 
ATOM     20  O   UNL d   1      -1.731  -2.200   0.271  0.00  0.00    -0.267 OA
ATOM     21  H   UNL d   1       0.634  -0.116   0.762  0.00  0.00     0.169 HD
BRANCH  19  22
ATOM     22  C   UNL d   1      -1.530  -0.043  -0.556  0.00  0.00     0.032 A 
ATOM     23  C   UNL d   1      -0.695   0.770  -1.331  0.00  0.00     0.018 A 
ATOM     24  C   UNL d   1      -1.236   1.865  -2.007  0.00  0.00     0.025 A 
ATOM     25  C   UNL d   1      -2.603   2.135  -1.914  0.00  0.00     0.034 A 
ATOM     26  C   UNL d   1      -3.441   1.312  -1.163  0.00  0.00     0.025 A 
ATOM     27 CL   UNL d   1      -3.259   3.492  -2.740  0.00  0.00    -0.084 Cl
ATOM     28  C   UNL d   1      -2.905   0.216  -0.488  0.00  0.00     0.018 A 
ENDBRANCH  19  22
ENDBRANCH   4  18
TORSDOF 4
