REMARK  5 active torsions:
REMARK  status: ('A' for Active; 'I' for Inactive)
REMARK    1  A    between atoms: C_2  and  S_1 
REMARK    2  A    between atoms: N_7  and  S_1 
REMARK    3  A    between atoms: N_3  and  C_15 
REMARK    4  A    between atoms: N_9  and  C_8 
REMARK    5  A    between atoms: C_16  and  C_10 
ROOT
ATOM      1  C   UNL d   1       1.867  -2.080   1.682  0.00  0.00     0.074 A 
ATOM      2  C   UNL d   1       0.505  -1.940   1.955  0.00  0.00     0.027 A 
ATOM      3  C   UNL d   1       2.723  -2.648   2.625  0.00  0.00     0.027 A 
ATOM      4  C   UNL d   1       0.849  -2.890   4.168  0.00  0.00     0.032 A 
ATOM      5  C   UNL d   1       0.000  -2.355   3.192  0.00  0.00     0.031 A 
ATOM      6  C   UNL d   1       2.207  -3.048   3.862  0.00  0.00     0.031 A 
ENDROOT
BRANCH   4   7
ATOM      7  N   UNL d   1       0.413  -3.344   5.423  0.00  0.00    -0.365 N 
ATOM      8  C   UNL d   1      -0.522  -2.716   6.060  0.00  0.00     0.099 C 
ATOM      9  HN  UNL d   1       0.837  -4.175   5.836  1.00  0.00     0.165 HD
BRANCH   8  10
ATOM     10  C   UNL d   1      -0.975  -3.166   7.394  0.00  0.00    -0.021 A 
ATOM     11  C   UNL d   1      -0.313  -4.192   8.060  0.00  0.00     0.015 A 
ATOM     12  C   UNL d   1      -0.735  -4.590   9.337  0.00  0.00     0.030 A 
ATOM     13  C   UNL d   1      -1.820  -3.982   9.991  0.00  0.00     0.029 A 
ATOM     14  C   UNL d   1      -2.463  -2.946   9.284  0.00  0.00     0.030 A 
ATOM     15  C   UNL d   1      -2.057  -2.540   8.003  0.00  0.00     0.015 A 
BRANCH  13  16
ATOM     16  N   UNL d   1      -2.201  -4.313  11.289  0.00  0.00    -0.390 N 
ATOM     17  C   UNL d   1      -3.620  -4.324  11.650  0.00  0.00     0.149 C 
ATOM     18  C   UNL d   1      -1.377  -5.199  12.111  0.00  0.00     0.149 C 
ENDBRANCH  13  16
ENDBRANCH   8  10
ENDBRANCH   4   7
BRANCH   1  19
ATOM     19  S   UNL d   1       2.517  -1.502   0.144  0.00  0.00     0.239 S 
ATOM     20  O   UNL d   1       1.499  -0.762  -0.560  0.00  0.00    -0.206 OA
ATOM     21  O   UNL d   1       3.277  -2.566  -0.474  0.00  0.00    -0.206 OA
BRANCH  19  22
ATOM     22  N   UNL d   1       3.633  -0.350   0.644  0.00  0.00    -0.225 NA
ATOM     23  H   UNL d   1       3.289   0.585   0.427  0.00  0.00     0.136 HD
ATOM     24  H   UNL d   1       4.547  -0.560   0.242  0.00  0.00     0.136 HD
ENDBRANCH  19  22
ENDBRANCH   1  19
TORSDOF 5
