REMARK  5 active torsions:
REMARK  status: ('A' for Active; 'I' for Inactive)
REMARK    1  A    between atoms: C_2  and  C_1 
REMARK    2  A    between atoms: C_18  and  N_4 
REMARK    3  A    between atoms: N_21  and  C_5 
REMARK    4  A    between atoms: C_20  and  C_11 
REMARK    5  A    between atoms: C_22  and  C_17 
ROOT
ATOM      1  C   UNL d   1      -2.543  -0.775   0.078  0.00  0.00     0.080 C 
ATOM      2  C   UNL d   1      -0.176  -1.016   0.044  0.00  0.00     0.040 A 
ATOM      3  C   UNL d   1      -1.473  -1.637  -0.119  0.00  0.00     0.061 C 
ATOM      4  S   UNL d   1      -1.993   0.786   0.489  0.00  0.00    -0.064 SA
ATOM      5  C   UNL d   1      -0.366   0.341   0.264  0.00  0.00     0.103 A 
ATOM      6  C   UNL d   1       1.183  -1.468   0.029  0.00  0.00     0.018 A 
ATOM      7  N   UNL d   1       1.859   0.857   0.261  0.00  0.00    -0.298 N 
ATOM      8  HN  UNL d   1       2.609   1.548   0.274  1.00  0.00     0.187 HD
ATOM      9  N   UNL d   1       0.608   1.263   0.354  0.00  0.00    -0.292 N 
ATOM     10  HN  UNL d   1       0.385   2.250   0.489  1.00  0.00     0.187 HD
ATOM     11  C   UNL d   1       2.173  -0.462   0.148  0.00  0.00     0.070 A 
ENDROOT
BRANCH   1  12
ATOM     12  C   UNL d   1      -3.944  -1.139   0.047  0.00  0.00     0.149 A 
ATOM     13  N   UNL d   1      -4.989  -0.454  -0.535  0.00  0.00    -0.271 N 
ATOM     14  C   UNL d   1      -6.091  -1.276  -0.336  0.00  0.00     0.199 A 
ATOM     15  S   UNL d   1      -7.652  -1.240  -0.915  0.00  0.00    -0.039 SA
ATOM     16  N   UNL d   1      -5.643  -2.343   0.427  0.00  0.00    -0.274 N 
ATOM     17  N   UNL d   1      -4.306  -2.264   0.618  0.00  0.00    -0.282 N 
ATOM     18  H   UNL d   1      -6.184  -3.165   0.680  0.00  0.00     0.189 HD
ATOM     19  HN  UNL d   1      -3.708  -2.935   1.101  1.00  0.00     0.188 HD
BRANCH  13  20
ATOM     20  C   UNL d   1      -4.970   0.753  -1.280  0.00  0.00     0.043 A 
ATOM     21  C   UNL d   1      -3.919   1.066  -2.151  0.00  0.00     0.030 A 
ATOM     22  C   UNL d   1      -3.880   2.296  -2.816  0.00  0.00     0.002 A 
ATOM     23  C   UNL d   1      -4.911   3.216  -2.649  0.00  0.00     0.000 A 
ATOM     24  C   UNL d   1      -5.984   2.906  -1.822  0.00  0.00     0.002 A 
ATOM     25  C   UNL d   1      -6.008   1.688  -1.139  0.00  0.00     0.030 A 
ENDBRANCH  13  20
ENDBRANCH   1  12
BRANCH   3  26
ATOM     26  N   UNL d   1      -1.688  -2.932  -0.451  0.00  0.00    -0.397 N 
ATOM     27  H   UNL d   1      -0.941  -3.609  -0.579  0.00  0.00     0.156 HD
ATOM     28  H   UNL d   1      -2.575  -3.376  -0.203  0.00  0.00     0.156 HD
ENDBRANCH   3  26
BRANCH   6  29
ATOM     29  C   UNL d   1       1.477  -2.913  -0.056  0.00  0.00    -0.023 A 
ATOM     30  C   UNL d   1       2.334  -3.440  -1.037  0.00  0.00     0.012 A 
ATOM     31  C   UNL d   1       2.643  -4.804  -1.068  0.00  0.00     0.001 A 
ATOM     32  C   UNL d   1       2.061  -5.676  -0.151  0.00  0.00     0.000 A 
ATOM     33  C   UNL d   1       1.199  -5.181   0.821  0.00  0.00     0.001 A 
ATOM     34  C   UNL d   1       0.940  -3.810   0.889  0.00  0.00     0.012 A 
ENDBRANCH   6  29
BRANCH  11  35
ATOM     35  C   UNL d   1       3.639  -0.710   0.178  0.00  0.00    -0.007 A 
ATOM     36  C   UNL d   1       4.519   0.076  -0.588  0.00  0.00     0.014 A 
ATOM     37  C   UNL d   1       5.899  -0.175  -0.610  0.00  0.00     0.001 A 
ATOM     38  C   UNL d   1       6.423  -1.227   0.135  0.00  0.00     0.000 A 
ATOM     39  C   UNL d   1       5.582  -1.998   0.926  0.00  0.00     0.001 A 
ATOM     40  C   UNL d   1       4.209  -1.730   0.964  0.00  0.00     0.014 A 
ENDBRANCH  11  35
TORSDOF 5
