REMARK  4 active torsions:
REMARK  status: ('A' for Active; 'I' for Inactive)
REMARK    1  A    between atoms: S_10  and  C_1 
REMARK    2  A    between atoms: C_8  and  C_7 
REMARK    3  A    between atoms: C_11  and  C_8 
REMARK    4  A    between atoms: C_9  and  S_10 
ROOT
ATOM      1  C   UNL d   1      -6.123  -0.486  -0.149  0.00  0.00     0.063 C 
ATOM      2  C   UNL d   1      -4.817  -0.284   0.086  0.00  0.00     0.056 C 
ENDROOT
BRANCH   2   3
ATOM      3  S   UNL d   1      -3.701  -1.615   0.041  0.00  0.00    -0.077 SA
BRANCH   3   4
ATOM      4  C   UNL d   1      -2.182  -0.771   0.319  0.00  0.00     0.117 A 
ATOM      5  N   UNL d   1      -1.981   0.471  -0.055  0.00  0.00    -0.344 N 
ATOM      6  C   UNL d   1      -0.692   0.857   0.277  0.00  0.00     0.050 A 
ATOM      7  HN  UNL d   1      -2.669   1.063  -0.519  1.00  0.00     0.167 HD
ATOM      8  C   UNL d   1      -0.127   2.129   0.044  0.00  0.00     0.031 A 
ATOM      9  C   UNL d   1       0.091  -0.119   0.897  0.00  0.00     0.034 A 
ATOM     10  C   UNL d   1       1.188   2.392   0.439  0.00  0.00     0.002 A 
ATOM     11  C   UNL d   1       1.949   1.404   1.056  0.00  0.00     0.002 A 
ATOM     12  C   UNL d   1       1.416   0.132   1.294  0.00  0.00     0.021 A 
ATOM     13  S   UNL d   1      -0.843  -1.559   1.048  0.00  0.00    -0.063 SA
ENDBRANCH   3   4
ENDBRANCH   2   3
BRANCH   1  14
ATOM     14  C   UNL d   1      -7.084   0.646  -0.080  0.00  0.00     0.182 C 
ATOM     15  O   UNL d   1      -6.823   1.679   0.525  0.00  0.00    -0.288 OA
BRANCH  14  16
ATOM     16  C   UNL d   1      -8.409   0.483  -0.744  0.00  0.00     0.014 A 
ATOM     17  C   UNL d   1      -9.511   1.178  -0.223  0.00  0.00     0.017 A 
ATOM     18  C   UNL d   1     -10.756   1.113  -0.860  0.00  0.00     0.025 A 
ATOM     19  C   UNL d   1     -10.897   0.363  -2.026  0.00  0.00     0.034 A 
ATOM     20  C   UNL d   1      -9.812  -0.338  -2.549  0.00  0.00     0.025 A 
ATOM     21 CL   UNL d   1     -12.412   0.321  -2.839  0.00  0.00    -0.084 Cl
ATOM     22  C   UNL d   1      -8.565  -0.280  -1.911  0.00  0.00     0.017 A 
ENDBRANCH  14  16
ENDBRANCH   1  14
TORSDOF 4
