REMARK  3 active torsions:
REMARK  status: ('A' for Active; 'I' for Inactive)
REMARK       I    between atoms: N_2  and  C_1 
REMARK       I    between atoms: N_5  and  C_1 
REMARK    1  A    between atoms: C_10  and  N_2 
REMARK    2  A    between atoms: C_12  and  N_5 
REMARK    3  A    between atoms: C_11  and  C_12 
ROOT
ATOM      1  C   UNL d   1       0.920  -0.885   0.044  0.00  0.00     0.320 C 
ATOM      2  N   UNL d   1       2.262  -0.586  -0.045  0.00  0.00    -0.309 N 
ATOM      3  N   UNL d   1       0.187  -0.304  -0.963  0.00  0.00    -0.339 N 
ATOM      4  O   UNL d   1       0.389  -1.564   0.917  0.00  0.00    -0.247 OA
ATOM      5  H   UNL d   1       2.510   0.162  -0.675  0.00  0.00     0.170 HD
ATOM      6  H   UNL d   1       0.661   0.031  -1.787  0.00  0.00     0.164 HD
ENDROOT
BRANCH   3   7
ATOM      7  C   UNL d   1      -1.243  -0.519  -1.058  0.00  0.00     0.162 C 
BRANCH   7   8
ATOM      8  C   UNL d   1      -1.609  -1.270  -2.314  0.00  0.00    -0.040 A 
ATOM      9  C   UNL d   1      -1.201  -2.606  -2.489  0.00  0.00     0.018 A 
ATOM     10  C   UNL d   1      -1.540  -3.252  -3.665  0.00  0.00    -0.022 A 
ATOM     11  C   UNL d   1      -1.284  -4.647  -4.092  0.00  0.00     0.068 C 
ATOM     12  C   UNL d   1      -2.288  -2.612  -4.640  0.00  0.00     0.075 A 
ATOM     13  C   UNL d   1      -1.638  -4.508  -5.574  0.00  0.00     0.180 C 
ATOM     14  O   UNL d   1      -2.544  -3.390  -5.739  0.00  0.00    -0.350 OA
ATOM     15  C   UNL d   1      -2.733  -1.317  -4.486  0.00  0.00     0.038 A 
ATOM     16  C   UNL d   1      -2.383  -0.641  -3.314  0.00  0.00     0.011 A 
ENDBRANCH   7   8
ENDBRANCH   3   7
BRANCH   2  17
ATOM     17  C   UNL d   1       3.282  -1.071   0.805  0.00  0.00     0.036 A 
ATOM     18  C   UNL d   1       3.090  -2.124   1.704  0.00  0.00     0.031 A 
ATOM     19  C   UNL d   1       4.123  -2.552   2.542  0.00  0.00     0.026 A 
ATOM     20  C   UNL d   1       5.365  -1.931   2.479  0.00  0.00     0.034 A 
ATOM     21  C   UNL d   1       5.583  -0.893   1.576  0.00  0.00     0.026 A 
ATOM     22 CL   UNL d   1       6.633  -2.449   3.519  0.00  0.00    -0.084 Cl
ATOM     23  C   UNL d   1       4.545  -0.467   0.736  0.00  0.00     0.031 A 
ENDBRANCH   2  17
TORSDOF 3
