REMARK  4 active torsions:
REMARK  status: ('A' for Active; 'I' for Inactive)
REMARK    1  A    between atoms: C_12  and  C_1 
REMARK    2  A    between atoms: C_4  and  C_7 
REMARK    3  A    between atoms: C_7  and  O_11 
REMARK    4  A    between atoms: O_11  and  C_12 
ROOT
ATOM      1  O   UNL d   1       4.210   1.326  -0.369  0.00  0.00    -0.312 OA
ENDROOT
BRANCH   1   2
ATOM      2  C   UNL d   1       4.794   2.204   0.476  0.00  0.00     0.295 C 
ATOM      3  O   UNL d   1       4.741   2.173   1.695  0.00  0.00    -0.259 OA
BRANCH   2   4
ATOM      4  C   UNL d   1       5.715   3.120  -0.252  0.00  0.00     0.061 A 
ATOM      5  C   UNL d   1       5.519   3.605  -1.553  0.00  0.00     0.051 A 
ATOM      6  C   UNL d   1       6.504   4.402  -2.159  0.00  0.00     0.048 A 
ATOM      7 CL   UNL d   1       4.082   3.332  -2.473  0.00  0.00    -0.083 Cl
ATOM      8  C   UNL d   1       7.666   4.735  -1.466  0.00  0.00     0.035 A 
ATOM      9  C   UNL d   1       7.855   4.293  -0.161  0.00  0.00     0.025 A 
ATOM     10 CL   UNL d   1       8.870   5.701  -2.223  0.00  0.00    -0.084 Cl
ATOM     11  C   UNL d   1       6.883   3.490   0.443  0.00  0.00     0.021 A 
ENDBRANCH   2   4
ENDBRANCH   1   2
BRANCH   1  12
ATOM     12  C   UNL d   1       3.612   0.163   0.224  0.00  0.00     0.225 C 
BRANCH  12  13
ATOM     13  C   UNL d   1       2.118   0.250   0.101  0.00  0.00     0.014 A 
ATOM     14  S   UNL d   1       1.383  -0.216  -1.373  0.00  0.00    -0.091 SA
ATOM     15  C   UNL d   1      -0.206   0.007  -0.764  0.00  0.00     0.016 A 
ATOM     16  C   UNL d   1      -1.418  -0.225  -1.446  0.00  0.00     0.019 A 
ATOM     17  C   UNL d   1      -0.183   0.467   0.553  0.00  0.00    -0.012 A 
ATOM     18  C   UNL d   1      -2.627   0.021  -0.792  0.00  0.00     0.001 A 
ATOM     19  C   UNL d   1      -2.635   0.488   0.513  0.00  0.00     0.001 A 
ATOM     20  C   UNL d   1      -1.431   0.709   1.188  0.00  0.00     0.013 A 
ATOM     21  C   UNL d   1       1.173   0.601   1.056  0.00  0.00    -0.035 A 
ATOM     22  C   UNL d   1       1.469   1.040   2.457  0.00  0.00     0.050 C 
ENDBRANCH  12  13
ENDBRANCH   1  12
TORSDOF 4
