REMARK  7 active torsions:
REMARK  status: ('A' for Active; 'I' for Inactive)
REMARK    1  A    between atoms: C_13  and  N_1 
REMARK    2  A    between atoms: C_5  and  C_3 
REMARK    3  A    between atoms: C_4  and  C_17 
REMARK    4  A    between atoms: C_8  and  C_5 
REMARK    5  A    between atoms: O_22  and  C_7 
REMARK       I    between atoms: N_18  and  C_8 
REMARK    6  A    between atoms: N_11  and  N_18 
REMARK    7  A    between atoms: C_25  and  C_13 
ROOT
ATOM      1  C   UNL d   1       0.840  -2.274   2.530  0.00  0.00     0.238 C 
ATOM      2  N   UNL d   1      -0.179  -1.640   3.222  0.00  0.00    -0.270 N 
ATOM      3  O   UNL d   1       1.794  -2.844   3.062  0.00  0.00    -0.272 OA
ATOM      4  H   UNL d   1      -0.943  -1.198   2.711  0.00  0.00     0.190 HD
ENDROOT
BRANCH   1   5
ATOM      5  C   UNL d   1       0.636  -2.355   1.030  0.00  0.00     0.150 C 
BRANCH   5   6
ATOM      6  C   UNL d   1       0.104  -1.098   0.339  0.00  0.00     0.320 C 
ATOM      7  C   UNL d   1       0.994   0.147   0.589  0.00  0.00     0.254 C 
ATOM      8  N   UNL d   1       0.423   1.383   0.284  0.00  0.00    -0.344 N 
ATOM      9  O   UNL d   1       2.179   0.030   0.896  0.00  0.00    -0.271 OA
ATOM     10  C   UNL d   1      -1.026   1.554   0.247  0.00  0.00     0.156 C 
ATOM     11  C   UNL d   1      -1.792   0.287  -0.136  0.00  0.00     0.290 C 
ATOM     12  N   UNL d   1      -1.334  -0.865   0.659  0.00  0.00     0.099 N 
ATOM     13  H   UNL d   1      -1.860  -1.686   0.346  0.00  0.00     0.317 HD
BRANCH   8  14
ATOM     14  C   UNL d   1       1.239   2.591   0.383  0.00  0.00     0.164 C 
BRANCH  14  15
ATOM     15  C   UNL d   1       1.560   3.195  -0.968  0.00  0.00    -0.040 A 
ATOM     16  C   UNL d   1       1.157   4.498  -1.287  0.00  0.00     0.009 A 
ATOM     17  C   UNL d   1       1.514   5.074  -2.511  0.00  0.00     0.001 A 
ATOM     18  C   UNL d   1       2.277   4.354  -3.428  0.00  0.00     0.000 A 
ATOM     19  C   UNL d   1       2.680   3.055  -3.124  0.00  0.00     0.001 A 
ATOM     20  C   UNL d   1       2.326   2.478  -1.901  0.00  0.00     0.009 A 
ENDBRANCH  14  15
ENDBRANCH   8  14
ENDBRANCH   5   6
ENDBRANCH   1   5
BRANCH   2  21
ATOM     21  N   UNL d   1      -0.033  -1.431   4.559  0.00  0.00    -0.308 N 
ATOM     22  C   UNL d   1      -1.008  -0.839   5.166  0.00  0.00     0.121 C 
ATOM     23  HN  UNL d   1       0.806  -1.728   5.058  1.00  0.00     0.186 HD
BRANCH  22  24
ATOM     24  C   UNL d   1      -0.891  -0.477   6.596  0.00  0.00     0.017 A 
ATOM     25  C   UNL d   1      -1.955   0.134   7.263  0.00  0.00     0.099 A 
ATOM     26  C   UNL d   1      -1.797   0.540   8.594  0.00  0.00     0.069 A 
ATOM     27 CL   UNL d   1      -3.096   1.315   9.426  0.00  0.00    -0.081 Cl
ATOM     28  C   UNL d   1      -0.589   0.339   9.261  0.00  0.00     0.050 A 
ATOM     29  C   UNL d   1       0.462  -0.285   8.594  0.00  0.00     0.036 A 
ATOM     30  C   UNL d   1       0.319  -0.698   7.270  0.00  0.00     0.039 A 
ATOM     31 CL   UNL d   1       1.958  -0.527   9.410  0.00  0.00    -0.084 Cl
BRANCH  25  32
ATOM     32  O   UNL d   1      -3.142   0.339   6.608  0.00  0.00    -0.358 OA
ATOM     33  H   UNL d   1      -3.763   0.745   7.245  0.00  0.00     0.217 HD
ENDBRANCH  25  32
ENDBRANCH  22  24
ENDBRANCH   2  21
TORSDOF 7
