REMARK  6 active torsions:
REMARK  status: ('A' for Active; 'I' for Inactive)
REMARK       I    between atoms: N_3  and  C_1 
REMARK       I    between atoms: N_4  and  C_1 
REMARK    1  A    between atoms: N_2  and  C_5 
REMARK    2  A    between atoms: C_9  and  N_3 
REMARK    3  A    between atoms: C_10  and  N_4 
REMARK    4  A    between atoms: O_11  and  C_12 
REMARK    5  A    between atoms: C_15  and  O_11 
REMARK    6  A    between atoms: C_20  and  C_15 
ROOT
ATOM      1  C   UNL d   1       0.975  -0.244  -0.086  0.00  0.00     0.325 C 
ATOM      2  N   UNL d   1       0.497   0.324  -1.255  0.00  0.00    -0.309 N 
ATOM      3  N   UNL d   1       0.148   0.068   0.990  0.00  0.00    -0.309 N 
ATOM      4  O   UNL d   1       2.013  -0.886   0.013  0.00  0.00    -0.247 OA
ATOM      5  H   UNL d   1      -0.420   0.743  -1.215  0.00  0.00     0.170 HD
ATOM      6  H   UNL d   1      -0.383   0.918   0.890  0.00  0.00     0.170 HD
ENDROOT
BRANCH   2   7
ATOM      7  C   UNL d   1       1.174   0.406  -2.491  0.00  0.00     0.036 A 
ATOM      8  C   UNL d   1       2.416  -0.173  -2.734  0.00  0.00     0.032 A 
ATOM      9  C   UNL d   1       3.073   0.027  -3.956  0.00  0.00     0.031 A 
ATOM     10  C   UNL d   1       2.522   0.812  -4.974  0.00  0.00     0.030 A 
ATOM     11  C   UNL d   1       1.250   1.349  -4.727  0.00  0.00     0.031 A 
ATOM     12  C   UNL d   1       0.581   1.148  -3.510  0.00  0.00     0.032 A 
BRANCH  10  13
ATOM     13  N   UNL d   1       3.214   1.116  -6.133  0.00  0.00    -0.381 N 
ATOM     14  C   UNL d   1       4.676   1.037  -6.189  0.00  0.00     0.123 C 
ATOM     15  C   UNL d   1       5.197   2.227  -6.995  0.00  0.00     0.020 C 
ATOM     16  C   UNL d   1       4.538   2.312  -8.370  0.00  0.00     0.003 C 
ATOM     17  C   UNL d   1       3.012   2.273  -8.262  0.00  0.00     0.020 C 
ATOM     18  C   UNL d   1       2.541   1.078  -7.432  0.00  0.00     0.123 C 
ENDBRANCH  10  13
ENDBRANCH   2   7
BRANCH   3  19
ATOM     19  C   UNL d   1       0.458  -0.316   2.314  0.00  0.00     0.036 A 
ATOM     20  C   UNL d   1       0.163   0.571   3.351  0.00  0.00     0.032 A 
ATOM     21  C   UNL d   1       0.605   0.296   4.650  0.00  0.00     0.039 A 
ATOM     22  C   UNL d   1       1.311  -0.876   4.926  0.00  0.00     0.069 A 
ATOM     23  C   UNL d   1       1.496  -1.815   3.912  0.00  0.00     0.039 A 
ATOM     24  C   UNL d   1       1.082  -1.529   2.610  0.00  0.00     0.032 A 
BRANCH  22  25
ATOM     25  O   UNL d   1       1.784  -0.996   6.206  0.00  0.00    -0.347 OA
BRANCH  25  26
ATOM     26  C   UNL d   1       2.862  -1.921   6.372  0.00  0.00     0.214 C 
BRANCH  26  27
ATOM     27  C   UNL d   1       3.636  -1.594   7.626  0.00  0.00    -0.034 A 
ATOM     28  C   UNL d   1       3.030  -1.687   8.886  0.00  0.00     0.009 A 
ATOM     29  C   UNL d   1       3.764  -1.424  10.044  0.00  0.00     0.001 A 
ATOM     30  C   UNL d   1       5.111  -1.066   9.952  0.00  0.00     0.000 A 
ATOM     31  C   UNL d   1       5.718  -0.963   8.707  0.00  0.00     0.001 A 
ATOM     32  C   UNL d   1       4.986  -1.224   7.548  0.00  0.00     0.009 A 
ENDBRANCH  26  27
ENDBRANCH  25  26
ENDBRANCH  22  25
ENDBRANCH   3  19
TORSDOF 6
