REMARK  2 active torsions:
REMARK  status: ('A' for Active; 'I' for Inactive)
REMARK    1  A    between atoms: C_6  and  C_2 
REMARK    2  A    between atoms: C_18  and  N_5 
ROOT
ATOM      1  N   UNL d   1      -0.669   1.192   0.031  0.00  0.00    -0.270 N 
ATOM      2  C   UNL d   1       1.448  -0.037  -0.024  0.00  0.00     0.094 A 
ATOM      3  C   UNL d   1      -1.420   0.018   0.026  0.00  0.00     0.335 A 
ATOM      4  C   UNL d   1       0.715   1.258  -0.041  0.00  0.00     0.266 A 
ATOM      5  N   UNL d   1      -0.671  -1.174  -0.027  0.00  0.00    -0.274 N 
ATOM      6  C   UNL d   1       0.712  -1.156  -0.063  0.00  0.00     0.123 A 
ATOM      7  O   UNL d   1      -2.652   0.048   0.021  0.00  0.00    -0.246 OA
ATOM      8  O   UNL d   1       1.311   2.330  -0.154  0.00  0.00    -0.267 OA
ATOM      9  C   UNL d   1      -1.377   2.462   0.002  0.00  0.00     0.164 C 
ENDROOT
BRANCH   2  10
ATOM     10  C   UNL d   1       2.879  -0.032   0.036  0.00  0.00     0.145 A 
ATOM     11  N   UNL d   1       3.585  -1.075  -0.531  0.00  0.00    -0.318 N 
ATOM     12  C   UNL d   1       4.842  -0.752  -0.287  0.00  0.00     0.189 A 
ATOM     13  HN  UNL d   1       3.223  -1.894  -1.019  1.00  0.00     0.169 HD
ATOM     14  C   UNL d   1       5.970  -1.528  -0.719  0.00  0.00     0.058 A 
ATOM     15  O   UNL d   1       4.945   0.410   0.432  0.00  0.00    -0.217 OA
ATOM     16  S   UNL d   1       7.577  -1.046  -0.371  0.00  0.00    -0.098 SA
ATOM     17  C   UNL d   1       5.946  -2.707  -1.440  0.00  0.00     0.024 A 
ATOM     18  C   UNL d   1       8.234  -2.403  -1.178  0.00  0.00     0.050 A 
ATOM     19  C   UNL d   1       7.252  -3.214  -1.705  0.00  0.00     0.009 A 
ATOM     20  N   UNL d   1       3.653   0.866   0.659  0.00  0.00    -0.242 N 
ATOM     21  HN  UNL d   1       3.361   1.693   1.179  1.00  0.00     0.196 HD
ENDBRANCH   2  10
BRANCH   5  22
ATOM     22  C   UNL d   1      -1.384  -2.417  -0.026  0.00  0.00     0.043 A 
ATOM     23  C   UNL d   1      -1.099  -3.402  -0.982  0.00  0.00     0.030 A 
ATOM     24  C   UNL d   1      -1.841  -4.587  -1.012  0.00  0.00     0.002 A 
ATOM     25  C   UNL d   1      -2.837  -4.817  -0.065  0.00  0.00     0.000 A 
ATOM     26  C   UNL d   1      -3.102  -3.859   0.912  0.00  0.00     0.002 A 
ATOM     27  C   UNL d   1      -2.387  -2.661   0.922  0.00  0.00     0.030 A 
ENDBRANCH   5  22
TORSDOF 2
