REMARK  4 active torsions:
REMARK  status: ('A' for Active; 'I' for Inactive)
REMARK    1  A    between atoms: C_6  and  S_1 
REMARK    2  A    between atoms: N_13  and  S_1 
REMARK    3  A    between atoms: S_2  and  C_5 
REMARK    4  A    between atoms: N_12  and  S_2 
ROOT
ATOM      1  C   UNL d   1      -0.040  -4.610   4.288  0.00  0.00    -0.041 A 
ATOM      2  C   UNL d   1       0.330  -3.036   2.575  0.00  0.00    -0.041 A 
ATOM      3  C   UNL d   1      -0.590  -5.553   6.404  0.00  0.00     0.080 A 
ATOM      4  C   UNL d   1       0.482  -0.962   1.410  0.00  0.00     0.080 A 
ATOM      5  C   UNL d   1      -0.472  -3.343   4.738  0.00  0.00    -0.019 A 
ATOM      6  C   UNL d   1      -0.255  -2.377   3.681  0.00  0.00    -0.019 A 
ATOM      7  C   UNL d   1       0.470  -4.519   2.862  0.00  0.00     0.078 A 
ATOM      8  C   UNL d   1       0.700  -2.346   1.431  0.00  0.00     0.033 A 
ATOM      9  C   UNL d   1      -0.086  -5.724   5.108  0.00  0.00     0.033 A 
ATOM     10  C   UNL d   1      -0.957  -3.176   6.027  0.00  0.00     0.014 A 
ATOM     11  C   UNL d   1      -0.511  -1.016   3.638  0.00  0.00     0.014 A 
ATOM     12  C   UNL d   1      -0.146  -0.306   2.489  0.00  0.00     0.026 A 
ATOM     13  C   UNL d   1      -1.006  -4.291   6.869  0.00  0.00     0.026 A 
ENDROOT
BRANCH   3  14
ATOM     14  S   UNL d   1      -0.643  -6.954   7.510  0.00  0.00     0.260 S 
ATOM     15  O   UNL d   1       0.314  -7.925   7.019  0.00  0.00    -0.200 OA
ATOM     16  O   UNL d   1      -0.564  -6.444   8.864  0.00  0.00    -0.200 OA
BRANCH  14  17
ATOM     17  N   UNL d   1      -2.209  -7.576   7.257  0.00  0.00    -0.315 N 
ATOM     18  C   UNL d   1      -3.328  -6.788   7.799  0.00  0.00     0.162 C 
ATOM     19  C   UNL d   1      -2.483  -8.141   5.924  0.00  0.00     0.162 C 
ENDBRANCH  14  17
ENDBRANCH   3  14
BRANCH   4  20
ATOM     20  S   UNL d   1       0.906  -0.022  -0.049  0.00  0.00     0.260 S 
ATOM     21  O   UNL d   1       0.051   1.146  -0.066  0.00  0.00    -0.200 OA
ATOM     22  O   UNL d   1       0.926  -0.947  -1.163  0.00  0.00    -0.200 OA
BRANCH  20  23
ATOM     23  N   UNL d   1       2.499   0.494   0.243  0.00  0.00    -0.315 N 
ATOM     24  C   UNL d   1       2.702   1.482   1.315  0.00  0.00     0.162 C 
ATOM     25  C   UNL d   1       3.566  -0.513   0.145  0.00  0.00     0.162 C 
ENDBRANCH  20  23
ENDBRANCH   4  20
TORSDOF 4
