REMARK  2 active torsions:
REMARK  status: ('A' for Active; 'I' for Inactive)
REMARK    1  A    between atoms: C_2  and  C_1 
REMARK       I    between atoms: C_3  and  N_4 
REMARK    2  A    between atoms: N_4  and  C_6 
ROOT
ATOM      1  C   UNL d   1       0.506  -1.272  -0.470  0.00  0.00     0.050 A 
ATOM      2  C   UNL d   1       1.420  -2.293  -0.163  0.00  0.00     0.045 A 
ATOM      3  C   UNL d   1       1.110  -3.636  -0.388  0.00  0.00     0.035 A 
ATOM      4  C   UNL d   1      -0.735  -1.614  -1.025  0.00  0.00     0.016 A 
ATOM      5  C   UNL d   1      -1.054  -2.950  -1.259  0.00  0.00     0.003 A 
ATOM      6  C   UNL d   1      -0.136  -3.955  -0.941  0.00  0.00     0.029 A 
ENDROOT
BRANCH   3   7
ATOM      7  N   UNL d   1       1.985  -4.702  -0.084  0.00  0.00    -0.327 N 
ATOM      8  C   UNL d   1       3.254  -4.607   0.465  0.00  0.00     0.218 C 
ATOM      9  O   UNL d   1       3.848  -3.580   0.768  0.00  0.00    -0.274 OA
ATOM     10  C   UNL d   1       3.912  -5.946   0.687  0.00  0.00     0.117 C 
ATOM     11  H   UNL d   1       1.639  -5.630  -0.288  0.00  0.00     0.169 HD
ENDBRANCH   3   7
BRANCH   1  12
ATOM     12  C   UNL d   1       0.853   0.172  -0.205  0.00  0.00     0.417 C 
ATOM     13  F   UNL d   1       2.078   0.354   0.360  0.00  0.00    -0.166 F 
ATOM     14  F   UNL d   1      -0.036   0.771   0.636  0.00  0.00    -0.166 F 
ATOM     15  F   UNL d   1       0.853   0.924  -1.342  0.00  0.00    -0.166 F 
ENDBRANCH   1  12
TORSDOF 2
