REMARK  6 active torsions:
REMARK  status: ('A' for Active; 'I' for Inactive)
REMARK    1  A    between atoms: C_4  and  C_1 
REMARK    2  A    between atoms: C_2  and  C_5 
REMARK    3  A    between atoms: C_3  and  N_8 
REMARK    4  A    between atoms: S_9  and  C_3 
REMARK    5  A    between atoms: N_8  and  C_7 
REMARK    6  A    between atoms: C_19  and  S_9 
ROOT
ATOM      1  C   UNL d   1       0.747   0.973  -1.290  0.00  0.00     0.050 A 
ATOM      2  C   UNL d   1      -0.567   1.598  -3.247  0.00  0.00     0.050 A 
ATOM      3  C   UNL d   1      -0.155   0.638  -2.310  0.00  0.00     0.032 A 
ATOM      4  C   UNL d   1       0.794   3.268  -2.109  0.00  0.00     0.035 A 
ATOM      5  C   UNL d   1       1.213   2.296  -1.202  0.00  0.00     0.045 A 
ATOM      6  C   UNL d   1      -0.042   2.899  -3.167  0.00  0.00     0.045 A 
ENDROOT
BRANCH   4   7
ATOM      7  N   UNL d   1       1.144   4.628  -2.007  0.00  0.00    -0.341 N 
ATOM      8  H   UNL d   1       1.037   5.187  -2.847  0.00  0.00     0.167 HD
BRANCH   7   9
ATOM      9  C   UNL d   1       1.281   5.404  -0.873  0.00  0.00     0.143 C 
ATOM     10  S   UNL d   1       1.070   5.000   0.734  0.00  0.00    -0.052 SA
BRANCH   9  11
ATOM     11  S   UNL d   1       1.514   7.078  -1.357  0.00  0.00    -0.061 SA
BRANCH  11  12
ATOM     12  C   UNL d   1       3.273   7.245  -1.598  0.00  0.00     0.007 A 
ATOM     13  C   UNL d   1       3.708   8.431  -2.207  0.00  0.00     0.021 A 
ATOM     14  C   UNL d   1       5.066   8.666  -2.438  0.00  0.00     0.025 A 
ATOM     15  C   UNL d   1       6.006   7.711  -2.054  0.00  0.00     0.034 A 
ATOM     16  C   UNL d   1       5.589   6.531  -1.440  0.00  0.00     0.025 A 
ATOM     17 CL   UNL d   1       7.677   7.994  -2.338  0.00  0.00    -0.084 Cl
ATOM     18  C   UNL d   1       4.230   6.300  -1.211  0.00  0.00     0.021 A 
ENDBRANCH  11  12
ENDBRANCH   9  11
ENDBRANCH   7   9
ENDBRANCH   4   7
BRANCH   1  19
ATOM     19  C   UNL d   1       1.174  -0.038  -0.251  0.00  0.00     0.417 C 
ATOM     20  F   UNL d   1       0.810  -1.313  -0.559  0.00  0.00    -0.166 F 
ATOM     21  F   UNL d   1       0.637   0.221   0.972  0.00  0.00    -0.166 F 
ATOM     22  F   UNL d   1       2.523  -0.067  -0.074  0.00  0.00    -0.166 F 
ENDBRANCH   1  19
BRANCH   2  23
ATOM     23  C   UNL d   1      -1.599   1.270  -4.300  0.00  0.00     0.417 C 
ATOM     24  F   UNL d   1      -2.278   0.118  -4.048  0.00  0.00    -0.166 F 
ATOM     25  F   UNL d   1      -2.546   2.242  -4.415  0.00  0.00    -0.166 F 
ATOM     26  F   UNL d   1      -1.055   1.128  -5.538  0.00  0.00    -0.166 F 
ENDBRANCH   2  23
TORSDOF 6
