REMARK  3 active torsions:
REMARK  status: ('A' for Active; 'I' for Inactive)
REMARK    1  A    between atoms: N_6  and  C_1 
REMARK    2  A    between atoms: N_4  and  C_7 
REMARK    3  A    between atoms: C_11  and  N_6 
ROOT
ATOM      1  N   UNL d   1       0.911  -2.550   1.342  0.00  0.00    -0.248 NA
ATOM      2  H   UNL d   1       0.123  -3.180   1.454  0.00  0.00     0.132 HD
ENDROOT
BRANCH   1   3
ATOM      3  C   UNL d   1       0.826  -1.823   0.087  0.00  0.00     0.245 A 
ATOM      4  O   UNL d   1       1.915  -0.881  -0.013  0.00  0.00    -0.291 OA
ATOM      5  C   UNL d   1       1.481   0.408  -0.013  0.00  0.00     0.295 A 
ATOM      6  O   UNL d   1       2.170   1.403  -0.071  0.00  0.00    -0.259 OA
ATOM      7  C   UNL d   1       0.034   0.369   0.028  0.00  0.00     0.049 A 
ATOM      8  C   UNL d   1      -0.375  -0.947   0.074  0.00  0.00     0.002 A 
ATOM      9  C   UNL d   1      -0.850   1.433  -0.006  0.00  0.00     0.018 A 
ATOM     10  C   UNL d   1      -1.726  -1.253   0.074  0.00  0.00     0.012 A 
ATOM     11  C   UNL d   1      -2.648  -0.199   0.037  0.00  0.00     0.001 A 
ATOM     12  C   UNL d   1      -2.212   1.138   0.003  0.00  0.00     0.001 A 
ENDBRANCH   1   3
BRANCH   1  13
ATOM     13  C   UNL d   1       2.074  -3.329   1.437  0.00  0.00     0.082 A 
ATOM     14  N   UNL d   1       2.655  -3.798   0.316  0.00  0.00    -0.354 N 
ATOM     15  C   UNL d   1       3.770  -4.561   0.442  0.00  0.00     0.125 A 
ATOM     16  HN  UNL d   1       2.267  -3.586  -0.603  1.00  0.00     0.166 HD
ATOM     17  C   UNL d   1       4.319  -4.898   1.666  0.00  0.00     0.118 A 
ATOM     18  C   UNL d   1       3.701  -4.441   2.828  0.00  0.00     0.041 A 
ATOM     19  C   UNL d   1       2.550  -3.659   2.706  0.00  0.00     0.045 A 
BRANCH  17  20
ATOM     20  N   UNL d   1       5.510  -5.732   1.717  0.00  0.00    -0.114 N 
ATOM     21  O   UNL d   1       5.983  -6.127   0.642  0.00  0.00    -0.532 OA
ATOM     22  O   UNL d   1       5.973  -6.004   2.833  0.00  0.00    -0.532 OA
ENDBRANCH  17  20
ENDBRANCH   1  13
TORSDOF 3
