REMARK  5 active torsions:
REMARK  status: ('A' for Active; 'I' for Inactive)
REMARK    1  A    between atoms: C_12  and  C_2 
REMARK    2  A    between atoms: C_16  and  C_10 
REMARK    3  A    between atoms: C_13  and  C_11 
REMARK    4  A    between atoms: O_25  and  C_15 
REMARK    5  A    between atoms: O_29  and  C_17 
ROOT
ATOM      1  N   UNL d   1       0.303   0.630   0.061  0.00  0.00    -0.235 N 
ATOM      2  C   UNL d   1      -0.815   1.453   0.052  0.00  0.00     0.144 A 
ATOM      3  C   UNL d   1       0.154  -0.760   0.060  0.00  0.00     0.130 A 
ATOM      4  N   UNL d   1       1.609   0.971   0.057  0.00  0.00    -0.291 N 
ATOM      5  HN  UNL d   1       1.994   1.916   0.070  1.00  0.00     0.187 HD
ATOM      6  N   UNL d   1      -1.065  -1.371   0.083  0.00  0.00    -0.340 N 
ATOM      7  HN  UNL d   1      -1.152  -2.387   0.084  1.00  0.00     0.167 HD
ATOM      8  C   UNL d   1      -2.046   0.898   0.055  0.00  0.00     0.067 A 
ATOM      9  C   UNL d   1       1.422  -1.283   0.038  0.00  0.00     0.082 A 
ATOM     10  C   UNL d   1       2.302  -0.177   0.031  0.00  0.00     0.062 A 
ATOM     11  C   UNL d   1      -2.112  -0.598   0.104  0.00  0.00     0.046 A 
ENDROOT
BRANCH  11  12
ATOM     12  C   UNL d   1      -3.467  -1.221   0.177  0.00  0.00    -0.006 A 
ATOM     13  C   UNL d   1      -3.651  -2.502  -0.370  0.00  0.00     0.053 A 
ATOM     14  C   UNL d   1      -4.891  -3.156  -0.296  0.00  0.00     0.102 A 
ATOM     15  C   UNL d   1      -5.966  -2.501   0.332  0.00  0.00     0.101 A 
ATOM     16  C   UNL d   1      -5.768  -1.227   0.886  0.00  0.00     0.040 A 
ATOM     17  C   UNL d   1      -4.530  -0.591   0.821  0.00  0.00     0.016 A 
BRANCH  14  18
ATOM     18  O   UNL d   1      -5.104  -4.410  -0.803  0.00  0.00    -0.353 OA
ATOM     19  C   UNL d   1      -4.022  -5.091  -1.423  0.00  0.00     0.210 C 
ENDBRANCH  14  18
BRANCH  15  20
ATOM     20  O   UNL d   1      -7.254  -2.933   0.507  0.00  0.00    -0.353 OA
ATOM     21  C   UNL d   1      -7.625  -4.214   0.022  0.00  0.00     0.210 C 
ENDBRANCH  15  20
ENDBRANCH  11  12
BRANCH   2  22
ATOM     22  C   UNL d   1      -0.632   2.925   0.022  0.00  0.00     0.434 C 
ATOM     23  F   UNL d   1       0.638   3.388  -0.007  0.00  0.00    -0.165 F 
ATOM     24  F   UNL d   1      -1.259   3.463  -1.061  0.00  0.00    -0.165 F 
ATOM     25  F   UNL d   1      -1.223   3.498   1.108  0.00  0.00    -0.165 F 
ENDBRANCH   2  22
BRANCH  10  26
ATOM     26  C   UNL d   1       3.768  -0.181  -0.007  0.00  0.00    -0.008 A 
ATOM     27  C   UNL d   1       4.484   1.026  -0.000  0.00  0.00     0.014 A 
ATOM     28  C   UNL d   1       5.880   1.033  -0.057  0.00  0.00     0.007 A 
ATOM     29  C   UNL d   1       6.592  -0.168  -0.122  0.00  0.00    -0.062 A 
ATOM     30  C   UNL d   1       5.887  -1.375  -0.122  0.00  0.00     0.007 A 
ATOM     31  C   UNL d   1       8.089  -0.150  -0.199  0.00  0.00     0.048 C 
ATOM     32  C   UNL d   1       4.490  -1.382  -0.065  0.00  0.00     0.014 A 
ENDBRANCH  10  26
TORSDOF 5
