REMARK  3 active torsions:
REMARK  status: ('A' for Active; 'I' for Inactive)
REMARK    1  A    between atoms: N_3  and  S_1 
REMARK    2  A    between atoms: C_7  and  S_1 
REMARK    3  A    between atoms: C_6  and  N_3 
ROOT
ATOM      1  C   UNL d   1       0.403  -2.723   3.902  0.00  0.00     0.079 A 
ATOM      2  N   UNL d   1       3.370  -4.578   7.938  0.00  0.00    -0.191 NA
ATOM      3  C   UNL d   1       2.707  -4.165   7.060  0.00  0.00     0.099 C 
ATOM      4  C   UNL d   1       0.974  -1.814   4.799  0.00  0.00     0.027 A 
ATOM      5  C   UNL d   1       0.553  -4.101   4.055  0.00  0.00     0.027 A 
ATOM      6  C   UNL d   1       1.923  -3.673   5.998  0.00  0.00     0.044 A 
ATOM      7  C   UNL d   1       1.322  -4.576   5.107  0.00  0.00     0.024 A 
ATOM      8  C   UNL d   1       1.744  -2.289   5.849  0.00  0.00     0.024 A 
ENDROOT
BRANCH   1   9
ATOM      9  S   UNL d   1      -0.530  -2.130   2.524  0.00  0.00     0.259 S 
ATOM     10  O   UNL d   1      -1.361  -3.206   2.077  0.00  0.00    -0.201 OA
ATOM     11  O   UNL d   1      -1.079  -0.863   2.930  0.00  0.00    -0.201 OA
BRANCH   9  12
ATOM     12  N   UNL d   1       0.738  -1.773   1.514  0.00  0.00    -0.310 N 
ATOM     13  H   UNL d   1       0.843  -0.759   1.487  0.00  0.00     0.172 HD
BRANCH  12  14
ATOM     14  C   UNL d   1       1.369  -2.471   0.363  0.00  0.00     0.097 C 
ATOM     15  C   UNL d   1       1.067  -4.014  -0.012  0.00  0.00     0.061 C 
ATOM     16  C   UNL d   1      -0.127  -4.319  -1.022  0.00  0.00     0.225 C 
ATOM     17  C   UNL d   1      -0.107  -4.240  -2.632  0.00  0.00     0.038 C 
ATOM     18  N   UNL d   1      -0.809  -3.074  -0.764  0.00  0.00     0.093 N 
ATOM     19  C   UNL d   1      -0.361  -2.722  -2.999  0.00  0.00     0.038 C 
ATOM     20  C   UNL d   1      -0.031  -2.159  -1.650  0.00  0.00     0.225 C 
ATOM     21  C   UNL d   1       1.084  -1.498  -0.834  0.00  0.00     0.061 C 
ATOM     22  C   UNL d   1      -2.247  -3.243  -0.829  0.00  0.00     0.310 C 
ENDBRANCH  12  14
ENDBRANCH   9  12
ENDBRANCH   1   9
TORSDOF 3
