REMARK  6 active torsions:
REMARK  status: ('A' for Active; 'I' for Inactive)
REMARK    1  A    between atoms: C_4  and  C_1 
REMARK    2  A    between atoms: O_6  and  C_2 
REMARK    3  A    between atoms: C_3  and  C_5 
REMARK    4  A    between atoms: N_18  and  C_4 
REMARK    5  A    between atoms: C_14  and  O_6 
REMARK    6  A    between atoms: O_19  and  N_11 
ROOT
ATOM      1  C   UNL d   1      -4.941  -2.979   0.205  0.00  0.00     0.124 A 
ATOM      2  C   UNL d   1      -3.644  -3.380  -0.096  0.00  0.00     0.178 A 
ATOM      3  N   UNL d   1      -5.356  -1.673   0.064  0.00  0.00    -0.358 N 
ATOM      4  HN  UNL d   1      -6.305  -1.378   0.292  1.00  0.00     0.165 HD
ATOM      5  N   UNL d   1      -2.744  -2.490  -0.618  0.00  0.00    -0.343 N 
ATOM      6  HN  UNL d   1      -1.809  -2.782  -0.901  1.00  0.00     0.167 HD
ATOM      7  C   UNL d   1      -4.426  -0.808  -0.394  0.00  0.00     0.105 A 
ATOM      8  C   UNL d   1      -3.152  -1.210  -0.739  0.00  0.00     0.107 A 
ENDROOT
BRANCH   2   9
ATOM      9  O   UNL d   1      -3.223  -4.689   0.111  0.00  0.00    -0.291 OA
BRANCH   9  10
ATOM     10  C   UNL d   1      -1.862  -4.908   0.180  0.00  0.00     0.078 A 
ATOM     11  C   UNL d   1      -1.003  -4.075   0.906  0.00  0.00     0.053 A 
ATOM     12  C   UNL d   1       0.386  -4.240   0.836  0.00  0.00     0.050 A 
ATOM     13  C   UNL d   1       0.900  -5.337   0.129  0.00  0.00     0.016 A 
ATOM     14  C   UNL d   1       0.038  -6.227  -0.520  0.00  0.00     0.004 A 
ATOM     15  C   UNL d   1      -1.342  -6.008  -0.503  0.00  0.00     0.037 A 
BRANCH  12  16
ATOM     16  C   UNL d   1       1.305  -3.219   1.456  0.00  0.00     0.417 C 
ATOM     17  F   UNL d   1       0.654  -2.138   1.974  0.00  0.00    -0.166 F 
ATOM     18  F   UNL d   1       2.049  -3.728   2.475  0.00  0.00    -0.166 F 
ATOM     19  F   UNL d   1       2.198  -2.711   0.559  0.00  0.00    -0.166 F 
ENDBRANCH  12  16
ENDBRANCH   9  10
ENDBRANCH   2   9
BRANCH   1  20
ATOM     20  C   UNL d   1      -6.033  -3.877   0.711  0.00  0.00     0.129 C 
ATOM     21  N   UNL d   1      -5.758  -5.023   1.268  0.00  0.00    -0.256 N 
ATOM     22  HN  UNL d   1      -4.820  -5.410   1.369  1.00  0.00     0.195 HD
BRANCH  21  23
ATOM     23  O   UNL d   1      -6.938  -5.650   1.711  0.00  0.00    -0.288 OA
ATOM     24  H   UNL d   1      -6.608  -6.508   2.034  0.00  0.00     0.244 HD
ENDBRANCH  21  23
BRANCH  20  25
ATOM     25  N   UNL d   1      -7.328  -3.408   0.591  0.00  0.00    -0.285 NA
ATOM     26  H   UNL d   1      -7.396  -2.395   0.576  0.00  0.00     0.125 HD
ATOM     27  H   UNL d   1      -7.958  -3.876   1.236  0.00  0.00     0.125 HD
ENDBRANCH  20  25
ENDBRANCH   1  20
TORSDOF 6
