REMARK  7 active torsions:
REMARK  status: ('A' for Active; 'I' for Inactive)
REMARK    1  A    between atoms: C_7  and  N_1 
REMARK    2  A    between atoms: S_8  and  C_2 
REMARK    3  A    between atoms: C_16  and  S_8 
REMARK    4  A    between atoms: C_13  and  C_16 
REMARK    5  A    between atoms: O_17  and  C_20 
REMARK    6  A    between atoms: C_23  and  O_17 
REMARK    7  A    between atoms: C_26  and  C_23 
ROOT
ATOM      1  N   UNL d   1       0.956  -0.725  -0.076  0.00  0.00    -0.241 N 
ATOM      2  C   UNL d   1       0.913   0.634  -0.020  0.00  0.00     0.170 A 
ATOM      3  C   UNL d   1      -0.360  -1.129  -0.171  0.00  0.00     0.347 A 
ATOM      4  N   UNL d   1      -0.292   1.133  -0.041  0.00  0.00    -0.275 N 
ATOM      5  HN  UNL d   1      -0.564   2.116   0.005  1.00  0.00     0.189 HD
ATOM      6  N   UNL d   1      -1.108   0.043  -0.139  0.00  0.00    -0.249 N 
ATOM      7  O   UNL d   1      -0.824  -2.256  -0.221  0.00  0.00    -0.245 OA
ATOM      8  H   UNL d   1      -2.118   0.105  -0.128  0.00  0.00     0.192 HD
ENDROOT
BRANCH   1   9
ATOM      9  C   UNL d   1       2.034  -1.608   0.009  0.00  0.00     0.046 A 
ATOM     10  C   UNL d   1       2.220  -2.554  -1.002  0.00  0.00     0.033 A 
ATOM     11  C   UNL d   1       3.385  -3.318  -1.031  0.00  0.00     0.039 A 
ATOM     12  C   UNL d   1       4.334  -3.193  -0.017  0.00  0.00     0.069 A 
ATOM     13  C   UNL d   1       4.114  -2.301   1.034  0.00  0.00     0.039 A 
ATOM     14  C   UNL d   1       2.965  -1.508   1.046  0.00  0.00     0.033 A 
BRANCH  12  15
ATOM     15  O   UNL d   1       5.444  -3.973  -0.173  0.00  0.00    -0.347 OA
BRANCH  15  16
ATOM     16  C   UNL d   1       6.225  -4.184   1.000  0.00  0.00     0.214 C 
BRANCH  16  17
ATOM     17  C   UNL d   1       7.122  -5.367   0.757  0.00  0.00    -0.034 A 
ATOM     18  C   UNL d   1       8.469  -5.192   0.410  0.00  0.00     0.009 A 
ATOM     19  C   UNL d   1       9.288  -6.300   0.200  0.00  0.00     0.001 A 
ATOM     20  C   UNL d   1       8.768  -7.588   0.325  0.00  0.00     0.000 A 
ATOM     21  C   UNL d   1       7.424  -7.770   0.647  0.00  0.00     0.001 A 
ATOM     22  C   UNL d   1       6.602  -6.667   0.857  0.00  0.00     0.009 A 
ENDBRANCH  16  17
ENDBRANCH  15  16
ENDBRANCH  12  15
ENDBRANCH   1   9
BRANCH   2  23
ATOM     23  S   UNL d   1       2.267   1.708   0.054  0.00  0.00    -0.087 SA
BRANCH  23  24
ATOM     24  C   UNL d   1       3.542   1.070  -1.044  0.00  0.00     0.121 C 
BRANCH  24  25
ATOM     25  C   UNL d   1       3.196   0.589  -2.432  0.00  0.00    -0.045 A 
ATOM     26  C   UNL d   1       2.192   1.165  -3.225  0.00  0.00     0.031 A 
ATOM     27  C   UNL d   1       1.977   0.708  -4.532  0.00  0.00     0.036 A 
ATOM     28 CL   UNL d   1       0.743   1.433  -5.488  0.00  0.00    -0.084 Cl
ATOM     29  C   UNL d   1       2.756  -0.309  -5.079  0.00  0.00     0.047 A 
ATOM     30  C   UNL d   1       3.768  -0.866  -4.311  0.00  0.00     0.036 A 
ATOM     31  C   UNL d   1       3.998  -0.417  -3.009  0.00  0.00     0.031 A 
ATOM     32 CL   UNL d   1       4.755  -2.114  -4.966  0.00  0.00    -0.084 Cl
ENDBRANCH  24  25
ENDBRANCH  23  24
ENDBRANCH   2  23
TORSDOF 7
