REMARK  7 active torsions:
REMARK  status: ('A' for Active; 'I' for Inactive)
REMARK    1  A    between atoms: C_7  and  C_1 
REMARK    2  A    between atoms: C_6  and  C_2 
REMARK    3  A    between atoms: S_3  and  C_5 
REMARK    4  A    between atoms: C_4  and  S_3 
REMARK    5  A    between atoms: O_10  and  C_6 
REMARK    6  A    between atoms: O_11  and  C_7 
REMARK    7  A    between atoms: C_16  and  O_11 
ROOT
ATOM      1  C   UNL d   1       1.402  -0.299  -0.349  0.00  0.00     0.056 A 
ATOM      2  C   UNL d   1       0.528  -1.399  -0.310  0.00  0.00     0.021 A 
ATOM      3  C   UNL d   1       0.904   1.015  -0.334  0.00  0.00     0.019 A 
ATOM      4  C   UNL d   1      -0.851  -1.142  -0.230  0.00  0.00     0.020 A 
ATOM      5  C   UNL d   1      -0.468   1.246  -0.253  0.00  0.00     0.001 A 
ATOM      6  C   UNL d   1      -1.345   0.166  -0.205  0.00  0.00     0.001 A 
ENDROOT
BRANCH   2   7
ATOM      7  S   UNL d   1       1.047  -3.108  -0.235  0.00  0.00    -0.088 SA
BRANCH   7   8
ATOM      8  C   UNL d   1       1.144  -3.590  -1.958  0.00  0.00     0.021 A 
ATOM      9  C   UNL d   1       0.096  -4.149  -2.719  0.00  0.00     0.056 A 
ATOM     10  C   UNL d   1       0.366  -4.607  -4.028  0.00  0.00     0.019 A 
ATOM     11  C   UNL d   1       1.644  -4.518  -4.579  0.00  0.00     0.001 A 
ATOM     12  C   UNL d   1       2.673  -3.960  -3.834  0.00  0.00     0.001 A 
ATOM     13  C   UNL d   1       2.425  -3.502  -2.539  0.00  0.00     0.020 A 
BRANCH   9  14
ATOM     14  C   UNL d   1      -1.287  -4.341  -2.182  0.00  0.00     0.294 C 
ATOM     15  O   UNL d   1      -1.593  -4.431  -1.005  0.00  0.00    -0.259 OA
BRANCH  14  16
ATOM     16  O   UNL d   1      -2.168  -4.409  -3.217  0.00  0.00    -0.322 OA
ATOM     17  C   UNL d   1      -3.519  -4.677  -2.835  0.00  0.00     0.213 C 
ENDBRANCH  14  16
ENDBRANCH   9  14
ENDBRANCH   7   8
ENDBRANCH   2   7
BRANCH   1  18
ATOM     18  C   UNL d   1       2.867  -0.437  -0.431  0.00  0.00     0.294 C 
ATOM     19  O   UNL d   1       3.531   0.035  -1.339  0.00  0.00    -0.259 OA
BRANCH  18  20
ATOM     20  O   UNL d   1       3.329  -1.053   0.682  0.00  0.00    -0.318 OA
BRANCH  20  21
ATOM     21  C   UNL d   1       4.750  -1.243   0.740  0.00  0.00     0.174 C 
ATOM     22  C   UNL d   1       5.418  -0.048   1.395  0.00  0.00     0.034 C 
ENDBRANCH  20  21
ENDBRANCH  18  20
ENDBRANCH   1  18
TORSDOF 7
