REMARK  4 active torsions:
REMARK  status: ('A' for Active; 'I' for Inactive)
REMARK    1  A    between atoms: C_6  and  C_3 
REMARK    2  A    between atoms: N_8  and  C_4 
REMARK    3  A    between atoms: C_11  and  N_8 
REMARK    4  A    between atoms: C_13  and  C_11 
ROOT
ATOM      1  N   UNL d   1       1.360  -0.692  -0.283  0.00  0.00    -0.336 N 
ATOM      2  HN  UNL d   1       2.180  -1.204  -0.609  1.00  0.00     0.168 HD
ATOM      3  C   UNL d   1       1.221   0.689  -0.322  0.00  0.00     0.052 A 
ATOM      4  C   UNL d   1       0.289  -1.245   0.230  0.00  0.00     0.144 A 
ATOM      5  S   UNL d   1      -0.894  -0.134   0.813  0.00  0.00    -0.064 SA
ATOM      6  C   UNL d   1       0.093   1.167   0.315  0.00  0.00     0.083 A 
ENDROOT
BRANCH   4   7
ATOM      7  N   UNL d   1       0.031  -2.570   0.331  0.00  0.00    -0.368 N 
ATOM      8  H   UNL d   1      -0.872  -2.850  -0.043  0.00  0.00     0.161 HD
BRANCH   7   9
ATOM      9  C   UNL d   1       1.075  -3.544   0.033  0.00  0.00     0.153 C 
BRANCH   9  10
ATOM     10  C   UNL d   1       0.462  -4.946   0.170  0.00  0.00     0.139 C 
ATOM     11  O   UNL d   1      -0.496  -5.180  -0.891  0.00  0.00    -0.384 OA
ATOM     12  C   UNL d   1      -0.348  -6.537  -1.337  0.00  0.00     0.168 C 
ATOM     13  C   UNL d   1       0.563  -7.225  -0.343  0.00  0.00     0.029 C 
ATOM     14  C   UNL d   1       1.458  -6.088   0.093  0.00  0.00     0.035 C 
ENDBRANCH   9  10
ENDBRANCH   7   9
ENDBRANCH   4   7
BRANCH   3  15
ATOM     15  C   UNL d   1       2.183   1.567  -0.991  0.00  0.00     0.013 A 
ATOM     16  C   UNL d   1       2.752   1.263  -2.242  0.00  0.00     0.046 A 
ATOM     17 CL   UNL d   1       2.374  -0.172  -3.138  0.00  0.00    -0.083 Cl
ATOM     18  C   UNL d   1       3.629   2.166  -2.861  0.00  0.00     0.025 A 
ATOM     19  C   UNL d   1       3.943   3.381  -2.254  0.00  0.00     0.002 A 
ATOM     20  C   UNL d   1       3.387   3.699  -1.022  0.00  0.00     0.001 A 
ATOM     21  C   UNL d   1       2.520   2.798  -0.393  0.00  0.00     0.015 A 
ENDBRANCH   3  15
TORSDOF 4
