REMARK  5 active torsions:
REMARK  status: ('A' for Active; 'I' for Inactive)
REMARK    1  A    between atoms: C_9  and  N_3 
REMARK    2  A    between atoms: C_11  and  C_4 
REMARK    3  A    between atoms: C_8  and  C_12 
REMARK    4  A    between atoms: C_10  and  C_9 
REMARK       I    between atoms: N_14  and  C_10 
REMARK    5  A    between atoms: C_19  and  N_14 
ROOT
ATOM      1  N   UNL d   1      -0.350  -0.677   0.705  0.00  0.00    -0.268 N 
ATOM      2  HN  UNL d   1      -0.632  -1.607   1.013  1.00  0.00     0.190 HD
ATOM      3  N   UNL d   1       0.890  -0.174   0.478  0.00  0.00    -0.207 N 
ATOM      4  C   UNL d   1      -1.103   0.406   0.408  0.00  0.00     0.144 A 
ATOM      5  N   UNL d   1      -0.346   1.490   0.036  0.00  0.00    -0.266 N 
ATOM      6  HN  UNL d   1      -0.694   2.412  -0.225  1.00  0.00     0.186 HD
ATOM      7  N   UNL d   1       0.918   1.112   0.080  0.00  0.00    -0.002 NA
ENDROOT
BRANCH   3   8
ATOM      8  C   UNL d   1       2.047  -1.004   0.226  0.00  0.00     0.270 C 
BRANCH   8   9
ATOM      9  C   UNL d   1       2.318  -2.168   1.146  0.00  0.00     0.243 C 
ATOM     10  N   UNL d   1       1.258  -2.732   1.830  0.00  0.00    -0.326 N 
ATOM     11  H   UNL d   1       0.335  -2.324   1.676  0.00  0.00     0.169 HD
ATOM     12  O   UNL d   1       3.468  -2.614   1.153  0.00  0.00    -0.271 OA
BRANCH  10  13
ATOM     13  C   UNL d   1       1.309  -3.892   2.646  0.00  0.00     0.035 A 
ATOM     14  C   UNL d   1       2.494  -4.551   2.994  0.00  0.00     0.032 A 
ATOM     15  C   UNL d   1       2.472  -5.719   3.764  0.00  0.00     0.044 A 
ATOM     16  C   UNL d   1       1.261  -6.223   4.201  0.00  0.00     0.116 A 
ATOM     17  C   UNL d   1       0.069  -5.578   3.892  0.00  0.00     0.044 A 
ATOM     18  F   UNL d   1       1.234  -7.354   4.922  0.00  0.00    -0.206 F 
ATOM     19  C   UNL d   1       0.093  -4.407   3.124  0.00  0.00     0.032 A 
ENDBRANCH  10  13
ENDBRANCH   8   9
ENDBRANCH   3   8
BRANCH   4  20
ATOM     20  C   UNL d   1      -2.560   0.448   0.403  0.00  0.00     0.011 A 
ATOM     21  C   UNL d   1      -3.320  -0.547   1.030  0.00  0.00     0.031 A 
ATOM     22  C   UNL d   1      -4.725  -0.520   0.990  0.00  0.00     0.048 A 
ATOM     23  C   UNL d   1      -5.369   0.524   0.304  0.00  0.00     0.016 A 
ATOM     24  C   UNL d   1      -4.622   1.525  -0.315  0.00  0.00     0.002 A 
ATOM     25  C   UNL d   1      -3.230   1.487  -0.266  0.00  0.00     0.015 A 
BRANCH  22  26
ATOM     26  C   UNL d   1      -5.546  -1.602   1.646  0.00  0.00     0.417 C 
ATOM     27  F   UNL d   1      -4.798  -2.502   2.344  0.00  0.00    -0.166 F 
ATOM     28  F   UNL d   1      -6.454  -1.106   2.531  0.00  0.00    -0.166 F 
ATOM     29  F   UNL d   1      -6.259  -2.331   0.743  0.00  0.00    -0.166 F 
ENDBRANCH  22  26
ENDBRANCH   4  20
TORSDOF 5
