REMARK  4 active torsions:
REMARK  status: ('A' for Active; 'I' for Inactive)
REMARK    1  A    between atoms: C_5  and  C_1 
REMARK    2  A    between atoms: N_3  and  C_2 
REMARK       I    between atoms: C_4  and  N_3 
REMARK    3  A    between atoms: C_9  and  C_4 
REMARK    4  A    between atoms: O_10  and  C_5 
ROOT
ATOM      1  C   UNL d   1       1.059  -0.041  -0.091  0.00  0.00     0.070 A 
ATOM      2  C   UNL d   1       0.389   1.202  -0.203  0.00  0.00     0.052 A 
ATOM      3  C   UNL d   1       0.312  -1.242  -0.016  0.00  0.00    -0.043 A 
ATOM      4  C   UNL d   1      -1.012   1.229  -0.187  0.00  0.00     0.030 A 
ATOM      5  C   UNL d   1      -1.748   0.053  -0.088  0.00  0.00     0.003 A 
ATOM      6  C   UNL d   1      -1.093  -1.170  -0.013  0.00  0.00     0.008 A 
ATOM      7  C   UNL d   1       0.905  -2.625   0.030  0.00  0.00     0.049 C 
ENDROOT
BRANCH   2   8
ATOM      8  N   UNL d   1       1.114   2.418  -0.318  0.00  0.00    -0.326 N 
ATOM      9  C   UNL d   1       0.703   3.509  -1.071  0.00  0.00     0.226 C 
ATOM     10  O   UNL d   1      -0.299   3.483  -1.796  0.00  0.00    -0.273 OA
ATOM     11  H   UNL d   1       2.078   2.382   0.002  0.00  0.00     0.169 HD
BRANCH   9  12
ATOM     12  C   UNL d   1       1.584   4.769  -1.010  0.00  0.00     0.078 C 
ATOM     13  C   UNL d   1       2.610   4.971  -2.156  0.00  0.00     0.014 C 
ATOM     14  C   UNL d   1       3.494   5.725  -1.147  0.00  0.00     0.002 C 
ATOM     15  C   UNL d   1       2.771   4.943  -0.031  0.00  0.00     0.014 C 
ENDBRANCH   9  12
ENDBRANCH   2   8
BRANCH   1  16
ATOM     16  C   UNL d   1       2.543  -0.094  -0.177  0.00  0.00     0.179 C 
ATOM     17  O   UNL d   1       3.219  -0.905  -0.775  0.00  0.00    -0.646 OA
BRANCH  16  18
ATOM     18  O   UNL d   1       3.133   0.894   0.536  0.00  0.00    -0.773 OA
ATOM     19  H   UNL d   1       4.090   0.679   0.449  0.00  0.00     0.167 HD
ENDBRANCH  16  18
ENDBRANCH   1  16
TORSDOF 4
