REMARK  3 active torsions:
REMARK  status: ('A' for Active; 'I' for Inactive)
REMARK    1  A    between atoms: N_7  and  C_1 
REMARK    2  A    between atoms: C_11  and  C_5 
REMARK    3  A    between atoms: C_6  and  N_7 
ROOT
ATOM      1  C   UNL d   1       0.307  -1.121   0.082  0.00  0.00     0.149 A 
ATOM      2  S   UNL d   1      -1.037  -0.042   0.206  0.00  0.00    -0.052 SA
ATOM      3  N   UNL d   1       1.480  -0.529   0.091  0.00  0.00    -0.345 N 
ATOM      4  HN  UNL d   1       2.378  -1.013   0.106  1.00  0.00     0.167 HD
ATOM      5  C   UNL d   1       0.022   1.308   0.114  0.00  0.00     0.034 A 
ATOM      6  C   UNL d   1       1.323   0.838   0.077  0.00  0.00     0.110 A 
ENDROOT
BRANCH   1   7
ATOM      7  N   UNL d   1       0.093  -2.451  -0.040  0.00  0.00    -0.336 N 
ATOM      8  H   UNL d   1      -0.867  -2.768   0.008  0.00  0.00     0.168 HD
BRANCH   7   9
ATOM      9  C   UNL d   1       0.918  -3.373  -0.733  0.00  0.00     0.046 A 
ATOM     10  C   UNL d   1       1.022  -4.689  -0.204  0.00  0.00    -0.034 A 
ATOM     11  C   UNL d   1       1.781  -5.667  -0.877  0.00  0.00     0.015 A 
ATOM     12  C   UNL d   1       0.360  -5.117   1.082  0.00  0.00     0.050 C 
ATOM     13  C   UNL d   1       2.441  -5.377  -2.064  0.00  0.00    -0.061 A 
ATOM     14  C   UNL d   1       2.341  -4.087  -2.587  0.00  0.00     0.015 A 
ATOM     15  C   UNL d   1       3.236  -6.428  -2.777  0.00  0.00     0.048 C 
ATOM     16  C   UNL d   1       1.577  -3.084  -1.951  0.00  0.00    -0.034 A 
ATOM     17  C   UNL d   1       1.498  -1.793  -2.728  0.00  0.00     0.050 C 
ENDBRANCH   7   9
ENDBRANCH   1   7
BRANCH   5  18
ATOM     18  C   UNL d   1      -0.457   2.695   0.141  0.00  0.00    -0.015 A 
ATOM     19  C   UNL d   1      -1.659   3.098  -0.464  0.00  0.00     0.052 A 
ATOM     20  C   UNL d   1      -2.074   4.438  -0.420  0.00  0.00     0.102 A 
ATOM     21  O   UNL d   1      -3.247   4.708  -1.084  0.00  0.00    -0.348 OA
ATOM     22  C   UNL d   1      -1.309   5.381   0.279  0.00  0.00     0.102 A 
ATOM     23  C   UNL d   1      -3.268   5.997  -1.704  0.00  0.00     0.178 C 
ATOM     24  C   UNL d   1      -3.705   7.079  -0.730  0.00  0.00     0.053 C 
ATOM     25  C   UNL d   1      -3.039   6.919   0.625  0.00  0.00     0.178 C 
ATOM     26  O   UNL d   1      -1.637   6.698   0.472  0.00  0.00    -0.348 OA
ATOM     27  C   UNL d   1      -0.095   5.000   0.842  0.00  0.00     0.040 A 
ATOM     28  C   UNL d   1       0.327   3.671   0.773  0.00  0.00     0.016 A 
ENDBRANCH   5  18
TORSDOF 3
