REMARK  6 active torsions:
REMARK  status: ('A' for Active; 'I' for Inactive)
REMARK    1  A    between atoms: N_10  and  C_1 
REMARK    2  A    between atoms: C_9  and  C_4 
REMARK    3  A    between atoms: C_8  and  C_5 
REMARK    4  A    between atoms: O_18  and  C_9 
REMARK    5  A    between atoms: C_17  and  N_10 
REMARK    6  A    between atoms: C_25  and  O_18 
ROOT
ATOM      1  C   UNL d   1       1.115  -0.859  -0.316  0.00  0.00     0.125 A 
ATOM      2  N   UNL d   1       1.236   0.492  -0.266  0.00  0.00    -0.327 N 
ATOM      3  HN  UNL d   1       2.151   0.931  -0.364  1.00  0.00     0.169 HD
ATOM      4  C   UNL d   1      -0.135  -1.449  -0.152  0.00  0.00     0.099 A 
ATOM      5  C   UNL d   1       0.139   1.247  -0.088  0.00  0.00     0.124 A 
ATOM      6  N   UNL d   1      -1.103   0.763   0.031  0.00  0.00    -0.350 N 
ATOM      7  HN  UNL d   1      -1.917   1.369   0.128  1.00  0.00     0.166 HD
ATOM      8  C   UNL d   1      -1.202  -0.580   0.014  0.00  0.00     0.111 A 
ENDROOT
BRANCH   1   9
ATOM      9  N   UNL d   1       2.286  -1.610  -0.578  0.00  0.00    -0.342 N 
ATOM     10  H   UNL d   1       2.289  -2.516  -0.125  0.00  0.00     0.167 HD
BRANCH   9  11
ATOM     11  C   UNL d   1       3.579  -1.146  -0.930  0.00  0.00     0.033 A 
ATOM     12  C   UNL d   1       3.799   0.073  -1.593  0.00  0.00     0.031 A 
ATOM     13  C   UNL d   1       5.085   0.500  -1.951  0.00  0.00     0.026 A 
ATOM     14  C   UNL d   1       6.181  -0.301  -1.663  0.00  0.00     0.034 A 
ATOM     15  C   UNL d   1       5.997  -1.519  -1.015  0.00  0.00     0.026 A 
ATOM     16 CL   UNL d   1       7.761   0.209  -2.114  0.00  0.00    -0.084 Cl
ATOM     17  C   UNL d   1       4.706  -1.938  -0.654  0.00  0.00     0.031 A 
ENDBRANCH   9  11
ENDBRANCH   1   9
BRANCH   4  18
ATOM     18  C   UNL d   1      -0.457  -2.878   0.007  0.00  0.00     0.298 C 
ATOM     19  O   UNL d   1      -1.336  -3.246   0.782  0.00  0.00    -0.259 OA
BRANCH  18  20
ATOM     20  O   UNL d   1       0.300  -3.697  -0.757  0.00  0.00    -0.318 OA
BRANCH  20  21
ATOM     21  C   UNL d   1       0.134  -5.106  -0.488  0.00  0.00     0.174 C 
ATOM     22  C   UNL d   1      -1.115  -5.717  -1.109  0.00  0.00     0.034 C 
ENDBRANCH  20  21
ENDBRANCH  18  20
ENDBRANCH   4  18
BRANCH   5  23
ATOM     23  C   UNL d   1       0.278   2.707  -0.039  0.00  0.00     0.049 A 
ATOM     24  S   UNL d   1       1.819   3.459   0.097  0.00  0.00    -0.098 SA
ATOM     25  C   UNL d   1       1.144   5.030   0.087  0.00  0.00     0.050 A 
ATOM     26  C   UNL d   1      -0.228   5.000  -0.012  0.00  0.00     0.009 A 
ATOM     27  C   UNL d   1      -0.724   3.666  -0.075  0.00  0.00     0.023 A 
ENDBRANCH   5  23
TORSDOF 6
