REMARK  4 active torsions:
REMARK  status: ('A' for Active; 'I' for Inactive)
REMARK    1  A    between atoms: C_3  and  CA_1 
REMARK    2  A    between atoms: N_4  and  CA_1 
REMARK    3  A    between atoms: C_5  and  C_2 
REMARK    4  A    between atoms: OXT_13  and  C_3 
REMARK       I    between atoms: C_6  and  N_4 
ROOT
ATOM      1  CA  UNL d   1       0.882  -0.063  -0.011  0.00  0.00     0.110 C 
ATOM      2  C   UNL d   1       0.362   0.832  -0.871  0.00  0.00     0.050 C 
ENDROOT
BRANCH   1   3
ATOM      3  C   UNL d   1       2.346  -0.080   0.313  0.00  0.00     0.193 C 
ATOM      4  O   UNL d   1       3.042   0.887   0.560  0.00  0.00    -0.645 OA
BRANCH   3   5
ATOM      5  OXT UNL d   1       2.789  -1.359   0.402  0.00  0.00    -0.772 OA
ATOM      6  HXT UNL d   1       2.173  -1.995  -0.014  0.00  0.00     0.167 HD
ENDBRANCH   3   5
ENDBRANCH   1   3
BRANCH   1   7
ATOM      7  N   UNL d   1       0.135  -1.014   0.684  0.00  0.00    -0.322 N 
ATOM      8  C   UNL d   1      -1.169  -1.408   0.449  0.00  0.00     0.218 C 
ATOM      9  O   UNL d   1      -1.852  -1.072  -0.512  0.00  0.00    -0.274 OA
ATOM     10  C   UNL d   1      -1.702  -2.374   1.473  0.00  0.00     0.117 C 
ATOM     11  H   UNL d   1       0.617  -1.449   1.468  0.00  0.00     0.169 HD
ENDBRANCH   1   7
BRANCH   2  12
ATOM     12  C   UNL d   1       0.996   1.839  -1.663  0.00  0.00    -0.010 A 
ATOM     13  C   UNL d   1       2.236   1.812  -2.257  0.00  0.00     0.152 A 
ATOM     14  O   UNL d   1       2.443   2.947  -2.977  0.00  0.00    -0.334 OA
ATOM     15  C   UNL d   1       1.328   3.709  -2.847  0.00  0.00     0.142 A 
ATOM     16  C   UNL d   1       0.401   3.067  -2.059  0.00  0.00     0.038 A 
ENDBRANCH   2  12
TORSDOF 4
