REMARK  6 active torsions:
REMARK  status: ('A' for Active; 'I' for Inactive)
REMARK    1  A    between atoms: C_7  and  S_1 
REMARK    2  A    between atoms: C_9  and  S_1 
REMARK    3  A    between atoms: C_4  and  S_17 
REMARK    4  A    between atoms: C_5  and  C_6 
REMARK    5  A    between atoms: C_21  and  C_9 
REMARK    6  A    between atoms: S_17  and  C_21 
ROOT
ATOM      1  N   UNL d   1       2.056   4.652   2.580  0.00  0.00    -0.336 N 
ATOM      2  HN  UNL d   1       2.247   3.652   2.506  1.00  0.00     0.168 HD
ATOM      3  C   UNL d   1       1.151   5.255   1.798  0.00  0.00     0.144 A 
ATOM      4  C   UNL d   1       2.700   5.434   3.471  0.00  0.00     0.052 A 
ATOM      5  N   UNL d   1       0.853   6.565   1.837  0.00  0.00    -0.347 N 
ATOM      6  HN  UNL d   1       0.149   6.973   1.222  1.00  0.00     0.167 HD
ATOM      7  C   UNL d   1       2.477   6.792   3.573  0.00  0.00     0.048 A 
ATOM      8  C   UNL d   1       1.529   7.308   2.727  0.00  0.00     0.092 A 
ENDROOT
BRANCH   3   9
ATOM      9  S   UNL d   1       0.256   4.275   0.618  0.00  0.00    -0.093 SA
BRANCH   9  10
ATOM     10  C   UNL d   1       1.000   2.625   0.894  0.00  0.00     0.097 C 
BRANCH  10  11
ATOM     11  C   UNL d   1       0.354   1.653  -0.073  0.00  0.00     0.156 C 
BRANCH  11  12
ATOM     12  S   UNL d   1       0.989   0.004   0.037  0.00  0.00     0.176 S 
ATOM     13  O   UNL d   1       0.225  -0.811  -0.889  0.00  0.00    -0.223 OA
ATOM     14  O   UNL d   1       2.436   0.065  -0.074  0.00  0.00    -0.223 OA
BRANCH  12  15
ATOM     15  C   UNL d   1       0.615  -0.608   1.670  0.00  0.00     0.059 A 
ATOM     16  C   UNL d   1      -0.588  -1.296   1.877  0.00  0.00     0.026 A 
ATOM     17  C   UNL d   1      -0.819  -1.934   3.098  0.00  0.00     0.044 A 
ATOM     18  C   UNL d   1       0.157  -1.897   4.088  0.00  0.00     0.116 A 
ATOM     19  C   UNL d   1       1.355  -1.215   3.891  0.00  0.00     0.044 A 
ATOM     20  F   UNL d   1      -0.052  -2.543   5.243  0.00  0.00    -0.206 F 
ATOM     21  C   UNL d   1       1.590  -0.565   2.676  0.00  0.00     0.026 A 
ENDBRANCH  12  15
ENDBRANCH  11  12
ENDBRANCH  10  11
ENDBRANCH   9  10
ENDBRANCH   3   9
BRANCH   4  22
ATOM     22  C   UNL d   1       3.653   4.712   4.323  0.00  0.00     0.031 A 
ATOM     23  S   UNL d   1       4.004   5.261   5.915  0.00  0.00    -0.100 SA
ATOM     24  C   UNL d   1       5.071   3.964   6.211  0.00  0.00     0.050 A 
ATOM     25  C   UNL d   1       5.169   3.119   5.130  0.00  0.00     0.008 A 
ATOM     26  C   UNL d   1       4.351   3.547   4.044  0.00  0.00     0.021 A 
ENDBRANCH   4  22
TORSDOF 6
