REMARK  3 active torsions:
REMARK  status: ('A' for Active; 'I' for Inactive)
REMARK    1  A    between atoms: O_4  and  C_1 
REMARK    2  A    between atoms: C_9  and  O_4 
REMARK    3  A    between atoms: C_11  and  C_9 
ROOT
ATOM      1  O   UNL d   1       2.416  -1.447   0.011  0.00  0.00    -0.340 OA
ENDROOT
BRANCH   1   2
ATOM      2  C   UNL d   1       1.186  -0.854  -0.235  0.00  0.00     0.148 A 
ATOM      3  C   UNL d   1       1.142   0.426  -0.663  0.00  0.00     0.086 A 
ATOM      4  O   UNL d   1      -0.034   1.119  -0.911  0.00  0.00    -0.324 OA
ATOM      5  C   UNL d   1       2.362   1.255  -0.941  0.00  0.00     0.079 C 
ATOM      6  C   UNL d   1      -1.229   0.468  -0.761  0.00  0.00     0.146 A 
ATOM      7  C   UNL d   1      -1.355  -0.799  -0.379  0.00  0.00     0.082 A 
ATOM      8  C   UNL d   1      -0.132  -1.565  -0.069  0.00  0.00     0.209 A 
ATOM      9  O   UNL d   1      -0.247  -2.729   0.294  0.00  0.00    -0.285 OA
ENDBRANCH   1   2
BRANCH   1  10
ATOM     10  C   UNL d   1       2.429  -2.800   0.468  0.00  0.00     0.214 C 
BRANCH  10  11
ATOM     11  C   UNL d   1       3.854  -3.278   0.649  0.00  0.00    -0.034 A 
ATOM     12  C   UNL d   1       4.888  -2.408   1.025  0.00  0.00     0.011 A 
ATOM     13  C   UNL d   1       6.199  -2.876   1.145  0.00  0.00     0.024 A 
ATOM     14  C   UNL d   1       6.480  -4.221   0.911  0.00  0.00     0.034 A 
ATOM     15  C   UNL d   1       5.457  -5.108   0.589  0.00  0.00     0.024 A 
ATOM     16 CL   UNL d   1       8.101  -4.787   1.008  0.00  0.00    -0.084 Cl
ATOM     17  C   UNL d   1       4.147  -4.640   0.468  0.00  0.00     0.011 A 
ENDBRANCH  10  11
ENDBRANCH   1  10
TORSDOF 3
