REMARK  8 active torsions:
REMARK  status: ('A' for Active; 'I' for Inactive)
REMARK    1  A    between atoms: N_6  and  C_1 
REMARK    2  A    between atoms: C_2  and  C_3 
REMARK    3  A    between atoms: C_8  and  C_14 
REMARK    4  A    between atoms: C_14  and  N_10 
REMARK    5  A    between atoms: O_27  and  C_11 
REMARK    6  A    between atoms: O_25  and  C_21 
REMARK    7  A    between atoms: C_28  and  O_25 
REMARK    8  A    between atoms: C_29  and  C_28 
ROOT
ATOM      1  N   UNL d   1       2.864   4.753   3.032  0.00  0.00    -0.265 NA
ATOM      2  N   UNL d   1       2.542   4.441   0.124  0.00  0.00     0.095 N 
ATOM      3  C   UNL d   1       1.531   4.894   2.433  0.00  0.00     0.127 C 
ATOM      4  C   UNL d   1       3.913   5.288   2.146  0.00  0.00     0.127 C 
ATOM      5  C   UNL d   1       3.866   4.536   0.786  0.00  0.00     0.287 C 
ATOM      6  C   UNL d   1       1.500   4.088   1.113  0.00  0.00     0.287 C 
ENDROOT
BRANCH   2   7
ATOM      7  C   UNL d   1       2.178   5.619  -0.670  0.00  0.00     0.314 C 
BRANCH   7   8
ATOM      8  C   UNL d   1       3.000   5.833  -1.931  0.00  0.00     0.003 C 
ATOM      9  C   UNL d   1       3.413   4.806  -2.791  0.00  0.00     0.078 C 
ATOM     10  C   UNL d   1       4.277   5.054  -3.864  0.00  0.00     0.074 C 
ATOM     11  C   UNL d   1       4.624   6.359  -4.202  0.00  0.00     0.071 C 
ATOM     12  C   UNL d   1       4.086   7.407  -3.457  0.00  0.00     0.037 C 
ATOM     13  C   UNL d   1       3.306   7.146  -2.321  0.00  0.00     0.014 C 
BRANCH   9  14
ATOM     14  O   UNL d   1       2.961   3.518  -2.658  0.00  0.00    -0.355 OA
ATOM     15  C   UNL d   1       1.715   3.396  -3.353  0.00  0.00     0.210 C 
ENDBRANCH   9  14
BRANCH  11  16
ATOM     16  O   UNL d   1       5.467   6.471  -5.272  0.00  0.00    -0.347 OA
BRANCH  16  17
ATOM     17  C   UNL d   1       5.817   7.790  -5.691  0.00  0.00     0.214 C 
BRANCH  17  18
ATOM     18  C   UNL d   1       7.041   7.743  -6.574  0.00  0.00    -0.034 A 
ATOM     19  C   UNL d   1       7.056   8.398  -7.813  0.00  0.00     0.009 A 
ATOM     20  C   UNL d   1       8.222   8.430  -8.582  0.00  0.00     0.001 A 
ATOM     21  C   UNL d   1       9.383   7.814  -8.118  0.00  0.00     0.000 A 
ATOM     22  C   UNL d   1       9.379   7.156  -6.890  0.00  0.00     0.001 A 
ATOM     23  C   UNL d   1       8.215   7.121  -6.122  0.00  0.00     0.009 A 
ENDBRANCH  17  18
ENDBRANCH  16  17
ENDBRANCH  11  16
ENDBRANCH   7   8
ENDBRANCH   2   7
BRANCH   1  24
ATOM     24  C   UNL d   1       2.950   5.157   4.374  0.00  0.00     0.104 A 
ATOM     25  N   UNL d   1       2.075   6.090   4.822  0.00  0.00    -0.354 N 
ATOM     26  C   UNL d   1       2.066   6.394   6.143  0.00  0.00     0.105 A 
ATOM     27  HN  UNL d   1       1.436   6.555   4.177  1.00  0.00     0.166 HD
ATOM     28  C   UNL d   1       2.894   5.802   7.085  0.00  0.00     0.065 A 
ATOM     29  C   UNL d   1       3.812   4.863   6.621  0.00  0.00     0.044 A 
ATOM     30  C   UNL d   1       3.849   4.533   5.261  0.00  0.00     0.073 A 
ATOM     31 CL   UNL d   1       4.943   3.289   4.772  0.00  0.00    -0.081 Cl
BRANCH  28  32
ATOM     32  C   UNL d   1       2.758   6.162   8.531  0.00  0.00     0.418 C 
ATOM     33  F   UNL d   1       3.567   5.435   9.349  0.00  0.00    -0.166 F 
ATOM     34  F   UNL d   1       3.055   7.468   8.774  0.00  0.00    -0.166 F 
ATOM     35  F   UNL d   1       1.492   5.974   8.997  0.00  0.00    -0.166 F 
ENDBRANCH  28  32
ENDBRANCH   1  24
TORSDOF 8
