REMARK  6 active torsions:
REMARK  status: ('A' for Active; 'I' for Inactive)
REMARK    1  A    between atoms: C_2  and  S_1 
REMARK    2  A    between atoms: N_4  and  S_1 
REMARK    3  A    between atoms: C_11  and  N_4 
REMARK    4  A    between atoms: C_25  and  N_4 
REMARK    5  A    between atoms: C_16  and  C_11 
REMARK    6  A    between atoms: C_24  and  C_25 
ROOT
ATOM      1  N   UNL d   1       3.068  -4.029  -3.374  0.00  0.00    -0.197 NA
ATOM      2  C   UNL d   1       2.743  -3.381  -2.466  0.00  0.00     0.060 C 
ATOM      3  C   UNL d   1       2.329  -2.551  -1.331  0.00  0.00     0.139 C 
ENDROOT
BRANCH   3   4
ATOM      4  C   UNL d   1       0.877  -2.103  -1.503  0.00  0.00     0.122 C 
BRANCH   4   5
ATOM      5  N   UNL d   1       0.355  -1.327  -0.327  0.00  0.00    -0.199 NA
BRANCH   5   6
ATOM      6  S   UNL d   1       1.032   0.229  -0.137  0.00  0.00     0.246 S 
ATOM      7  O   UNL d   1       2.466   0.099  -0.001  0.00  0.00    -0.206 OA
ATOM      8  O   UNL d   1       0.487   1.093  -1.160  0.00  0.00    -0.206 OA
BRANCH   6   9
ATOM      9  C   UNL d   1       0.470   0.818   1.410  0.00  0.00     0.105 A 
ATOM     10  C   UNL d   1       0.669   0.118   2.611  0.00  0.00     0.108 A 
ATOM     11  C   UNL d   1       0.314   0.710   3.896  0.00  0.00     0.086 A 
ATOM     12  N   UNL d   1       1.166  -1.103   2.846  0.00  0.00    -0.238 N 
ATOM     13  N   UNL d   1       0.613  -0.166   4.862  0.00  0.00    -0.239 N 
ATOM     14  C   UNL d   1      -0.243   1.998   4.011  0.00  0.00     0.034 A 
ATOM     15  O   UNL d   1       1.141  -1.271   4.219  0.00  0.00    -0.156 OA
ATOM     16  HN  UNL d   1       0.479  -0.044   5.865  1.00  0.00     0.197 HD
ATOM     17  C   UNL d   1      -0.449   2.667   2.789  0.00  0.00     0.004 A 
ATOM     18  C   UNL d   1      -0.110   2.101   1.535  0.00  0.00     0.027 A 
ATOM     19  HN  UNL d   1       1.497  -1.774   2.153  1.00  0.00     0.197 HD
ENDBRANCH   6   9
ENDBRANCH   5   6
BRANCH   5  20
ATOM     20  C   UNL d   1      -1.126  -1.453  -0.180  0.00  0.00     0.172 C 
BRANCH  20  21
ATOM     21  C   UNL d   1      -1.917  -0.627  -1.130  0.00  0.00     0.066 A 
ATOM     22  O   UNL d   1      -1.728  -0.857  -2.462  0.00  0.00    -0.326 OA
ATOM     23  C   UNL d   1      -2.502   0.034  -3.133  0.00  0.00     0.142 A 
ATOM     24  C   UNL d   1      -3.224   0.805  -2.252  0.00  0.00     0.027 A 
ATOM     25  C   UNL d   1      -2.857   0.369  -0.956  0.00  0.00     0.036 A 
ENDBRANCH  20  21
ENDBRANCH   5  20
ENDBRANCH   4   5
ENDBRANCH   3   4
TORSDOF 6
