REMARK  3 active torsions:
REMARK  status: ('A' for Active; 'I' for Inactive)
REMARK    1  A    between atoms: N_2  and  S_1 
REMARK    2  A    between atoms: C_17  and  S_1 
REMARK    3  A    between atoms: C_5  and  N_4 
ROOT
ATOM      1  N   UNL d   1       0.335  -1.196   0.417  0.00  0.00    -0.307 N 
ATOM      2  N   UNL d   1       0.437  -3.648  -1.123  0.00  0.00    -0.377 N 
ATOM      3  C   UNL d   1       1.207  -2.357   0.825  0.00  0.00     0.155 C 
ATOM      4  C   UNL d   1      -0.782  -1.639  -0.492  0.00  0.00     0.155 C 
ATOM      5  C   UNL d   1       1.640  -3.253  -0.361  0.00  0.00     0.143 C 
ATOM      6  C   UNL d   1      -0.269  -2.480  -1.678  0.00  0.00     0.143 C 
ENDROOT
BRANCH   2   7
ATOM      7  C   UNL d   1       0.406  -4.878  -1.781  0.00  0.00     0.044 A 
ATOM      8  C   UNL d   1       0.415  -6.110  -1.061  0.00  0.00     0.017 A 
ATOM      9  C   UNL d   1       0.313  -7.319  -1.793  0.00  0.00     0.046 A 
ATOM     10  C   UNL d   1       0.468  -6.202   0.355  0.00  0.00     0.018 A 
ATOM     11  C   UNL d   1       0.308  -8.532  -1.122  0.00  0.00     0.054 A 
ATOM     12  N   UNL d   1       0.195  -7.352  -3.128  0.00  0.00    -0.365 N 
ATOM     13  C   UNL d   1       0.405  -8.595   0.265  0.00  0.00     0.036 A 
ATOM     14  C   UNL d   1       0.486  -7.431   1.012  0.00  0.00     0.025 A 
ATOM     15 CL   UNL d   1       0.406 -10.118   1.062  0.00  0.00    -0.084 Cl
ATOM     16  C   UNL d   1       0.175  -6.179  -3.787  0.00  0.00     0.090 A 
ATOM     17  HN  UNL d   1       0.122  -8.238  -3.629  1.00  0.00     0.165 HD
ATOM     18  C   UNL d   1       0.280  -4.946  -3.172  0.00  0.00     0.047 A 
ENDBRANCH   2   7
BRANCH   1  19
ATOM     19  S   UNL d   1       1.099   0.242  -0.030  0.00  0.00     0.232 S 
ATOM     20  O   UNL d   1       0.077   1.161  -0.485  0.00  0.00    -0.205 OA
ATOM     21  O   UNL d   1       2.202  -0.119  -0.896  0.00  0.00    -0.205 OA
BRANCH  19  22
ATOM     22  C   UNL d   1       1.770   0.871   1.531  0.00  0.00     0.121 C 
ATOM     23  C   UNL d   1       2.353   2.264   1.304  0.00  0.00     0.027 C 
ATOM     24  C   UNL d   1       0.730   0.909   2.645  0.00  0.00     0.027 C 
ENDBRANCH  19  22
ENDBRANCH   1  19
TORSDOF 3
