REMARK  7 active torsions:
REMARK  status: ('A' for Active; 'I' for Inactive)
REMARK    1  A    between atoms: S_12  and  C_2 
REMARK    2  A    between atoms: C_7  and  C_3 
REMARK    3  A    between atoms: C_6  and  C_14 
REMARK    4  A    between atoms: C_17  and  S_12 
REMARK    5  A    between atoms: C_26  and  C_13 
REMARK    6  A    between atoms: C_15  and  C_17 
REMARK    7  A    between atoms: C_16  and  C_15 
ROOT
ATOM      1  C   UNL d   1      -0.485  -5.070   0.654  0.00  0.00     0.088 A 
ATOM      2  C   UNL d   1      -1.757  -5.670   0.607  0.00  0.00     0.092 A 
ATOM      3  C   UNL d   1      -0.367  -3.696   0.355  0.00  0.00    -0.004 A 
ATOM      4  N   UNL d   1      -2.896  -4.964   0.365  0.00  0.00    -0.352 N 
ATOM      5  HN  UNL d   1      -3.809  -5.416   0.319  1.00  0.00     0.166 HD
ATOM      6  C   UNL d   1      -1.537  -2.977   0.170  0.00  0.00    -0.024 A 
ATOM      7  C   UNL d   1      -2.752  -3.645   0.191  0.00  0.00     0.017 A 
ATOM      8  C   UNL d   1       0.661  -5.803   1.103  0.00  0.00     0.103 C 
ATOM      9  N   UNL d   1       1.598  -6.346   1.524  0.00  0.00    -0.191 NA
ATOM     10  C   UNL d   1      -1.754  -1.509  -0.028  0.00  0.00     0.042 C 
ATOM     11  C   UNL d   1      -3.902  -2.690   0.037  0.00  0.00     0.058 C 
ATOM     12  C   UNL d   1      -3.217  -1.375   0.425  0.00  0.00     0.011 C 
ENDROOT
BRANCH   2  13
ATOM     13  S   UNL d   1      -2.002  -7.431   0.883  0.00  0.00    -0.103 SA
BRANCH  13  14
ATOM     14  C   UNL d   1      -3.749  -7.572   0.398  0.00  0.00     0.164 C 
BRANCH  14  15
ATOM     15  C   UNL d   1      -4.304  -8.983   0.483  0.00  0.00     0.169 C 
ATOM     16  O   UNL d   1      -3.672  -9.955   0.893  0.00  0.00    -0.291 OA
BRANCH  15  17
ATOM     17  C   UNL d   1      -5.720  -9.183   0.027  0.00  0.00     0.011 A 
ATOM     18  C   UNL d   1      -6.532  -8.114  -0.373  0.00  0.00     0.016 A 
ATOM     19  C   UNL d   1      -7.836  -8.344  -0.825  0.00  0.00     0.017 A 
ATOM     20  C   UNL d   1      -8.355  -9.646  -0.886  0.00  0.00     0.048 A 
ATOM     21  C   UNL d   1      -7.548 -10.713  -0.465  0.00  0.00     0.017 A 
ATOM     22  C   UNL d   1      -6.243 -10.483  -0.012  0.00  0.00     0.016 A 
BRANCH  20  23
ATOM     23  C   UNL d   1      -9.752  -9.870  -1.414  0.00  0.00     0.417 C 
ATOM     24  F   UNL d   1     -10.132 -11.177  -1.427  0.00  0.00    -0.166 F 
ATOM     25  F   UNL d   1     -10.695  -9.212  -0.684  0.00  0.00    -0.166 F 
ATOM     26  F   UNL d   1      -9.896  -9.425  -2.694  0.00  0.00    -0.166 F 
ENDBRANCH  20  23
ENDBRANCH  15  17
ENDBRANCH  14  15
ENDBRANCH  13  14
ENDBRANCH   2  13
BRANCH   3  27
ATOM     27  C   UNL d   1       0.928  -3.005   0.264  0.00  0.00     0.014 C 
ATOM     28  C   UNL d   1       1.711  -2.970  -0.826  0.00  0.00     0.012 C 
BRANCH  28  29
ATOM     29  C   UNL d   1       1.437  -3.614  -2.115  0.00  0.00    -0.036 A 
ATOM     30  C   UNL d   1       0.796  -2.908  -3.140  0.00  0.00     0.011 A 
ATOM     31  C   UNL d   1       0.559  -3.518  -4.374  0.00  0.00     0.001 A 
ATOM     32  C   UNL d   1       0.958  -4.836  -4.590  0.00  0.00     0.000 A 
ATOM     33  C   UNL d   1       1.599  -5.543  -3.576  0.00  0.00     0.001 A 
ATOM     34  C   UNL d   1       1.842  -4.934  -2.341  0.00  0.00     0.011 A 
ENDBRANCH  28  29
ENDBRANCH   3  27
TORSDOF 7
