REMARK  3 active torsions:
REMARK  status: ('A' for Active; 'I' for Inactive)
REMARK    1  A    between atoms: C_12  and  C_1 
REMARK    2  A    between atoms: C_4  and  C_3 
REMARK    3  A    between atoms: O_19  and  C_12 
ROOT
ATOM      1  C   UNL d   1       2.805  -0.842   0.075  0.00  0.00     0.052 C 
ATOM      2  C   UNL d   1       0.273  -0.716   0.062  0.00  0.00     0.024 C 
ATOM      3  C   UNL d   1       1.486  -1.551   0.426  0.00  0.00     0.100 C 
ATOM      4  C   UNL d   1       0.371   0.619  -0.085  0.00  0.00     0.021 C 
ATOM      5  C   UNL d   1       2.818   0.507  -0.099  0.00  0.00     0.018 C 
ATOM      6  N   UNL d   1       1.617   1.216  -0.039  0.00  0.00    -0.362 N 
ATOM      7  C   UNL d   1      -1.023  -1.401  -0.186  0.00  0.00     0.159 C 
ATOM      8  C   UNL d   1      -0.819   1.517  -0.302  0.00  0.00     0.067 C 
ATOM      9  C   UNL d   1      -2.176   0.845   0.006  0.00  0.00    -0.036 C 
ATOM     10  C   UNL d   1      -2.203  -0.556  -0.624  0.00  0.00     0.092 C 
ATOM     11  O   UNL d   1      -1.107  -2.626  -0.141  0.00  0.00    -0.293 OA
ATOM     12  C   UNL d   1       4.019   1.379  -0.367  0.00  0.00     0.069 C 
ATOM     13  C   UNL d   1      -3.301   1.704  -0.597  0.00  0.00     0.015 C 
ATOM     14  C   UNL d   1      -2.416   0.743   1.528  0.00  0.00     0.015 C 
ATOM     15  H   UNL d   1       1.663   2.211  -0.248  0.00  0.00     0.165 HD
ENDROOT
BRANCH   3  16
ATOM     16  C   UNL d   1       1.463  -1.862   1.919  0.00  0.00    -0.017 A 
ATOM     17  C   UNL d   1       1.446  -0.930   2.946  0.00  0.00     0.097 A 
ATOM     18  N   UNL d   1       1.431  -1.592   4.138  0.00  0.00    -0.365 N 
ATOM     19  C   UNL d   1       1.450  -2.948   3.929  0.00  0.00     0.042 A 
ATOM     20  H   UNL d   1       1.415  -1.154   5.049  0.00  0.00     0.165 HD
ATOM     21  C   UNL d   1       1.474  -3.154   2.546  0.00  0.00    -0.001 A 
ATOM     22  C   UNL d   1       1.453  -3.996   4.857  0.00  0.00     0.030 A 
ATOM     23  C   UNL d   1       1.502  -4.482   2.076  0.00  0.00     0.014 A 
ATOM     24  C   UNL d   1       1.511  -5.541   2.991  0.00  0.00     0.001 A 
ATOM     25  C   UNL d   1       1.486  -5.300   4.362  0.00  0.00     0.002 A 
ENDBRANCH   3  16
BRANCH   1  26
ATOM     26  C   UNL d   1       4.013  -1.718  -0.010  0.00  0.00     0.291 C 
ATOM     27  O   UNL d   1       5.170  -1.348   0.081  0.00  0.00    -0.260 OA
BRANCH  26  28
ATOM     28  O   UNL d   1       3.629  -3.006  -0.220  0.00  0.00    -0.323 OA
ATOM     29  C   UNL d   1       4.678  -3.972  -0.217  0.00  0.00     0.213 C 
ENDBRANCH  26  28
ENDBRANCH   1  26
TORSDOF 3
