REMARK  8 active torsions:
REMARK  status: ('A' for Active; 'I' for Inactive)
REMARK    1  A    between atoms: C_15  and  N_3 
REMARK    2  A    between atoms: C_16  and  N_5 
REMARK    3  A    between atoms: O_10  and  C_7 
REMARK    4  A    between atoms: C_12  and  C_8 
REMARK    5  A    between atoms: C_11  and  O_10 
REMARK    6  A    between atoms: C_13  and  C_11 
REMARK    7  A    between atoms: O_24  and  C_12 
REMARK    8  A    between atoms: C_29  and  O_24 
ROOT
ATOM      1  C   UNL d   1       0.072  -0.581  -0.512  0.00  0.00     0.102 C 
ATOM      2  C   UNL d   1      -0.235   0.717  -0.186  0.00  0.00     0.103 C 
ATOM      3  N   UNL d   1       0.704   1.751  -0.055  0.00  0.00    -0.281 N 
ATOM      4  C   UNL d   1       2.092   1.376  -0.008  0.00  0.00     0.194 C 
ATOM      5  N   UNL d   1       2.390   0.030  -0.446  0.00  0.00    -0.254 N 
ATOM      6  C   UNL d   1       1.432  -0.902  -0.886  0.00  0.00     0.270 C 
ATOM      7  C   UNL d   1      -1.092  -1.432  -0.501  0.00  0.00     0.121 C 
ATOM      8  C   UNL d   1      -2.254  -0.741  -0.216  0.00  0.00     0.117 C 
ATOM      9  S   UNL d   1      -1.916   0.923  -0.077  0.00  0.00    -0.062 SA
ATOM     10  S   UNL d   1       3.280   2.471   0.560  0.00  0.00    -0.039 SA
ATOM     11  O   UNL d   1       1.664  -1.910  -1.555  0.00  0.00    -0.266 OA
ENDROOT
BRANCH   7  12
ATOM     12  O   UNL d   1      -1.153  -2.729  -0.869  0.00  0.00    -0.271 OA
BRANCH  12  13
ATOM     13  C   UNL d   1      -0.264  -3.639  -0.365  0.00  0.00     0.322 C 
ATOM     14  O   UNL d   1       0.465  -3.465   0.603  0.00  0.00    -0.257 OA
BRANCH  13  15
ATOM     15  C   UNL d   1      -0.356  -4.837  -1.172  0.00  0.00     0.150 A 
ATOM     16  O   UNL d   1      -1.375  -4.945  -2.091  0.00  0.00    -0.317 OA
ATOM     17  C   UNL d   1      -1.226  -6.125  -2.733  0.00  0.00     0.143 A 
ATOM     18  C   UNL d   1      -0.129  -6.796  -2.253  0.00  0.00     0.027 A 
ATOM     19  C   UNL d   1       0.427  -5.974  -1.238  0.00  0.00     0.045 A 
ENDBRANCH  13  15
ENDBRANCH  12  13
ENDBRANCH   7  12
BRANCH   8  20
ATOM     20  C   UNL d   1      -3.640  -1.154  -0.073  0.00  0.00     0.303 C 
ATOM     21  O   UNL d   1      -4.592  -0.401   0.104  0.00  0.00    -0.259 OA
BRANCH  20  22
ATOM     22  O   UNL d   1      -3.760  -2.512  -0.136  0.00  0.00    -0.317 OA
BRANCH  22  23
ATOM     23  C   UNL d   1      -5.105  -3.015  -0.068  0.00  0.00     0.174 C 
ATOM     24  C   UNL d   1      -5.541  -3.198   1.375  0.00  0.00     0.034 C 
ENDBRANCH  22  23
ENDBRANCH  20  22
ENDBRANCH   8  20
BRANCH   3  25
ATOM     25  C   UNL d   1       0.269   3.135  -0.144  0.00  0.00     0.042 A 
ATOM     26  C   UNL d   1      -0.811   3.651   0.589  0.00  0.00     0.030 A 
ATOM     27  C   UNL d   1      -1.311   4.938   0.353  0.00  0.00     0.002 A 
ATOM     28  C   UNL d   1      -0.676   5.776  -0.555  0.00  0.00     0.000 A 
ATOM     29  C   UNL d   1       0.456   5.327  -1.224  0.00  0.00     0.002 A 
ATOM     30  C   UNL d   1       0.906   4.014  -1.040  0.00  0.00     0.030 A 
ENDBRANCH   3  25
BRANCH   5  31
ATOM     31  C   UNL d   1       3.765  -0.408  -0.562  0.00  0.00     0.045 A 
ATOM     32  C   UNL d   1       4.298  -0.795  -1.802  0.00  0.00     0.030 A 
ATOM     33  C   UNL d   1       5.643  -1.165  -1.916  0.00  0.00     0.002 A 
ATOM     34  C   UNL d   1       6.467  -1.163  -0.793  0.00  0.00     0.000 A 
ATOM     35  C   UNL d   1       5.941  -0.826   0.451  0.00  0.00     0.002 A 
ATOM     36  C   UNL d   1       4.595  -0.469   0.569  0.00  0.00     0.030 A 
ENDBRANCH   5  31
TORSDOF 8
