REMARK  5 active torsions:
REMARK  status: ('A' for Active; 'I' for Inactive)
REMARK    1  A    between atoms: C_6  and  C_2 
REMARK    2  A    between atoms: C_9  and  C_6 
REMARK    3  A    between atoms: C_12  and  C_9 
REMARK    4  A    between atoms: S_10  and  C_12 
REMARK    5  A    between atoms: C_11  and  S_10 
ROOT
ATOM      1  C   UNL d   1      -4.691   0.382   0.023  0.00  0.00     0.095 C 
ENDROOT
BRANCH   1   2
ATOM      2  C   UNL d   1      -3.538  -0.614   0.003  0.00  0.00     0.167 C 
ATOM      3  O   UNL d   1      -3.762  -1.824   0.010  0.00  0.00    -0.292 OA
BRANCH   2   4
ATOM      4  C   UNL d   1      -2.192  -0.041  -0.027  0.00  0.00     0.052 A 
ATOM      5  S   UNL d   1      -0.828  -1.092  -0.042  0.00  0.00    -0.074 SA
ATOM      6  C   UNL d   1       0.249   0.209  -0.066  0.00  0.00     0.075 A 
ATOM      7  C   UNL d   1      -0.369   1.430  -0.066  0.00  0.00     0.033 A 
ATOM      8 CL   UNL d   1       1.942  -0.080  -0.086  0.00  0.00    -0.076 Cl
ATOM      9  C   UNL d   1      -1.791   1.286  -0.046  0.00  0.00     0.025 A 
ENDBRANCH   2   4
ENDBRANCH   1   2
BRANCH   1  10
ATOM     10  C   UNL d   1      -6.044  -0.324   0.049  0.00  0.00     0.087 C 
BRANCH  10  11
ATOM     11  S   UNL d   1      -7.372   0.935   0.046  0.00  0.00    -0.130 SA
BRANCH  11  12
ATOM     12  C   UNL d   1      -8.863  -0.049   0.134  0.00  0.00     0.000 A 
ATOM     13  C   UNL d   1      -9.977   0.523   0.763  0.00  0.00     0.019 A 
ATOM     14  C   UNL d   1     -11.196  -0.160   0.830  0.00  0.00     0.008 A 
ATOM     15  C   UNL d   1     -11.328  -1.429   0.260  0.00  0.00    -0.062 A 
ATOM     16  C   UNL d   1     -10.221  -2.000  -0.376  0.00  0.00     0.008 A 
ATOM     17  C   UNL d   1     -12.642  -2.149   0.323  0.00  0.00     0.048 C 
ATOM     18  C   UNL d   1      -9.000  -1.315  -0.440  0.00  0.00     0.019 A 
ENDBRANCH  11  12
ENDBRANCH  10  11
ENDBRANCH   1  10
TORSDOF 5
