REMARK  3 active torsions:
REMARK  status: ('A' for Active; 'I' for Inactive)
REMARK    1  A    between atoms: S_4  and  N_9 
REMARK    2  A    between atoms: C_10  and  C_5 
REMARK    3  A    between atoms: N_9  and  C_15 
ROOT
ATOM      1  C   UNL d   1       3.751  -0.793  -0.121  0.00  0.00    -0.008 A 
ATOM      2  C   UNL d   1       4.579  -0.346   0.920  0.00  0.00     0.016 A 
ATOM      3  C   UNL d   1       4.294  -1.655  -1.085  0.00  0.00     0.016 A 
ATOM      4  C   UNL d   1       6.439  -1.597   0.020  0.00  0.00     0.042 A 
ATOM      5  C   UNL d   1       5.919  -0.740   0.987  0.00  0.00     0.031 A 
ATOM      6  C   UNL d   1       5.628  -2.066  -1.009  0.00  0.00     0.031 A 
ENDROOT
BRANCH   1   7
ATOM      7  C   UNL d   1       2.365  -0.353  -0.173  0.00  0.00     0.060 A 
ATOM      8  N   UNL d   1       1.790   0.465   0.796  0.00  0.00    -0.335 N 
ATOM      9  C   UNL d   1       0.571   0.639   0.374  0.00  0.00     0.147 A 
ATOM     10  HN  UNL d   1       2.224   0.840   1.640  1.00  0.00     0.168 HD
ATOM     11  N   UNL d   1       0.323  -0.009  -0.786  0.00  0.00    -0.335 N 
ATOM     12  S   UNL d   1      -0.789   1.503   0.965  0.00  0.00    -0.092 SA
ATOM     13  C   UNL d   1       1.445  -0.656  -1.170  0.00  0.00     0.123 A 
ATOM     14  C   UNL d   1      -0.977   0.165  -1.389  0.00  0.00     0.141 C 
ATOM     15  C   UNL d   1      -1.889   0.735  -0.296  0.00  0.00     0.102 C 
ENDBRANCH   1   7
BRANCH   4  16
ATOM     16  N   UNL d   1       7.776  -2.064   0.139  0.00  0.00    -0.285 N 
ATOM     17  H   UNL d   1       8.479  -1.389   0.439  0.00  0.00     0.178 HD
BRANCH  16  18
ATOM     18  S   UNL d   1       8.025  -3.591   0.813  0.00  0.00     0.227 S 
ATOM     19  O   UNL d   1       7.281  -4.577   0.061  0.00  0.00    -0.206 OA
ATOM     20  O   UNL d   1       9.458  -3.707   0.994  0.00  0.00    -0.206 OA
ATOM     21  C   UNL d   1       7.294  -3.435   2.434  0.00  0.00     0.186 C 
ENDBRANCH  16  18
ENDBRANCH   4  16
TORSDOF 3
