REMARK  8 active torsions:
REMARK  status: ('A' for Active; 'I' for Inactive)
REMARK    1  A    between atoms: N_6  and  C_1 
REMARK    2  A    between atoms: N_9  and  C_1 
REMARK    3  A    between atoms: N_2  and  N_6 
REMARK    4  A    between atoms: C_4  and  C_8 
REMARK    5  A    between atoms: O_10  and  C_7 
REMARK    6  A    between atoms: C_11  and  N_9 
REMARK    7  A    between atoms: C_14  and  C_11 
REMARK    8  A    between atoms: C_12  and  C_14 
ROOT
ATOM      1  N   UNL d   1       0.347  -1.130  -0.053  0.00  0.00    -0.277 N 
ATOM      2  H   UNL d   1      -0.666  -1.170  -0.121  0.00  0.00     0.189 HD
ENDROOT
BRANCH   1   3
ATOM      3  N   UNL d   1       1.030  -2.166   0.517  0.00  0.00    -0.309 N 
ATOM      4  C   UNL d   1       0.335  -3.235   0.766  0.00  0.00     0.121 C 
ATOM      5  HN  UNL d   1       2.025  -2.104   0.734  1.00  0.00     0.186 HD
BRANCH   4   6
ATOM      6  C   UNL d   1       0.968  -4.364   1.481  0.00  0.00     0.014 A 
ATOM      7  C   UNL d   1       2.228  -4.234   2.079  0.00  0.00     0.077 A 
ATOM      8  C   UNL d   1       2.817  -5.314   2.733  0.00  0.00     0.037 A 
ATOM      9  C   UNL d   1       2.143  -6.534   2.799  0.00  0.00     0.003 A 
ATOM     10  C   UNL d   1       0.877  -6.664   2.225  0.00  0.00     0.001 A 
ATOM     11  C   UNL d   1       0.282  -5.576   1.568  0.00  0.00     0.015 A 
BRANCH   7  12
ATOM     12  O   UNL d   1       2.942  -3.063   2.077  0.00  0.00    -0.360 OA
ATOM     13  H   UNL d   1       2.399  -2.401   1.598  0.00  0.00     0.217 HD
ENDBRANCH   7  12
ENDBRANCH   4   6
ENDBRANCH   1   3
BRANCH   1  14
ATOM     14  C   UNL d   1       0.920   0.127  -0.073  0.00  0.00     0.186 C 
ATOM     15  S   UNL d   1      -0.057   1.469  -0.213  0.00  0.00    -0.040 SA
BRANCH  14  16
ATOM     16  N   UNL d   1       2.286   0.119   0.068  0.00  0.00    -0.366 N 
ATOM     17  H   UNL d   1       2.686  -0.814   0.032  0.00  0.00     0.161 HD
BRANCH  16  18
ATOM     18  C   UNL d   1       3.098   1.223   0.559  0.00  0.00     0.126 C 
BRANCH  18  19
ATOM     19  C   UNL d   1       4.593   0.896   0.573  0.00  0.00     0.058 C 
BRANCH  19  20
ATOM     20  C   UNL d   1       5.405   2.025   1.161  0.00  0.00    -0.057 A 
ATOM     21  C   UNL d   1       5.677   2.066   2.535  0.00  0.00     0.007 A 
ATOM     22  C   UNL d   1       6.418   3.119   3.081  0.00  0.00     0.001 A 
ATOM     23  C   UNL d   1       6.890   4.139   2.258  0.00  0.00     0.000 A 
ATOM     24  C   UNL d   1       6.615   4.113   0.891  0.00  0.00     0.001 A 
ATOM     25  C   UNL d   1       5.875   3.064   0.345  0.00  0.00     0.007 A 
ENDBRANCH  19  20
ENDBRANCH  18  19
ENDBRANCH  16  18
ENDBRANCH  14  16
ENDBRANCH   1  14
TORSDOF 8
