REMARK  5 active torsions:
REMARK  status: ('A' for Active; 'I' for Inactive)
REMARK    1  A    between atoms: C_2  and  C_1 
REMARK    2  A    between atoms: C_3  and  C_2 
REMARK    3  A    between atoms: N_5  and  C_4 
REMARK       I    between atoms: C_6  and  N_5 
REMARK    4  A    between atoms: C_11  and  C_6 
REMARK    5  A    between atoms: N_7  and  C_11 
ROOT
ATOM      1  C   UNL d   1       1.580   1.313   0.288  0.00  0.00     0.043 A 
ATOM      2  C   UNL d   1       2.343   0.161   0.004  0.00  0.00     0.049 A 
ATOM      3  C   UNL d   1       0.171   1.246   0.186  0.00  0.00     0.041 A 
ATOM      4  C   UNL d   1       1.677  -0.989  -0.469  0.00  0.00     0.032 A 
ATOM      5  C   UNL d   1      -0.464   0.083  -0.237  0.00  0.00     0.035 A 
ATOM      6  C   UNL d   1       0.286  -1.031  -0.582  0.00  0.00     0.026 A 
ATOM      7 CL   UNL d   1      -2.177   0.036  -0.371  0.00  0.00    -0.084 Cl
ENDROOT
BRANCH   2   8
ATOM      8  N   UNL d   1       3.750   0.023   0.094  0.00  0.00    -0.325 N 
ATOM      9  C   UNL d   1       4.568   0.572   1.077  0.00  0.00     0.250 C 
ATOM     10  O   UNL d   1       4.138   1.157   2.065  0.00  0.00    -0.271 OA
ATOM     11  H   UNL d   1       4.144  -0.781  -0.381  0.00  0.00     0.169 HD
BRANCH   9  12
ATOM     12  C   UNL d   1       6.070   0.389   0.738  0.00  0.00     0.374 C 
BRANCH  12  13
ATOM     13  N   UNL d   1       6.940   0.235   1.920  0.00  0.00     0.097 N 
ATOM     14  C   UNL d   1       8.234  -0.371   1.567  0.00  0.00     0.273 C 
ATOM     15  C   UNL d   1       9.185   0.573   0.826  0.00  0.00     0.034 C 
ATOM     16  C   UNL d   1       9.461   1.821   1.667  0.00  0.00    -0.015 C 
ATOM     17  C   UNL d   1       8.135   2.477   2.062  0.00  0.00     0.034 C 
ATOM     18  C   UNL d   1      10.359   2.805   0.919  0.00  0.00     0.010 C 
ATOM     19  C   UNL d   1       7.144   1.480   2.679  0.00  0.00     0.273 C 
ENDBRANCH  12  13
ENDBRANCH   9  12
ENDBRANCH   2   8
BRANCH   1  20
ATOM     20  C   UNL d   1       2.088   2.687   0.579  0.00  0.00     0.196 C 
ATOM     21  O   UNL d   1       1.407   3.429   1.287  0.00  0.00    -0.287 OA
BRANCH  20  22
ATOM     22  C   UNL d   1       3.344   3.249   0.020  0.00  0.00     0.037 A 
ATOM     23  C   UNL d   1       3.806   3.063  -1.287  0.00  0.00     0.048 A 
ATOM     24 CL   UNL d   1       2.901   2.261  -2.521  0.00  0.00    -0.083 Cl
ATOM     25  C   UNL d   1       5.048   3.593  -1.665  0.00  0.00     0.025 A 
ATOM     26  C   UNL d   1       5.803   4.348  -0.766  0.00  0.00     0.002 A 
ATOM     27  C   UNL d   1       5.314   4.595   0.512  0.00  0.00     0.001 A 
ATOM     28  C   UNL d   1       4.092   4.050   0.902  0.00  0.00     0.017 A 
ENDBRANCH  20  22
ENDBRANCH   1  20
TORSDOF 5
