REMARK  3 active torsions:
REMARK  status: ('A' for Active; 'I' for Inactive)
REMARK    1  A    between atoms: N_6  and  C_1 
REMARK    2  A    between atoms: O_15  and  C_9 
REMARK    3  A    between atoms: O_14  and  C_10 
ROOT
ATOM      1  C   UNL d   1      -1.343  -0.196   0.132  0.00  0.00     0.691 A 
ATOM      2  N   UNL d   1      -0.985  -0.166   1.418  0.00  0.00    -0.154 N 
ATOM      3  HN  UNL d   1      -1.677  -0.127   2.166  1.00  0.00     0.188 HD
ATOM      4  N   UNL d   1      -0.441  -0.304  -0.829  0.00  0.00    -0.154 N 
ATOM      5  HN  UNL d   1      -0.711  -0.441  -1.803  1.00  0.00     0.188 HD
ATOM      6  N   UNL d   1       1.282  -0.163   0.774  0.00  0.00    -0.287 N 
ATOM      7  HN  UNL d   1       2.271  -0.101   1.015  1.00  0.00     0.173 HD
ATOM      8  C   UNL d   1       0.836  -0.227  -0.462  0.00  0.00     0.240 A 
ATOM      9  C   UNL d   1       0.310  -0.189   1.671  0.00  0.00     0.240 A 
ENDROOT
BRANCH   1  10
ATOM     10  N   UNL d   1      -2.721  -0.230  -0.185  0.00  0.00    -0.182 N 
ATOM     11  C   UNL d   1      -3.473   0.272  -1.290  0.00  0.00     0.064 A 
ATOM     12  C   UNL d   1      -4.831  -0.170  -1.442  0.00  0.00    -0.030 A 
ATOM     13  C   UNL d   1      -3.019   1.215  -2.258  0.00  0.00    -0.034 A 
ATOM     14  C   UNL d   1      -5.682   0.344  -2.442  0.00  0.00     0.009 A 
ATOM     15  C   UNL d   1      -5.460  -1.200  -0.532  0.00  0.00     0.042 C 
ATOM     16  C   UNL d   1      -5.227   1.290  -3.335  0.00  0.00     0.001 A 
ATOM     17  C   UNL d   1      -3.915   1.714  -3.241  0.00  0.00     0.009 A 
ATOM     18  C   UNL d   1      -4.418  -1.953   0.254  0.00  0.00     0.025 C 
ATOM     19  C   UNL d   1      -3.471  -0.942   0.868  0.00  0.00     0.148 C 
ATOM     20  C   UNL d   1      -1.673   1.880  -2.359  0.00  0.00     0.050 C 
ENDBRANCH   1  10
BRANCH   9  21
ATOM     21  O   UNL d   1       0.762  -0.304   2.970  0.00  0.00    -0.327 OA
ATOM     22  C   UNL d   1      -0.284  -0.419   3.923  0.00  0.00     0.213 C 
ENDBRANCH   9  21
BRANCH   8  23
ATOM     23  O   UNL d   1       1.811  -0.136  -1.430  0.00  0.00    -0.327 OA
ATOM     24  C   UNL d   1       1.426  -0.750  -2.650  0.00  0.00     0.213 C 
ENDBRANCH   8  23
TORSDOF 3
