REMARK  3 active torsions:
REMARK  status: ('A' for Active; 'I' for Inactive)
REMARK    1  A    between atoms: C_8  and  C_1 
REMARK    2  A    between atoms: C_7  and  N_5 
REMARK    3  A    between atoms: N_9  and  C_8 
ROOT
ATOM      1  N   UNL d   1      -4.943  -0.521   0.141  0.00  0.00    -0.266 NA
ATOM      2  N   UNL d   1      -2.935  -2.755   0.191  0.00  0.00     0.095 N 
ATOM      3  C   UNL d   1      -4.254  -0.937  -1.100  0.00  0.00     0.127 C 
ATOM      4  C   UNL d   1      -4.197  -0.846   1.373  0.00  0.00     0.127 C 
ATOM      5  C   UNL d   1      -3.682  -2.308   1.381  0.00  0.00     0.287 C 
ATOM      6  C   UNL d   1      -3.724  -2.393  -1.010  0.00  0.00     0.287 C 
ENDROOT
BRANCH   2   7
ATOM      7  C   UNL d   1      -1.552  -2.257   0.137  0.00  0.00     0.314 C 
BRANCH   7   8
ATOM      8  C   UNL d   1      -0.595  -2.979   1.082  0.00  0.00     0.005 A 
ATOM      9  C   UNL d   1      -0.634  -4.278   1.589  0.00  0.00     0.014 A 
ATOM     10  N   UNL d   1       0.504  -4.483   2.332  0.00  0.00    -0.359 N 
ATOM     11  C   UNL d   1      -1.598  -5.402   1.464  0.00  0.00     0.068 C 
ATOM     12  C   UNL d   1       1.314  -3.381   2.313  0.00  0.00     0.043 A 
ATOM     13  H   UNL d   1       0.739  -5.347   2.800  0.00  0.00     0.166 HD
ATOM     14  C   UNL d   1       0.663  -2.417   1.544  0.00  0.00     0.001 A 
ATOM     15  C   UNL d   1       2.568  -3.188   2.905  0.00  0.00     0.030 A 
ATOM     16  C   UNL d   1       1.325  -1.182   1.359  0.00  0.00     0.014 A 
ATOM     17  C   UNL d   1       2.583  -0.968   1.944  0.00  0.00     0.001 A 
ATOM     18  C   UNL d   1       3.196  -1.958   2.705  0.00  0.00     0.002 A 
ENDBRANCH   7   8
ENDBRANCH   2   7
BRANCH   1  19
ATOM     19  C   UNL d   1      -5.463   0.792   0.076  0.00  0.00     0.082 A 
ATOM     20  N   UNL d   1      -5.378   1.490  -1.082  0.00  0.00    -0.357 N 
ATOM     21  C   UNL d   1      -5.885   2.749  -1.132  0.00  0.00     0.089 A 
ATOM     22  HN  UNL d   1      -4.939   1.076  -1.904  1.00  0.00     0.166 HD
ATOM     23  C   UNL d   1      -6.487   3.384  -0.065  0.00  0.00     0.017 A 
ATOM     24  C   UNL d   1      -6.601   2.677   1.114  0.00  0.00     0.005 A 
ATOM     25  C   UNL d   1      -6.100   1.370   1.179  0.00  0.00     0.042 A 
ENDBRANCH   1  19
TORSDOF 3
