REMARK  6 active torsions:
REMARK  status: ('A' for Active; 'I' for Inactive)
REMARK    1  A    between atoms: C_20  and  N_1 
REMARK    2  A    between atoms: C_9  and  C_2 
REMARK    3  A    between atoms: S_10  and  C_5 
REMARK    4  A    between atoms: C_8  and  C_11 
REMARK    5  A    between atoms: C_11  and  S_10 
REMARK    6  A    between atoms: C_22  and  C_20 
ROOT
ATOM      1  N   UNL d   1      -0.267  -1.262  -0.041  0.00  0.00    -0.307 N 
ATOM      2  C   UNL d   1       0.978  -0.652  -0.131  0.00  0.00     0.135 A 
ATOM      3  N   UNL d   1       0.772   0.647  -0.304  0.00  0.00    -0.283 N 
ATOM      4  HN  UNL d   1       1.503   1.346  -0.432  1.00  0.00     0.188 HD
ATOM      5  C   UNL d   1      -1.186  -0.239  -0.114  0.00  0.00     0.163 A 
ATOM      6  N   UNL d   1      -0.570   0.903  -0.284  0.00  0.00    -0.278 N 
ATOM      7  HN  UNL d   1      -1.011   1.817  -0.384  1.00  0.00     0.189 HD
ENDROOT
BRANCH   2   8
ATOM      8  C   UNL d   1       2.329  -1.245  -0.101  0.00  0.00     0.011 A 
ATOM      9  C   UNL d   1       3.371  -0.569  -0.761  0.00  0.00     0.029 A 
ATOM     10  C   UNL d   1       4.703  -1.037  -0.733  0.00  0.00    -0.009 A 
ATOM     11  C   UNL d   1       5.750  -0.352  -1.365  0.00  0.00     0.015 A 
ATOM     12  C   UNL d   1       5.018  -2.222  -0.042  0.00  0.00     0.042 A 
ATOM     13  C   UNL d   1       7.048  -0.848  -1.292  0.00  0.00     0.018 A 
ATOM     14  C   UNL d   1       7.253  -2.022  -0.594  0.00  0.00     0.088 A 
ATOM     15  N   UNL d   1       6.269  -2.713   0.023  0.00  0.00    -0.365 N 
ATOM     16  HN  UNL d   1       6.468  -3.580   0.522  1.00  0.00     0.165 HD
ATOM     17  C   UNL d   1       3.987  -2.884   0.608  0.00  0.00     0.031 A 
ATOM     18  C   UNL d   1       2.667  -2.403   0.601  0.00  0.00     0.017 A 
ENDBRANCH   2   8
BRANCH   1  19
ATOM     19  C   UNL d   1      -0.578  -2.677   0.101  0.00  0.00     0.159 C 
BRANCH  19  20
ATOM     20  C   UNL d   1      -0.073  -3.529  -1.029  0.00  0.00    -0.017 C 
ATOM     21  C   UNL d   1       0.365  -4.786  -0.871  0.00  0.00     0.008 C 
ENDBRANCH  19  20
ENDBRANCH   1  19
BRANCH   5  22
ATOM     22  S   UNL d   1      -2.904  -0.436   0.018  0.00  0.00    -0.088 SA
BRANCH  22  23
ATOM     23  C   UNL d   1      -3.488   1.140  -0.686  0.00  0.00     0.124 C 
BRANCH  23  24
ATOM     24  C   UNL d   1      -5.001   1.190  -0.782  0.00  0.00    -0.005 A 
ATOM     25  C   UNL d   1      -5.785   1.805   0.217  0.00  0.00     0.042 A 
ATOM     26 CL   UNL d   1      -5.086   2.527   1.624  0.00  0.00    -0.084 Cl
ATOM     27  C   UNL d   1      -7.181   1.858   0.115  0.00  0.00     0.024 A 
ATOM     28  C   UNL d   1      -7.832   1.291  -0.977  0.00  0.00     0.003 A 
ATOM     29  C   UNL d   1      -7.082   0.664  -1.967  0.00  0.00     0.024 A 
ATOM     30  C   UNL d   1      -5.683   0.613  -1.870  0.00  0.00     0.042 A 
ATOM     31 CL   UNL d   1      -4.851  -0.196  -3.156  0.00  0.00    -0.084 Cl
ENDBRANCH  23  24
ENDBRANCH  22  23
ENDBRANCH   5  22
TORSDOF 6
