REMARK  5 active torsions:
REMARK  status: ('A' for Active; 'I' for Inactive)
REMARK    1  A    between atoms: C_2  and  C_1 
REMARK    2  A    between atoms: C_3  and  C_1 
REMARK    3  A    between atoms: O_10  and  C_2 
REMARK    4  A    between atoms: C_4  and  C_3 
REMARK    5  A    between atoms: N_8  and  C_3 
ROOT
ATOM      1  C   UNL d   1       2.454  -0.012   0.044  0.00  0.00     0.260 C 
ENDROOT
BRANCH   1   2
ATOM      2  C   UNL d   1       0.923  -0.015   0.135  0.00  0.00     0.150 C 
BRANCH   2   3
ATOM      3  C   UNL d   1       0.342  -1.250  -0.509  0.00  0.00     0.141 C 
ATOM      4  O   UNL d   1       0.871  -2.350  -0.515  0.00  0.00    -0.650 OA
BRANCH   3   5
ATOM      5  O   UNL d   1      -0.883  -1.042  -1.047  0.00  0.00    -0.776 OA
ATOM      6  H   UNL d   1      -1.217  -0.130  -0.955  0.00  0.00     0.167 HD
ENDBRANCH   3   5
ENDBRANCH   2   3
ENDBRANCH   1   2
BRANCH   1   7
ATOM      7  C   UNL d   1       2.968   0.039  -1.387  0.00  0.00    -0.025 A 
ATOM      8  C   UNL d   1       2.625   1.081  -2.266  0.00  0.00     0.011 A 
ATOM      9  C   UNL d   1       3.101   1.090  -3.580  0.00  0.00     0.024 A 
ATOM     10  C   UNL d   1       3.928   0.062  -4.026  0.00  0.00     0.034 A 
ATOM     11  C   UNL d   1       4.282  -0.977  -3.171  0.00  0.00     0.024 A 
ATOM     12 CL   UNL d   1       4.513   0.077  -5.644  0.00  0.00    -0.084 Cl
ATOM     13  C   UNL d   1       3.804  -0.988  -1.857  0.00  0.00     0.011 A 
ENDBRANCH   1   7
BRANCH   1  14
ATOM     14  N   UNL d   1       2.992   1.121   0.814  0.00  0.00     0.087 N 
ATOM     15  H   UNL d   1       2.714   2.001   0.385  0.00  0.00     0.313 HD
ATOM     16  H   UNL d   1       4.011   1.095   0.752  0.00  0.00     0.313 HD
ENDBRANCH   1  14
TORSDOF 5
