REMARK  3 active torsions:
REMARK  status: ('A' for Active; 'I' for Inactive)
REMARK    1  A    between atoms: N_7  and  C_3 
REMARK    2  A    between atoms: C_10  and  N_7 
REMARK    3  A    between atoms: C_11  and  C_10 
ROOT
ATOM      1  N   UNL d   1      -0.417  -0.413  -2.070  0.00  0.00    -0.274 N 
ATOM      2  C   UNL d   1       0.438  -0.625  -1.028  0.00  0.00     0.272 A 
ATOM      3  C   UNL d   1       1.397  -1.785  -1.158  0.00  0.00     0.093 A 
ATOM      4  C   UNL d   1      -0.500  -1.192  -3.188  0.00  0.00     0.327 A 
ATOM      5  N   UNL d   1       0.382  -2.236  -3.250  0.00  0.00    -0.317 N 
ATOM      6  C   UNL d   1       1.299  -2.518  -2.274  0.00  0.00     0.122 A 
ATOM      7  O   UNL d   1       0.455   0.088  -0.027  0.00  0.00    -0.266 OA
ATOM      8  O   UNL d   1      -1.313  -0.975  -4.079  0.00  0.00    -0.247 OA
ATOM      9  H   UNL d   1      -1.060   0.358  -1.997  0.00  0.00     0.173 HD
ATOM     10  H   UNL d   1       0.315  -2.822  -4.074  0.00  0.00     0.170 HD
ENDROOT
BRANCH   3  11
ATOM     11  N   UNL d   1       2.281  -2.013  -0.102  0.00  0.00    -0.283 NA
ATOM     12  H   UNL d   1       1.843  -1.602   0.731  0.00  0.00     0.128 HD
BRANCH  11  13
ATOM     13  C   UNL d   1       3.635  -1.447  -0.165  0.00  0.00     0.131 C 
BRANCH  13  14
ATOM     14  C   UNL d   1       4.714  -2.505  -0.171  0.00  0.00    -0.045 A 
ATOM     15  C   UNL d   1       5.962  -2.202  -0.742  0.00  0.00     0.008 A 
ATOM     16  C   UNL d   1       7.010  -3.123  -0.703  0.00  0.00     0.001 A 
ATOM     17  C   UNL d   1       6.830  -4.357  -0.084  0.00  0.00     0.000 A 
ATOM     18  C   UNL d   1       5.603  -4.669   0.498  0.00  0.00     0.001 A 
ATOM     19  C   UNL d   1       4.554  -3.747   0.461  0.00  0.00     0.008 A 
ENDBRANCH  13  14
ENDBRANCH  11  13
ENDBRANCH   3  11
TORSDOF 3
