REMARK  3 active torsions:
REMARK  status: ('A' for Active; 'I' for Inactive)
REMARK    1  A    between atoms: C_7  and  C_1 
REMARK       I    between atoms: N_9  and  C_7 
REMARK       I    between atoms: C_8  and  N_11 
REMARK       I    between atoms: N_13  and  C_8 
REMARK    2  A    between atoms: N_11  and  N_9 
REMARK    3  A    between atoms: C_19  and  N_13 
ROOT
ATOM      1  C   UNL d   1       1.976  -2.362  -0.380  0.00  0.00     0.289 C 
ATOM      2  N   UNL d   1       1.080  -3.400  -0.549  0.00  0.00    -0.261 N 
ATOM      3  O   UNL d   1       3.192  -2.541  -0.401  0.00  0.00    -0.264 OA
ATOM      4  H   UNL d   1       0.141  -3.189  -0.891  0.00  0.00     0.190 HD
ENDROOT
BRANCH   2   5
ATOM      5  N   UNL d   1       1.550  -4.679  -0.929  0.00  0.00    -0.248 N 
ATOM      6  C   UNL d   1       0.659  -5.429  -1.679  0.00  0.00     0.339 C 
ATOM      7  N   UNL d   1       1.043  -6.747  -1.815  0.00  0.00    -0.308 N 
ATOM      8  O   UNL d   1      -0.360  -4.904  -2.122  0.00  0.00    -0.245 OA
ATOM      9  H   UNL d   1       1.833  -7.053  -1.269  0.00  0.00     0.170 HD
ATOM     10  H   UNL d   1       2.179  -5.120  -0.269  0.00  0.00     0.192 HD
BRANCH   7  11
ATOM     11  C   UNL d   1       0.291  -7.752  -2.467  0.00  0.00     0.036 A 
ATOM     12  C   UNL d   1      -0.765  -7.474  -3.339  0.00  0.00     0.029 A 
ATOM     13  C   UNL d   1      -1.544  -8.504  -3.870  0.00  0.00     0.002 A 
ATOM     14  C   UNL d   1      -1.266  -9.827  -3.545  0.00  0.00     0.000 A 
ATOM     15  C   UNL d   1      -0.181 -10.121  -2.722  0.00  0.00     0.002 A 
ATOM     16  C   UNL d   1       0.605  -9.089  -2.196  0.00  0.00     0.029 A 
ENDBRANCH   7  11
ENDBRANCH   2   5
BRANCH   1  17
ATOM     17  C   UNL d   1       1.356  -1.075  -0.175  0.00  0.00     0.132 A 
ATOM     18  N   UNL d   1       1.886   0.144  -0.573  0.00  0.00    -0.302 N 
ATOM     19  C   UNL d   1       1.000   1.129  -0.141  0.00  0.00     0.112 A 
ATOM     20  C   UNL d   1       3.048   0.444  -1.290  0.00  0.00     0.099 A 
ATOM     21  C   UNL d   1       1.329   2.485  -0.421  0.00  0.00     0.049 A 
ATOM     22  N   UNL d   1      -0.037   0.613   0.478  0.00  0.00    -0.344 N 
ATOM     23  C   UNL d   1       2.452   2.775  -1.104  0.00  0.00     0.005 A 
ATOM     24  C   UNL d   1       3.346   1.726  -1.568  0.00  0.00     0.018 A 
ATOM     25  C   UNL d   1       0.171  -0.744   0.478  0.00  0.00     0.040 A 
ATOM     26  HN  UNL d   1      -0.831   1.116   0.876  1.00  0.00     0.167 HD
ATOM     27  C   UNL d   1      -0.805  -1.617   1.176  0.00  0.00     0.071 C 
ENDBRANCH   1  17
TORSDOF 3
