REMARK  3 active torsions:
REMARK  status: ('A' for Active; 'I' for Inactive)
REMARK    1  A    between atoms: C_2  and  C_1 
REMARK       I    between atoms: N_3  and  C_1 
REMARK       I    between atoms: N_5  and  C_2 
REMARK    2  A    between atoms: C_4  and  N_3 
REMARK    3  A    between atoms: C_14  and  N_5 
ROOT
ATOM      1  C   UNL d   1       0.729   2.632   0.293  0.00  0.00     0.314 C 
ATOM      2  N   UNL d   1       1.839   2.865   1.082  0.00  0.00    -0.317 N 
ATOM      3  O   UNL d   1       0.141   3.421  -0.434  0.00  0.00    -0.262 OA
ATOM      4  H   UNL d   1       2.057   2.123   1.747  0.00  0.00     0.169 HD
ENDROOT
BRANCH   1   5
ATOM      5  C   UNL d   1       0.149   1.211   0.508  0.00  0.00     0.310 C 
ATOM      6  N   UNL d   1      -1.177   1.104   0.154  0.00  0.00    -0.348 N 
ATOM      7  H   UNL d   1      -1.579   1.966  -0.209  0.00  0.00     0.163 HD
ATOM      8  O   UNL d   1       0.859   0.345   0.991  0.00  0.00    -0.262 OA
BRANCH   6   9
ATOM      9  C   UNL d   1      -2.092  -0.013   0.381  0.00  0.00     0.084 C 
ATOM     10  C   UNL d   1      -2.443  -0.226   1.858  0.00  0.00     0.025 C 
ATOM     11  C   UNL d   1      -1.475  -1.135   2.604  0.00  0.00     0.002 C 
ATOM     12  C   UNL d   1      -1.313  -2.474   1.899  0.00  0.00     0.000 C 
ATOM     13  C   UNL d   1      -0.895  -2.323   0.441  0.00  0.00     0.002 C 
ATOM     14  C   UNL d   1      -1.734  -1.317  -0.347  0.00  0.00     0.025 C 
ENDBRANCH   6   9
ENDBRANCH   1   5
BRANCH   2  15
ATOM     15  C   UNL d   1       2.594   4.057   1.185  0.00  0.00     0.057 A 
ATOM     16  C   UNL d   1       3.398   4.255   2.329  0.00  0.00     0.062 A 
ATOM     17  C   UNL d   1       4.157   5.416   2.486  0.00  0.00     0.050 A 
ATOM     18 CL   UNL d   1       3.426   3.085   3.606  0.00  0.00    -0.082 Cl
ATOM     19  C   UNL d   1       4.145   6.380   1.482  0.00  0.00     0.035 A 
ATOM     20  C   UNL d   1       3.379   6.191   0.335  0.00  0.00     0.026 A 
ATOM     21 CL   UNL d   1       5.085   7.809   1.663  0.00  0.00    -0.084 Cl
ATOM     22  C   UNL d   1       2.596   5.037   0.193  0.00  0.00     0.033 A 
ENDBRANCH   2  15
TORSDOF 3
