REMARK  4 active torsions:
REMARK  status: ('A' for Active; 'I' for Inactive)
REMARK    1  A    between atoms: N_6  and  C_1 
REMARK    2  A    between atoms: N_7  and  C_2 
REMARK    3  A    between atoms: C_8  and  C_3 
REMARK       I    between atoms: C_9  and  N_7 
REMARK    4  A    between atoms: O_15  and  C_8 
ROOT
ATOM      1  C   UNL d   1      -0.645   1.129   0.154  0.00  0.00     0.152 C 
ATOM      2  C   UNL d   1       0.479  -1.038   0.129  0.00  0.00     0.095 C 
ATOM      3  C   UNL d   1       1.403  -0.015  -0.017  0.00  0.00     0.082 C 
ATOM      4  S   UNL d   1      -1.095  -0.484   0.429  0.00  0.00    -0.047 SA
ATOM      5  C   UNL d   1       0.729   1.289   0.024  0.00  0.00    -0.003 C 
ATOM      6  C   UNL d   1       1.436   2.614  -0.053  0.00  0.00     0.052 C 
ENDROOT
BRANCH   2   7
ATOM      7  N   UNL d   1       0.519  -2.414   0.079  0.00  0.00    -0.321 N 
ATOM      8  C   UNL d   1       1.360  -3.101  -0.772  0.00  0.00     0.218 C 
ATOM      9  O   UNL d   1       2.151  -2.597  -1.565  0.00  0.00    -0.274 OA
ATOM     10  C   UNL d   1       1.212  -4.597  -0.659  0.00  0.00     0.117 C 
ATOM     11  H   UNL d   1      -0.314  -2.890   0.403  0.00  0.00     0.169 HD
ENDBRANCH   2   7
BRANCH   3  12
ATOM     12  C   UNL d   1       2.856  -0.197  -0.150  0.00  0.00     0.296 C 
ATOM     13  O   UNL d   1       3.562   0.566  -0.797  0.00  0.00    -0.259 OA
BRANCH  12  14
ATOM     14  O   UNL d   1       3.330  -1.208   0.637  0.00  0.00    -0.322 OA
ATOM     15  C   UNL d   1       4.748  -1.394   0.626  0.00  0.00     0.213 C 
ENDBRANCH  12  14
ENDBRANCH   3  12
BRANCH   1  16
ATOM     16  N   UNL d   1      -1.685   2.138   0.124  0.00  0.00    -0.108 N 
ATOM     17  O   UNL d   1      -1.326   3.317   0.021  0.00  0.00    -0.531 OA
ATOM     18  O   UNL d   1      -2.864   1.762   0.185  0.00  0.00    -0.531 OA
ENDBRANCH   1  16
TORSDOF 4
