REMARK  5 active torsions:
REMARK  status: ('A' for Active; 'I' for Inactive)
REMARK    1  A    between atoms: N_2  and  S_1 
REMARK    2  A    between atoms: C_4  and  S_1 
REMARK    3  A    between atoms: N_7  and  N_2 
REMARK    4  A    between atoms: N_12  and  C_6 
REMARK    5  A    between atoms: C_9  and  C_15 
ROOT
ATOM      1  N   UNL d   1       0.824   2.543   0.931  0.00  0.00    -0.301 N 
ATOM      2  HN  UNL d   1       1.426   2.256   1.703  1.00  0.00     0.186 HD
ATOM      3  C   UNL d   1       0.416   3.765   0.788  0.00  0.00     0.120 C 
ENDROOT
BRANCH   1   4
ATOM      4  N   UNL d   1       0.369   1.622  -0.072  0.00  0.00    -0.223 N 
ATOM      5  H   UNL d   1      -0.260   1.914  -0.823  0.00  0.00     0.200 HD
BRANCH   4   6
ATOM      6  S   UNL d   1       0.096  -0.003   0.369  0.00  0.00     0.276 S 
ATOM      7  O   UNL d   1      -0.883  -0.507  -0.580  0.00  0.00    -0.199 OA
ATOM      8  O   UNL d   1      -0.135  -0.095   1.794  0.00  0.00    -0.199 OA
BRANCH   6   9
ATOM      9  C   UNL d   1       1.654  -0.771   0.003  0.00  0.00     0.081 A 
ATOM     10  C   UNL d   1       2.661  -0.780   0.972  0.00  0.00     0.026 A 
ATOM     11  C   UNL d   1       3.846  -1.478   0.729  0.00  0.00     0.008 A 
ATOM     12  C   UNL d   1       4.029  -2.174  -0.476  0.00  0.00    -0.062 A 
ATOM     13  C   UNL d   1       3.013  -2.152  -1.440  0.00  0.00     0.008 A 
ATOM     14  C   UNL d   1       5.291  -2.951  -0.709  0.00  0.00     0.048 C 
ATOM     15  C   UNL d   1       1.825  -1.457  -1.202  0.00  0.00     0.026 A 
ENDBRANCH   6   9
ENDBRANCH   4   6
ENDBRANCH   1   4
BRANCH   3  16
ATOM     16  C   UNL d   1       0.812   4.814   1.753  0.00  0.00     0.003 A 
ATOM     17  C   UNL d   1       0.342   6.124   1.670  0.00  0.00     0.047 A 
ATOM     18  C   UNL d   1       0.780   7.088   2.596  0.00  0.00     0.054 A 
ATOM     19 CL   UNL d   1      -0.774   6.644   0.454  0.00  0.00    -0.083 Cl
ATOM     20  C   UNL d   1       1.688   6.780   3.623  0.00  0.00     0.031 A 
ATOM     21  C   UNL d   1       2.119   5.449   3.696  0.00  0.00     0.030 A 
ATOM     22  C   UNL d   1       1.694   4.479   2.782  0.00  0.00     0.017 A 
BRANCH  20  23
ATOM     23  N   UNL d   1       2.152   7.746   4.498  0.00  0.00    -0.390 N 
ATOM     24  C   UNL d   1       1.326   8.873   4.915  0.00  0.00     0.149 C 
ATOM     25  C   UNL d   1       3.436   7.615   5.181  0.00  0.00     0.149 C 
ENDBRANCH  20  23
ENDBRANCH   3  16
TORSDOF 5
