REMARK  3 active torsions:
REMARK  status: ('A' for Active; 'I' for Inactive)
REMARK    1  A    between atoms: C_13  and  C_4 
REMARK    2  A    between atoms: C_12  and  C_7 
REMARK    3  A    between atoms: C_17  and  C_13 
ROOT
ATOM      1  N   UNL d   1       0.293   0.608  -0.061  0.00  0.00    -0.257 N 
ATOM      2  C   UNL d   1       0.231  -0.765  -0.049  0.00  0.00     0.158 A 
ATOM      3  C   UNL d   1      -0.876   1.335  -0.094  0.00  0.00     0.262 A 
ATOM      4  C   UNL d   1      -2.143   0.519  -0.069  0.00  0.00     0.033 A 
ATOM      5  N   UNL d   1      -0.831  -1.491  -0.048  0.00  0.00    -0.339 N 
ATOM      6  HN  UNL d   1      -0.783  -2.510  -0.053  1.00  0.00     0.168 HD
ATOM      7  C   UNL d   1       1.592   1.098  -0.044  0.00  0.00     0.061 A 
ATOM      8  C   UNL d   1      -2.033  -0.826  -0.041  0.00  0.00     0.019 A 
ATOM      9  S   UNL d   1       1.847  -1.448  -0.031  0.00  0.00    -0.063 SA
ATOM     10  C   UNL d   1       2.536   0.142  -0.025  0.00  0.00     0.084 A 
ATOM     11  O   UNL d   1      -0.949   2.561  -0.142  0.00  0.00    -0.267 OA
ATOM     12  C   UNL d   1      -3.205  -1.776  -0.006  0.00  0.00     0.069 C 
ENDROOT
BRANCH   7  13
ATOM     13  C   UNL d   1       1.977   2.509  -0.042  0.00  0.00    -0.008 A 
ATOM     14  C   UNL d   1       2.183   3.185  -1.251  0.00  0.00     0.014 A 
ATOM     15  C   UNL d   1       2.680   4.491  -1.253  0.00  0.00     0.001 A 
ATOM     16  C   UNL d   1       2.976   5.128  -0.049  0.00  0.00     0.000 A 
ATOM     17  C   UNL d   1       2.767   4.465   1.160  0.00  0.00     0.001 A 
ATOM     18  C   UNL d   1       2.270   3.159   1.164  0.00  0.00     0.014 A 
ENDBRANCH   7  13
BRANCH   4  19
ATOM     19  C   UNL d   1      -3.432   1.308  -0.012  0.00  0.00     0.046 C 
BRANCH  19  20
ATOM     20  C   UNL d   1      -3.942   1.794  -1.374  0.00  0.00     0.000 C 
ATOM     21  C   UNL d   1      -4.406   0.674  -2.295  0.00  0.00     0.005 C 
ENDBRANCH  19  20
ENDBRANCH   4  19
TORSDOF 3
