REMARK  3 active torsions:
REMARK  status: ('A' for Active; 'I' for Inactive)
REMARK    1  A    between atoms: C_9  and  C_2 
REMARK    2  A    between atoms: S_10  and  C_3 
REMARK    3  A    between atoms: C_18  and  S_10 
ROOT
ATOM      1  C   UNL d   1      -0.552   5.093   0.884  0.00  0.00    -0.107 C 
ATOM      2  C   UNL d   1      -0.338   6.272   0.949  0.00  0.00     0.013 C 
ATOM      3  C   UNL d   1      -0.822   3.647   0.797  0.00  0.00     0.175 C 
ENDROOT
BRANCH   3   4
ATOM      4  S   UNL d   1       0.597   2.767   0.082  0.00  0.00    -0.082 SA
BRANCH   4   5
ATOM      5  C   UNL d   1       0.000   1.139   0.083  0.00  0.00     0.147 A 
ATOM      6  N   UNL d   1       0.825   0.041  -0.009  0.00  0.00    -0.330 N 
ATOM      7  C   UNL d   1       0.027  -1.090   0.087  0.00  0.00     0.061 A 
ATOM      8  C   UNL d   1       2.256   0.097  -0.203  0.00  0.00     0.158 C 
ATOM      9  C   UNL d   1      -1.259  -0.569   0.142  0.00  0.00     0.120 A 
ATOM     10  N   UNL d   1      -1.262   0.799   0.160  0.00  0.00    -0.344 N 
ATOM     11  HN  UNL d   1      -2.070   1.418   0.220  1.00  0.00     0.167 HD
BRANCH   7  12
ATOM     12  C   UNL d   1       0.456  -2.493   0.096  0.00  0.00    -0.008 A 
ATOM     13  C   UNL d   1       1.585  -2.917   0.813  0.00  0.00     0.015 A 
ATOM     14  C   UNL d   1       1.978  -4.260   0.809  0.00  0.00     0.024 A 
ATOM     15  C   UNL d   1       1.223  -5.202   0.115  0.00  0.00     0.034 A 
ATOM     16  C   UNL d   1       0.080  -4.809  -0.573  0.00  0.00     0.024 A 
ATOM     17 CL   UNL d   1       1.702  -6.853   0.116  0.00  0.00    -0.084 Cl
ATOM     18  C   UNL d   1      -0.299  -3.463  -0.584  0.00  0.00     0.015 A 
ENDBRANCH   7  12
ENDBRANCH   4   5
ENDBRANCH   3   4
TORSDOF 3
