REMARK  4 active torsions:
REMARK  status: ('A' for Active; 'I' for Inactive)
REMARK    1  A    between atoms: O_15  and  C_5 
REMARK    2  A    between atoms: C_11  and  C_6 
REMARK    3  A    between atoms: O_16  and  C_7 
REMARK    4  A    between atoms: O_17  and  C_8 
ROOT
ATOM      1  C   UNL d   1       3.022   2.108  -0.424  0.00  0.00     0.074 A 
ATOM      2  C   UNL d   1       4.166   2.792  -1.120  0.00  0.00     0.263 A 
ATOM      3  S   UNL d   1       1.494   2.901  -0.209  0.00  0.00    -0.083 SA
ATOM      4  N   UNL d   1       4.047   4.077  -1.556  0.00  0.00    -0.321 N 
ATOM      5  C   UNL d   1       3.127   0.857   0.065  0.00  0.00     0.036 C 
ATOM      6  C   UNL d   1       2.958   4.936  -1.433  0.00  0.00     0.052 A 
ATOM      7  C   UNL d   1       1.769   4.532  -0.830  0.00  0.00     0.032 A 
ATOM      8  O   UNL d   1       5.251   2.247  -1.327  0.00  0.00    -0.267 OA
ATOM      9  C   UNL d   1       3.096   6.235  -1.930  0.00  0.00     0.031 A 
ATOM     10  C   UNL d   1       0.719   5.457  -0.723  0.00  0.00     0.021 A 
ATOM     11  C   UNL d   1       0.855   6.756  -1.216  0.00  0.00     0.002 A 
ATOM     12  C   UNL d   1       2.046   7.144  -1.825  0.00  0.00     0.002 A 
ATOM     13  H   UNL d   1       4.889   4.416  -2.006  0.00  0.00     0.169 HD
ENDROOT
BRANCH   5  14
ATOM     14  C   UNL d   1       4.310  -0.008   0.044  0.00  0.00    -0.029 A 
ATOM     15  C   UNL d   1       5.234   0.054   1.085  0.00  0.00     0.051 A 
ATOM     16  C   UNL d   1       6.378  -0.762   1.085  0.00  0.00     0.105 A 
ATOM     17  C   UNL d   1       6.609  -1.658   0.013  0.00  0.00     0.135 A 
ATOM     18  C   UNL d   1       5.689  -1.679  -1.061  0.00  0.00     0.105 A 
ATOM     19  C   UNL d   1       4.547  -0.864  -1.023  0.00  0.00     0.051 A 
BRANCH  16  20
ATOM     20  O   UNL d   1       7.324  -0.635   2.076  0.00  0.00    -0.353 OA
ATOM     21  C   UNL d   1       6.837  -0.264   3.364  0.00  0.00     0.210 C 
ENDBRANCH  16  20
BRANCH  17  22
ATOM     22  O   UNL d   1       7.675  -2.511  -0.091  0.00  0.00    -0.351 OA
ATOM     23  C   UNL d   1       8.476  -2.814   1.042  0.00  0.00     0.210 C 
ENDBRANCH  17  22
BRANCH  18  24
ATOM     24  O   UNL d   1       5.739  -2.392  -2.234  0.00  0.00    -0.353 OA
ATOM     25  C   UNL d   1       6.690  -3.427  -2.404  0.00  0.00     0.210 C 
ENDBRANCH  18  24
ENDBRANCH   5  14
TORSDOF 4
