REMARK  2 active torsions:
REMARK  status: ('A' for Active; 'I' for Inactive)
REMARK    1  A    between atoms: C_10  and  N_2 
REMARK    2  A    between atoms: C_11  and  C_10 
ROOT
ATOM      1  N   UNL d   1       1.995  -6.058   0.774  0.00  0.00    -0.197 NA
ATOM      2  C   UNL d   1       1.905  -4.911   0.906  0.00  0.00     0.060 C 
ATOM      3  C   UNL d   1       1.759  -3.457   1.060  0.00  0.00     0.144 C 
ENDROOT
BRANCH   3   4
ATOM      4  C   UNL d   1       1.017  -2.875  -0.145  0.00  0.00     0.147 C 
BRANCH   4   5
ATOM      5  N   UNL d   1       0.767  -1.451  -0.033  0.00  0.00    -0.309 N 
ATOM      6  C   UNL d   1       1.771  -0.489  -0.005  0.00  0.00     0.299 A 
ATOM      7  C   UNL d   1       1.037   0.876   0.040  0.00  0.00     0.252 A 
ATOM      8  O   UNL d   1       2.973  -0.647  -0.004  0.00  0.00    -0.264 OA
ATOM      9  C   UNL d   1      -0.388   0.549   0.038  0.00  0.00     0.047 A 
ATOM     10  O   UNL d   1       1.536   1.976   0.064  0.00  0.00    -0.281 OA
ATOM     11  C   UNL d   1      -1.480   1.395   0.084  0.00  0.00     0.018 A 
ATOM     12  C   UNL d   1      -0.501  -0.841  -0.023  0.00  0.00     0.052 A 
ATOM     13  C   UNL d   1      -2.742   0.803   0.061  0.00  0.00     0.001 A 
ATOM     14  C   UNL d   1      -2.876  -0.596  -0.017  0.00  0.00     0.002 A 
ATOM     15  C   UNL d   1      -1.751  -1.431  -0.061  0.00  0.00     0.031 A 
ENDBRANCH   4   5
ENDBRANCH   3   4
TORSDOF 2
