REMARK  6 active torsions:
REMARK  status: ('A' for Active; 'I' for Inactive)
REMARK    1  A    between atoms: C_2  and  CA_1 
REMARK    2  A    between atoms: N_3  and  CA_1 
REMARK    3  A    between atoms: OXT_11  and  C_2 
REMARK       I    between atoms: C_5  and  N_3 
REMARK    4  A    between atoms: C_8  and  C_4 
REMARK    5  A    between atoms: O_9  and  C_10 
REMARK    6  A    between atoms: C_16  and  O_9 
ROOT
ATOM      1  CA  UNL d   1       1.244   0.793   0.590  0.00  0.00     0.110 C 
ATOM      2  C   UNL d   1       2.192  -0.004   0.057  0.00  0.00     0.048 C 
ENDROOT
BRANCH   2   3
ATOM      3  C   UNL d   1       3.053  -0.922   0.806  0.00  0.00    -0.034 A 
ATOM      4  C   UNL d   1       2.685  -2.269   0.904  0.00  0.00     0.014 A 
ATOM      5  C   UNL d   1       3.515  -3.185   1.557  0.00  0.00     0.037 A 
ATOM      6  C   UNL d   1       4.707  -2.757   2.135  0.00  0.00     0.069 A 
ATOM      7  C   UNL d   1       5.073  -1.412   2.042  0.00  0.00     0.037 A 
ATOM      8  C   UNL d   1       4.246  -0.492   1.389  0.00  0.00     0.014 A 
BRANCH   6   9
ATOM      9  O   UNL d   1       5.620  -3.565   2.752  0.00  0.00    -0.347 OA
BRANCH   9  10
ATOM     10  C   UNL d   1       5.133  -4.728   3.433  0.00  0.00     0.120 C 
ATOM     11  C   UNL d   1       5.623  -5.972   2.701  0.00  0.00     0.040 C 
ATOM     12  C   UNL d   1       5.701  -4.680   4.848  0.00  0.00     0.040 C 
ENDBRANCH   9  10
ENDBRANCH   6   9
ENDBRANCH   2   3
BRANCH   1  13
ATOM     13  C   UNL d   1       0.400   1.551  -0.394  0.00  0.00     0.193 C 
ATOM     14  O   UNL d   1      -0.819   1.473  -0.443  0.00  0.00    -0.645 OA
BRANCH  13  15
ATOM     15  OXT UNL d   1       1.130   2.222  -1.316  0.00  0.00    -0.772 OA
ATOM     16  HXT UNL d   1       2.082   2.264  -1.117  0.00  0.00     0.167 HD
ENDBRANCH  13  15
ENDBRANCH   1  13
BRANCH   1  17
ATOM     17  N   UNL d   1       0.970   0.781   1.942  0.00  0.00    -0.322 N 
ATOM     18  C   UNL d   1       0.120   1.635   2.620  0.00  0.00     0.218 C 
ATOM     19  O   UNL d   1      -0.399   2.640   2.155  0.00  0.00    -0.274 OA
ATOM     20  C   UNL d   1      -0.086   1.244   4.066  0.00  0.00     0.117 C 
ATOM     21  H   UNL d   1       1.478   0.106   2.499  0.00  0.00     0.169 HD
ENDBRANCH   1  17
TORSDOF 6
