REMARK  3 active torsions:
REMARK  status: ('A' for Active; 'I' for Inactive)
REMARK    1  A    between atoms: C_7  and  C_4 
REMARK       I    between atoms: N_14  and  C_7 
REMARK    2  A    between atoms: N_8  and  C_10 
REMARK    3  A    between atoms: N_9  and  C_15 
ROOT
ATOM      1  C   UNL d   1      -0.657   0.668   0.233  0.00  0.00     0.005 A 
ATOM      2  C   UNL d   1      -1.137  -0.650   0.041  0.00  0.00     0.029 A 
ATOM      3  C   UNL d   1       1.219  -0.697  -0.101  0.00  0.00     0.028 A 
ATOM      4  C   UNL d   1      -1.612   1.676   0.370  0.00  0.00     0.046 C 
ATOM      5  C   UNL d   1       0.807   0.620   0.190  0.00  0.00    -0.010 A 
ATOM      6  C   UNL d   1       0.013  -1.534  -0.204  0.00  0.00     0.194 A 
ATOM      7  C   UNL d   1      -3.394  -0.004   0.273  0.00  0.00     0.104 C 
ATOM      8  C   UNL d   1      -2.472  -1.018   0.029  0.00  0.00     0.052 C 
ATOM      9  C   UNL d   1      -2.970   1.320   0.500  0.00  0.00     0.054 C 
ATOM     10  C   UNL d   1       2.536  -1.108  -0.223  0.00  0.00     0.052 A 
ATOM     11  C   UNL d   1       3.511  -0.134  -0.011  0.00  0.00     0.103 A 
ATOM     12  C   UNL d   1       1.792   1.563   0.434  0.00  0.00     0.016 A 
ATOM     13  O   UNL d   1      -0.027  -2.719  -0.450  0.00  0.00    -0.287 OA
ATOM     14  C   UNL d   1       3.148   1.187   0.336  0.00  0.00     0.037 A 
ENDROOT
BRANCH   4  15
ATOM     15  C   UNL d   1      -1.286   3.120   0.333  0.00  0.00     0.254 C 
ATOM     16  N   UNL d   1      -1.908   3.962  -0.617  0.00  0.00    -0.348 N 
ATOM     17  C   UNL d   1      -1.528   5.374  -0.533  0.00  0.00     0.126 C 
ATOM     18  C   UNL d   1      -2.910   3.551  -1.614  0.00  0.00     0.126 C 
ATOM     19  C   UNL d   1      -2.230   6.374  -1.453  0.00  0.00     0.020 C 
ATOM     20  C   UNL d   1      -1.901   6.198  -2.933  0.00  0.00     0.002 C 
ATOM     21  C   UNL d   1      -2.724   5.114  -3.613  0.00  0.00     0.002 C 
ATOM     22  C   UNL d   1      -2.471   3.720  -3.062  0.00  0.00     0.020 C 
ATOM     23  O   UNL d   1      -0.484   3.533   1.168  0.00  0.00    -0.267 OA
ENDBRANCH   4  15
BRANCH   7  24
ATOM     24  N   UNL d   1      -4.830  -0.286   0.172  0.00  0.00    -0.116 N 
ATOM     25  O   UNL d   1      -5.183  -1.471   0.123  0.00  0.00    -0.532 OA
ATOM     26  O   UNL d   1      -5.595   0.686   0.106  0.00  0.00    -0.532 OA
ENDBRANCH   7  24
BRANCH  11  27
ATOM     27  N   UNL d   1       4.929  -0.490  -0.153  0.00  0.00    -0.116 N 
ATOM     28  O   UNL d   1       5.204  -1.647  -0.491  0.00  0.00    -0.532 OA
ATOM     29  O   UNL d   1       5.769   0.400   0.065  0.00  0.00    -0.532 OA
ENDBRANCH  11  27
TORSDOF 3
