REMARK  3 active torsions:
REMARK  status: ('A' for Active; 'I' for Inactive)
REMARK    1  A    between atoms: C_12  and  C_1 
REMARK    2  A    between atoms: C_5  and  C_6 
REMARK       I    between atoms: C_6  and  N_10 
REMARK    3  A    between atoms: N_10  and  C_19 
ROOT
ATOM      1  C   UNL d   1      -3.871  -0.710   0.250  0.00  0.00    -0.002 A 
ATOM      2  C   UNL d   1      -4.631   0.065  -0.637  0.00  0.00     0.016 A 
ATOM      3  C   UNL d   1      -4.547  -1.649   1.042  0.00  0.00     0.016 A 
ATOM      4  C   UNL d   1      -6.665  -1.115  -0.004  0.00  0.00     0.035 A 
ATOM      5  C   UNL d   1      -5.924  -1.852   0.914  0.00  0.00     0.030 A 
ATOM      6  C   UNL d   1      -6.013  -0.136  -0.763  0.00  0.00     0.030 A 
ENDROOT
BRANCH   4   7
ATOM      7  N   UNL d   1      -8.045  -1.300  -0.216  0.00  0.00    -0.323 N 
ATOM      8  C   UNL d   1      -8.851  -2.285   0.327  0.00  0.00     0.257 C 
ATOM      9  O   UNL d   1      -8.507  -3.173   1.099  0.00  0.00    -0.267 OA
ATOM     10  H   UNL d   1      -8.471  -0.676  -0.892  0.00  0.00     0.169 HD
BRANCH   8  11
ATOM     11  C   UNL d   1     -10.294  -2.203  -0.024  0.00  0.00     0.054 A 
ATOM     12  C   UNL d   1     -10.789  -1.874  -1.294  0.00  0.00     0.051 A 
ATOM     13  C   UNL d   1     -12.168  -1.757  -1.499  0.00  0.00     0.048 A 
ATOM     14 CL   UNL d   1      -9.773  -1.627  -2.670  0.00  0.00    -0.083 Cl
ATOM     15  C   UNL d   1     -13.052  -1.984  -0.445  0.00  0.00     0.035 A 
ATOM     16  C   UNL d   1     -12.575  -2.353   0.810  0.00  0.00     0.025 A 
ATOM     17 CL   UNL d   1     -14.743  -1.801  -0.696  0.00  0.00    -0.084 Cl
ATOM     18  C   UNL d   1     -11.200  -2.468   1.018  0.00  0.00     0.020 A 
ENDBRANCH   8  11
ENDBRANCH   4   7
BRANCH   1  19
ATOM     19  C   UNL d   1      -2.411  -0.531   0.328  0.00  0.00     0.085 A 
ATOM     20  N   UNL d   1      -1.768   0.584   0.040  0.00  0.00    -0.349 N 
ATOM     21  C   UNL d   1      -0.405   0.420   0.245  0.00  0.00     0.050 A 
ATOM     22  HN  UNL d   1      -2.209   1.444  -0.288  1.00  0.00     0.166 HD
ATOM     23  C   UNL d   1       0.590   1.404   0.084  0.00  0.00     0.031 A 
ATOM     24  C   UNL d   1      -0.014  -0.854   0.656  0.00  0.00     0.034 A 
ATOM     25  C   UNL d   1       1.931   1.092   0.350  0.00  0.00     0.009 A 
ATOM     26  C   UNL d   1       2.301  -0.189   0.767  0.00  0.00    -0.061 A 
ATOM     27  C   UNL d   1       1.326  -1.183   0.918  0.00  0.00     0.028 A 
ATOM     28  C   UNL d   1       3.742  -0.500   1.055  0.00  0.00     0.048 C 
ATOM     29  S   UNL d   1      -1.399  -1.856   0.767  0.00  0.00    -0.070 SA
ENDBRANCH   1  19
TORSDOF 3
