REMARK  3 active torsions:
REMARK  status: ('A' for Active; 'I' for Inactive)
REMARK    1  A    between atoms: C_3  and  C_1 
REMARK    2  A    between atoms: N_19  and  C_2 
REMARK    3  A    between atoms: C_9  and  C_8 
ROOT
ATOM      1  C   UNL d   1      -0.392   0.178   3.423  0.00  0.00     0.155 A 
ATOM      2  C   UNL d   1       0.573  -0.318   1.395  0.00  0.00     0.121 A 
ATOM      3  N   UNL d   1       0.031   0.602   2.233  0.00  0.00    -0.329 N 
ATOM      4  HN  UNL d   1      -0.050   1.581   1.961  1.00  0.00     0.168 HD
ATOM      5  N   UNL d   1      -0.292  -1.073   3.863  0.00  0.00    -0.331 N 
ATOM      6  HN  UNL d   1      -0.609  -1.336   4.796  1.00  0.00     0.168 HD
ATOM      7  C   UNL d   1       0.248  -1.980   3.021  0.00  0.00     0.070 A 
ATOM      8  C   UNL d   1       0.701  -1.643   1.763  0.00  0.00     0.067 A 
ENDROOT
BRANCH   7   9
ATOM      9  C   UNL d   1       0.344  -3.373   3.494  0.00  0.00     0.101 A 
ATOM     10  N   UNL d   1       0.900  -4.356   2.803  0.00  0.00    -0.358 N 
ATOM     11  C   UNL d   1       0.818  -5.541   3.507  0.00  0.00     0.096 A 
ATOM     12  HN  UNL d   1       1.327  -4.252   1.883  1.00  0.00     0.166 HD
ATOM     13  C   UNL d   1       0.200  -5.462   4.734  0.00  0.00     0.069 A 
ATOM     14  S   UNL d   1      -0.292  -3.850   5.028  0.00  0.00    -0.081 SA
ENDBRANCH   7   9
BRANCH   1  15
ATOM     15  N   UNL d   1      -0.935   1.113   4.274  0.00  0.00    -0.274 NA
ATOM     16  H   UNL d   1      -0.607   2.040   4.041  0.00  0.00     0.127 HD
ATOM     17  H   UNL d   1      -0.844   0.814   5.234  0.00  0.00     0.127 HD
ENDBRANCH   1  15
BRANCH   2  18
ATOM     18  C   UNL d   1       1.049   0.109   0.018  0.00  0.00     0.432 C 
ATOM     19  F   UNL d   1       0.896   1.438  -0.243  0.00  0.00    -0.165 F 
ATOM     20  F   UNL d   1       0.395  -0.546  -0.984  0.00  0.00    -0.165 F 
ATOM     21  F   UNL d   1       2.374  -0.157  -0.177  0.00  0.00    -0.165 F 
ENDBRANCH   2  18
TORSDOF 3
