REMARK  7 active torsions:
REMARK  status: ('A' for Active; 'I' for Inactive)
REMARK    1  A    between atoms: C_2  and  S_1 
REMARK    2  A    between atoms: C_12  and  S_1 
REMARK    3  A    between atoms: N_15  and  C_3 
REMARK    4  A    between atoms: C_19  and  C_9 
REMARK    5  A    between atoms: C_13  and  C_14 
REMARK    6  A    between atoms: O_18  and  C_19 
REMARK    7  A    between atoms: C_20  and  O_18 
ROOT
ATOM      1  C   UNL d   1       0.230  -0.539   1.499  0.00  0.00     0.113 A 
ATOM      2  C   UNL d   1      -1.016  -0.902   1.952  0.00  0.00     0.102 A 
ATOM      3  N   UNL d   1      -1.290  -0.976   3.264  0.00  0.00    -0.334 N 
ATOM      4  HN  UNL d   1      -2.209  -1.270   3.594  1.00  0.00     0.168 HD
ATOM      5  C   UNL d   1       1.159  -0.176   2.444  0.00  0.00     0.116 A 
ATOM      6  N   UNL d   1       0.922  -0.239   3.769  0.00  0.00    -0.352 N 
ATOM      7  HN  UNL d   1       1.634   0.007   4.455  1.00  0.00     0.166 HD
ATOM      8  C   UNL d   1      -0.309  -0.646   4.136  0.00  0.00     0.107 A 
ENDROOT
BRANCH   8   9
ATOM      9  C   UNL d   1      -0.595  -0.828   5.612  0.00  0.00     0.252 C 
BRANCH   9  10
ATOM     10  O   UNL d   1      -0.944   0.421   6.213  0.00  0.00    -0.344 OA
BRANCH  10  11
ATOM     11  C   UNL d   1      -1.186   0.383   7.560  0.00  0.00     0.069 A 
ATOM     12  C   UNL d   1      -1.023   1.591   8.232  0.00  0.00     0.037 A 
ATOM     13  C   UNL d   1      -1.258   1.679   9.609  0.00  0.00     0.011 A 
ATOM     14  C   UNL d   1      -1.685   0.565  10.354  0.00  0.00    -0.050 A 
ATOM     15  C   UNL d   1      -1.854  -0.641   9.656  0.00  0.00     0.011 A 
ATOM     16  C   UNL d   1      -1.611  -0.732   8.277  0.00  0.00     0.037 A 
BRANCH  14  17
ATOM     17  C   UNL d   1      -1.946   0.692  11.866  0.00  0.00    -0.024 C 
ATOM     18  C   UNL d   1      -2.461  -0.610  12.522  0.00  0.00     0.019 C 
ATOM     19  C   UNL d   1      -0.637   1.082  12.586  0.00  0.00     0.019 C 
ATOM     20  C   UNL d   1      -3.010   1.780  12.126  0.00  0.00     0.019 C 
ENDBRANCH  14  17
ENDBRANCH  10  11
ENDBRANCH   9  10
ENDBRANCH   8   9
BRANCH   2  21
ATOM     21  N   UNL d   1      -2.048  -1.323   1.121  0.00  0.00    -0.287 NA
ATOM     22  H   UNL d   1      -2.195  -0.685   0.335  0.00  0.00     0.125 HD
ATOM     23  H   UNL d   1      -2.889  -1.428   1.685  0.00  0.00     0.125 HD
ENDBRANCH   2  21
BRANCH   1  24
ATOM     24  S   UNL d   1       0.655  -0.513  -0.195  0.00  0.00     0.183 S 
ATOM     25  O   UNL d   1       1.861   0.288  -0.321  0.00  0.00    -0.222 OA
ATOM     26  O   UNL d   1      -0.536  -0.134  -0.934  0.00  0.00    -0.222 OA
BRANCH  24  27
ATOM     27  C   UNL d   1       1.072  -2.222  -0.588  0.00  0.00     0.105 C 
ATOM     28  C   UNL d   1       1.438  -2.341  -2.066  0.00  0.00     0.026 C 
ATOM     29  C   UNL d   1       2.220  -2.742   0.275  0.00  0.00     0.026 C 
ENDBRANCH  24  27
ENDBRANCH   1  24
TORSDOF 7
