REMARK  12 active torsions:
REMARK  status: ('A' for Active; 'I' for Inactive)
REMARK    1  A    between atoms: C_3  and  S_1 
REMARK    2  A    between atoms: N_4  and  S_1 
REMARK    3  A    between atoms: C_2  and  C_8 
REMARK    4  A    between atoms: S_7  and  C_2 
REMARK    5  A    between atoms: C_18  and  N_4 
REMARK    6  A    between atoms: C_19  and  N_4 
REMARK    7  A    between atoms: C_16  and  S_7 
REMARK    8  A    between atoms: C_9  and  C_16 
REMARK    9  A    between atoms: O_17  and  C_9 
REMARK   10  A    between atoms: C_20  and  O_17 
REMARK   11  A    between atoms: C_21  and  C_18 
REMARK   12  A    between atoms: C_22  and  C_19 
ROOT
ATOM      1  C   UNL d   1       0.745   1.295   1.049  0.00  0.00     0.074 A 
ATOM      2  C   UNL d   1       0.079   3.370   2.833  0.00  0.00     0.021 A 
ATOM      3  C   UNL d   1       0.070   1.009   2.242  0.00  0.00     0.026 A 
ATOM      4  C   UNL d   1       1.135   2.608   0.774  0.00  0.00     0.026 A 
ATOM      5  C   UNL d   1       0.764   3.646   1.640  0.00  0.00     0.017 A 
ATOM      6  C   UNL d   1      -0.257   2.043   3.132  0.00  0.00     0.017 A 
ENDROOT
BRANCH   1   7
ATOM      7  S   UNL d   1       1.268  -0.052  -0.011  0.00  0.00     0.243 S 
ATOM      8  O   UNL d   1       0.967  -1.269   0.706  0.00  0.00    -0.206 OA
ATOM      9  O   UNL d   1       2.625   0.234  -0.430  0.00  0.00    -0.206 OA
BRANCH   7  10
ATOM     10  N   UNL d   1       0.247   0.035  -1.431  0.00  0.00    -0.206 NA
BRANCH  10  11
ATOM     11  C   UNL d   1       0.587   1.230  -2.292  0.00  0.00     0.107 C 
BRANCH  11  12
ATOM     12  C   UNL d   1      -0.296   1.439  -3.523  0.00  0.00     0.011 C 
ATOM     13  C   UNL d   1      -1.772   1.572  -3.195  0.00  0.00     0.006 C 
ENDBRANCH  11  12
ENDBRANCH  10  11
BRANCH  10  14
ATOM     14  C   UNL d   1       0.252  -1.242  -2.233  0.00  0.00     0.107 C 
BRANCH  14  15
ATOM     15  C   UNL d   1      -0.537  -2.392  -1.606  0.00  0.00     0.011 C 
ATOM     16  C   UNL d   1      -1.961  -2.023  -1.222  0.00  0.00     0.006 C 
ENDBRANCH  14  15
ENDBRANCH  10  14
ENDBRANCH   7  10
ENDBRANCH   1   7
BRANCH   2  17
ATOM     17  C   UNL d   1      -0.245   4.514   3.738  0.00  0.00     0.219 C 
ATOM     18  O   UNL d   1      -0.386   5.650   3.300  0.00  0.00    -0.280 OA
BRANCH  17  19
ATOM     19  S   UNL d   1      -0.266   4.186   5.471  0.00  0.00    -0.077 SA
BRANCH  19  20
ATOM     20  C   UNL d   1      -1.216   5.623   6.040  0.00  0.00     0.193 C 
BRANCH  20  21
ATOM     21  C   UNL d   1      -2.658   5.590   5.578  0.00  0.00     0.268 C 
ATOM     22  O   UNL d   1      -3.162   4.782   4.810  0.00  0.00    -0.264 OA
BRANCH  21  23
ATOM     23  O   UNL d   1      -3.312   6.654   6.135  0.00  0.00    -0.321 OA
BRANCH  23  24
ATOM     24  C   UNL d   1      -4.583   6.980   5.556  0.00  0.00     0.174 C 
ATOM     25  C   UNL d   1      -4.340   7.969   4.431  0.00  0.00     0.034 C 
ENDBRANCH  23  24
ENDBRANCH  21  23
ENDBRANCH  20  21
ENDBRANCH  19  20
ENDBRANCH  17  19
ENDBRANCH   2  17
TORSDOF 12
