REMARK  6 active torsions:
REMARK  status: ('A' for Active; 'I' for Inactive)
REMARK    1  A    between atoms: C_7  and  C_1 
REMARK    2  A    between atoms: C_14  and  N_2 
REMARK    3  A    between atoms: C_15  and  C_6 
REMARK       I    between atoms: N_13  and  C_7 
REMARK    4  A    between atoms: C_8  and  C_16 
REMARK    5  A    between atoms: C_16  and  N_13 
REMARK    6  A    between atoms: C_21  and  C_14 
ROOT
ATOM      1  C   UNL d   1      -0.412  -1.468   0.221  0.00  0.00     0.120 C 
ATOM      2  N   UNL d   1       0.779  -0.770   0.179  0.00  0.00    -0.282 N 
ATOM      3  N   UNL d   1       0.630   0.549  -0.046  0.00  0.00    -0.301 N 
ATOM      4  HN  UNL d   1       1.361   1.233  -0.240  1.00  0.00     0.187 HD
ATOM      5  C   UNL d   1      -1.381  -0.466   0.182  0.00  0.00     0.064 C 
ATOM      6  C   UNL d   1      -0.688   0.769   0.042  0.00  0.00     0.036 C 
ENDROOT
BRANCH   1   7
ATOM      7  C   UNL d   1      -0.487  -2.914   0.316  0.00  0.00     0.270 C 
ATOM      8  N   UNL d   1      -1.746  -3.478   0.370  0.00  0.00    -0.351 N 
ATOM      9  H   UNL d   1      -2.557  -2.893   0.249  0.00  0.00     0.163 HD
ATOM     10  O   UNL d   1       0.505  -3.639   0.311  0.00  0.00    -0.266 OA
BRANCH   8  11
ATOM     11  C   UNL d   1      -1.891  -4.920   0.262  0.00  0.00     0.162 C 
BRANCH  11  12
ATOM     12  C   UNL d   1      -3.262  -5.305   0.722  0.00  0.00    -0.022 C 
ATOM     13  C   UNL d   1      -3.584  -5.864   2.022  0.00  0.00    -0.009 A 
ATOM     14  C   UNL d   1      -4.968  -5.921   2.222  0.00  0.00     0.015 A 
ATOM     15  C   UNL d   1      -2.749  -6.308   3.083  0.00  0.00     0.037 A 
ATOM     16  C   UNL d   1      -5.526  -6.296   3.461  0.00  0.00     0.021 A 
ATOM     17  S   UNL d   1      -5.827  -5.502   0.793  0.00  0.00    -0.101 SA
ATOM     18  C   UNL d   1      -4.678  -6.702   4.492  0.00  0.00     0.025 A 
ATOM     19  C   UNL d   1      -3.307  -6.740   4.290  0.00  0.00     0.035 A 
ATOM     20 CL   UNL d   1      -2.279  -7.329   5.539  0.00  0.00    -0.084 Cl
ATOM     21  C   UNL d   1      -4.392  -5.189  -0.064  0.00  0.00     0.060 C 
ENDBRANCH  11  12
ENDBRANCH   8  11
ENDBRANCH   1   7
BRANCH   2  22
ATOM     22  C   UNL d   1       2.138  -1.247   0.419  0.00  0.00     0.188 C 
BRANCH  22  23
ATOM     23  C   UNL d   1       2.457  -1.274   1.896  0.00  0.00    -0.038 A 
ATOM     24  C   UNL d   1       2.782  -2.476   2.537  0.00  0.00     0.009 A 
ATOM     25  C   UNL d   1       3.081  -2.491   3.900  0.00  0.00     0.001 A 
ATOM     26  C   UNL d   1       3.056  -1.308   4.638  0.00  0.00     0.000 A 
ATOM     27  C   UNL d   1       2.733  -0.107   4.015  0.00  0.00     0.001 A 
ATOM     28  C   UNL d   1       2.441  -0.088   2.650  0.00  0.00     0.009 A 
ENDBRANCH  22  23
ENDBRANCH   2  22
BRANCH   6  29
ATOM     29  C   UNL d   1      -1.173   2.211  -0.000  0.00  0.00    -0.007 C 
ATOM     30  C   UNL d   1      -2.705   2.325   0.076  0.00  0.00     0.021 C 
ATOM     31  C   UNL d   1      -0.576   2.994   1.192  0.00  0.00     0.021 C 
ATOM     32  C   UNL d   1      -0.707   2.891  -1.306  0.00  0.00     0.021 C 
ENDBRANCH   6  29
TORSDOF 6
