REMARK  5 active torsions:
REMARK  status: ('A' for Active; 'I' for Inactive)
REMARK    1  A    between atoms: C_2  and  CA_1 
REMARK    2  A    between atoms: CA_1  and  N_3 
REMARK    3  A    between atoms: CB_4  and  CA_1 
REMARK    4  A    between atoms: OXT_6  and  C_2 
REMARK       I    between atoms: C3_15  and  N_3 
REMARK    5  A    between atoms: CG_7  and  CB_4 
ROOT
ATOM      1  CA  PHE d   1       0.974  -0.127   0.002  0.00  0.00     0.186 C 
ENDROOT
BRANCH   1   2
ATOM      2  C   PHE d   1       0.447   0.985   0.909  0.00  0.00     0.163 C 
ATOM      3  O   PHE d   1       1.013   2.050   1.101  0.00  0.00    -0.648 OA
BRANCH   2   4
ATOM      4  OXT PHE d   1      -0.787   0.717   1.408  0.00  0.00    -0.775 OA
ATOM      5  HXT PHE d   1      -1.197  -0.079   0.994  0.00  0.00     0.167 HD
ENDBRANCH   2   4
ENDBRANCH   1   2
BRANCH   1   6
ATOM      6  N   PHE d   1       0.461   0.109  -1.345  0.00  0.00    -0.347 N 
ATOM      7  C3  <1> d   1      -0.787  -0.333  -1.697  0.00  0.00     0.214 C 
ATOM      8  O2  <1> d   1      -1.521  -0.908  -0.892  0.00  0.00    -0.274 OA
ATOM      9  C6  <1> d   1      -1.185  -0.040  -3.118  0.00  0.00     0.117 C 
ATOM     10  H   PHE d   1       0.899   0.834  -1.903  0.00  0.00     0.163 HD
ENDBRANCH   1   6
BRANCH   1  11
ATOM     11  CB  PHE d   1       2.508  -0.177   0.042  0.00  0.00     0.074 C 
BRANCH  11  12
ATOM     12  CG  PHE d   1       3.077  -1.297  -0.803  0.00  0.00    -0.056 A 
ATOM     13  CD1 PHE d   1       3.944  -1.009  -1.866  0.00  0.00     0.007 A 
ATOM     14  CE1 PHE d   1       4.432  -2.032  -2.680  0.00  0.00     0.001 A 
ATOM     15  CZ  PHE d   1       4.062  -3.354  -2.439  0.00  0.00     0.000 A 
ATOM     16  CE2 PHE d   1       3.219  -3.655  -1.373  0.00  0.00     0.001 A 
ATOM     17  CD2 PHE d   1       2.736  -2.635  -0.553  0.00  0.00     0.007 A 
ENDBRANCH  11  12
ENDBRANCH   1  11
TORSDOF 5
