REMARK  2 active torsions:
REMARK  status: ('A' for Active; 'I' for Inactive)
REMARK    1  A    between atoms: N_5  and  C_3 
REMARK    2  A    between atoms: O_13  and  N_5 
ROOT
ATOM      1  C   UNL d   1       2.996  -0.157  -0.137  0.00  0.00     0.033 A 
ATOM      2  C   UNL d   1       1.628  -0.169  -0.511  0.00  0.00    -0.011 A 
ATOM      3  C   UNL d   1       3.992  -1.123  -0.634  0.00  0.00     0.048 C 
ATOM      4  C   UNL d   1       3.506   0.803   0.747  0.00  0.00     0.081 A 
ATOM      5  O   UNL d   1       4.771   0.789   1.278  0.00  0.00    -0.350 OA
ATOM      6  C   UNL d   1       0.809   0.890  -0.047  0.00  0.00    -0.025 A 
ATOM      7  C   UNL d   1       2.690   1.843   1.172  0.00  0.00     0.038 A 
ATOM      8  C   UNL d   1       1.360   1.899   0.760  0.00  0.00     0.015 A 
ATOM      9  C   UNL d   1       4.989  -1.519   0.417  0.00  0.00     0.086 C 
ATOM     10  C   UNL d   1       5.669  -0.223   0.800  0.00  0.00     0.181 C 
ATOM     11  C   UNL d   1       1.013  -1.192  -1.272  0.00  0.00     0.013 A 
ATOM     12  C   UNL d   1      -0.557   0.915  -0.373  0.00  0.00     0.012 A 
ATOM     13  C   UNL d   1      -0.353  -1.169  -1.562  0.00  0.00     0.001 A 
ATOM     14  C   UNL d   1      -1.136  -0.111  -1.119  0.00  0.00     0.001 A 
ENDROOT
BRANCH   3  15
ATOM     15  N   UNL d   1       4.034  -1.446  -1.891  0.00  0.00    -0.272 N 
ATOM     16  HN  UNL d   1       3.339  -1.155  -2.578  1.00  0.00     0.194 HD
BRANCH  15  17
ATOM     17  O   UNL d   1       5.145  -2.240  -2.192  0.00  0.00    -0.290 OA
ATOM     18  H   UNL d   1       5.142  -2.238  -3.167  0.00  0.00     0.244 HD
ENDBRANCH  15  17
ENDBRANCH   3  15
TORSDOF 2
