REMARK  4 active torsions:
REMARK  status: ('A' for Active; 'I' for Inactive)
REMARK    1  A    between atoms: C_9  and  N_1 
REMARK    2  A    between atoms: C_13  and  C_3 
REMARK    3  A    between atoms: N_8  and  C_12 
REMARK    4  A    between atoms: C_12  and  C_9 
ROOT
ATOM      1  N   UNL d   1       2.107  -0.135   0.219  0.00  0.00    -0.325 N 
ATOM      2  C   UNL d   1       1.153   0.858   0.015  0.00  0.00     0.257 C 
ATOM      3  C   UNL d   1       1.768  -1.519  -0.101  0.00  0.00     0.199 C 
ATOM      4  N   UNL d   1       0.422  -1.844   0.340  0.00  0.00    -0.266 NA
ATOM      5  C   UNL d   1      -0.263   0.441  -0.078  0.00  0.00     0.053 A 
ATOM      6  C   UNL d   1      -0.570  -0.910   0.065  0.00  0.00     0.026 A 
ATOM      7  O   UNL d   1       1.397   2.060  -0.058  0.00  0.00    -0.267 OA
ATOM      8  C   UNL d   1      -1.276   1.397  -0.233  0.00  0.00     0.019 A 
ATOM      9  C   UNL d   1      -1.917  -1.288   0.107  0.00  0.00     0.024 A 
ATOM     10  C   UNL d   1      -2.613   1.003  -0.220  0.00  0.00     0.001 A 
ATOM     11  C   UNL d   1      -2.933  -0.341  -0.045  0.00  0.00     0.002 A 
ATOM     12  H   UNL d   1       0.163  -2.795   0.097  0.00  0.00     0.130 HD
ENDROOT
BRANCH   1  13
ATOM     13  C   UNL d   1       3.544   0.187   0.326  0.00  0.00     0.148 C 
BRANCH  13  14
ATOM     14  C   UNL d   1       4.006   1.651   0.222  0.00  0.00     0.147 C 
BRANCH  14  15
ATOM     15  N   UNL d   1       5.431   1.799   0.485  0.00  0.00    -0.331 N 
ATOM     16  C   UNL d   1       6.431   1.247  -0.312  0.00  0.00     0.318 C 
ATOM     17  N   UNL d   1       7.634   1.820   0.071  0.00  0.00    -0.341 N 
ATOM     18  O   UNL d   1       6.309   0.409  -1.189  0.00  0.00    -0.247 OA
ATOM     19  C   UNL d   1       7.453   2.650   1.230  0.00  0.00     0.144 C 
ATOM     20  H   UNL d   1       8.508   1.443  -0.271  0.00  0.00     0.164 HD
ATOM     21  C   UNL d   1       5.958   2.932   1.214  0.00  0.00     0.147 C 
ENDBRANCH  14  15
ENDBRANCH  13  14
ENDBRANCH   1  13
BRANCH   3  22
ATOM     22  C   UNL d   1       2.681  -2.570   0.524  0.00  0.00    -0.021 A 
ATOM     23  C   UNL d   1       2.717  -2.750   1.919  0.00  0.00     0.010 A 
ATOM     24  C   UNL d   1       3.518  -3.736   2.493  0.00  0.00     0.001 A 
ATOM     25  C   UNL d   1       4.295  -4.559   1.682  0.00  0.00     0.000 A 
ATOM     26  C   UNL d   1       4.276  -4.391   0.297  0.00  0.00     0.001 A 
ATOM     27  C   UNL d   1       3.476  -3.404  -0.280  0.00  0.00     0.010 A 
ENDBRANCH   3  22
TORSDOF 4
