REMARK  2 active torsions:
REMARK  status: ('A' for Active; 'I' for Inactive)
REMARK    1  A    between atoms: S_6  and  C_1 
REMARK    2  A    between atoms: C_11  and  S_6 
ROOT
ATOM      1  C   UNL d   1       0.008   1.440  -0.044  0.00  0.00     0.096 A 
ATOM      2  C   UNL d   1       0.847   0.318  -0.032  0.00  0.00     0.084 A 
ATOM      3  N   UNL d   1      -1.347   1.334  -0.031  0.00  0.00    -0.353 N 
ATOM      4  HN  UNL d   1      -1.934   2.167  -0.039  1.00  0.00     0.166 HD
ATOM      5  C   UNL d   1       0.262  -0.962  -0.012  0.00  0.00    -0.037 A 
ATOM      6  C   UNL d   1       2.272   0.469  -0.039  0.00  0.00     0.103 C 
ATOM      7  N   UNL d   1       3.428   0.558  -0.042  0.00  0.00    -0.191 NA
ATOM      8  C   UNL d   1      -1.900   0.100  -0.007  0.00  0.00     0.006 A 
ATOM      9  C   UNL d   1      -1.135  -1.059   0.000  0.00  0.00     0.033 A 
ATOM     10  C   UNL d   1       1.056  -2.241  -0.009  0.00  0.00     0.050 C 
ATOM     11  C   UNL d   1      -3.397   0.006   0.007  0.00  0.00     0.068 C 
ENDROOT
BRANCH   1  12
ATOM     12  S   UNL d   1       0.697   3.104  -0.087  0.00  0.00    -0.071 SA
BRANCH  12  13
ATOM     13  C   UNL d   1      -0.737   4.154  -0.055  0.00  0.00     0.007 A 
ATOM     14  C   UNL d   1      -1.227   4.636   1.164  0.00  0.00     0.020 A 
ATOM     15  C   UNL d   1      -2.349   5.467   1.192  0.00  0.00     0.025 A 
ATOM     16  C   UNL d   1      -2.974   5.826  -0.001  0.00  0.00     0.034 A 
ATOM     17  C   UNL d   1      -2.478   5.374  -1.222  0.00  0.00     0.025 A 
ATOM     18 CL   UNL d   1      -4.369   6.832   0.035  0.00  0.00    -0.084 Cl
ATOM     19  C   UNL d   1      -1.355   4.542  -1.249  0.00  0.00     0.020 A 
ENDBRANCH  12  13
ENDBRANCH   1  12
TORSDOF 2
