REMARK  5 active torsions:
REMARK  status: ('A' for Active; 'I' for Inactive)
REMARK    1  A    between atoms: N_3  and  C_1 
REMARK    2  A    between atoms: S_9  and  C_4 
REMARK       I    between atoms: C_8  and  N_10 
REMARK       I    between atoms: N_13  and  C_8 
REMARK    3  A    between atoms: C_12  and  S_9 
REMARK    4  A    between atoms: N_10  and  C_11 
REMARK    5  A    between atoms: C_17  and  N_13 
ROOT
ATOM      1  C   UNL d   1       2.641  -3.640   1.500  0.00  0.00     0.034 C 
ATOM      2  C   UNL d   1       1.357  -3.986   1.025  0.00  0.00     0.029 C 
ATOM      3  C   UNL d   1       3.700  -4.544   1.364  0.00  0.00     0.025 C 
ATOM      4  C   UNL d   1       1.222  -5.136   0.237  0.00  0.00     0.021 C 
ATOM      5  C   UNL d   1       2.321  -5.967  -0.002  0.00  0.00     0.001 C 
ATOM      6  C   UNL d   1       3.546  -5.699   0.604  0.00  0.00     0.002 C 
ENDROOT
BRANCH   1   7
ATOM      7  N   UNL d   1       2.844  -2.361   2.102  0.00  0.00    -0.209 NA
ATOM      8  C   UNL d   1       3.561  -1.377   1.433  0.00  0.00     0.303 C 
ATOM      9  N   UNL d   1       4.752  -1.783   0.896  0.00  0.00    -0.313 N 
ATOM     10  O   UNL d   1       3.088  -0.246   1.372  0.00  0.00    -0.253 OA
ATOM     11  H   UNL d   1       5.170  -2.567   1.362  0.00  0.00     0.170 HD
ATOM     12  H   UNL d   1       1.967  -1.922   2.373  0.00  0.00     0.138 HD
BRANCH   9  13
ATOM     13  C   UNL d   1       5.554  -1.134  -0.053  0.00  0.00     0.035 A 
ATOM     14  C   UNL d   1       6.830  -1.671  -0.277  0.00  0.00     0.031 A 
ATOM     15  C   UNL d   1       7.694  -1.089  -1.207  0.00  0.00     0.026 A 
ATOM     16  C   UNL d   1       7.277   0.025  -1.928  0.00  0.00     0.034 A 
ATOM     17  C   UNL d   1       5.999   0.550  -1.736  0.00  0.00     0.026 A 
ATOM     18 CL   UNL d   1       8.345   0.756  -3.061  0.00  0.00    -0.084 Cl
ATOM     19  C   UNL d   1       5.137  -0.031  -0.799  0.00  0.00     0.031 A 
ENDBRANCH   9  13
ENDBRANCH   1   7
BRANCH   2  20
ATOM     20  S   UNL d   1      -0.080  -3.120   1.648  0.00  0.00    -0.063 SA
BRANCH  20  21
ATOM     21  C   UNL d   1      -0.851  -2.459   0.228  0.00  0.00     0.119 A 
ATOM     22  S   UNL d   1      -2.191  -1.389   0.421  0.00  0.00    -0.040 SA
ATOM     23  C   UNL d   1      -2.336  -1.302  -1.266  0.00  0.00     0.161 A 
ATOM     24  C   UNL d   1      -1.371  -2.065  -1.879  0.00  0.00     0.133 A 
ATOM     25  N   UNL d   1      -0.519  -2.740  -1.012  0.00  0.00    -0.352 N 
ATOM     26  HN  UNL d   1       0.243  -3.356  -1.295  1.00  0.00     0.166 HD
BRANCH  23  27
ATOM     27  N   UNL d   1      -3.354  -0.523  -1.888  0.00  0.00    -0.107 N 
ATOM     28  O   UNL d   1      -3.375  -0.537  -3.128  0.00  0.00    -0.531 OA
ATOM     29  O   UNL d   1      -4.145   0.101  -1.166  0.00  0.00    -0.531 OA
ENDBRANCH  23  27
ENDBRANCH  20  21
ENDBRANCH   2  20
TORSDOF 5
