REMARK  5 active torsions:
REMARK  status: ('A' for Active; 'I' for Inactive)
REMARK       I    between atoms: C_3  and  N_1 
REMARK    1  A    between atoms: C_2  and  C_3 
REMARK    2  A    between atoms: C_9  and  CA_4 
REMARK    3  A    between atoms: OXT_21  and  C_9 
REMARK    4  A    between atoms: O_22  and  C_13 
REMARK    5  A    between atoms: O_23  and  C_17 
ROOT
ATOM      1  N   UNL d   1      -2.447   0.589  -0.270  0.00  0.00    -0.338 N 
ATOM      2  C   UNL d   1      -3.393   1.107  -1.162  0.00  0.00     0.273 C 
ATOM      3  C   UNL d   1       0.011   0.649   0.042  0.00  0.00    -0.026 A 
ATOM      4  C   UNL d   1      -1.297   1.433   0.093  0.00  0.00     0.117 C 
ATOM      5  C   UNL d   1       0.035  -0.753  -0.025  0.00  0.00    -0.045 A 
ATOM      6  C   UNL d   1       1.230   1.342   0.055  0.00  0.00     0.049 A 
ATOM      7  C   UNL d   1      -2.442  -0.744   0.337  0.00  0.00     0.131 C 
ATOM      8  C   UNL d   1       2.455   0.665  -0.003  0.00  0.00     0.102 A 
ATOM      9  C   UNL d   1       1.258  -1.435  -0.069  0.00  0.00     0.047 A 
ATOM     10  C   UNL d   1       2.471  -0.742  -0.046  0.00  0.00     0.102 A 
ATOM     11  O   UNL d   1      -3.381   2.283  -1.528  0.00  0.00    -0.266 OA
ATOM     12  C   UNL d   1      -1.238  -1.546  -0.129  0.00  0.00     0.059 C 
ATOM     13  C   UNL d   1      -1.504   2.070   1.474  0.00  0.00     0.037 C 
ENDROOT
BRANCH   2  14
ATOM     14  C   UNL d   1      -4.499   0.254  -1.672  0.00  0.00     0.134 A 
ATOM     15  CA  UNL d   1      -4.954   0.337  -2.981  0.00  0.00     0.139 A 
ATOM     16  N   UNL d   1      -6.077  -0.335  -3.417  0.00  0.00    -0.357 N 
ATOM     17  C   UNL d   1      -6.662  -1.142  -2.501  0.00  0.00     0.105 A 
ATOM     18  HN  UNL d   1      -6.442  -0.230  -4.363  1.00  0.00     0.165 HD
ATOM     19  C   UNL d   1      -6.200  -1.241  -1.202  0.00  0.00     0.105 A 
ATOM     20  N   UNL d   1      -5.149  -0.520  -0.754  0.00  0.00    -0.358 N 
ATOM     21  HN  UNL d   1      -4.855  -0.553   0.222  1.00  0.00     0.165 HD
BRANCH  15  22
ATOM     22  C   UNL d   1      -4.245   1.076  -4.061  0.00  0.00     0.196 C 
ATOM     23  O   UNL d   1      -3.046   1.247  -4.127  0.00  0.00    -0.645 OA
BRANCH  22  24
ATOM     24  OXT UNL d   1      -5.118   1.433  -5.036  0.00  0.00    -0.772 OA
ATOM     25  HXT UNL d   1      -6.011   1.073  -4.847  0.00  0.00     0.167 HD
ENDBRANCH  22  24
ENDBRANCH  15  22
ENDBRANCH   2  14
BRANCH   8  26
ATOM     26  O   UNL d   1       3.667   1.311   0.017  0.00  0.00    -0.353 OA
ATOM     27  C   UNL d   1       3.672   2.638  -0.503  0.00  0.00     0.210 C 
ENDBRANCH   8  26
BRANCH  10  28
ATOM     28  O   UNL d   1       3.700  -1.354  -0.084  0.00  0.00    -0.353 OA
ATOM     29  C   UNL d   1       3.712  -2.776  -0.143  0.00  0.00     0.210 C 
ENDBRANCH  10  28
TORSDOF 5
