REMARK  10 active torsions:
REMARK  status: ('A' for Active; 'I' for Inactive)
REMARK    1  A    between atoms: C_12  and  N_1 
REMARK    2  A    between atoms: S_13  and  C_2 
REMARK    3  A    between atoms: C_8  and  C_10 
REMARK    4  A    between atoms: C_9  and  C_11 
REMARK    5  A    between atoms: C_29  and  S_13 
REMARK    6  A    between atoms: C_15  and  N_17 
REMARK    7  A    between atoms: C_16  and  C_29 
REMARK       I    between atoms: N_17  and  C_16 
REMARK    8  A    between atoms: O_30  and  C_31 
REMARK    9  A    between atoms: C_32  and  O_30 
REMARK   10  A    between atoms: C_35  and  C_32 
ROOT
ATOM      1  N   UNL d   1      -0.423  -1.382  -0.254  0.00  0.00    -0.279 N 
ATOM      2  C   UNL d   1       0.827  -0.868  -0.589  0.00  0.00     0.168 C 
ATOM      3  N   UNL d   1       0.825   0.440  -0.514  0.00  0.00    -0.278 N 
ATOM      4  HN  UNL d   1       1.633   1.051  -0.636  1.00  0.00     0.189 HD
ATOM      5  N   UNL d   1      -0.449   0.837  -0.246  0.00  0.00    -0.287 N 
ATOM      6  HN  UNL d   1      -0.762   1.802  -0.138  1.00  0.00     0.188 HD
ATOM      7  C   UNL d   1      -1.212  -0.236  -0.149  0.00  0.00     0.101 C 
ATOM      8  C   UNL d   1      -2.672  -0.168   0.094  0.00  0.00     0.091 C 
ENDROOT
BRANCH   2   9
ATOM      9  S   UNL d   1       2.160  -1.724  -1.308  0.00  0.00    -0.083 SA
BRANCH   9  10
ATOM     10  C   UNL d   1       1.395  -2.431  -2.793  0.00  0.00     0.185 C 
BRANCH  10  11
ATOM     11  C   UNL d   1       0.828  -1.434  -3.787  0.00  0.00     0.231 C 
ATOM     12  N   UNL d   1       1.232  -0.126  -3.684  0.00  0.00    -0.326 N 
ATOM     13  H   UNL d   1       1.991   0.076  -3.049  0.00  0.00     0.169 HD
ATOM     14  O   UNL d   1       0.129  -1.856  -4.700  0.00  0.00    -0.272 OA
BRANCH  12  15
ATOM     15  C   UNL d   1       0.708   0.944  -4.430  0.00  0.00     0.036 A 
ATOM     16  C   UNL d   1      -0.615   0.983  -4.880  0.00  0.00     0.045 A 
ATOM     17  C   UNL d   1      -1.118   2.124  -5.529  0.00  0.00     0.050 A 
ATOM     18  C   UNL d   1      -0.248   3.195  -5.793  0.00  0.00     0.032 A 
ATOM     19  C   UNL d   1       1.088   3.163  -5.363  0.00  0.00     0.050 A 
ATOM     20  C   UNL d   1       1.546   2.042  -4.655  0.00  0.00     0.045 A 
BRANCH  17  21
ATOM     21  C   UNL d   1      -2.585   2.211  -5.878  0.00  0.00     0.417 C 
ATOM     22  F   UNL d   1      -2.938   3.409  -6.421  0.00  0.00    -0.166 F 
ATOM     23  F   UNL d   1      -2.978   1.265  -6.774  0.00  0.00    -0.166 F 
ATOM     24  F   UNL d   1      -3.385   2.052  -4.786  0.00  0.00    -0.166 F 
ENDBRANCH  17  21
BRANCH  19  25
ATOM     25  C   UNL d   1       2.033   4.303  -5.644  0.00  0.00     0.417 C 
ATOM     26  F   UNL d   1       1.434   5.369  -6.241  0.00  0.00    -0.166 F 
ATOM     27  F   UNL d   1       2.616   4.783  -4.512  0.00  0.00    -0.166 F 
ATOM     28  F   UNL d   1       3.055   3.938  -6.465  0.00  0.00    -0.166 F 
ENDBRANCH  19  25
ENDBRANCH  12  15
ENDBRANCH  10  11
ENDBRANCH   9  10
ENDBRANCH   2   9
BRANCH   1  29
ATOM     29  C   UNL d   1      -0.799  -2.754  -0.127  0.00  0.00     0.043 A 
ATOM     30  C   UNL d   1       0.136  -3.708   0.307  0.00  0.00     0.033 A 
ATOM     31  C   UNL d   1      -0.161  -5.075   0.262  0.00  0.00     0.039 A 
ATOM     32  C   UNL d   1      -1.406  -5.498  -0.195  0.00  0.00     0.069 A 
ATOM     33  C   UNL d   1      -2.372  -4.554  -0.526  0.00  0.00     0.039 A 
ATOM     34  C   UNL d   1      -2.073  -3.189  -0.504  0.00  0.00     0.033 A 
BRANCH  32  35
ATOM     35  O   UNL d   1      -1.797  -6.799  -0.313  0.00  0.00    -0.347 OA
BRANCH  35  36
ATOM     36  C   UNL d   1      -0.781  -7.709  -0.748  0.00  0.00     0.214 C 
BRANCH  36  37
ATOM     37  C   UNL d   1      -1.383  -9.070  -0.988  0.00  0.00    -0.034 A 
ATOM     38  C   UNL d   1      -0.810  -9.944  -1.925  0.00  0.00     0.009 A 
ATOM     39  C   UNL d   1      -1.315 -11.231  -2.095  0.00  0.00     0.001 A 
ATOM     40  C   UNL d   1      -2.392 -11.672  -1.325  0.00  0.00     0.000 A 
ATOM     41  C   UNL d   1      -2.972 -10.811  -0.393  0.00  0.00     0.001 A 
ATOM     42  C   UNL d   1      -2.468  -9.524  -0.218  0.00  0.00     0.009 A 
ENDBRANCH  36  37
ENDBRANCH  35  36
ENDBRANCH  32  35
ENDBRANCH   1  29
TORSDOF 10
