REMARK  4 active torsions:
REMARK  status: ('A' for Active; 'I' for Inactive)
REMARK    1  A    between atoms: N_2  and  C_1 
REMARK    2  A    between atoms: C_6  and  N_2 
REMARK    3  A    between atoms: C_5  and  N_4 
REMARK    4  A    between atoms: C_7  and  C_5 
ROOT
ATOM      1  C   UNL d   1       1.360   0.157   0.273  0.00  0.00     0.168 C 
ATOM      2  S   UNL d   1       2.773   0.508   1.090  0.00  0.00    -0.041 SA
ATOM      3  N   UNL d   1       1.113   0.865  -0.861  0.00  0.00    -0.363 N 
ATOM      4  H   UNL d   1       1.855   1.521  -1.078  0.00  0.00     0.162 HD
ENDROOT
BRANCH   1   5
ATOM      5  N   UNL d   1       0.438  -0.780   0.636  0.00  0.00    -0.363 N 
ATOM      6  H   UNL d   1      -0.439  -0.776   0.140  0.00  0.00     0.162 HD
BRANCH   5   7
ATOM      7  C   UNL d   1       0.701  -1.981   1.443  0.00  0.00     0.083 C 
ATOM      8  C   UNL d   1       1.039  -3.152   0.509  0.00  0.00     0.025 C 
ATOM      9  C   UNL d   1      -0.189  -3.637  -0.262  0.00  0.00     0.002 C 
ATOM     10  C   UNL d   1      -1.309  -4.041   0.689  0.00  0.00     0.000 C 
ATOM     11  C   UNL d   1      -1.684  -2.911   1.643  0.00  0.00     0.002 C 
ATOM     12  C   UNL d   1      -0.472  -2.328   2.369  0.00  0.00     0.025 C 
ENDBRANCH   5   7
ENDBRANCH   1   5
BRANCH   3  13
ATOM     13  C   UNL d   1       0.192   0.606  -1.956  0.00  0.00     0.160 C 
BRANCH  13  14
ATOM     14  C   UNL d   1       0.882   0.070  -3.192  0.00  0.00    -0.041 A 
ATOM     15  C   UNL d   1       1.921  -0.869  -3.114  0.00  0.00     0.009 A 
ATOM     16  C   UNL d   1       2.511  -1.380  -4.275  0.00  0.00     0.001 A 
ATOM     17  C   UNL d   1       2.061  -0.969  -5.529  0.00  0.00     0.000 A 
ATOM     18  C   UNL d   1       1.020  -0.052  -5.622  0.00  0.00     0.001 A 
ATOM     19  C   UNL d   1       0.432   0.463  -4.463  0.00  0.00     0.009 A 
ENDBRANCH  13  14
ENDBRANCH   3  13
TORSDOF 4
