REMARK  5 active torsions:
REMARK  status: ('A' for Active; 'I' for Inactive)
REMARK    1  A    between atoms: C_11  and  N_1 
REMARK    2  A    between atoms: N_6  and  C_8 
REMARK    3  A    between atoms: C_13  and  C_11 
REMARK    4  A    between atoms: C_14  and  C_13 
REMARK    5  A    between atoms: O_21  and  C_14 
ROOT
ATOM      1  N   UNL d   1       2.285  -0.119   0.137  0.00  0.00    -0.279 N 
ATOM      2  C   UNL d   1       1.698   1.141   0.025  0.00  0.00     0.261 A 
ATOM      3  C   UNL d   1       1.581  -1.321   0.071  0.00  0.00     0.261 A 
ATOM      4  C   UNL d   1       0.221   1.202  -0.018  0.00  0.00     0.047 A 
ATOM      5  C   UNL d   1       0.101  -1.235   0.039  0.00  0.00     0.044 A 
ATOM      6  C   UNL d   1      -0.523   0.017   0.007  0.00  0.00     0.006 A 
ATOM      7  C   UNL d   1      -1.809   2.512  -0.085  0.00  0.00     0.104 A 
ATOM      8  C   UNL d   1      -0.413   2.452  -0.068  0.00  0.00     0.054 A 
ATOM      9  C   UNL d   1      -1.938   0.086  -0.007  0.00  0.00    -0.021 A 
ATOM     10  C   UNL d   1      -2.572   1.339  -0.050  0.00  0.00     0.048 A 
ATOM     11  O   UNL d   1       2.109  -2.429   0.039  0.00  0.00    -0.267 OA
ATOM     12  O   UNL d   1       2.335   2.191  -0.024  0.00  0.00    -0.267 OA
ATOM     13  C   UNL d   1      -0.661  -2.411   0.054  0.00  0.00     0.018 A 
ATOM     14  C   UNL d   1      -2.686  -1.101   0.023  0.00  0.00     0.012 A 
ATOM     15  C   UNL d   1      -2.051  -2.342   0.050  0.00  0.00     0.002 A 
ENDROOT
BRANCH   1  16
ATOM     16  C   UNL d   1       3.751  -0.174   0.205  0.00  0.00     0.146 C 
BRANCH  16  17
ATOM     17  C   UNL d   1       4.298   0.418   1.506  0.00  0.00     0.130 C 
BRANCH  17  18
ATOM     18  C   UNL d   1       5.800   0.327   1.548  0.00  0.00     0.141 C 
ATOM     19  O   UNL d   1       6.496  -0.227   0.713  0.00  0.00    -0.650 OA
BRANCH  18  20
ATOM     20  O   UNL d   1       6.324   0.929   2.641  0.00  0.00    -0.776 OA
ATOM     21  H   UNL d   1       5.662   1.351   3.221  0.00  0.00     0.167 HD
ENDBRANCH  18  20
ENDBRANCH  17  18
ENDBRANCH  16  17
ENDBRANCH   1  16
BRANCH   7  22
ATOM     22  N   UNL d   1      -2.480   3.817  -0.137  0.00  0.00    -0.116 N 
ATOM     23  O   UNL d   1      -1.771   4.830  -0.163  0.00  0.00    -0.532 OA
ATOM     24  O   UNL d   1      -3.720   3.824  -0.148  0.00  0.00    -0.532 OA
ENDBRANCH   7  22
TORSDOF 5
