REMARK  5 active torsions:
REMARK  status: ('A' for Active; 'I' for Inactive)
REMARK    1  A    between atoms: C_2  and  C_1 
REMARK    2  A    between atoms: C_4  and  C_2 
REMARK    3  A    between atoms: N_9  and  C_3 
REMARK    4  A    between atoms: C_5  and  C_6 
REMARK    5  A    between atoms: C_14  and  N_9 
ROOT
ATOM      1  C   UNL d   1       1.042   0.044  -0.219  0.00  0.00     0.072 C 
ATOM      2  C   UNL d   1       2.368  -0.093  -0.114  0.00  0.00     0.092 C 
ENDROOT
BRANCH   2   3
ATOM      3  N   UNL d   1       3.165  -0.975  -0.803  0.00  0.00    -0.366 N 
ATOM      4  H   UNL d   1       2.704  -1.573  -1.479  0.00  0.00     0.165 HD
BRANCH   3   5
ATOM      5  C   UNL d   1       4.538  -1.220  -0.618  0.00  0.00     0.031 A 
ATOM      6  C   UNL d   1       5.235  -0.827   0.529  0.00  0.00     0.030 A 
ATOM      7  C   UNL d   1       6.614  -1.035   0.646  0.00  0.00     0.017 A 
ATOM      8  C   UNL d   1       7.331  -1.635  -0.393  0.00  0.00     0.009 A 
ATOM      9  C   UNL d   1       6.658  -2.005  -1.559  0.00  0.00     0.017 A 
ATOM     10  C   UNL d   1       5.274  -1.799  -1.664  0.00  0.00     0.030 A 
BRANCH   8  11
ATOM     11  C   UNL d   1       8.796  -1.826  -0.208  0.00  0.00     0.155 C 
ATOM     12  O   UNL d   1       9.411  -1.076   0.549  0.00  0.00    -0.293 OA
ATOM     13  C   UNL d   1       9.502  -2.959  -0.906  0.00  0.00     0.096 C 
ENDBRANCH   8  11
ENDBRANCH   3   5
ENDBRANCH   2   3
BRANCH   1  14
ATOM     14  C   UNL d   1       0.351   1.092   0.581  0.00  0.00     0.183 C 
ATOM     15  O   UNL d   1       0.851   1.571   1.592  0.00  0.00    -0.288 OA
BRANCH  14  16
ATOM     16  C   UNL d   1      -0.996   1.538   0.131  0.00  0.00     0.014 A 
ATOM     17  C   UNL d   1      -1.884   2.045   1.093  0.00  0.00     0.018 A 
ATOM     18  C   UNL d   1      -3.140   2.521   0.709  0.00  0.00     0.043 A 
ATOM     19  C   UNL d   1      -3.499   2.499  -0.633  0.00  0.00     0.116 A 
ATOM     20  C   UNL d   1      -2.628   2.007  -1.600  0.00  0.00     0.043 A 
ATOM     21  F   UNL d   1      -4.697   2.970  -1.005  0.00  0.00    -0.206 F 
ATOM     22  C   UNL d   1      -1.372   1.526  -1.220  0.00  0.00     0.018 A 
ENDBRANCH  14  16
ENDBRANCH   1  14
TORSDOF 5
