REMARK  3 active torsions:
REMARK  status: ('A' for Active; 'I' for Inactive)
REMARK    1  A    between atoms: C_4  and  C_1 
REMARK    2  A    between atoms: N_7  and  C_1 
REMARK    3  A    between atoms: O_9  and  N_2 
ROOT
ATOM      1  C   UNL d   1       0.962  -0.017   0.166  0.00  0.00     0.108 C 
ATOM      2  N   UNL d   1       0.361   1.054   0.603  0.00  0.00    -0.258 N 
ATOM      3  HN  UNL d   1      -0.632   1.252   0.479  1.00  0.00     0.195 HD
ENDROOT
BRANCH   1   4
ATOM      4  C   UNL d   1       0.161  -1.032  -0.582  0.00  0.00     0.004 A 
ATOM      5  C   UNL d   1      -1.001  -0.646  -1.261  0.00  0.00     0.016 A 
ATOM      6  C   UNL d   1      -1.751  -1.595  -1.961  0.00  0.00     0.024 A 
ATOM      7  C   UNL d   1      -1.344  -2.928  -1.972  0.00  0.00     0.034 A 
ATOM      8  C   UNL d   1      -0.192  -3.322  -1.293  0.00  0.00     0.024 A 
ATOM      9 CL   UNL d   1      -2.272  -4.097  -2.827  0.00  0.00    -0.084 Cl
ATOM     10  C   UNL d   1       0.564  -2.374  -0.598  0.00  0.00     0.016 A 
ENDBRANCH   1   4
BRANCH   1  11
ATOM     11  N   UNL d   1       2.305  -0.236   0.363  0.00  0.00    -0.287 NA
ATOM     12  H   UNL d   1       2.732   0.618   0.713  0.00  0.00     0.125 HD
ATOM     13  H   UNL d   1       2.799  -0.598  -0.445  0.00  0.00     0.125 HD
ENDBRANCH   1  11
BRANCH   2  14
ATOM     14  O   UNL d   1       1.265   1.899   1.269  0.00  0.00    -0.289 OA
ATOM     15  H   UNL d   1       0.670   2.575   1.643  0.00  0.00     0.244 HD
ENDBRANCH   2  14
TORSDOF 3
