REMARK  4 active torsions:
REMARK  status: ('A' for Active; 'I' for Inactive)
REMARK    1  A    between atoms: C_8  and  C_1 
REMARK    2  A    between atoms: S_11  and  C_5 
REMARK    3  A    between atoms: C_15  and  S_11 
REMARK    4  A    between atoms: C_16  and  C_15 
ROOT
ATOM      1  C   UNL d   1      -0.375   1.161   0.004  0.00  0.00     0.119 A 
ATOM      2  S   UNL d   1      -1.245  -0.243   0.503  0.00  0.00    -0.043 SA
ATOM      3  N   UNL d   1       0.792   0.877  -0.549  0.00  0.00    -0.290 N 
ATOM      4  HN  UNL d   1       1.434   1.584  -0.908  1.00  0.00     0.187 HD
ATOM      5  C   UNL d   1       0.067  -1.183  -0.070  0.00  0.00     0.129 A 
ATOM      6  N   UNL d   1       1.049  -0.479  -0.589  0.00  0.00    -0.287 N 
ATOM      7  HN  UNL d   1       1.900  -0.887  -0.976  1.00  0.00     0.188 HD
ENDROOT
BRANCH   5   8
ATOM      8  S   UNL d   1       0.091  -2.929   0.014  0.00  0.00    -0.099 SA
BRANCH   8   9
ATOM      9  C   UNL d   1       1.879  -3.243  -0.053  0.00  0.00     0.120 C 
BRANCH   9  10
ATOM     10  C   UNL d   1       2.192  -4.721  -0.005  0.00  0.00    -0.049 A 
ATOM     11  C   UNL d   1       2.355  -5.455  -1.189  0.00  0.00     0.008 A 
ATOM     12  C   UNL d   1       2.652  -6.821  -1.146  0.00  0.00     0.007 A 
ATOM     13  C   UNL d   1       2.786  -7.482   0.080  0.00  0.00    -0.062 A 
ATOM     14  C   UNL d   1       2.611  -6.756   1.262  0.00  0.00     0.007 A 
ATOM     15  C   UNL d   1       3.109  -8.947   0.110  0.00  0.00     0.048 C 
ATOM     16  C   UNL d   1       2.316  -5.390   1.221  0.00  0.00     0.008 A 
ENDBRANCH   9  10
ENDBRANCH   8   9
ENDBRANCH   5   8
BRANCH   1  17
ATOM     17  C   UNL d   1      -0.904   2.515   0.196  0.00  0.00     0.083 A 
ATOM     18  N   UNL d   1      -2.114   2.654   0.804  0.00  0.00    -0.361 N 
ATOM     19  C   UNL d   1      -2.553   3.926   0.966  0.00  0.00     0.105 A 
ATOM     20  HN  UNL d   1      -2.656   1.850   1.120  1.00  0.00     0.165 HD
ATOM     21  C   UNL d   1      -1.826   5.026   0.543  0.00  0.00     0.104 A 
ATOM     22  N   UNL d   1      -0.626   4.904  -0.063  0.00  0.00    -0.372 N 
ATOM     23  C   UNL d   1      -0.184   3.630  -0.226  0.00  0.00     0.120 A 
ATOM     24  HN  UNL d   1      -0.089   5.712  -0.377  1.00  0.00     0.164 HD
ENDBRANCH   1  17
TORSDOF 4
