REMARK  7 active torsions:
REMARK  status: ('A' for Active; 'I' for Inactive)
REMARK    1  A    between atoms: N_5  and  C_3 
REMARK       I    between atoms: C_4  and  N_5 
REMARK    2  A    between atoms: C_9  and  C_4 
REMARK    3  A    between atoms: C_6  and  C_9 
REMARK    4  A    between atoms: C_10  and  C_6 
REMARK    5  A    between atoms: C_13  and  C_6 
REMARK    6  A    between atoms: C_7  and  C_10 
REMARK    7  A    between atoms: O_17  and  C_7 
ROOT
ATOM      1  C   UNL d   1      -3.305   2.475   0.631  0.00  0.00     0.223 C 
ATOM      2  N   UNL d   1      -4.516   2.959   1.099  0.00  0.00    -0.313 N 
ATOM      3  O   UNL d   1      -2.970   1.295   0.600  0.00  0.00    -0.273 OA
ATOM      4  H   UNL d   1      -4.635   3.958   1.180  0.00  0.00     0.170 HD
ENDROOT
BRANCH   1   5
ATOM      5  C   UNL d   1      -2.350   3.573   0.172  0.00  0.00     0.113 C 
BRANCH   5   6
ATOM      6  C   UNL d   1      -1.070   2.962  -0.446  0.00  0.00     0.037 C 
BRANCH   6   7
ATOM      7  C   UNL d   1      -1.272   2.166  -1.757  0.00  0.00     0.119 C 
BRANCH   7   8
ATOM      8  C   UNL d   1      -1.944   2.884  -2.906  0.00  0.00     0.140 C 
ATOM      9  O   UNL d   1      -2.545   3.945  -2.846  0.00  0.00    -0.650 OA
BRANCH   8  10
ATOM     10  O   UNL d   1      -1.855   2.184  -4.064  0.00  0.00    -0.776 OA
ATOM     11  H   UNL d   1      -1.390   1.331  -3.965  0.00  0.00     0.167 HD
ENDBRANCH   8  10
ENDBRANCH   7   8
ENDBRANCH   6   7
BRANCH   6  12
ATOM     12  C   UNL d   1       0.113   3.916  -0.573  0.00  0.00    -0.053 A 
ATOM     13  C   UNL d   1       1.331   3.562   0.039  0.00  0.00     0.007 A 
ATOM     14  C   UNL d   1       2.485   4.319  -0.160  0.00  0.00     0.001 A 
ATOM     15  C   UNL d   1       2.442   5.446  -0.974  0.00  0.00     0.000 A 
ATOM     16  C   UNL d   1       1.238   5.828  -1.563  0.00  0.00     0.001 A 
ATOM     17  C   UNL d   1       0.077   5.076  -1.355  0.00  0.00     0.007 A 
ENDBRANCH   6  12
ENDBRANCH   5   6
ENDBRANCH   1   5
BRANCH   2  18
ATOM     18  C   UNL d   1      -5.598   2.143   1.470  0.00  0.00     0.108 A 
ATOM     19  N   UNL d   1      -5.540   0.815   1.263  0.00  0.00    -0.342 N 
ATOM     20  C   UNL d   1      -6.591   0.044   1.574  0.00  0.00     0.043 A 
ATOM     21  HN  UNL d   1      -4.698   0.396   0.870  1.00  0.00     0.167 HD
ATOM     22  C   UNL d   1      -7.774   0.571   2.123  0.00  0.00    -0.009 A 
ATOM     23  C   UNL d   1      -6.522  -1.322   1.339  0.00  0.00     0.030 A 
ATOM     24  C   UNL d   1      -7.818   1.952   2.352  0.00  0.00     0.017 A 
ATOM     25  C   UNL d   1      -8.856  -0.280   2.414  0.00  0.00     0.013 A 
ATOM     26  C   UNL d   1      -6.722   2.748   2.016  0.00  0.00     0.049 A 
ATOM     27  C   UNL d   1      -8.766  -1.648   2.157  0.00  0.00     0.001 A 
ATOM     28  C   UNL d   1      -7.595  -2.171   1.620  0.00  0.00     0.002 A 
ENDBRANCH   2  18
TORSDOF 7
