REMARK  4 active torsions:
REMARK  status: ('A' for Active; 'I' for Inactive)
REMARK    1  A    between atoms: N_2  and  C_1 
REMARK    2  A    between atoms: N_5  and  C_1 
REMARK    3  A    between atoms: C_3  and  C_6 
REMARK    4  A    between atoms: C_8  and  N_5 
ROOT
ATOM      1  C   UNL d   1       1.176  -0.013  -0.011  0.00  0.00     0.179 C 
ATOM      2  S   UNL d   1       2.816   0.141   0.385  0.00  0.00    -0.040 SA
ENDROOT
BRANCH   1   3
ATOM      3  N   UNL d   1       0.384  -1.113   0.397  0.00  0.00    -0.323 N 
ATOM      4  C   UNL d   1      -0.754  -1.616  -0.339  0.00  0.00     0.043 A 
ATOM      5  C   UNL d   1      -1.650  -2.509   0.287  0.00  0.00    -0.031 A 
ATOM      6  C   UNL d   1      -0.971  -1.301  -1.687  0.00  0.00     0.030 A 
ATOM      7  C   UNL d   1      -2.759  -3.005  -0.425  0.00  0.00     0.009 A 
ATOM      8  C   UNL d   1      -1.438  -3.020   1.688  0.00  0.00     0.042 C 
ATOM      9  C   UNL d   1      -2.976  -2.643  -1.751  0.00  0.00     0.001 A 
ATOM     10  C   UNL d   1      -2.074  -1.802  -2.388  0.00  0.00     0.002 A 
ATOM     11  C   UNL d   1      -0.390  -2.231   2.448  0.00  0.00     0.025 C 
ATOM     12  C   UNL d   1       0.791  -1.945   1.543  0.00  0.00     0.132 C 
ENDBRANCH   1   3
BRANCH   1  13
ATOM     13  N   UNL d   1       0.439   0.992  -0.643  0.00  0.00    -0.333 N 
ATOM     14  H   UNL d   1      -0.505   1.092  -0.281  0.00  0.00     0.168 HD
BRANCH  13  15
ATOM     15  C   UNL d   1       0.927   2.037  -1.456  0.00  0.00     0.035 A 
ATOM     16  C   UNL d   1       2.031   1.851  -2.291  0.00  0.00     0.045 A 
ATOM     17  C   UNL d   1       2.568   2.910  -3.033  0.00  0.00     0.050 A 
ATOM     18  C   UNL d   1       1.940   4.161  -2.970  0.00  0.00     0.016 A 
ATOM     19  C   UNL d   1       0.787   4.333  -2.200  0.00  0.00     0.003 A 
ATOM     20  C   UNL d   1       0.270   3.267  -1.457  0.00  0.00     0.029 A 
BRANCH  17  21
ATOM     21  C   UNL d   1       3.816   2.707  -3.853  0.00  0.00     0.417 C 
ATOM     22  F   UNL d   1       4.256   1.417  -3.873  0.00  0.00    -0.166 F 
ATOM     23  F   UNL d   1       3.647   3.059  -5.158  0.00  0.00    -0.166 F 
ATOM     24  F   UNL d   1       4.863   3.450  -3.399  0.00  0.00    -0.166 F 
ENDBRANCH  17  21
ENDBRANCH  13  15
ENDBRANCH   1  13
TORSDOF 4
