REMARK  3 active torsions:
REMARK  status: ('A' for Active; 'I' for Inactive)
REMARK    1  A    between atoms: S_2  and  N_1 
REMARK    2  A    between atoms: C_8  and  S_2 
REMARK    3  A    between atoms: C_7  and  C_3 
ROOT
ATOM      1  N   UNL d   1       1.464   1.330  -0.096  0.00  0.00    -0.236 N 
ATOM      2  C   UNL d   1       2.371   0.183  -0.006  0.00  0.00     0.280 C 
ATOM      3  O   UNL d   1       1.540  -1.021   0.054  0.00  0.00    -0.318 OA
ATOM      4  C   UNL d   1       0.163   0.836   0.089  0.00  0.00     0.081 A 
ATOM      5  C   UNL d   1       0.247  -0.550   0.091  0.00  0.00     0.099 A 
ATOM      6  C   UNL d   1      -1.065   1.463   0.069  0.00  0.00     0.033 A 
ATOM      7  C   UNL d   1      -0.871  -1.361   0.062  0.00  0.00     0.039 A 
ATOM      8  C   UNL d   1      -2.215   0.663   0.056  0.00  0.00     0.002 A 
ATOM      9  C   UNL d   1      -2.120  -0.740   0.044  0.00  0.00     0.003 A 
ENDROOT
BRANCH   1  10
ATOM     10  S   UNL d   1       1.994   2.894   0.006  0.00  0.00     0.267 S 
ATOM     11  O   UNL d   1       3.316   2.976  -0.567  0.00  0.00    -0.200 OA
ATOM     12  O   UNL d   1       0.943   3.783  -0.453  0.00  0.00    -0.200 OA
BRANCH  10  13
ATOM     13  C   UNL d   1       2.194   3.207   1.750  0.00  0.00     0.080 A 
ATOM     14  C   UNL d   1       3.465   3.084   2.331  0.00  0.00     0.027 A 
ATOM     15  C   UNL d   1       3.643   3.400   3.680  0.00  0.00     0.025 A 
ATOM     16  C   UNL d   1       2.564   3.866   4.431  0.00  0.00     0.034 A 
ATOM     17  C   UNL d   1       1.308   4.029   3.845  0.00  0.00     0.025 A 
ATOM     18 CL   UNL d   1       2.783   4.239   6.097  0.00  0.00    -0.084 Cl
ATOM     19  C   UNL d   1       1.121   3.705   2.498  0.00  0.00     0.027 A 
ENDBRANCH  10  13
ENDBRANCH   1  10
BRANCH   2  20
ATOM     20  C   UNL d   1       3.275   0.034  -1.213  0.00  0.00    -0.007 A 
ATOM     21  C   UNL d   1       4.670   0.024  -1.064  0.00  0.00     0.037 A 
ATOM     22  C   UNL d   1       5.503  -0.109  -2.181  0.00  0.00     0.056 A 
ATOM     23 CL   UNL d   1       7.210  -0.122  -1.906  0.00  0.00    -0.083 Cl
ATOM     24  C   UNL d   1       4.948  -0.235  -3.458  0.00  0.00     0.055 A 
ATOM     25  C   UNL d   1       3.561  -0.208  -3.617  0.00  0.00     0.026 A 
ATOM     26 CL   UNL d   1       5.914  -0.440  -4.875  0.00  0.00    -0.083 Cl
ATOM     27  C   UNL d   1       2.731  -0.069  -2.504  0.00  0.00     0.013 A 
ENDBRANCH   2  20
TORSDOF 3
