REMARK  5 active torsions:
REMARK  status: ('A' for Active; 'I' for Inactive)
REMARK    1  A    between atoms: N_3  and  S_1 
REMARK    2  A    between atoms: C_6  and  S_1 
REMARK    3  A    between atoms: C_2  and  C_14 
REMARK    4  A    between atoms: N_7  and  N_3 
REMARK    5  A    between atoms: O_18  and  C_5 
ROOT
ATOM      1  N   UNL d   1       0.958   0.106   2.698  0.00  0.00    -0.301 N 
ATOM      2  HN  UNL d   1       1.598  -0.684   2.779  1.00  0.00     0.186 HD
ATOM      3  C   UNL d   1       0.483   0.713   3.738  0.00  0.00     0.122 C 
ENDROOT
BRANCH   1   4
ATOM      4  N   UNL d   1       0.531   0.611   1.426  0.00  0.00    -0.223 N 
ATOM      5  H   UNL d   1      -0.174   1.340   1.326  0.00  0.00     0.200 HD
BRANCH   4   6
ATOM      6  S   UNL d   1       1.082  -0.166   0.013  0.00  0.00     0.276 S 
ATOM      7  O   UNL d   1       0.496  -1.488  -0.054  0.00  0.00    -0.199 OA
ATOM      8  O   UNL d   1       2.510   0.044  -0.114  0.00  0.00    -0.199 OA
BRANCH   6   9
ATOM      9  C   UNL d   1       0.292   0.819  -1.247  0.00  0.00     0.081 A 
ATOM     10  C   UNL d   1       0.982   1.892  -1.821  0.00  0.00     0.027 A 
ATOM     11  C   UNL d   1       0.366   2.650  -2.820  0.00  0.00     0.025 A 
ATOM     12  C   UNL d   1      -0.923   2.324  -3.244  0.00  0.00     0.034 A 
ATOM     13  C   UNL d   1      -1.599   1.236  -2.689  0.00  0.00     0.025 A 
ATOM     14 CL   UNL d   1      -1.687   3.273  -4.459  0.00  0.00    -0.084 Cl
ATOM     15  C   UNL d   1      -0.989   0.473  -1.691  0.00  0.00     0.027 A 
ENDBRANCH   6   9
ENDBRANCH   4   6
ENDBRANCH   1   4
BRANCH   3  16
ATOM     16  C   UNL d   1       0.855   0.281   5.103  0.00  0.00     0.017 A 
ATOM     17  C   UNL d   1       0.343   0.944   6.222  0.00  0.00     0.099 A 
ATOM     18  C   UNL d   1       0.713   0.524   7.507  0.00  0.00     0.069 A 
ATOM     19 CL   UNL d   1       0.094   1.334   8.899  0.00  0.00    -0.081 Cl
ATOM     20  C   UNL d   1       1.585  -0.550   7.680  0.00  0.00     0.050 A 
ATOM     21  C   UNL d   1       2.087  -1.208   6.560  0.00  0.00     0.036 A 
ATOM     22  C   UNL d   1       1.730  -0.800   5.275  0.00  0.00     0.039 A 
ATOM     23 CL   UNL d   1       3.160  -2.536   6.766  0.00  0.00    -0.084 Cl
BRANCH  17  24
ATOM     24  O   UNL d   1      -0.517   1.998   6.056  0.00  0.00    -0.358 OA
ATOM     25  H   UNL d   1      -0.769   2.318   6.945  0.00  0.00     0.217 HD
ENDBRANCH  17  24
ENDBRANCH   3  16
TORSDOF 5
