REMARK  6 active torsions:
REMARK  status: ('A' for Active; 'I' for Inactive)
REMARK    1  A    between atoms: C_7  and  C_1 
REMARK    2  A    between atoms: N_17  and  C_3 
REMARK    3  A    between atoms: C_10  and  C_6 
REMARK       I    between atoms: N_14  and  C_7 
REMARK    4  A    between atoms: C_13  and  C_11 
REMARK    5  A    between atoms: C_18  and  N_14 
REMARK    6  A    between atoms: S_27  and  C_26 
ROOT
ATOM      1  C   UNL d   1      -2.055  -0.167  -0.269  0.00  0.00     0.102 A 
ATOM      2  C   UNL d   1       0.078   0.865  -0.155  0.00  0.00     0.041 A 
ATOM      3  C   UNL d   1      -1.351   1.020  -0.115  0.00  0.00     0.062 A 
ATOM      4  C   UNL d   1       0.389  -0.487  -0.285  0.00  0.00     0.088 A 
ATOM      5  S   UNL d   1      -0.990  -1.483  -0.473  0.00  0.00    -0.064 SA
ATOM      6  C   UNL d   1       1.171   1.766  -0.054  0.00  0.00     0.065 A 
ATOM      7  N   UNL d   1       1.618  -1.045  -0.264  0.00  0.00    -0.349 N 
ATOM      8  HN  UNL d   1       1.769  -2.045  -0.394  1.00  0.00     0.166 HD
ATOM      9  C   UNL d   1       2.631  -0.179  -0.059  0.00  0.00     0.051 A 
ATOM     10  C   UNL d   1       2.457   1.196   0.006  0.00  0.00     0.048 A 
ENDROOT
BRANCH   1  11
ATOM     11  C   UNL d   1      -3.513  -0.295  -0.252  0.00  0.00     0.265 C 
ATOM     12  N   UNL d   1      -4.048  -1.577  -0.344  0.00  0.00    -0.322 N 
ATOM     13  H   UNL d   1      -3.393  -2.347  -0.308  0.00  0.00     0.169 HD
ATOM     14  O   UNL d   1      -4.214   0.710  -0.117  0.00  0.00    -0.267 OA
BRANCH  12  15
ATOM     15  C   UNL d   1      -5.430  -1.888  -0.263  0.00  0.00     0.036 A 
ATOM     16  C   UNL d   1      -6.437  -0.928  -0.434  0.00  0.00     0.048 A 
ATOM     17  C   UNL d   1      -7.786  -1.226  -0.219  0.00  0.00     0.002 A 
ATOM     18  C   UNL d   1      -8.137  -2.537   0.104  0.00  0.00     0.018 A 
ATOM     19  C   UNL d   1      -7.153  -3.524   0.212  0.00  0.00     0.004 A 
ATOM     20  C   UNL d   1      -5.805  -3.202   0.026  0.00  0.00     0.029 A 
BRANCH  17  21
ATOM     21  S   UNL d   1      -9.082  -0.001  -0.367  0.00  0.00    -0.134 SA
ATOM     22  C   UNL d   1      -8.229   1.518   0.157  0.00  0.00     0.095 C 
ENDBRANCH  17  21
ENDBRANCH  12  15
ENDBRANCH   1  11
BRANCH   3  23
ATOM     23  N   UNL d   1      -1.979   2.191   0.100  0.00  0.00    -0.397 N 
ATOM     24  H   UNL d   1      -1.540   3.110   0.069  0.00  0.00     0.156 HD
ATOM     25  H   UNL d   1      -3.005   2.236   0.099  0.00  0.00     0.156 HD
ENDBRANCH   3  23
BRANCH   6  26
ATOM     26  C   UNL d   1       1.103   3.271   0.037  0.00  0.00     0.418 C 
ATOM     27  F   UNL d   1      -0.126   3.827  -0.128  0.00  0.00    -0.166 F 
ATOM     28  F   UNL d   1       1.558   3.731   1.237  0.00  0.00    -0.166 F 
ATOM     29  F   UNL d   1       1.892   3.867  -0.903  0.00  0.00    -0.166 F 
ENDBRANCH   6  26
BRANCH   9  30
ATOM     30  C   UNL d   1       3.951  -0.807   0.118  0.00  0.00     0.031 A 
ATOM     31  S   UNL d   1       5.136  -0.090   1.146  0.00  0.00    -0.100 SA
ATOM     32  C   UNL d   1       6.261  -1.339   0.859  0.00  0.00     0.050 A 
ATOM     33  C   UNL d   1       5.759  -2.297   0.009  0.00  0.00     0.008 A 
ATOM     34  C   UNL d   1       4.428  -1.995  -0.408  0.00  0.00     0.021 A 
ENDBRANCH   9  30
TORSDOF 6
