REMARK  2 active torsions:
REMARK  status: ('A' for Active; 'I' for Inactive)
REMARK    1  A    between atoms: C_6  and  N_1 
REMARK    2  A    between atoms: C_10  and  C_6 
ROOT
ATOM      1  N   UNL d   1       1.589  -0.996   0.019  0.00  0.00    -0.286 N 
ATOM      2  C   UNL d   1       2.312   0.175  -0.083  0.00  0.00     0.373 A 
ATOM      3  C   UNL d   1       0.253  -0.664   0.022  0.00  0.00     0.074 A 
ATOM      4  O   UNL d   1       1.465   1.292  -0.100  0.00  0.00    -0.259 OA
ATOM      5  C   UNL d   1       0.208   0.713  -0.038  0.00  0.00     0.107 A 
ATOM      6  O   UNL d   1       3.531   0.265  -0.156  0.00  0.00    -0.237 OA
ATOM      7  C   UNL d   1      -0.889  -1.433   0.063  0.00  0.00     0.039 A 
ATOM      8  C   UNL d   1      -0.985   1.401  -0.045  0.00  0.00     0.040 A 
ATOM      9  C   UNL d   1      -2.125  -0.767   0.043  0.00  0.00    -0.060 A 
ATOM     10  C   UNL d   1      -2.162   0.648  -0.001  0.00  0.00     0.009 A 
ATOM     11  C   UNL d   1      -3.414  -1.536   0.057  0.00  0.00     0.048 C 
ENDROOT
BRANCH   1  12
ATOM     12  C   UNL d   1       2.146  -2.324   0.020  0.00  0.00     0.173 C 
BRANCH  12  13
ATOM     13  C   UNL d   1       2.118  -2.963  -1.350  0.00  0.00    -0.040 A 
ATOM     14  C   UNL d   1       2.881  -2.424  -2.399  0.00  0.00     0.012 A 
ATOM     15  C   UNL d   1       2.806  -2.967  -3.682  0.00  0.00     0.043 A 
ATOM     16  C   UNL d   1       1.979  -4.058  -3.914  0.00  0.00     0.116 A 
ATOM     17  C   UNL d   1       1.241  -4.629  -2.884  0.00  0.00     0.043 A 
ATOM     18  F   UNL d   1       1.888  -4.567  -5.150  0.00  0.00    -0.206 F 
ATOM     19  C   UNL d   1       1.312  -4.085  -1.600  0.00  0.00     0.012 A 
ENDBRANCH  12  13
ENDBRANCH   1  12
TORSDOF 2
