REMARK  2 active torsions:
REMARK  status: ('A' for Active; 'I' for Inactive)
REMARK    1  A    between atoms: C_17  and  C_6 
REMARK    2  A    between atoms: C_19  and  C_12 
ROOT
ATOM      1  C   UNL d   1      -1.195  -0.946  -0.091  0.00  0.00     0.102 A 
ATOM      2  C   UNL d   1       0.678   0.490  -0.067  0.00  0.00     0.041 A 
ATOM      3  C   UNL d   1      -0.755   0.351  -0.150  0.00  0.00     0.070 A 
ATOM      4  C   UNL d   1       1.219  -0.792  -0.015  0.00  0.00     0.103 A 
ATOM      5  S   UNL d   1       0.071  -2.054  -0.032  0.00  0.00    -0.062 SA
ATOM      6  C   UNL d   1       1.611   1.576  -0.032  0.00  0.00     0.018 A 
ATOM      7  C   UNL d   1      -2.583  -1.300  -0.067  0.00  0.00     0.265 A 
ATOM      8  N   UNL d   1       3.382  -0.099   0.105  0.00  0.00    -0.298 N 
ATOM      9  HN  UNL d   1       4.378  -0.308   0.167  1.00  0.00     0.187 HD
ATOM     10  N   UNL d   1       2.525  -1.091   0.055  0.00  0.00    -0.292 N 
ATOM     11  HN  UNL d   1       2.842  -2.060   0.069  1.00  0.00     0.187 HD
ATOM     12  C   UNL d   1       2.978   1.202   0.077  0.00  0.00     0.070 A 
ATOM     13  N   UNL d   1      -1.668   1.420  -0.227  0.00  0.00    -0.350 N 
ATOM     14  HN  UNL d   1      -1.367   2.391  -0.315  1.00  0.00     0.166 HD
ATOM     15  N   UNL d   1      -3.402  -0.195  -0.084  0.00  0.00    -0.319 N 
ATOM     16  C   UNL d   1      -2.913   1.084  -0.180  0.00  0.00     0.184 A 
ATOM     17  O   UNL d   1      -3.052  -2.433  -0.018  0.00  0.00    -0.267 OA
ATOM     18  H   UNL d   1      -4.394  -0.377  -0.049  0.00  0.00     0.169 HD
ENDROOT
BRANCH   6  19
ATOM     19  C   UNL d   1       1.136   2.977  -0.119  0.00  0.00    -0.023 A 
ATOM     20  C   UNL d   1       0.150   3.474   0.751  0.00  0.00     0.012 A 
ATOM     21  C   UNL d   1      -0.307   4.793   0.668  0.00  0.00     0.001 A 
ATOM     22  C   UNL d   1       0.266   5.671  -0.244  0.00  0.00     0.000 A 
ATOM     23  C   UNL d   1       1.276   5.222  -1.088  0.00  0.00     0.001 A 
ATOM     24  C   UNL d   1       1.684   3.884  -1.046  0.00  0.00     0.012 A 
ENDBRANCH   6  19
BRANCH  12  25
ATOM     25  C   UNL d   1       4.130   2.140   0.156  0.00  0.00    -0.007 A 
ATOM     26  C   UNL d   1       4.111   3.311   0.933  0.00  0.00     0.014 A 
ATOM     27  C   UNL d   1       5.183   4.210   0.925  0.00  0.00     0.001 A 
ATOM     28  C   UNL d   1       6.324   3.932   0.180  0.00  0.00     0.000 A 
ATOM     29  C   UNL d   1       6.401   2.750  -0.546  0.00  0.00     0.001 A 
ATOM     30  C   UNL d   1       5.316   1.868  -0.559  0.00  0.00     0.014 A 
ENDBRANCH  12  25
TORSDOF 2
