REMARK  5 active torsions:
REMARK  status: ('A' for Active; 'I' for Inactive)
REMARK    1  A    between atoms: C_3  and  C_1 
REMARK    2  A    between atoms: C_6  and  C_2 
REMARK       I    between atoms: N_8  and  C_3 
REMARK    3  A    between atoms: C_10  and  N_8 
REMARK    4  A    between atoms: C_14  and  C_11 
REMARK    5  A    between atoms: O_23  and  N_17 
ROOT
ATOM      1  C   UNL d   1      -1.391  -8.774   3.574  0.00  0.00     0.261 C 
ATOM      2  N   UNL d   1      -1.504  -7.394   3.500  0.00  0.00    -0.321 N 
ATOM      3  O   UNL d   1      -0.317  -9.351   3.694  0.00  0.00    -0.267 OA
ATOM      4  H   UNL d   1      -2.427  -6.983   3.511  0.00  0.00     0.169 HD
ENDROOT
BRANCH   1   5
ATOM      5  C   UNL d   1      -2.630  -9.538   3.444  0.00  0.00     0.093 A 
ATOM      6  C   UNL d   1      -2.886 -10.933   3.794  0.00  0.00     0.085 A 
ATOM      7  N   UNL d   1      -4.122 -11.270   3.387  0.00  0.00    -0.259 N 
ATOM      8  O   UNL d   1      -4.701 -10.160   2.867  0.00  0.00    -0.241 OA
ATOM      9  HN  UNL d   1      -4.547 -12.194   3.457  1.00  0.00     0.195 HD
ATOM     10  C   UNL d   1      -3.831  -9.126   2.879  0.00  0.00     0.090 A 
ATOM     11  C   UNL d   1      -4.354  -7.888   2.256  0.00  0.00     0.080 C 
BRANCH   6  12
ATOM     12  C   UNL d   1      -2.048 -11.958   4.437  0.00  0.00     0.015 A 
ATOM     13  C   UNL d   1      -2.553 -12.823   5.431  0.00  0.00     0.046 A 
ATOM     14 CL   UNL d   1      -4.157 -12.709   6.081  0.00  0.00    -0.083 Cl
ATOM     15  C   UNL d   1      -1.748 -13.831   5.985  0.00  0.00     0.025 A 
ATOM     16  C   UNL d   1      -0.421 -13.976   5.590  0.00  0.00     0.002 A 
ATOM     17  C   UNL d   1       0.096 -13.128   4.618  0.00  0.00     0.001 A 
ATOM     18  C   UNL d   1      -0.718 -12.153   4.029  0.00  0.00     0.015 A 
ENDBRANCH   6  12
ENDBRANCH   1   5
BRANCH   2  19
ATOM     19  C   UNL d   1      -0.450  -6.469   3.257  0.00  0.00     0.057 A 
ATOM     20  C   UNL d   1       0.899  -6.843   3.243  0.00  0.00     0.044 A 
ATOM     21  C   UNL d   1       1.899  -5.945   2.851  0.00  0.00    -0.010 A 
ATOM     22  C   UNL d   1       1.552  -4.639   2.491  0.00  0.00     0.015 A 
ATOM     23  C   UNL d   1       0.218  -4.231   2.548  0.00  0.00     0.027 A 
ATOM     24  C   UNL d   1      -0.775  -5.139   2.929  0.00  0.00     0.060 A 
ATOM     25 CL   UNL d   1      -2.419  -4.600   2.914  0.00  0.00    -0.082 Cl
BRANCH  21  26
ATOM     26  C   UNL d   1       3.312  -6.407   2.699  0.00  0.00     0.038 C 
ATOM     27  N   UNL d   1       4.051  -5.840   1.787  0.00  0.00    -0.273 N 
ATOM     28  HN  UNL d   1       3.746  -5.063   1.202  1.00  0.00     0.193 HD
ATOM     29  C   UNL d   1       3.811  -7.548   3.568  0.00  0.00     0.071 C 
BRANCH  27  30
ATOM     30  O   UNL d   1       5.316  -6.434   1.713  0.00  0.00    -0.290 OA
ATOM     31  H   UNL d   1       5.699  -6.012   0.922  0.00  0.00     0.244 HD
ENDBRANCH  27  30
ENDBRANCH  21  26
ENDBRANCH   2  19
TORSDOF 5
