REMARK  5 active torsions:
REMARK  status: ('A' for Active; 'I' for Inactive)
REMARK       I    between atoms: N_3  and  C_1 
REMARK    1  A    between atoms: C_7  and  C_1 
REMARK    2  A    between atoms: C_2  and  C_8 
REMARK    3  A    between atoms: O_9  and  C_2 
REMARK    4  A    between atoms: C_6  and  N_3 
REMARK    5  A    between atoms: C_8  and  C_7 
ROOT
ATOM      1  C   UNL d   1       1.120   0.048  -0.171  0.00  0.00     0.222 C 
ATOM      2  N   UNL d   1       0.385   0.091  -1.338  0.00  0.00    -0.327 N 
ATOM      3  O   UNL d   1       2.342   0.121  -0.076  0.00  0.00    -0.273 OA
ATOM      4  H   UNL d   1      -0.619   0.254  -1.248  0.00  0.00     0.169 HD
ENDROOT
BRANCH   2   5
ATOM      5  C   UNL d   1       0.861  -0.109  -2.650  0.00  0.00     0.034 A 
ATOM      6  C   UNL d   1       2.152  -0.551  -2.942  0.00  0.00     0.030 A 
ATOM      7  C   UNL d   1       2.516  -0.857  -4.258  0.00  0.00     0.009 A 
ATOM      8  C   UNL d   1       1.598  -0.719  -5.303  0.00  0.00    -0.062 A 
ATOM      9  C   UNL d   1       0.321  -0.226  -5.018  0.00  0.00     0.009 A 
ATOM     10  C   UNL d   1       1.992  -1.094  -6.701  0.00  0.00     0.048 C 
ATOM     11  C   UNL d   1      -0.046   0.069  -3.700  0.00  0.00     0.030 A 
ENDBRANCH   2   5
BRANCH   1  12
ATOM     12  C   UNL d   1       0.265  -0.125   1.072  0.00  0.00     0.113 C 
BRANCH  12  13
ATOM     13  C   UNL d   1      -0.392   1.170   1.528  0.00  0.00     0.120 C 
BRANCH  13  14
ATOM     14  C   UNL d   1      -1.699   1.414   0.814  0.00  0.00     0.258 C 
ATOM     15  O   UNL d   1      -2.010   0.906  -0.255  0.00  0.00    -0.265 OA
BRANCH  14  16
ATOM     16  O   UNL d   1      -2.450   2.302   1.517  0.00  0.00    -0.326 OA
ATOM     17  C   UNL d   1      -3.710   2.622   0.919  0.00  0.00     0.213 C 
ENDBRANCH  14  16
ENDBRANCH  13  14
ENDBRANCH  12  13
ENDBRANCH   1  12
TORSDOF 5
