REMARK  3 active torsions:
REMARK  status: ('A' for Active; 'I' for Inactive)
REMARK    1  A    between atoms: O_3  and  C_1 
REMARK       I    between atoms: N_5  and  C_1 
REMARK    2  A    between atoms: C_4  and  O_3 
REMARK    3  A    between atoms: C_10  and  N_5 
ROOT
ATOM      1  C   UNL d   1      -1.250   2.203   2.101  0.00  0.00     0.045 A 
ATOM      2  C   UNL d   1      -0.886   0.934   1.339  0.00  0.00     0.183 C 
ATOM      3  N   UNL d   1      -2.165   2.022   3.098  0.00  0.00    -0.367 N 
ATOM      4  HN  UNL d   1      -2.423   1.084   3.404  1.00  0.00     0.165 HD
ATOM      5  C   UNL d   1      -0.839   3.479   1.705  0.00  0.00    -0.033 A 
ATOM      6  C   UNL d   1      -1.301   1.030  -0.144  0.00  0.00     0.039 C 
ATOM      7  C   UNL d   1      -2.720   3.110   3.669  0.00  0.00     0.088 A 
ATOM      8  C   UNL d   1       0.169   3.705   0.614  0.00  0.00     0.040 C 
ATOM      9  C   UNL d   1      -1.453   4.585   2.315  0.00  0.00     0.010 A 
ATOM     10  C   UNL d   1      -2.416   4.401   3.299  0.00  0.00     0.018 A 
ATOM     11  C   UNL d   1      -0.386   1.855  -1.048  0.00  0.00     0.003 C 
ATOM     12  C   UNL d   1      -0.385   3.354  -0.762  0.00  0.00     0.005 C 
ENDROOT
BRANCH   2  13
ATOM     13  O   UNL d   1       0.490   0.513   1.501  0.00  0.00    -0.292 OA
BRANCH  13  14
ATOM     14  C   UNL d   1       0.630  -0.847   1.427  0.00  0.00     0.365 C 
ATOM     15  N   UNL d   1       1.855  -1.391   1.670  0.00  0.00    -0.303 N 
ATOM     16  H   UNL d   1       1.769  -2.399   1.681  0.00  0.00     0.171 HD
ATOM     17  O   UNL d   1      -0.293  -1.621   1.177  0.00  0.00    -0.238 OA
BRANCH  15  18
ATOM     18  C   UNL d   1       3.142  -0.885   1.871  0.00  0.00     0.036 A 
ATOM     19  C   UNL d   1       3.504   0.452   1.752  0.00  0.00     0.029 A 
ATOM     20  C   UNL d   1       4.844   0.830   1.921  0.00  0.00     0.002 A 
ATOM     21  C   UNL d   1       5.822  -0.122   2.217  0.00  0.00     0.000 A 
ATOM     22  C   UNL d   1       5.466  -1.459   2.349  0.00  0.00     0.002 A 
ATOM     23  C   UNL d   1       4.135  -1.836   2.172  0.00  0.00     0.029 A 
ENDBRANCH  15  18
ENDBRANCH  13  14
ENDBRANCH   2  13
TORSDOF 3
