REMARK  2 active torsions:
REMARK  status: ('A' for Active; 'I' for Inactive)
REMARK    1  A    between atoms: N_4  and  C_1 
REMARK    2  A    between atoms: N_11  and  C_2 
ROOT
ATOM      1  C   UNL d   1      -1.821  -1.222  -0.280  0.00  0.00     0.205 A 
ATOM      2  C   UNL d   1      -0.627  -1.819  -0.086  0.00  0.00     0.080 A 
ATOM      3  C   UNL d   1      -2.095   0.211  -0.311  0.00  0.00     0.324 A 
ATOM      4  O   UNL d   1      -0.982   1.031  -0.200  0.00  0.00    -0.273 OA
ATOM      5  C   UNL d   1       0.531  -0.886   0.002  0.00  0.00     0.027 A 
ATOM      6  C   UNL d   1       0.310   0.494  -0.067  0.00  0.00     0.092 A 
ATOM      7  O   UNL d   1      -3.217   0.696  -0.398  0.00  0.00    -0.257 OA
ATOM      8  C   UNL d   1       1.869  -1.306   0.090  0.00  0.00     0.017 A 
ATOM      9  C   UNL d   1       1.347   1.429  -0.030  0.00  0.00     0.038 A 
ATOM     10  C   UNL d   1       2.921  -0.380   0.131  0.00  0.00     0.001 A 
ATOM     11  C   UNL d   1       2.660   0.987   0.072  0.00  0.00     0.003 A 
ENDROOT
BRANCH   1  12
ATOM     12  N   UNL d   1      -2.984  -2.041  -0.405  0.00  0.00    -0.107 N 
ATOM     13  O   UNL d   1      -3.534  -2.422   0.640  0.00  0.00    -0.531 OA
ATOM     14  O   UNL d   1      -3.357  -2.307  -1.558  0.00  0.00    -0.531 OA
ENDBRANCH   1  12
BRANCH   2  15
ATOM     15  N   UNL d   1      -0.372  -3.179   0.106  0.00  0.00    -0.391 N 
ATOM     16  C   UNL d   1      -0.590  -4.226  -0.882  0.00  0.00     0.146 C 
ATOM     17  H   UNL d   1       0.460  -3.365   0.661  0.00  0.00     0.159 HD
ENDBRANCH   2  15
TORSDOF 2
