REMARK  5 active torsions:
REMARK  status: ('A' for Active; 'I' for Inactive)
REMARK    1  A    between atoms: C_14  and  N_1 
REMARK    2  A    between atoms: C_7  and  C_2 
REMARK    3  A    between atoms: C_8  and  C_12 
REMARK    4  A    between atoms: C_13  and  N_9 
REMARK    5  A    between atoms: N_11  and  C_10 
ROOT
ATOM      1  N   UNL d   1       6.533  -3.681  -0.641  0.00  0.00    -0.378 N 
ATOM      2  N   UNL d   1       3.757  -3.365   0.069  0.00  0.00    -0.387 N 
ATOM      3  C   UNL d   1       6.109  -2.533   0.183  0.00  0.00     0.143 C 
ATOM      4  C   UNL d   1       5.489  -4.222  -1.528  0.00  0.00     0.143 C 
ATOM      5  C   UNL d   1       4.196  -4.536  -0.727  0.00  0.00     0.142 C 
ATOM      6  C   UNL d   1       4.824  -2.864   0.969  0.00  0.00     0.142 C 
ENDROOT
BRANCH   2   7
ATOM      7  C   UNL d   1       2.563  -2.684  -0.126  0.00  0.00     0.089 C 
ATOM      8  C   UNL d   1       1.413  -3.176  -0.600  0.00  0.00     0.068 C 
BRANCH   8   9
ATOM      9  C   UNL d   1       0.295  -2.348  -0.839  0.00  0.00     0.139 A 
ATOM     10  N   UNL d   1      -0.019  -1.827  -2.101  0.00  0.00    -0.225 N 
ATOM     11  N   UNL d   1      -1.157  -1.094  -1.955  0.00  0.00     0.001 NA
ATOM     12  N   UNL d   1      -1.515  -1.191  -0.687  0.00  0.00    -0.007 NA
ATOM     13  N   UNL d   1      -0.631  -1.955   0.015  0.00  0.00    -0.270 N 
ATOM     14  HN  UNL d   1      -0.677  -2.180   1.009  1.00  0.00     0.185 HD
BRANCH  10  15
ATOM     15  C   UNL d   1       0.621  -1.907  -3.376  0.00  0.00     0.056 A 
ATOM     16  C   UNL d   1       1.740  -2.713  -3.613  0.00  0.00     0.032 A 
ATOM     17  C   UNL d   1       2.392  -2.691  -4.849  0.00  0.00     0.009 A 
ATOM     18  C   UNL d   1       1.935  -1.869  -5.881  0.00  0.00    -0.062 A 
ATOM     19  C   UNL d   1       0.785  -1.104  -5.675  0.00  0.00     0.009 A 
ATOM     20  C   UNL d   1       2.700  -1.804  -7.169  0.00  0.00     0.048 C 
ATOM     21  C   UNL d   1       0.130  -1.125  -4.437  0.00  0.00     0.032 A 
ENDBRANCH  10  15
ENDBRANCH   8   9
ENDBRANCH   2   7
BRANCH   1  22
ATOM     22  C   UNL d   1       7.771  -4.272  -0.518  0.00  0.00     0.030 A 
ATOM     23  C   UNL d   1       8.427  -4.356   0.718  0.00  0.00     0.045 A 
ATOM     24  C   UNL d   1       9.700  -4.938   0.859  0.00  0.00     0.050 A 
ATOM     25  C   UNL d   1      10.339  -5.451  -0.274  0.00  0.00     0.016 A 
ATOM     26  C   UNL d   1       9.710  -5.391  -1.513  0.00  0.00     0.003 A 
ATOM     27  C   UNL d   1       8.440  -4.812  -1.626  0.00  0.00     0.029 A 
BRANCH  24  28
ATOM     28  C   UNL d   1      10.368  -5.013   2.208  0.00  0.00     0.417 C 
ATOM     29  F   UNL d   1       9.625  -4.477   3.217  0.00  0.00    -0.166 F 
ATOM     30  F   UNL d   1      10.637  -6.294   2.587  0.00  0.00    -0.166 F 
ATOM     31  F   UNL d   1      11.561  -4.357   2.237  0.00  0.00    -0.166 F 
ENDBRANCH  24  28
ENDBRANCH   1  22
TORSDOF 5
