REMARK  3 active torsions:
REMARK  status: ('A' for Active; 'I' for Inactive)
REMARK    1  A    between atoms: N_2  and  S_1 
REMARK    2  A    between atoms: C_4  and  S_1 
REMARK    3  A    between atoms: C_3  and  N_2 
ROOT
ATOM      1  S   UNL d   1       0.410   0.881   2.275  0.00  0.00     0.259 S 
ATOM      2  O   UNL d   1       0.386   0.719   3.707  0.00  0.00    -0.201 OA
ATOM      3  O   UNL d   1      -0.626   1.643   1.619  0.00  0.00    -0.201 OA
ENDROOT
BRANCH   1   4
ATOM      4  N   UNL d   1       0.414  -0.624   1.524  0.00  0.00    -0.309 N 
ATOM      5  H   UNL d   1       0.252  -0.516   0.524  0.00  0.00     0.172 HD
BRANCH   4   6
ATOM      6  C   UNL d   1       1.184  -1.802   1.950  0.00  0.00     0.109 C 
ATOM      7  C   UNL d   1       0.677  -2.540   3.235  0.00  0.00    -0.022 C 
ATOM      8  C   UNL d   1       1.420  -3.887   3.086  0.00  0.00     0.016 C 
ATOM      9  C   UNL d   1      -0.803  -2.981   3.088  0.00  0.00     0.011 C 
ATOM     10  C   UNL d   1       0.970  -1.922   4.588  0.00  0.00     0.017 C 
ATOM     11  C   UNL d   1       0.756  -4.225   1.759  0.00  0.00    -0.004 C 
ATOM     12  C   UNL d   1       1.098  -2.979   0.872  0.00  0.00    -0.022 C 
ATOM     13  C   UNL d   1      -0.717  -4.226   2.199  0.00  0.00     0.006 C 
ATOM     14  C   UNL d   1       0.060  -2.820  -0.259  0.00  0.00     0.017 C 
ATOM     15  C   UNL d   1       2.469  -3.182   0.197  0.00  0.00     0.017 C 
ENDBRANCH   4   6
ENDBRANCH   1   4
BRANCH   1  16
ATOM     16  C   UNL d   1       1.982   1.663   1.858  0.00  0.00     0.086 A 
ATOM     17  C   UNL d   1       2.945   1.757   2.885  0.00  0.00     0.034 A 
ATOM     18  C   UNL d   1       4.049   2.626   2.778  0.00  0.00    -0.039 A 
ATOM     19  C   UNL d   1       4.994   2.782   3.939  0.00  0.00     0.050 C 
ATOM     20  C   UNL d   1       4.179   3.402   1.621  0.00  0.00     0.040 A 
ATOM     21  C   UNL d   1       3.252   3.281   0.582  0.00  0.00     0.032 A 
ATOM     22 CL   UNL d   1       5.438   4.573   1.446  0.00  0.00    -0.084 Cl
ATOM     23  C   UNL d   1       2.148   2.409   0.675  0.00  0.00    -0.037 A 
ATOM     24  C   UNL d   1       1.169   2.435  -0.466  0.00  0.00     0.050 C 
ENDBRANCH   1  16
TORSDOF 3
