REMARK  7 active torsions:
REMARK  status: ('A' for Active; 'I' for Inactive)
REMARK    1  A    between atoms: C_2  and  S_1 
REMARK    2  A    between atoms: N_3  and  S_1 
REMARK    3  A    between atoms: N_4  and  N_3 
REMARK    4  A    between atoms: C_8  and  C_6 
REMARK    5  A    between atoms: N_17  and  C_6 
REMARK    6  A    between atoms: C_7  and  O_10 
REMARK    7  A    between atoms: O_10  and  C_9 
ROOT
ATOM      1  N   UNL d   1       1.646  -2.594  -1.915  0.00  0.00    -0.124 NA
ATOM      2  H   UNL d   1       1.518  -2.863  -0.930  0.00  0.00     0.166 HD
ENDROOT
BRANCH   1   3
ATOM      3  S   UNL d   1       1.878  -0.895  -2.089  0.00  0.00     0.261 S 
ATOM      4  O   UNL d   1       2.497  -0.643  -3.375  0.00  0.00    -0.204 OA
ATOM      5  O   UNL d   1       0.641  -0.242  -1.713  0.00  0.00    -0.204 OA
BRANCH   3   6
ATOM      6  C   UNL d   1       3.091  -0.537  -0.833  0.00  0.00     0.109 A 
ATOM      7  C   UNL d   1       2.730  -0.164   0.467  0.00  0.00     0.101 A 
ATOM      8  C   UNL d   1       3.716   0.262   1.365  0.00  0.00     0.039 A 
ATOM      9  C   UNL d   1       5.056   0.303   0.975  0.00  0.00     0.003 A 
ATOM     10  C   UNL d   1       5.418  -0.078  -0.315  0.00  0.00     0.002 A 
ATOM     11  C   UNL d   1       4.441  -0.498  -1.219  0.00  0.00     0.028 A 
BRANCH   7  12
ATOM     12  O   UNL d   1       1.431  -0.067   0.881  0.00  0.00    -0.254 OA
BRANCH  12  13
ATOM     13  C   UNL d   1       0.964  -1.270   1.476  0.00  0.00     0.530 C 
ATOM     14  F   UNL d   1       1.322  -2.350   0.739  0.00  0.00    -0.144 F 
ATOM     15  F   UNL d   1       1.464  -1.406   2.722  0.00  0.00    -0.144 F 
ATOM     16  F   UNL d   1      -0.382  -1.238   1.554  0.00  0.00    -0.144 F 
ENDBRANCH  12  13
ENDBRANCH   7  12
ENDBRANCH   3   6
ENDBRANCH   1   3
BRANCH   1  17
ATOM     17  N   UNL d   1       0.629  -3.154  -2.808  0.00  0.00    -0.296 N 
ATOM     18  C   UNL d   1       0.130  -4.299  -2.443  0.00  0.00     0.117 C 
ATOM     19  HN  UNL d   1       0.332  -2.677  -3.659  1.00  0.00     0.183 HD
BRANCH  18  20
ATOM     20  C   UNL d   1      -1.016  -4.862  -3.230  0.00  0.00     0.087 A 
ATOM     21  N   UNL d   1      -1.398  -6.127  -2.897  0.00  0.00    -0.361 N 
ATOM     22  C   UNL d   1      -2.447  -6.604  -3.609  0.00  0.00     0.105 A 
ATOM     23  HN  UNL d   1      -0.932  -6.671  -2.170  1.00  0.00     0.165 HD
ATOM     24  C   UNL d   1      -3.079  -5.869  -4.602  0.00  0.00     0.104 A 
ATOM     25  N   UNL d   1      -2.693  -4.616  -4.935  0.00  0.00    -0.372 N 
ATOM     26  C   UNL d   1      -1.645  -4.123  -4.225  0.00  0.00     0.120 A 
ATOM     27  HN  UNL d   1      -3.157  -4.078  -5.667  1.00  0.00     0.164 HD
ENDBRANCH  18  20
BRANCH  18  28
ATOM     28  N   UNL d   1       0.615  -5.038  -1.379  0.00  0.00    -0.286 NA
ATOM     29  H   UNL d   1       1.630  -5.035  -1.351  0.00  0.00     0.125 HD
ATOM     30  H   UNL d   1       0.252  -5.993  -1.395  0.00  0.00     0.125 HD
ENDBRANCH  18  28
ENDBRANCH   1  17
TORSDOF 7
