REMARK  4 active torsions:
REMARK  status: ('A' for Active; 'I' for Inactive)
REMARK    1  A    between atoms: O_5  and  C_1 
REMARK    2  A    between atoms: C_2  and  C_3 
REMARK       I    between atoms: N_10  and  C_2 
REMARK    3  A    between atoms: C_12  and  O_5 
REMARK    4  A    between atoms: O_11  and  C_6 
ROOT
ATOM      1  C   UNL d   1       1.395  -0.310   0.088  0.00  0.00     0.103 A 
ATOM      2  C   UNL d   1      -0.920  -1.079   0.177  0.00  0.00     0.034 A 
ATOM      3  C   UNL d   1       0.455  -1.343   0.211  0.00  0.00     0.056 A 
ATOM      4  C   UNL d   1       0.943   1.016  -0.020  0.00  0.00     0.101 A 
ATOM      5  C   UNL d   1      -1.368   0.236   0.042  0.00  0.00     0.020 A 
ATOM      6  C   UNL d   1      -0.438   1.271  -0.040  0.00  0.00     0.040 A 
ENDROOT
BRANCH   2   7
ATOM      7  C   UNL d   1      -1.860  -2.228   0.225  0.00  0.00     0.249 C 
ATOM      8  O   UNL d   1      -1.516  -3.350  -0.118  0.00  0.00    -0.268 OA
ATOM      9  N   UNL d   1      -3.123  -1.991   0.693  0.00  0.00    -0.366 N 
ATOM     10  H   UNL d   1      -3.372  -1.151   1.194  0.00  0.00     0.159 HD
ATOM     11  H   UNL d   1      -3.722  -2.799   0.797  0.00  0.00     0.159 HD
ENDBRANCH   2   7
BRANCH   1  12
ATOM     12  O   UNL d   1       2.742  -0.545   0.084  0.00  0.00    -0.344 OA
BRANCH  12  13
ATOM     13  C   UNL d   1       3.242  -1.791  -0.425  0.00  0.00     0.121 C 
ATOM     14  C   UNL d   1       2.894  -1.994  -1.900  0.00  0.00     0.040 C 
ATOM     15  C   UNL d   1       4.762  -1.724  -0.277  0.00  0.00     0.040 C 
ENDBRANCH  12  13
ENDBRANCH   1  12
BRANCH   4  16
ATOM     16  O   UNL d   1       1.675   2.167  -0.145  0.00  0.00    -0.353 OA
ATOM     17  C   UNL d   1       3.093   2.089  -0.137  0.00  0.00     0.210 C 
ENDBRANCH   4  16
TORSDOF 4
