REMARK  3 active torsions:
REMARK  status: ('A' for Active; 'I' for Inactive)
REMARK    1  A    between atoms: C_10  and  C_3 
REMARK    2  A    between atoms: C_7  and  C_10 
REMARK    3  A    between atoms: O_12  and  C_7 
ROOT
ATOM      1  C   UNL d   1      -1.254  -0.683  -0.568  0.00  0.00    -0.071 C 
ATOM      2  C   UNL d   1      -1.280   0.850  -0.553  0.00  0.00    -0.021 C 
ATOM      3  C   UNL d   1      -2.098  -1.556  -1.148  0.00  0.00    -0.012 C 
ATOM      4  C   UNL d   1      -0.047  -1.110   0.263  0.00  0.00     0.015 C 
ATOM      5  C   UNL d   1       0.015   1.120   0.289  0.00  0.00    -0.002 C 
ATOM      6  C   UNL d   1      -0.019  -0.013   1.325  0.00  0.00     0.014 C 
ATOM      7  C   UNL d   1       1.223  -0.795  -0.546  0.00  0.00     0.009 C 
ATOM      8  C   UNL d   1       1.302   0.741  -0.478  0.00  0.00     0.006 C 
ATOM      9  C   UNL d   1      -1.211   1.481  -1.951  0.00  0.00     0.020 C 
ATOM     10  C   UNL d   1      -2.511   1.414   0.181  0.00  0.00     0.020 C 
ENDROOT
BRANCH   3  11
ATOM     11  C   UNL d   1      -3.297  -1.195  -1.978  0.00  0.00     0.137 C 
BRANCH  11  12
ATOM     12  C   UNL d   1      -4.088  -2.386  -2.510  0.00  0.00     0.142 C 
ATOM     13  O   UNL d   1      -3.832  -3.563  -2.323  0.00  0.00    -0.650 OA
BRANCH  12  14
ATOM     14  O   UNL d   1      -5.156  -1.991  -3.251  0.00  0.00    -0.776 OA
ATOM     15  H   UNL d   1      -5.250  -1.020  -3.326  0.00  0.00     0.167 HD
ENDBRANCH  12  14
ENDBRANCH  11  12
ENDBRANCH   3  11
TORSDOF 3
