REMARK  6 active torsions:
REMARK  status: ('A' for Active; 'I' for Inactive)
REMARK    1  A    between atoms: C_6  and  N_1 
REMARK    2  A    between atoms: C_8  and  C_2 
REMARK    3  A    between atoms: C_9  and  C_2 
REMARK    4  A    between atoms: C_11  and  C_8 
REMARK    5  A    between atoms: O_23  and  C_9 
REMARK    6  A    between atoms: O_25  and  C_11 
ROOT
ATOM      1  N   UNL d   1      -2.411   0.799  -0.353  0.00  0.00    -0.269 N 
ATOM      2  C   UNL d   1      -2.403  -0.495   0.364  0.00  0.00     0.247 C 
ATOM      3  C   UNL d   1      -1.240   1.546  -0.417  0.00  0.00     0.264 C 
ATOM      4  C   UNL d   1       0.005   0.790  -0.200  0.00  0.00     0.067 A 
ATOM      5  O   UNL d   1      -1.254  -1.280  -0.108  0.00  0.00    -0.308 OA
ATOM      6  C   UNL d   1      -0.069  -0.600  -0.140  0.00  0.00     0.088 A 
ATOM      7  O   UNL d   1      -1.192   2.733  -0.716  0.00  0.00    -0.267 OA
ATOM      8  C   UNL d   1       1.243   1.439  -0.212  0.00  0.00     0.039 A 
ATOM      9  C   UNL d   1       1.100  -1.358  -0.144  0.00  0.00     0.039 A 
ATOM     10  C   UNL d   1       2.406   0.677  -0.183  0.00  0.00     0.012 A 
ATOM     11  C   UNL d   1       2.342  -0.718  -0.164  0.00  0.00     0.022 A 
ATOM     12 BR   UNL d   1       4.090   1.536  -0.200  0.00  0.00    -0.051 Br
ENDROOT
BRANCH   2  13
ATOM     13  C   UNL d   1      -2.228  -0.361   1.896  0.00  0.00     0.184 C 
BRANCH  13  14
ATOM     14  C   UNL d   1      -3.396   0.271   2.596  0.00  0.00     0.263 C 
ATOM     15  O   UNL d   1      -4.459   0.576   2.083  0.00  0.00    -0.265 OA
BRANCH  14  16
ATOM     16  O   UNL d   1      -3.081   0.454   3.912  0.00  0.00    -0.326 OA
ATOM     17  C   UNL d   1      -4.106   1.060   4.705  0.00  0.00     0.213 C 
ENDBRANCH  14  16
ENDBRANCH  13  14
ENDBRANCH   2  13
BRANCH   2  18
ATOM     18  C   UNL d   1      -3.557  -1.512   0.084  0.00  0.00     0.316 C 
ATOM     19  O   UNL d   1      -4.158  -2.139   0.952  0.00  0.00    -0.260 OA
BRANCH  18  20
ATOM     20  O   UNL d   1      -3.718  -1.737  -1.255  0.00  0.00    -0.323 OA
ATOM     21  C   UNL d   1      -4.710  -2.700  -1.613  0.00  0.00     0.213 C 
ENDBRANCH  18  20
ENDBRANCH   2  18
BRANCH   1  22
ATOM     22  C   UNL d   1      -3.405   1.086  -1.336  0.00  0.00     0.063 A 
ATOM     23  C   UNL d   1      -3.146   0.960  -2.720  0.00  0.00     0.062 A 
ATOM     24  C   UNL d   1      -4.130   1.281  -3.661  0.00  0.00     0.045 A 
ATOM     25 CL   UNL d   1      -1.659   0.319  -3.337  0.00  0.00    -0.082 Cl
ATOM     26  C   UNL d   1      -5.370   1.735  -3.229  0.00  0.00     0.012 A 
ATOM     27  C   UNL d   1      -5.643   1.866  -1.871  0.00  0.00     0.021 A 
ATOM     28 BR   UNL d   1      -6.697   2.179  -4.501  0.00  0.00    -0.051 Br
ATOM     29  C   UNL d   1      -4.662   1.544  -0.929  0.00  0.00     0.033 A 
ENDBRANCH   1  22
TORSDOF 6
