REMARK  7 active torsions:
REMARK  status: ('A' for Active; 'I' for Inactive)
REMARK    1  A    between atoms: C_12  and  C_1 
REMARK    2  A    between atoms: C_7  and  C_2 
REMARK    3  A    between atoms: N_9  and  C_3 
REMARK       I    between atoms: C_11  and  N_10 
REMARK    4  A    between atoms: O_24  and  C_11 
REMARK    5  A    between atoms: O_25  and  C_12 
REMARK    6  A    between atoms: C_26  and  O_24 
REMARK    7  A    between atoms: C_27  and  O_25 
ROOT
ATOM      1  C   UNL d   1      -1.555   1.214   0.339  0.00  0.00     0.072 A 
ATOM      2  C   UNL d   1      -1.379   0.320   1.393  0.00  0.00     0.134 A 
ATOM      3  C   UNL d   1      -0.171  -1.171  -0.004  0.00  0.00     0.125 A 
ATOM      4  N   UNL d   1      -0.668  -0.848   1.215  0.00  0.00    -0.337 N 
ATOM      5  HN  UNL d   1      -0.514  -1.474   2.006  1.00  0.00     0.167 HD
ATOM      6  C   UNL d   1      -0.364  -0.317  -1.099  0.00  0.00     0.089 A 
ATOM      7  C   UNL d   1      -1.052   0.880  -0.918  0.00  0.00     0.046 A 
ATOM      8  C   UNL d   1       0.179  -0.613  -2.393  0.00  0.00     0.103 C 
ATOM      9  N   UNL d   1       0.577  -0.834  -3.458  0.00  0.00    -0.191 NA
ENDROOT
BRANCH   3  10
ATOM     10  N   UNL d   1       0.579  -2.330  -0.146  0.00  0.00    -0.363 N 
ATOM     11  C   UNL d   1       1.304  -2.822   1.042  0.00  0.00     0.144 C 
ATOM     12  C   UNL d   1       2.406  -3.803   0.570  0.00  0.00     0.148 C 
ATOM     13  N   UNL d   1       1.874  -4.843  -0.329  0.00  0.00    -0.325 N 
ATOM     14  C   UNL d   1       1.010  -4.374  -1.414  0.00  0.00     0.148 C 
ATOM     15  C   UNL d   1       2.142  -6.186  -0.213  0.00  0.00     0.362 C 
ATOM     16  C   UNL d   1      -0.083  -3.433  -0.878  0.00  0.00     0.144 C 
ATOM     17  O   UNL d   1       1.677  -7.039  -0.961  0.00  0.00    -0.238 OA
BRANCH  15  18
ATOM     18  O   UNL d   1       2.913  -6.468   0.870  0.00  0.00    -0.304 OA
BRANCH  18  19
ATOM     19  C   UNL d   1       2.885  -7.837   1.293  0.00  0.00     0.176 C 
ATOM     20  C   UNL d   1       1.697  -8.016   2.221  0.00  0.00     0.034 C 
ENDBRANCH  18  19
ENDBRANCH  15  18
ENDBRANCH   3  10
BRANCH   1  21
ATOM     21  C   UNL d   1      -2.226   2.516   0.496  0.00  0.00     0.295 C 
ATOM     22  O   UNL d   1      -2.022   3.278   1.420  0.00  0.00    -0.259 OA
BRANCH  21  23
ATOM     23  O   UNL d   1      -3.088   2.658  -0.534  0.00  0.00    -0.318 OA
BRANCH  23  24
ATOM     24  C   UNL d   1      -4.043   3.726  -0.435  0.00  0.00     0.174 C 
ATOM     25  C   UNL d   1      -5.372   3.097  -0.065  0.00  0.00     0.034 C 
ENDBRANCH  23  24
ENDBRANCH  21  23
ENDBRANCH   1  21
BRANCH   2  26
ATOM     26  C   UNL d   1      -1.989   0.534   2.773  0.00  0.00     0.433 C 
ATOM     27  F   UNL d   1      -2.956   1.487   2.853  0.00  0.00    -0.165 F 
ATOM     28  F   UNL d   1      -2.608  -0.599   3.229  0.00  0.00    -0.165 F 
ATOM     29  F   UNL d   1      -1.060   0.846   3.720  0.00  0.00    -0.165 F 
ENDBRANCH   2  26
TORSDOF 7
