REMARK  6 active torsions:
REMARK  status: ('A' for Active; 'I' for Inactive)
REMARK    1  A    between atoms: C_7  and  C_1 
REMARK    2  A    between atoms: N_4  and  C_2 
REMARK    3  A    between atoms: C_3  and  O_6 
REMARK    4  A    between atoms: O_6  and  C_5 
REMARK    5  A    between atoms: O_21  and  C_7 
REMARK    6  A    between atoms: N_20  and  C_10 
ROOT
ATOM      1  C   UNL d   1       2.298   3.344   1.435  0.00  0.00     0.192 A 
ATOM      2  C   UNL d   1       2.789   2.800   0.268  0.00  0.00     0.185 A 
ATOM      3  N   UNL d   1       3.216   3.557  -0.766  0.00  0.00    -0.331 N 
ATOM      4  HN  UNL d   1       3.560   3.150  -1.635  1.00  0.00     0.168 HD
ATOM      5  C   UNL d   1       2.189   4.715   1.521  0.00  0.00     0.118 A 
ATOM      6  N   UNL d   1       2.646   5.488   0.512  0.00  0.00    -0.341 N 
ATOM      7  HN  UNL d   1       2.605   6.505   0.571  1.00  0.00     0.167 HD
ATOM      8  C   UNL d   1       3.156   4.877  -0.571  0.00  0.00     0.183 A 
ENDROOT
BRANCH   2   9
ATOM      9  O   UNL d   1       2.855   1.419   0.147  0.00  0.00    -0.290 OA
BRANCH   9  10
ATOM     10  C   UNL d   1       3.501   0.816  -0.882  0.00  0.00     0.101 A 
ATOM     11  C   UNL d   1       4.833   0.983  -1.212  0.00  0.00     0.114 A 
ATOM     12  S   UNL d   1       5.257  -0.015  -2.555  0.00  0.00    -0.093 SA
ATOM     13  C   UNL d   1       3.690  -0.681  -2.655  0.00  0.00     0.053 A 
ATOM     14  C   UNL d   1       2.847  -0.151  -1.707  0.00  0.00     0.046 A 
BRANCH  11  15
ATOM     15  C   UNL d   1       5.885   1.805  -0.650  0.00  0.00     0.302 C 
ATOM     16  O   UNL d   1       6.918   2.130  -1.221  0.00  0.00    -0.259 OA
BRANCH  15  17
ATOM     17  O   UNL d   1       5.586   2.193   0.627  0.00  0.00    -0.322 OA
ATOM     18  C   UNL d   1       6.565   3.057   1.209  0.00  0.00     0.213 C 
ENDBRANCH  15  17
ENDBRANCH  11  15
ENDBRANCH   9  10
ENDBRANCH   2   9
BRANCH   1  19
ATOM     19  N   UNL d   1       2.022   2.486   2.540  0.00  0.00    -0.108 N 
ATOM     20  O   UNL d   1       1.081   1.689   2.415  0.00  0.00    -0.532 OA
ATOM     21  O   UNL d   1       2.733   2.599   3.548  0.00  0.00    -0.532 OA
ENDBRANCH   1  19
BRANCH   5  22
ATOM     22  N   UNL d   1       1.685   5.460   2.568  0.00  0.00    -0.281 NA
ATOM     23  C   UNL d   1       0.467   5.089   3.265  0.00  0.00     0.114 C 
ATOM     24  H   UNL d   1       1.702   6.439   2.281  0.00  0.00     0.128 HD
ENDBRANCH   5  22
TORSDOF 6
