REMARK  7 active torsions:
REMARK  status: ('A' for Active; 'I' for Inactive)
REMARK    1  A    between atoms: N_2  and  S_1 
REMARK    2  A    between atoms: C_7  and  S_1 
REMARK    3  A    between atoms: N_3  and  N_2 
REMARK    4  A    between atoms: C_4  and  N_3 
REMARK    5  A    between atoms: N_5  and  C_4 
REMARK    6  A    between atoms: C_6  and  N_5 
REMARK    7  A    between atoms: C_14  and  C_8 
ROOT
ATOM      1  N   UNL d   1       1.676   0.420  -2.658  0.00  0.00    -0.266 N 
ATOM      2  H   UNL d   1       1.036   0.051  -1.963  0.00  0.00     0.190 HD
ENDROOT
BRANCH   1   3
ATOM      3  N   UNL d   1       2.845   1.131  -2.169  0.00  0.00    -0.221 N 
ATOM      4  H   UNL d   1       3.509   1.487  -2.868  0.00  0.00     0.200 HD
BRANCH   3   5
ATOM      5  S   UNL d   1       2.672   2.197  -0.861  0.00  0.00     0.276 S 
ATOM      6  O   UNL d   1       1.502   3.005  -1.124  0.00  0.00    -0.199 OA
ATOM      7  O   UNL d   1       3.968   2.796  -0.622  0.00  0.00    -0.199 OA
BRANCH   5   8
ATOM      8  C   UNL d   1       2.305   1.135   0.508  0.00  0.00     0.081 A 
ATOM      9  C   UNL d   1       3.213   0.149   0.896  0.00  0.00     0.026 A 
ATOM     10  C   UNL d   1       2.931  -0.636   2.018  0.00  0.00     0.008 A 
ATOM     11  C   UNL d   1       1.752  -0.433   2.754  0.00  0.00    -0.062 A 
ATOM     12  C   UNL d   1       0.845   0.546   2.342  0.00  0.00     0.008 A 
ATOM     13  C   UNL d   1       1.487  -1.246   3.989  0.00  0.00     0.048 C 
ATOM     14  C   UNL d   1       1.116   1.332   1.220  0.00  0.00     0.026 A 
ENDBRANCH   5   8
ENDBRANCH   3   5
ENDBRANCH   1   3
BRANCH   1  15
ATOM     15  C   UNL d   1       1.401   0.328  -3.998  0.00  0.00     0.191 C 
ATOM     16  S   UNL d   1       2.374   0.971  -5.204  0.00  0.00    -0.039 SA
BRANCH  15  17
ATOM     17  N   UNL d   1       0.313  -0.408  -4.376  0.00  0.00    -0.332 N 
ATOM     18  H   UNL d   1       0.314  -0.644  -5.362  0.00  0.00     0.168 HD
BRANCH  17  19
ATOM     19  C   UNL d   1      -0.807  -0.846  -3.642  0.00  0.00     0.041 A 
ATOM     20  C   UNL d   1      -1.499  -2.015  -4.030  0.00  0.00    -0.028 A 
ATOM     21  C   UNL d   1      -2.692  -2.339  -3.347  0.00  0.00     0.010 A 
ATOM     22  C   UNL d   1      -3.170  -1.555  -2.297  0.00  0.00     0.001 A 
ATOM     23  C   UNL d   1      -2.473  -0.419  -1.914  0.00  0.00     0.002 A 
ATOM     24  C   UNL d   1      -1.310  -0.058  -2.592  0.00  0.00     0.030 A 
BRANCH  20  25
ATOM     25  C   UNL d   1      -1.055  -2.995  -5.116  0.00  0.00     0.013 C 
ATOM     26  C   UNL d   1      -1.542  -2.557  -6.498  0.00  0.00     0.015 C 
ATOM     27  C   UNL d   1       0.436  -3.350  -5.122  0.00  0.00     0.015 C 
ENDBRANCH  20  25
ENDBRANCH  17  19
ENDBRANCH  15  17
ENDBRANCH   1  15
TORSDOF 7
