REMARK  7 active torsions:
REMARK  status: ('A' for Active; 'I' for Inactive)
REMARK    1  A    between atoms: C_11  and  C_3 
REMARK    2  A    between atoms: C_19  and  C_10 
REMARK    3  A    between atoms: O_17  and  C_11 
REMARK    4  A    between atoms: C_12  and  C_16 
REMARK    5  A    between atoms: N_13  and  O_17 
REMARK    6  A    between atoms: C_18  and  C_15 
REMARK    7  A    between atoms: N_27  and  C_15 
ROOT
ATOM      1  C   UNL d   1      -1.909  -0.759   0.044  0.00  0.00     0.324 C 
ATOM      2  O   UNL d   1      -2.562  -1.763   0.284  0.00  0.00    -0.257 OA
ENDROOT
BRANCH   1   3
ATOM      3  C   UNL d   1      -2.515   0.603  -0.002  0.00  0.00     0.109 A 
ATOM      4  S   UNL d   1      -1.522   2.077  -0.155  0.00  0.00    -0.044 SA
ATOM      5  C   UNL d   1      -2.970   3.026  -0.041  0.00  0.00     0.172 A 
ATOM      6  N   UNL d   1      -4.065   2.231   0.102  0.00  0.00    -0.235 N 
ATOM      7  N   UNL d   1      -3.290   4.290  -0.109  0.00  0.00    -0.319 N 
ATOM      8  N   UNL d   1      -5.162   2.985   0.181  0.00  0.00    -0.276 N 
ATOM      9  C   UNL d   1      -3.835   0.869   0.112  0.00  0.00     0.056 A 
ATOM     10  C   UNL d   1      -4.674   4.230   0.019  0.00  0.00     0.132 A 
ATOM     11  HN  UNL d   1      -6.128   2.693   0.327  1.00  0.00     0.189 HD
ATOM     12  C   UNL d   1      -5.001  -0.053   0.245  0.00  0.00     0.072 C 
ATOM     13  HN  UNL d   1      -2.687   5.104  -0.226  1.00  0.00     0.169 HD
BRANCH  10  14
ATOM     14  C   UNL d   1      -5.578   5.375  -0.082  0.00  0.00     0.009 A 
ATOM     15  C   UNL d   1      -5.119   6.676  -0.312  0.00  0.00     0.017 A 
ATOM     16  C   UNL d   1      -6.034   7.725  -0.484  0.00  0.00     0.025 A 
ATOM     17  C   UNL d   1      -7.406   7.478  -0.423  0.00  0.00     0.034 A 
ATOM     18  C   UNL d   1      -7.880   6.197  -0.172  0.00  0.00     0.025 A 
ATOM     19 CL   UNL d   1      -8.529   8.758  -0.676  0.00  0.00    -0.084 Cl
ATOM     20  C   UNL d   1      -6.968   5.155   0.002  0.00  0.00     0.017 A 
ENDBRANCH  10  14
ENDBRANCH   1   3
BRANCH   1  21
ATOM     21  O   UNL d   1      -0.561  -0.731  -0.203  0.00  0.00    -0.193 OA
BRANCH  21  22
ATOM     22  N   UNL d   1       0.090  -1.505   0.780  0.00  0.00    -0.246 N 
ATOM     23  C   UNL d   1       1.349  -1.689   0.508  0.00  0.00     0.109 C 
ATOM     24  HN  UNL d   1      -0.374  -1.877   1.609  1.00  0.00     0.196 HD
BRANCH  23  25
ATOM     25  C   UNL d   1       2.207  -2.224   1.616  0.00  0.00     0.004 A 
ATOM     26  C   UNL d   1       1.655  -3.046   2.607  0.00  0.00     0.030 A 
ATOM     27  C   UNL d   1       2.397  -3.370   3.756  0.00  0.00     0.048 A 
ATOM     28  C   UNL d   1       3.710  -2.887   3.878  0.00  0.00     0.016 A 
ATOM     29  C   UNL d   1       4.273  -2.097   2.876  0.00  0.00     0.002 A 
ATOM     30  C   UNL d   1       3.522  -1.763   1.748  0.00  0.00     0.015 A 
BRANCH  27  31
ATOM     31  C   UNL d   1       1.782  -4.157   4.888  0.00  0.00     0.417 C 
ATOM     32  F   UNL d   1       0.522  -4.601   4.629  0.00  0.00    -0.166 F 
ATOM     33  F   UNL d   1       2.510  -5.262   5.211  0.00  0.00    -0.166 F 
ATOM     34  F   UNL d   1       1.692  -3.424   6.033  0.00  0.00    -0.166 F 
ENDBRANCH  27  31
ENDBRANCH  23  25
BRANCH  23  35
ATOM     35  N   UNL d   1       1.939  -1.382  -0.695  0.00  0.00    -0.286 NA
ATOM     36  H   UNL d   1       1.268  -1.301  -1.452  0.00  0.00     0.125 HD
ATOM     37  H   UNL d   1       2.733  -1.962  -0.953  0.00  0.00     0.125 HD
ENDBRANCH  23  35
ENDBRANCH  21  22
ENDBRANCH   1  21
TORSDOF 7
