REMARK  9 active torsions:
REMARK  status: ('A' for Active; 'I' for Inactive)
REMARK    1  A    between atoms: C_3  and  N_1 
REMARK    2  A    between atoms: C_10  and  O_16 
REMARK    3  A    between atoms: C_20  and  C_10 
REMARK    4  A    between atoms: C_11  and  O_16 
REMARK    5  A    between atoms: N_27  and  C_12 
REMARK    6  A    between atoms: C_13  and  C_24 
REMARK    7  A    between atoms: C_17  and  O_23 
REMARK    8  A    between atoms: C_22  and  C_17 
REMARK    9  A    between atoms: O_23  and  C_24 
ROOT
ATOM      1  C   UNL d   1       2.030   2.445  -0.152  0.00  0.00     0.233 C 
ATOM      2  O   UNL d   1       1.855   3.156  -1.400  0.00  0.00    -0.356 OA
ATOM      3  C   UNL d   1       1.589   3.416   0.929  0.00  0.00     0.089 C 
ATOM      4  C   UNL d   1       1.992   4.763   0.350  0.00  0.00     0.167 C 
ATOM      5  C   UNL d   1       1.592   4.554  -1.115  0.00  0.00     0.178 C 
ENDROOT
BRANCH   1   6
ATOM      6  N   UNL d   1       3.400   1.960  -0.057  0.00  0.00    -0.300 N 
ATOM      7  C   UNL d   1       3.904   1.213   0.978  0.00  0.00     0.142 A 
ATOM      8  C   UNL d   1       5.148   0.779   0.539  0.00  0.00     0.122 A 
ATOM      9  N   UNL d   1       3.319   0.925   2.152  0.00  0.00    -0.336 N 
ATOM     10  C   UNL d   1       5.857  -0.083   1.392  0.00  0.00     0.131 A 
ATOM     11  N   UNL d   1       5.431   1.291  -0.711  0.00  0.00    -0.346 N 
ATOM     12  N   UNL d   1       5.327  -0.373   2.602  0.00  0.00    -0.337 N 
ATOM     13  C   UNL d   1       4.116   0.143   2.909  0.00  0.00     0.183 A 
ATOM     14  HN  UNL d   1       5.828  -0.964   3.264  1.00  0.00     0.168 HD
ATOM     15  C   UNL d   1       4.356   1.982  -1.037  0.00  0.00     0.188 A 
ATOM     16  HN  UNL d   1       6.281   1.163  -1.260  1.00  0.00     0.167 HD
ATOM     17  HN  UNL d   1       2.396   1.254   2.434  1.00  0.00     0.168 HD
BRANCH  10  18
ATOM     18  N   UNL d   1       7.072  -0.664   1.054  0.00  0.00    -0.383 N 
ATOM     19  H   UNL d   1       7.572  -0.188   0.314  0.00  0.00     0.157 HD
ATOM     20  H   UNL d   1       7.590  -0.993   1.856  0.00  0.00     0.157 HD
ENDBRANCH  10  18
ENDBRANCH   1   6
BRANCH   5  21
ATOM     21  C   UNL d   1       2.372   5.391  -2.129  0.00  0.00     0.213 C 
BRANCH  21  22
ATOM     22  O   UNL d   1       2.155   6.804  -2.031  0.00  0.00    -0.318 OA
BRANCH  22  23
ATOM     23  C   UNL d   1       1.123   7.292  -2.778  0.00  0.00     0.266 C 
ATOM     24  O   UNL d   1       0.255   6.589  -3.275  0.00  0.00    -0.264 OA
BRANCH  23  25
ATOM     25  C   UNL d   1       1.207   8.815  -2.966  0.00  0.00     0.037 C 
ATOM     26  C   UNL d   1       2.435   9.436  -2.283  0.00  0.00     0.025 C 
ATOM     27  C   UNL d   1       1.286   9.101  -4.475  0.00  0.00     0.025 C 
ATOM     28  C   UNL d   1      -0.063   9.451  -2.390  0.00  0.00     0.025 C 
ENDBRANCH  23  25
ENDBRANCH  22  23
ENDBRANCH  21  22
ENDBRANCH   5  21
BRANCH   4  29
ATOM     29  O   UNL d   1       1.298   5.848   0.986  0.00  0.00    -0.313 OA
BRANCH  29  30
ATOM     30  C   UNL d   1       1.772   6.178   2.226  0.00  0.00     0.267 C 
ATOM     31  O   UNL d   1       2.705   5.596   2.767  0.00  0.00    -0.264 OA
BRANCH  30  32
ATOM     32  C   UNL d   1       1.028   7.347   2.887  0.00  0.00     0.037 C 
ATOM     33  C   UNL d   1      -0.020   7.995   1.975  0.00  0.00     0.025 C 
ATOM     34  C   UNL d   1       0.342   6.837   4.165  0.00  0.00     0.025 C 
ATOM     35  C   UNL d   1       2.074   8.407   3.273  0.00  0.00     0.025 C 
ENDBRANCH  30  32
ENDBRANCH  29  30
ENDBRANCH   4  29
TORSDOF 9
