REMARK  9 active torsions:
REMARK  status: ('A' for Active; 'I' for Inactive)
REMARK    1  A    between atoms: C_2  and  N_1 
REMARK    2  A    between atoms: C_14  and  C_2 
REMARK    3  A    between atoms: C_15  and  C_2 
REMARK    4  A    between atoms: C_3  and  C_16 
REMARK       I    between atoms: N_11  and  C_3 
REMARK    5  A    between atoms: S_12  and  C_6 
REMARK    6  A    between atoms: N_7  and  N_11 
REMARK    7  A    between atoms: C_9  and  C_10 
REMARK    8  A    between atoms: C_16  and  S_12 
REMARK    9  A    between atoms: C_20  and  C_19 
ROOT
ATOM      1  S   UNL d   1      -0.286  -1.410  -1.937  0.00  0.00    -0.151 SA
ENDROOT
BRANCH   1   2
ATOM      2  C   UNL d   1      -0.375  -1.031  -0.115  0.00  0.00     0.104 C 
ATOM      3  C   UNL d   1       1.015  -0.571   0.417  0.00  0.00     0.290 C 
ATOM      4  N   UNL d   1       0.655   0.807  -0.050  0.00  0.00     0.104 N 
ATOM      5  C   UNL d   1      -0.769   0.438   0.199  0.00  0.00     0.290 C 
BRANCH   4   6
ATOM      6  C   UNL d   1       1.157   1.846   0.869  0.00  0.00     0.289 C 
BRANCH   6   7
ATOM      7  C   UNL d   1       2.633   2.154   0.586  0.00  0.00    -0.021 A 
ATOM      8  C   UNL d   1       3.049   2.605  -0.682  0.00  0.00     0.010 A 
ATOM      9  C   UNL d   1       4.366   3.007  -0.905  0.00  0.00     0.001 A 
ATOM     10  C   UNL d   1       5.296   2.944   0.129  0.00  0.00     0.000 A 
ATOM     11  C   UNL d   1       4.913   2.461   1.379  0.00  0.00     0.001 A 
ATOM     12  C   UNL d   1       3.591   2.068   1.608  0.00  0.00     0.010 A 
ENDBRANCH   6   7
BRANCH   6  13
ATOM     13  C   UNL d   1       0.344   3.149   0.815  0.00  0.00    -0.021 A 
ATOM     14  C   UNL d   1       0.249   3.949   1.966  0.00  0.00     0.010 A 
ATOM     15  C   UNL d   1      -0.465   5.149   1.945  0.00  0.00     0.001 A 
ATOM     16  C   UNL d   1      -1.088   5.568   0.772  0.00  0.00     0.000 A 
ATOM     17  C   UNL d   1      -0.987   4.798  -0.382  0.00  0.00     0.001 A 
ATOM     18  C   UNL d   1      -0.270   3.605  -0.366  0.00  0.00     0.010 A 
ENDBRANCH   6  13
ENDBRANCH   4   6
ENDBRANCH   1   2
BRANCH   1  19
ATOM     19  C   UNL d   1      -1.922  -2.153  -2.146  0.00  0.00     0.178 C 
BRANCH  19  20
ATOM     20  C   UNL d   1      -3.076  -1.173  -2.129  0.00  0.00     0.245 C 
ATOM     21  N   UNL d   1      -2.795   0.107  -2.588  0.00  0.00    -0.270 N 
ATOM     22  H   UNL d   1      -1.835   0.382  -2.780  0.00  0.00     0.190 HD
ATOM     23  O   UNL d   1      -4.197  -1.553  -1.778  0.00  0.00    -0.271 OA
BRANCH  21  24
ATOM     24  N   UNL d   1      -3.802   1.012  -2.623  0.00  0.00    -0.308 N 
ATOM     25  C   UNL d   1      -3.517   2.248  -2.867  0.00  0.00     0.118 C 
ATOM     26  HN  UNL d   1      -4.767   0.724  -2.460  1.00  0.00     0.186 HD
BRANCH  25  27
ATOM     27  C   UNL d   1      -4.608   3.246  -2.940  0.00  0.00    -0.019 A 
ATOM     28  C   UNL d   1      -5.931   2.825  -2.798  0.00  0.00     0.013 A 
ATOM     29  C   UNL d   1      -6.975   3.745  -2.892  0.00  0.00     0.009 A 
ATOM     30  C   UNL d   1      -6.736   5.112  -3.123  0.00  0.00    -0.051 A 
ATOM     31  C   UNL d   1      -5.392   5.516  -3.250  0.00  0.00     0.009 A 
ATOM     32  C   UNL d   1      -4.336   4.596  -3.163  0.00  0.00     0.013 A 
BRANCH  30  33
ATOM     33  C   UNL d   1      -7.928   6.080  -3.237  0.00  0.00    -0.024 C 
ATOM     34  C   UNL d   1      -7.517   7.558  -3.414  0.00  0.00     0.019 C 
ATOM     35  C   UNL d   1      -8.792   5.694  -4.458  0.00  0.00     0.019 C 
ATOM     36  C   UNL d   1      -8.798   6.003  -1.962  0.00  0.00     0.019 C 
ENDBRANCH  30  33
ENDBRANCH  25  27
ENDBRANCH  21  24
ENDBRANCH  19  20
ENDBRANCH   1  19
TORSDOF 9
