REMARK  6 active torsions:
REMARK  status: ('A' for Active; 'I' for Inactive)
REMARK       I    between atoms: C_2  and  N_5 
REMARK    1  A    between atoms: C_9  and  C_2 
REMARK    2  A    between atoms: C_4  and  C_10 
REMARK    3  A    between atoms: O_11  and  C_4 
REMARK    4  A    between atoms: N_5  and  C_8 
REMARK    5  A    between atoms: C_10  and  C_9 
REMARK    6  A    between atoms: C_12  and  C_17 
ROOT
ATOM      1  N   UNL d   1       1.156   0.085   0.247  0.00  0.00    -0.197 NA
ATOM      2  C   UNL d   1       2.312   0.090   0.151  0.00  0.00     0.063 C 
ATOM      3  C   UNL d   1       3.782   0.099   0.070  0.00  0.00     0.162 C 
ENDROOT
BRANCH   3   4
ATOM      4  C   UNL d   1       4.287  -0.070  -1.345  0.00  0.00    -0.045 A 
ATOM      5  C   UNL d   1       4.579   1.041  -2.146  0.00  0.00     0.010 A 
ATOM      6  C   UNL d   1       5.028   0.870  -3.461  0.00  0.00     0.030 A 
ATOM      7  C   UNL d   1       5.179  -0.412  -4.003  0.00  0.00     0.034 A 
ATOM      8  C   UNL d   1       4.887  -1.518  -3.204  0.00  0.00     0.030 A 
ATOM      9  C   UNL d   1       4.441  -1.350  -1.889  0.00  0.00     0.010 A 
BRANCH   7  10
ATOM     10  N   UNL d   1       5.618  -0.508  -5.341  0.00  0.00    -0.327 N 
ATOM     11  C   UNL d   1       5.647  -1.649  -6.116  0.00  0.00     0.222 C 
ATOM     12  O   UNL d   1       5.277  -2.773  -5.783  0.00  0.00    -0.273 OA
ATOM     13  H   UNL d   1       5.812   0.372  -5.803  0.00  0.00     0.169 HD
BRANCH  11  14
ATOM     14  C   UNL d   1       6.091  -1.408  -7.544  0.00  0.00     0.113 C 
BRANCH  14  15
ATOM     15  C   UNL d   1       5.137  -2.136  -8.482  0.00  0.00     0.119 C 
BRANCH  15  16
ATOM     16  C   UNL d   1       3.754  -1.554  -8.352  0.00  0.00     0.139 C 
ATOM     17  O   UNL d   1       3.363  -0.601  -9.009  0.00  0.00    -0.650 OA
BRANCH  16  18
ATOM     18  O   UNL d   1       3.007  -2.128  -7.383  0.00  0.00    -0.776 OA
ATOM     19  H   UNL d   1       3.488  -2.795  -6.841  0.00  0.00     0.167 HD
ENDBRANCH  16  18
ENDBRANCH  15  16
ENDBRANCH  14  15
ENDBRANCH  11  14
ENDBRANCH   7  10
ENDBRANCH   3   4
TORSDOF 6
