REMARK  4 active torsions:
REMARK  status: ('A' for Active; 'I' for Inactive)
REMARK    1  A    between atoms: C_3  and  C_1 
REMARK    2  A    between atoms: C_12  and  C_2 
REMARK    3  A    between atoms: C_15  and  N_4 
REMARK    4  A    between atoms: C_14  and  N_5 
ROOT
ATOM      1  C   UNL d   1      -0.212   1.258   0.024  0.00  0.00     0.061 A 
ATOM      2  C   UNL d   1       1.123   0.900  -0.066  0.00  0.00     0.155 A 
ATOM      3  N   UNL d   1       1.155  -0.487   0.013  0.00  0.00    -0.251 N 
ATOM      4  N   UNL d   1      -0.105  -0.990   0.167  0.00  0.00    -0.304 N 
ATOM      5  HN  UNL d   1      -0.368  -1.968   0.284  1.00  0.00     0.186 HD
ATOM      6  C   UNL d   1      -0.916   0.057   0.134  0.00  0.00     0.125 A 
ENDROOT
BRANCH   1   7
ATOM      7  C   UNL d   1      -0.790   2.626   0.025  0.00  0.00     0.152 C 
ATOM      8  N   UNL d   1      -1.952   3.055   0.654  0.00  0.00    -0.224 N 
ATOM      9  N   UNL d   1      -2.310   4.235   0.096  0.00  0.00     0.001 NA
ATOM     10  N   UNL d   1      -1.284   4.600  -0.660  0.00  0.00    -0.007 NA
ATOM     11  N   UNL d   1      -0.325   3.621  -0.699  0.00  0.00    -0.269 N 
ATOM     12  HN  UNL d   1       0.568   3.657  -1.191  1.00  0.00     0.185 HD
BRANCH   8  13
ATOM     13  C   UNL d   1      -2.648   2.512   1.762  0.00  0.00     0.056 A 
ATOM     14  C   UNL d   1      -1.991   1.690   2.691  0.00  0.00     0.031 A 
ATOM     15  C   UNL d   1      -2.692   1.152   3.772  0.00  0.00     0.002 A 
ATOM     16  C   UNL d   1      -4.045   1.438   3.934  0.00  0.00     0.000 A 
ATOM     17  C   UNL d   1      -4.695   2.278   3.031  0.00  0.00     0.002 A 
ATOM     18  C   UNL d   1      -3.999   2.828   1.952  0.00  0.00     0.031 A 
ENDBRANCH   8  13
ENDBRANCH   1   7
BRANCH   2  19
ATOM     19  C   UNL d   1       2.323   1.751  -0.061  0.00  0.00     0.435 C 
ATOM     20  F   UNL d   1       2.067   3.021   0.337  0.00  0.00    -0.165 F 
ATOM     21  F   UNL d   1       3.268   1.298   0.801  0.00  0.00    -0.165 F 
ATOM     22  F   UNL d   1       2.896   1.828  -1.286  0.00  0.00    -0.165 F 
ENDBRANCH   2  19
BRANCH   3  23
ATOM     23  C   UNL d   1       2.236  -1.429   0.029  0.00  0.00     0.057 A 
ATOM     24  C   UNL d   1       1.990  -2.710   0.571  0.00  0.00     0.034 A 
ATOM     25  C   UNL d   1       3.018  -3.646   0.696  0.00  0.00     0.044 A 
ATOM     26  C   UNL d   1       4.293  -3.317   0.261  0.00  0.00     0.116 A 
ATOM     27  C   UNL d   1       4.547  -2.081  -0.320  0.00  0.00     0.044 A 
ATOM     28  F   UNL d   1       5.288  -4.202   0.399  0.00  0.00    -0.206 F 
ATOM     29  C   UNL d   1       3.518  -1.140  -0.450  0.00  0.00     0.034 A 
ENDBRANCH   3  23
TORSDOF 4
