REMARK  5 active torsions:
REMARK  status: ('A' for Active; 'I' for Inactive)
REMARK    1  A    between atoms: C_7  and  N_1 
REMARK    2  A    between atoms: C_14  and  N_2 
REMARK    3  A    between atoms: S_12  and  C_10 
REMARK    4  A    between atoms: C_18  and  C_14 
REMARK    5  A    between atoms: O_27  and  C_20 
ROOT
ATOM      1  N   UNL d   1       0.890  -1.400  -0.038  0.00  0.00    -0.245 N 
ATOM      2  N   UNL d   1       2.098   0.670  -0.164  0.00  0.00    -0.260 N 
ATOM      3  C   UNL d   1       2.121  -0.742  -0.185  0.00  0.00     0.338 A 
ATOM      4  C   UNL d   1      -0.283  -0.677  -0.039  0.00  0.00     0.150 A 
ATOM      5  C   UNL d   1      -0.249   0.686  -0.086  0.00  0.00     0.147 A 
ATOM      6  C   UNL d   1       0.944   1.451  -0.113  0.00  0.00     0.282 A 
ATOM      7  N   UNL d   1      -1.573  -1.131   0.040  0.00  0.00    -0.336 N 
ATOM      8  HN  UNL d   1      -1.889  -2.099   0.091  1.00  0.00     0.168 HD
ATOM      9  N   UNL d   1      -1.551   1.092  -0.048  0.00  0.00    -0.345 N 
ATOM     10  C   UNL d   1      -2.315  -0.042   0.035  0.00  0.00     0.182 A 
ATOM     11  O   UNL d   1       3.180  -1.359  -0.364  0.00  0.00    -0.246 OA
ATOM     12  O   UNL d   1       0.922   2.679  -0.091  0.00  0.00    -0.265 OA
ATOM     13  H   UNL d   1      -1.878   2.050  -0.050  0.00  0.00     0.167 HD
ENDROOT
BRANCH   1  14
ATOM     14  C   UNL d   1       0.817  -2.811   0.094  0.00  0.00     0.065 A 
ATOM     15  C   UNL d   1       1.531  -3.525   1.084  0.00  0.00     0.058 A 
ATOM     16  C   UNL d   1       1.578  -4.931   0.997  0.00  0.00     0.023 A 
ATOM     17  C   UNL d   1       0.896  -5.620  -0.008  0.00  0.00     0.002 A 
ATOM     18  C   UNL d   1       0.144  -4.918  -0.941  0.00  0.00     0.002 A 
ATOM     19  C   UNL d   1       0.099  -3.526  -0.886  0.00  0.00     0.031 A 
BRANCH  15  20
ATOM     20  S   UNL d   1       2.426  -2.746   2.478  0.00  0.00     0.048 S 
ATOM     21  O   UNL d   1       2.004  -1.308   2.552  0.00  0.00    -0.253 OA
ATOM     22  C   UNL d   1       1.613  -3.580   3.866  0.00  0.00     0.133 C 
ENDBRANCH  15  20
ENDBRANCH   1  14
BRANCH   2  23
ATOM     23  C   UNL d   1       3.381   1.355  -0.149  0.00  0.00     0.175 C 
BRANCH  23  24
ATOM     24  C   UNL d   1       3.852   1.779  -1.524  0.00  0.00    -0.040 A 
ATOM     25  C   UNL d   1       3.460   3.014  -2.060  0.00  0.00     0.011 A 
ATOM     26  C   UNL d   1       3.861   3.399  -3.342  0.00  0.00     0.037 A 
ATOM     27  C   UNL d   1       4.660   2.553  -4.108  0.00  0.00     0.068 A 
ATOM     28  C   UNL d   1       5.096   1.344  -3.566  0.00  0.00     0.037 A 
ATOM     29  C   UNL d   1       4.684   0.950  -2.289  0.00  0.00     0.011 A 
BRANCH  27  30
ATOM     30  O   UNL d   1       5.100   2.837  -5.372  0.00  0.00    -0.356 OA
ATOM     31  C   UNL d   1       4.168   3.558  -6.175  0.00  0.00     0.210 C 
ENDBRANCH  27  30
ENDBRANCH  23  24
ENDBRANCH   2  23
TORSDOF 5
