REMARK  6 active torsions:
REMARK  status: ('A' for Active; 'I' for Inactive)
REMARK    1  A    between atoms: N_2  and  C_1 
REMARK    2  A    between atoms: N_3  and  C_5 
REMARK    3  A    between atoms: O_9  and  C_6 
REMARK    4  A    between atoms: N_7  and  O_9 
REMARK    5  A    between atoms: C_17  and  C_16 
REMARK    6  A    between atoms: C_18  and  C_16 
ROOT
ATOM      1  C   UNL d   1       0.116   0.707   0.881  0.00  0.00     0.141 A 
ATOM      2  C   UNL d   1      -0.513  -0.544   0.986  0.00  0.00     0.075 A 
ATOM      3  C   UNL d   1      -0.124  -1.566   0.110  0.00  0.00     0.105 A 
ATOM      4  C   UNL d   1       1.130   0.942  -0.050  0.00  0.00     0.132 A 
ATOM      5  C   UNL d   1       0.861  -1.337  -0.860  0.00  0.00     0.039 A 
ATOM      6  C   UNL d   1       1.478  -0.085  -0.939  0.00  0.00     0.044 A 
ENDROOT
BRANCH   4   7
ATOM      7  O   UNL d   1       1.762   2.163  -0.097  0.00  0.00    -0.236 OA
BRANCH   7   8
ATOM      8  N   UNL d   1       3.130   1.945  -0.310  0.00  0.00    -0.269 N 
ATOM      9  C   UNL d   1       3.768   3.031  -0.626  0.00  0.00     0.009 C 
ATOM     10  HN  UNL d   1       3.576   1.032  -0.225  1.00  0.00     0.194 HD
BRANCH   9  11
ATOM     11  C   UNL d   1       3.145   4.411  -0.728  0.00  0.00     0.050 C 
ATOM     12  C   UNL d   1       3.144   5.124   0.610  0.00  0.00     0.011 C 
ENDBRANCH   9  11
BRANCH   9  13
ATOM     13  C   UNL d   1       5.257   2.894  -0.894  0.00  0.00     0.050 C 
ATOM     14  C   UNL d   1       6.058   2.867   0.393  0.00  0.00     0.011 C 
ENDBRANCH   9  13
ENDBRANCH   7   8
ENDBRANCH   4   7
BRANCH   1  15
ATOM     15  N   UNL d   1      -0.305   1.766   1.778  0.00  0.00    -0.113 N 
ATOM     16  O   UNL d   1      -0.368   1.487   2.983  0.00  0.00    -0.532 OA
ATOM     17  O   UNL d   1      -0.623   2.850   1.274  0.00  0.00    -0.532 OA
ENDBRANCH   1  15
BRANCH   3  18
ATOM     18  N   UNL d   1      -0.752  -2.890   0.203  0.00  0.00    -0.116 N 
ATOM     19  O   UNL d   1      -1.621  -3.051   1.071  0.00  0.00    -0.532 OA
ATOM     20  O   UNL d   1      -0.379  -3.763  -0.592  0.00  0.00    -0.532 OA
ENDBRANCH   3  18
TORSDOF 6
