REMARK  7 active torsions:
REMARK  status: ('A' for Active; 'I' for Inactive)
REMARK    1  A    between atoms: N_6  and  C_1 
REMARK       I    between atoms: C_3  and  N_5 
REMARK    2  A    between atoms: C_10  and  C_3 
REMARK    3  A    between atoms: N_5  and  C_4 
REMARK    4  A    between atoms: O_15  and  C_7 
REMARK    5  A    between atoms: O_16  and  C_9 
REMARK    6  A    between atoms: C_24  and  O_15 
REMARK    7  A    between atoms: C_25  and  O_16 
ROOT
ATOM      1  C   UNL d   1       1.710  -0.056   0.038  0.00  0.00     0.067 C 
ATOM      2  C   UNL d   1       0.900  -1.168  -0.211  0.00  0.00     0.071 C 
ATOM      3  C   UNL d   1      -1.133   0.175  -0.208  0.00  0.00     0.071 C 
ATOM      4  C   UNL d   1       1.058   1.196   0.073  0.00  0.00     0.097 C 
ATOM      5  C   UNL d   1      -0.347   1.302   0.034  0.00  0.00     0.071 C 
ATOM      6  C   UNL d   1      -0.480  -1.047  -0.430  0.00  0.00     0.097 C 
ENDROOT
BRANCH   3   7
ATOM      7  N   UNL d   1      -2.551   0.181  -0.280  0.00  0.00    -0.320 N 
ATOM      8  C   UNL d   1      -3.406   1.223   0.032  0.00  0.00     0.256 C 
ATOM      9  O   UNL d   1      -3.051   2.335   0.412  0.00  0.00    -0.267 OA
ATOM     10  H   UNL d   1      -2.935  -0.717  -0.546  0.00  0.00     0.169 HD
BRANCH   8  11
ATOM     11  C   UNL d   1      -4.883   0.971  -0.115  0.00  0.00     0.032 A 
ATOM     12  C   UNL d   1      -5.456  -0.299  -0.258  0.00  0.00     0.017 A 
ATOM     13  C   UNL d   1      -6.843  -0.438  -0.420  0.00  0.00     0.007 A 
ATOM     14  C   UNL d   1      -7.683   0.683  -0.425  0.00  0.00    -0.062 A 
ATOM     15  C   UNL d   1      -7.116   1.949  -0.261  0.00  0.00     0.007 A 
ATOM     16  C   UNL d   1      -9.158   0.528  -0.650  0.00  0.00     0.048 C 
ATOM     17  C   UNL d   1      -5.734   2.089  -0.101  0.00  0.00     0.017 A 
ENDBRANCH   8  11
ENDBRANCH   3   7
BRANCH   6  18
ATOM     18  O   UNL d   1      -1.242  -2.108  -0.875  0.00  0.00    -0.349 OA
BRANCH  18  19
ATOM     19  C   UNL d   1      -0.544  -2.950  -1.807  0.00  0.00     0.171 C 
ATOM     20  C   UNL d   1      -1.501  -3.404  -2.893  0.00  0.00     0.034 C 
ENDBRANCH  18  19
ENDBRANCH   6  18
BRANCH   4  21
ATOM     21  O   UNL d   1       1.722   2.409   0.107  0.00  0.00    -0.349 OA
BRANCH  21  22
ATOM     22  C   UNL d   1       2.790   2.496  -0.849  0.00  0.00     0.171 C 
ATOM     23  C   UNL d   1       2.784   3.866  -1.500  0.00  0.00     0.034 C 
ENDBRANCH  21  22
ENDBRANCH   4  21
BRANCH   1  24
ATOM     24  N   UNL d   1       3.089  -0.185   0.182  0.00  0.00    -0.374 N 
ATOM     25  C   UNL d   1       3.847  -1.244  -0.501  0.00  0.00     0.149 C 
ATOM     26  C   UNL d   1       4.214  -2.379   0.462  0.00  0.00     0.187 C 
ATOM     27  O   UNL d   1       4.906  -1.881   1.618  0.00  0.00    -0.388 OA
ATOM     28  C   UNL d   1       4.076  -0.947   2.330  0.00  0.00     0.187 C 
ATOM     29  C   UNL d   1       3.691   0.260   1.457  0.00  0.00     0.149 C 
ENDBRANCH   1  24
TORSDOF 7
