REMARK  4 active torsions:
REMARK  status: ('A' for Active; 'I' for Inactive)
REMARK    1  A    between atoms: C_6  and  C_1 
REMARK    2  A    between atoms: C_8  and  C_6 
REMARK       I    between atoms: C_7  and  N_9 
REMARK       I    between atoms: N_10  and  C_7 
REMARK       I    between atoms: N_11  and  C_8 
REMARK    3  A    between atoms: N_9  and  N_11 
REMARK    4  A    between atoms: C_17  and  N_10 
ROOT
ATOM      1  C   UNL d   1       4.249   1.617   0.082  0.00  0.00     0.240 C 
ATOM      2  N   UNL d   1       3.360   2.536   0.578  0.00  0.00    -0.266 N 
ATOM      3  O   UNL d   1       5.422   1.931  -0.152  0.00  0.00    -0.271 OA
ATOM      4  H   UNL d   1       2.382   2.349   0.805  0.00  0.00     0.190 HD
ENDROOT
BRANCH   1   5
ATOM      5  C   UNL d   1       3.803   0.177  -0.029  0.00  0.00     0.151 C 
BRANCH   5   6
ATOM      6  C   UNL d   1       2.377  -0.081  -0.433  0.00  0.00    -0.001 C 
ATOM      7  S   UNL d   1       1.360  -0.886   0.685  0.00  0.00    -0.093 SA
ATOM      8  C   UNL d   1       0.201  -1.282  -0.519  0.00  0.00     0.016 A 
ATOM      9  C   UNL d   1      -0.913  -2.133  -0.370  0.00  0.00     0.021 A 
ATOM     10  C   UNL d   1       0.496  -0.652  -1.729  0.00  0.00    -0.011 A 
ATOM     11  C   UNL d   1      -1.735  -2.371  -1.472  0.00  0.00     0.025 A 
ATOM     12  C   UNL d   1      -1.478  -1.740  -2.680  0.00  0.00     0.035 A 
ATOM     13  C   UNL d   1      -0.388  -0.875  -2.817  0.00  0.00     0.037 A 
ATOM     14 CL   UNL d   1      -2.493  -2.053  -4.035  0.00  0.00    -0.084 Cl
ATOM     15  C   UNL d   1       1.748   0.094  -1.658  0.00  0.00    -0.037 C 
ATOM     16  C   UNL d   1       2.313   0.829  -2.834  0.00  0.00     0.050 C 
ENDBRANCH   5   6
ENDBRANCH   1   5
BRANCH   2  17
ATOM     17  N   UNL d   1       3.835   3.844   0.816  0.00  0.00    -0.249 N 
ATOM     18  C   UNL d   1       2.986   4.726   1.460  0.00  0.00     0.339 C 
ATOM     19  N   UNL d   1       3.578   5.963   1.649  0.00  0.00    -0.308 N 
ATOM     20  O   UNL d   1       1.838   4.404   1.736  0.00  0.00    -0.245 OA
ATOM     21  H   UNL d   1       4.486   6.087   1.231  0.00  0.00     0.170 HD
ATOM     22  H   UNL d   1       4.843   3.916   0.931  0.00  0.00     0.192 HD
BRANCH  19  23
ATOM     23  C   UNL d   1       2.942   7.129   2.131  0.00  0.00     0.036 A 
ATOM     24  C   UNL d   1       1.675   7.132   2.718  0.00  0.00     0.029 A 
ATOM     25  C   UNL d   1       1.060   8.333   3.078  0.00  0.00     0.002 A 
ATOM     26  C   UNL d   1       1.713   9.544   2.868  0.00  0.00     0.000 A 
ATOM     27  C   UNL d   1       2.995   9.552   2.327  0.00  0.00     0.002 A 
ATOM     28  C   UNL d   1       3.614   8.349   1.970  0.00  0.00     0.029 A 
ENDBRANCH  19  23
ENDBRANCH   2  17
TORSDOF 4
