REMARK  10 active torsions:
REMARK  status: ('A' for Active; 'I' for Inactive)
REMARK    1  A    between atoms: N_2  and  C_1 
REMARK    2  A    between atoms: N_3  and  C_1 
REMARK    3  A    between atoms: C_4  and  N_2 
REMARK    4  A    between atoms: C_10  and  N_3 
REMARK    5  A    between atoms: C_13  and  N_3 
REMARK    6  A    between atoms: O_16  and  C_5 
REMARK    7  A    between atoms: O_17  and  C_6 
REMARK    8  A    between atoms: O_18  and  C_7 
REMARK    9  A    between atoms: C_8  and  C_10 
REMARK   10  A    between atoms: C_19  and  C_13 
ROOT
ATOM      1  N   UNL d   1       0.267   0.772  -0.856  0.00  0.00    -0.350 N 
ENDROOT
BRANCH   1   2
ATOM      2  C   UNL d   1       0.762  -0.231  -0.025  0.00  0.00     0.175 C 
ATOM      3  S   UNL d   1       1.868  -1.413  -0.486  0.00  0.00    -0.041 SA
BRANCH   2   4
ATOM      4  N   UNL d   1       0.266  -0.323   1.247  0.00  0.00    -0.332 N 
ATOM      5  H   UNL d   1       0.392  -1.228   1.681  0.00  0.00     0.168 HD
BRANCH   4   6
ATOM      6  C   UNL d   1      -0.169   0.713   2.107  0.00  0.00     0.046 A 
ATOM      7  C   UNL d   1      -1.264   0.436   2.955  0.00  0.00    -0.035 A 
ATOM      8  C   UNL d   1      -1.774   1.460   3.774  0.00  0.00     0.009 A 
ATOM      9  C   UNL d   1      -2.009  -0.874   2.966  0.00  0.00     0.050 C 
ATOM     10  C   UNL d   1      -1.199   2.724   3.777  0.00  0.00     0.001 A 
ATOM     11  C   UNL d   1      -0.081   2.974   2.991  0.00  0.00     0.009 A 
ATOM     12  C   UNL d   1       0.468   1.970   2.174  0.00  0.00    -0.035 A 
ATOM     13  C   UNL d   1       1.777   2.306   1.508  0.00  0.00     0.050 C 
ENDBRANCH   4   6
ENDBRANCH   2   4
ENDBRANCH   1   2
BRANCH   1  14
ATOM     14  C   UNL d   1       1.120   1.302  -1.938  0.00  0.00     0.164 C 
BRANCH  14  15
ATOM     15  C   UNL d   1       0.639   2.488  -2.743  0.00  0.00    -0.035 A 
ATOM     16  C   UNL d   1       0.450   3.756  -2.186  0.00  0.00     0.048 A 
ATOM     17  C   UNL d   1      -0.033   4.813  -2.974  0.00  0.00     0.104 A 
ATOM     18  C   UNL d   1      -0.341   4.608  -4.340  0.00  0.00     0.135 A 
ATOM     19  C   UNL d   1      -0.152   3.337  -4.903  0.00  0.00     0.104 A 
ATOM     20  C   UNL d   1       0.353   2.307  -4.100  0.00  0.00     0.048 A 
BRANCH  17  21
ATOM     21  O   UNL d   1      -0.312   6.048  -2.431  0.00  0.00    -0.353 OA
ATOM     22  C   UNL d   1       0.591   6.482  -1.418  0.00  0.00     0.210 C 
ENDBRANCH  17  21
BRANCH  18  23
ATOM     23  O   UNL d   1      -0.932   5.589  -5.096  0.00  0.00    -0.351 OA
ATOM     24  C   UNL d   1      -0.210   6.815  -5.184  0.00  0.00     0.210 C 
ENDBRANCH  18  23
BRANCH  19  25
ATOM     25  O   UNL d   1      -0.397   2.899  -6.176  0.00  0.00    -0.353 OA
ATOM     26  C   UNL d   1      -0.998   3.774  -7.111  0.00  0.00     0.210 C 
ENDBRANCH  19  25
ENDBRANCH  14  15
ENDBRANCH   1  14
BRANCH   1  27
ATOM     27  C   UNL d   1      -1.181   1.072  -0.826  0.00  0.00     0.164 C 
BRANCH  27  28
ATOM     28  C   UNL d   1      -1.933   0.849  -2.120  0.00  0.00    -0.040 A 
ATOM     29  C   UNL d   1      -1.850  -0.361  -2.823  0.00  0.00     0.009 A 
ATOM     30  C   UNL d   1      -2.519  -0.518  -4.040  0.00  0.00     0.001 A 
ATOM     31  C   UNL d   1      -3.288   0.524  -4.558  0.00  0.00     0.000 A 
ATOM     32  C   UNL d   1      -3.410   1.716  -3.849  0.00  0.00     0.001 A 
ATOM     33  C   UNL d   1      -2.749   1.872  -2.631  0.00  0.00     0.009 A 
ENDBRANCH  27  28
ENDBRANCH   1  27
TORSDOF 10
