REMARK  3 active torsions:
REMARK  status: ('A' for Active; 'I' for Inactive)
REMARK    1  A    between atoms: C_8  and  C_1 
REMARK    2  A    between atoms: N_10  and  C_2 
REMARK    3  A    between atoms: C_7  and  C_9 
ROOT
ATOM      1  C   UNL d   1      -0.386  -2.731   0.043  0.00  0.00    -0.006 A 
ATOM      2  C   UNL d   1      -0.942  -5.505   0.006  0.00  0.00     0.048 A 
ATOM      3  C   UNL d   1       0.013  -3.554   1.105  0.00  0.00     0.014 A 
ATOM      4  C   UNL d   1      -1.092  -3.306  -1.023  0.00  0.00     0.014 A 
ATOM      5  C   UNL d   1      -1.365  -4.678  -1.044  0.00  0.00     0.017 A 
ATOM      6  C   UNL d   1      -0.254  -4.928   1.083  0.00  0.00     0.017 A 
ENDROOT
BRANCH   1   7
ATOM      7  C   UNL d   1      -0.116  -1.296   0.033  0.00  0.00     0.089 A 
ATOM      8  C   UNL d   1       1.051  -0.690   0.500  0.00  0.00     0.110 A 
ATOM      9  S   UNL d   1       0.834   1.009   0.273  0.00  0.00     0.019 SA
ATOM     10  N   UNL d   1      -0.664   0.837  -0.438  0.00  0.00    -0.059 NA
ATOM     11  N   UNL d   1      -1.056  -0.421  -0.511  0.00  0.00    -0.289 N 
ATOM     12  HN  UNL d   1      -1.943  -0.719  -0.917  1.00  0.00     0.183 HD
BRANCH   8  13
ATOM     13  N   UNL d   1       2.190  -1.213   1.024  0.00  0.00    -0.391 N 
ATOM     14  H   UNL d   1       2.432  -2.179   0.814  0.00  0.00     0.157 HD
ATOM     15  H   UNL d   1       3.007  -0.612   1.095  0.00  0.00     0.157 HD
ENDBRANCH   8  13
ENDBRANCH   1   7
BRANCH   2  16
ATOM     16  C   UNL d   1      -1.211  -6.991  -0.009  0.00  0.00     0.417 C 
ATOM     17  F   UNL d   1      -1.955  -7.401  -1.073  0.00  0.00    -0.166 F 
ATOM     18  F   UNL d   1      -0.062  -7.722  -0.053  0.00  0.00    -0.166 F 
ATOM     19  F   UNL d   1      -1.879  -7.412   1.100  0.00  0.00    -0.166 F 
ENDBRANCH   2  16
TORSDOF 3
