REMARK  8 active torsions:
REMARK  status: ('A' for Active; 'I' for Inactive)
REMARK    1  A    between atoms: N_2  and  C_1 
REMARK    2  A    between atoms: N_3  and  C_1 
REMARK    3  A    between atoms: C_5  and  N_2 
REMARK    4  A    between atoms: C_6  and  N_3 
REMARK    5  A    between atoms: C_13  and  C_5 
REMARK    6  A    between atoms: C_14  and  C_5 
REMARK    7  A    between atoms: O_16  and  C_13 
REMARK    8  A    between atoms: O_15  and  C_14 
ROOT
ATOM      1  C   UNL d   1       1.000   0.107  -0.238  0.00  0.00     0.172 C 
ATOM      2  S   UNL d   1       2.412  -0.063  -1.115  0.00  0.00    -0.041 SA
ENDROOT
BRANCH   1   3
ATOM      3  N   UNL d   1       0.546  -0.770   0.731  0.00  0.00    -0.354 N 
ATOM      4  H   UNL d   1      -0.463  -0.749   0.852  0.00  0.00     0.162 HD
BRANCH   3   5
ATOM      5  C   UNL d   1       1.158  -2.000   1.329  0.00  0.00     0.071 C 
ATOM      6  C   UNL d   1       1.274  -3.137   0.300  0.00  0.00     0.043 C 
BRANCH   5   7
ATOM      7  C   UNL d   1       2.540  -1.704   1.964  0.00  0.00     0.197 C 
BRANCH   7   8
ATOM      8  O   UNL d   1       2.478  -0.557   2.812  0.00  0.00    -0.398 OA
ATOM      9  H   UNL d   1       2.214   0.183   2.232  0.00  0.00     0.209 HD
ENDBRANCH   7   8
ENDBRANCH   5   7
BRANCH   5  10
ATOM     10  C   UNL d   1       0.203  -2.454   2.474  0.00  0.00     0.197 C 
BRANCH  10  11
ATOM     11  O   UNL d   1      -1.104  -2.744   1.967  0.00  0.00    -0.398 OA
ATOM     12  H   UNL d   1      -1.084  -3.650   1.605  0.00  0.00     0.209 HD
ENDBRANCH  10  11
ENDBRANCH   5  10
ENDBRANCH   3   5
ENDBRANCH   1   3
BRANCH   1  13
ATOM     13  N   UNL d   1       0.161   1.219  -0.266  0.00  0.00    -0.333 N 
ATOM     14  H   UNL d   1      -0.171   1.492   0.652  0.00  0.00     0.168 HD
BRANCH  13  15
ATOM     15  C   UNL d   1       0.070   2.208  -1.267  0.00  0.00     0.034 A 
ATOM     16  C   UNL d   1       0.145   1.887  -2.627  0.00  0.00     0.032 A 
ATOM     17  C   UNL d   1       0.021   2.884  -3.595  0.00  0.00     0.044 A 
ATOM     18  C   UNL d   1      -0.180   4.200  -3.200  0.00  0.00     0.116 A 
ATOM     19  C   UNL d   1      -0.275   4.534  -1.853  0.00  0.00     0.044 A 
ATOM     20  F   UNL d   1      -0.294   5.157  -4.128  0.00  0.00    -0.206 F 
ATOM     21  C   UNL d   1      -0.169   3.533  -0.884  0.00  0.00     0.032 A 
ENDBRANCH  13  15
ENDBRANCH   1  13
TORSDOF 8
