REMARK  5 active torsions:
REMARK  status: ('A' for Active; 'I' for Inactive)
REMARK    1  A    between atoms: C_2  and  N_1 
REMARK    2  A    between atoms: N_4  and  C_2 
REMARK    3  A    between atoms: C_9  and  C_2 
REMARK       I    between atoms: C_10  and  N_4 
REMARK    4  A    between atoms: C_16  and  C_9 
REMARK    5  A    between atoms: C_15  and  C_10 
ROOT
ATOM      1  C   UNL d   1      -2.707  -0.210  -0.084  0.00  0.00     0.271 C 
ENDROOT
BRANCH   1   2
ATOM      2  N   UNL d   1      -1.260  -0.056   0.085  0.00  0.00    -0.281 N 
ATOM      3  C   UNL d   1      -0.756   0.452   1.258  0.00  0.00     0.252 C 
ATOM      4  C   UNL d   1       0.704   0.596   1.317  0.00  0.00     0.099 C 
ATOM      5  O   UNL d   1      -1.418   0.676   2.273  0.00  0.00    -0.268 OA
ATOM      6  C   UNL d   1       1.439   0.011   0.361  0.00  0.00     0.011 C 
ATOM      7  N   UNL d   1       0.891  -0.632  -0.718  0.00  0.00    -0.356 N 
ATOM      8  C   UNL d   1       2.936  -0.027   0.473  0.00  0.00     0.068 C 
ATOM      9  C   UNL d   1      -0.398  -0.627  -0.816  0.00  0.00     0.189 C 
ATOM     10  HN  UNL d   1       1.476  -1.094  -1.415  1.00  0.00     0.166 HD
ENDBRANCH   1   2
BRANCH   1  11
ATOM     11  N   UNL d   1      -3.266  -0.979   1.009  0.00  0.00    -0.328 N 
ATOM     12  C   UNL d   1      -4.014  -2.108   0.801  0.00  0.00     0.253 C 
ATOM     13  O   UNL d   1      -4.302  -2.510  -0.323  0.00  0.00    -0.268 OA
ATOM     14  H   UNL d   1      -3.093  -0.607   1.939  0.00  0.00     0.165 HD
BRANCH  12  15
ATOM     15  C   UNL d   1      -4.493  -2.846   1.999  0.00  0.00     0.032 A 
ATOM     16  C   UNL d   1      -5.676  -3.589   1.880  0.00  0.00     0.017 A 
ATOM     17  C   UNL d   1      -6.158  -4.328   2.961  0.00  0.00     0.001 A 
ATOM     18  C   UNL d   1      -5.453  -4.339   4.163  0.00  0.00     0.000 A 
ATOM     19  C   UNL d   1      -4.267  -3.614   4.285  0.00  0.00     0.001 A 
ATOM     20  C   UNL d   1      -3.783  -2.866   3.206  0.00  0.00     0.017 A 
ENDBRANCH  12  15
ENDBRANCH   1  11
BRANCH   1  21
ATOM     21  C   UNL d   1      -3.399   1.177  -0.221  0.00  0.00     0.202 C 
ATOM     22  O   UNL d   1      -2.976   2.181   0.358  0.00  0.00    -0.288 OA
BRANCH  21  23
ATOM     23  C   UNL d   1      -4.653   1.334  -1.037  0.00  0.00     0.014 A 
ATOM     24  C   UNL d   1      -5.220   0.314  -1.808  0.00  0.00     0.015 A 
ATOM     25  C   UNL d   1      -6.374   0.555  -2.564  0.00  0.00     0.001 A 
ATOM     26  C   UNL d   1      -6.976   1.811  -2.557  0.00  0.00     0.000 A 
ATOM     27  C   UNL d   1      -6.431   2.833  -1.789  0.00  0.00     0.001 A 
ATOM     28  C   UNL d   1      -5.279   2.595  -1.033  0.00  0.00     0.015 A 
ENDBRANCH  21  23
ENDBRANCH   1  21
TORSDOF 5
