REMARK  1 active torsions:
REMARK  status: ('A' for Active; 'I' for Inactive)
REMARK    1  A    between atoms: C_2  and  C_1 
REMARK       I    between atoms: N_7  and  C_2 
ROOT
ATOM      1  C   UNL d   1      -0.922  -1.555   0.141  0.00  0.00     0.044 A 
ATOM      2  C   UNL d   1      -0.723  -0.131   0.126  0.00  0.00     0.007 A 
ATOM      3  C   UNL d   1       0.494   0.618   0.271  0.00  0.00     0.023 A 
ATOM      4  C   UNL d   1      -1.908   0.648  -0.031  0.00  0.00    -0.024 A 
ATOM      5 BR   UNL d   1       2.179  -0.139   0.747  0.00  0.00    -0.050 Br
ATOM      6  C   UNL d   1      -2.206  -2.131   0.095  0.00  0.00     0.018 A 
ATOM      7  C   UNL d   1      -3.331  -1.332  -0.012  0.00  0.00     0.002 A 
ATOM      8  C   UNL d   1      -0.647   2.731  -0.043  0.00  0.00     0.002 A 
ATOM      9  C   UNL d   1       0.521   2.019   0.163  0.00  0.00     0.020 A 
ATOM     10  C   UNL d   1      -1.853   2.048  -0.120  0.00  0.00     0.012 A 
ATOM     11  C   UNL d   1      -3.176   0.046  -0.091  0.00  0.00     0.012 A 
ENDROOT
BRANCH   1  12
ATOM     12  C   UNL d   1       0.157  -2.569   0.136  0.00  0.00     0.250 C 
ATOM     13  O   UNL d   1       0.215  -3.443   0.989  0.00  0.00    -0.268 OA
ATOM     14  N   UNL d   1       1.007  -2.545  -0.933  0.00  0.00    -0.366 N 
ATOM     15  H   UNL d   1       1.065  -1.751  -1.555  0.00  0.00     0.159 HD
ATOM     16  H   UNL d   1       1.790  -3.185  -0.902  0.00  0.00     0.159 HD
ENDBRANCH   1  12
TORSDOF 1
