REMARK  4 active torsions:
REMARK  status: ('A' for Active; 'I' for Inactive)
REMARK    1  A    between atoms: S_14  and  C_3 
REMARK    2  A    between atoms: C_18  and  S_14 
REMARK    3  A    between atoms: C_15  and  C_18 
REMARK       I    between atoms: N_17  and  C_15 
REMARK    4  A    between atoms: N_19  and  N_17 
ROOT
ATOM      1  N   UNL d   1       0.941   0.653  -0.016  0.00  0.00    -0.120 N 
ATOM      2  C   UNL d   1       1.707  -0.500  -0.055  0.00  0.00     0.720 A 
ATOM      3  C   UNL d   1       1.857   1.680  -0.035  0.00  0.00     0.183 A 
ATOM      4  N   UNL d   1       2.982  -0.168  -0.143  0.00  0.00    -0.128 N 
ATOM      5  HN  UNL d   1       3.765  -0.819  -0.203  1.00  0.00     0.205 HD
ATOM      6  N   UNL d   1       1.135  -1.731  -0.022  0.00  0.00    -0.130 N 
ATOM      7  HN  UNL d   1       1.737  -2.554  -0.031  1.00  0.00     0.205 HD
ATOM      8  N   UNL d   1       3.075   1.198  -0.139  0.00  0.00    -0.265 N 
ATOM      9  HN  UNL d   1       3.935   1.743  -0.206  1.00  0.00     0.189 HD
ATOM     10  N   UNL d   1      -0.110  -1.891   0.019  0.00  0.00    -0.284 N 
ATOM     11  HN  UNL d   1      -0.510  -2.829   0.054  1.00  0.00     0.187 HD
ATOM     12  C   UNL d   1      -0.461   0.561   0.006  0.00  0.00     0.087 A 
ATOM     13  C   UNL d   1      -0.949  -0.755   0.018  0.00  0.00     0.076 A 
ATOM     14  C   UNL d   1      -1.337   1.647  -0.008  0.00  0.00     0.033 A 
ATOM     15  C   UNL d   1      -2.333  -0.962   0.021  0.00  0.00     0.033 A 
ATOM     16  C   UNL d   1      -2.715   1.418  -0.004  0.00  0.00     0.002 A 
ATOM     17  C   UNL d   1      -3.214   0.119   0.011  0.00  0.00     0.002 A 
ENDROOT
BRANCH   3  18
ATOM     18  S   UNL d   1       1.533   3.378   0.038  0.00  0.00    -0.082 SA
BRANCH  18  19
ATOM     19  C   UNL d   1       2.332   3.909  -1.507  0.00  0.00     0.186 C 
BRANCH  19  20
ATOM     20  C   UNL d   1       1.709   3.199  -2.698  0.00  0.00     0.241 C 
ATOM     21  O   UNL d   1       0.496   3.160  -2.904  0.00  0.00    -0.271 OA
ATOM     22  N   UNL d   1       2.628   2.569  -3.529  0.00  0.00    -0.293 N 
ATOM     23  H   UNL d   1       3.631   2.644  -3.367  0.00  0.00     0.183 HD
BRANCH  22  24
ATOM     24  N   UNL d   1       2.173   1.890  -4.679  0.00  0.00    -0.247 NA
ATOM     25  H   UNL d   1       1.173   2.110  -4.786  0.00  0.00     0.143 HD
ATOM     26  H   UNL d   1       2.188   0.885  -4.482  0.00  0.00     0.143 HD
ENDBRANCH  22  24
ENDBRANCH  19  20
ENDBRANCH  18  19
ENDBRANCH   3  18
TORSDOF 4
