REMARK  2 active torsions:
REMARK  status: ('A' for Active; 'I' for Inactive)
REMARK    1  A    between atoms: C_6  and  C_2 
REMARK    2  A    between atoms: N_8  and  C_7 
ROOT
ATOM      1  N   UNL d   1       2.091  -1.376   0.421  0.00  0.00    -0.260 NA
ATOM      2  C   UNL d   1       2.325   0.045   0.093  0.00  0.00     0.239 A 
ATOM      3  O   UNL d   1       2.881   0.777   1.220  0.00  0.00    -0.324 OA
ATOM      4  C   UNL d   1       2.633  -1.430   1.720  0.00  0.00     0.044 A 
ATOM      5  C   UNL d   1       3.055  -0.191   2.167  0.00  0.00     0.092 A 
ATOM      6  C   UNL d   1       2.772  -2.550   2.517  0.00  0.00     0.026 A 
ATOM      7  C   UNL d   1       3.629  -0.007   3.408  0.00  0.00     0.039 A 
ATOM      8  C   UNL d   1       3.777  -1.127   4.223  0.00  0.00     0.003 A 
ATOM      9  C   UNL d   1       3.349  -2.392   3.780  0.00  0.00     0.002 A 
ATOM     10  H   UNL d   1       2.611  -1.997  -0.192  0.00  0.00     0.130 HD
ENDROOT
BRANCH   2  11
ATOM     11  C   UNL d   1       3.228   0.156  -1.126  0.00  0.00    -0.015 A 
ATOM     12  C   UNL d   1       2.686   0.169  -2.414  0.00  0.00     0.013 A 
ATOM     13  C   UNL d   1       3.516   0.263  -3.544  0.00  0.00     0.030 A 
ATOM     14  C   UNL d   1       4.914   0.344  -3.444  0.00  0.00     0.029 A 
ATOM     15  C   UNL d   1       5.436   0.308  -2.141  0.00  0.00     0.030 A 
ATOM     16  C   UNL d   1       4.620   0.205  -1.006  0.00  0.00     0.013 A 
BRANCH  14  17
ATOM     17  N   UNL d   1       5.740   0.509  -4.547  0.00  0.00    -0.390 N 
ATOM     18  C   UNL d   1       7.084  -0.064  -4.576  0.00  0.00     0.149 C 
ATOM     19  C   UNL d   1       5.215   0.904  -5.850  0.00  0.00     0.149 C 
ENDBRANCH  14  17
ENDBRANCH   2  11
TORSDOF 2
