REMARK  5 active torsions:
REMARK  status: ('A' for Active; 'I' for Inactive)
REMARK    1  A    between atoms: C_5  and  C_1 
REMARK    2  A    between atoms: S_10  and  C_4 
REMARK    3  A    between atoms: C_6  and  C_15 
REMARK       I    between atoms: N_9  and  C_6 
REMARK    4  A    between atoms: C_16  and  N_9 
REMARK    5  A    between atoms: C_15  and  S_10 
ROOT
ATOM      1  S   UNL d   1      -0.944   3.595  -3.353  0.00  0.00    -0.085 SA
ENDROOT
BRANCH   1   2
ATOM      2  C   UNL d   1      -2.501   4.413  -3.563  0.00  0.00     0.144 A 
ATOM      3  N   UNL d   1      -2.768   5.403  -2.702  0.00  0.00    -0.333 N 
ATOM      4  C   UNL d   1      -3.889   6.133  -2.929  0.00  0.00     0.119 A 
ATOM      5  HN  UNL d   1      -2.156   5.599  -1.910  1.00  0.00     0.168 HD
ATOM      6  C   UNL d   1      -4.723   5.873  -4.004  0.00  0.00     0.051 A 
ATOM      7  C   UNL d   1      -4.360   4.825  -4.817  0.00  0.00     0.092 A 
ATOM      8  N   UNL d   1      -3.258   4.083  -4.617  0.00  0.00    -0.347 N 
ATOM      9  HN  UNL d   1      -3.011   3.310  -5.235  1.00  0.00     0.167 HD
BRANCH   4  10
ATOM     10  C   UNL d   1      -4.222   7.286  -1.998  0.00  0.00     0.432 C 
ATOM     11  F   UNL d   1      -3.393   7.394  -0.923  0.00  0.00    -0.165 F 
ATOM     12  F   UNL d   1      -5.484   7.191  -1.487  0.00  0.00    -0.165 F 
ATOM     13  F   UNL d   1      -4.175   8.494  -2.631  0.00  0.00    -0.165 F 
ENDBRANCH   4  10
ENDBRANCH   1   2
BRANCH   1  14
ATOM     14  C   UNL d   1      -0.307   3.824  -5.037  0.00  0.00     0.185 C 
BRANCH  14  15
ATOM     15  C   UNL d   1      -0.312   5.273  -5.509  0.00  0.00     0.231 C 
ATOM     16  N   UNL d   1       0.057   6.209  -4.557  0.00  0.00    -0.327 N 
ATOM     17  H   UNL d   1       0.340   5.847  -3.650  0.00  0.00     0.169 HD
ATOM     18  O   UNL d   1      -0.559   5.522  -6.691  0.00  0.00    -0.272 OA
BRANCH  16  19
ATOM     19  C   UNL d   1       0.035   7.615  -4.693  0.00  0.00     0.034 A 
ATOM     20  C   UNL d   1      -0.508   8.273  -5.801  0.00  0.00     0.031 A 
ATOM     21  C   UNL d   1      -0.530   9.670  -5.866  0.00  0.00     0.021 A 
ATOM     22  C   UNL d   1      -0.001  10.419  -4.821  0.00  0.00     0.011 A 
ATOM     23  C   UNL d   1       0.547   9.783  -3.711  0.00  0.00     0.021 A 
ATOM     24 BR   UNL d   1      -0.034  12.306  -4.910  0.00  0.00    -0.051 Br
ATOM     25  C   UNL d   1       0.556   8.384  -3.646  0.00  0.00     0.031 A 
ENDBRANCH  16  19
ENDBRANCH  14  15
ENDBRANCH   1  14
TORSDOF 5
