REMARK  2 active torsions:
REMARK  status: ('A' for Active; 'I' for Inactive)
REMARK    1  A    between atoms: C_7  and  C_2 
REMARK    2  A    between atoms: N_8  and  C_3 
ROOT
ATOM      1  C   UNL d   1       0.178   1.021  -0.007  0.00  0.00     0.048 A 
ATOM      2  C   UNL d   1      -1.116   1.709  -0.103  0.00  0.00    -0.003 A 
ATOM      3  C   UNL d   1       1.539   1.428   0.086  0.00  0.00     0.097 A 
ATOM      4  C   UNL d   1      -0.011  -0.357  -0.052  0.00  0.00     0.089 A 
ATOM      5  C   UNL d   1      -2.156   0.791  -0.138  0.00  0.00     0.065 A 
ATOM      6  S   UNL d   1      -1.642  -0.828  -0.077  0.00  0.00    -0.082 SA
ATOM      7  N   UNL d   1       2.504   0.476   0.013  0.00  0.00    -0.342 N 
ATOM      8  HN  UNL d   1       3.489   0.743   0.022  1.00  0.00     0.167 HD
ATOM      9  N   UNL d   1       0.931  -1.313  -0.077  0.00  0.00    -0.346 N 
ATOM     10  HN  UNL d   1       0.725  -2.312  -0.099  1.00  0.00     0.167 HD
ATOM     11  C   UNL d   1       2.159  -0.812  -0.071  0.00  0.00     0.182 A 
ENDROOT
BRANCH   2  12
ATOM     12  C   UNL d   1      -1.436   3.140  -0.277  0.00  0.00    -0.024 A 
ATOM     13  C   UNL d   1      -0.597   3.986  -1.011  0.00  0.00     0.024 A 
ATOM     14  C   UNL d   1      -0.940   5.322  -1.290  0.00  0.00    -0.025 A 
ATOM     15  C   UNL d   1      -0.071   6.169  -1.992  0.00  0.00     0.012 A 
ATOM     16  C   UNL d   1      -2.196   5.816  -0.873  0.00  0.00    -0.026 A 
ATOM     17  C   UNL d   1      -0.447   7.472  -2.317  0.00  0.00     0.001 A 
ATOM     18  C   UNL d   1      -1.705   7.943  -1.950  0.00  0.00     0.001 A 
ATOM     19  C   UNL d   1      -2.571   7.121  -1.226  0.00  0.00     0.012 A 
ATOM     20  C   UNL d   1      -3.037   4.982  -0.127  0.00  0.00     0.013 A 
ATOM     21  C   UNL d   1      -2.652   3.673   0.185  0.00  0.00     0.013 A 
ENDBRANCH   2  12
BRANCH   3  22
ATOM     22  N   UNL d   1       1.939   2.766   0.240  0.00  0.00    -0.265 NA
ATOM     23  C   UNL d   1       3.307   3.037  -0.258  0.00  0.00     0.123 C 
ATOM     24  C   UNL d   1       3.604   4.537  -0.106  0.00  0.00     0.182 C 
ATOM     25  O   UNL d   1       3.490   4.952   1.266  0.00  0.00    -0.389 OA
ATOM     26  C   UNL d   1       2.163   4.690   1.759  0.00  0.00     0.182 C 
ATOM     27  C   UNL d   1       1.800   3.199   1.647  0.00  0.00     0.123 C 
ENDBRANCH   3  22
TORSDOF 2
