REMARK  2 active torsions:
REMARK  status: ('A' for Active; 'I' for Inactive)
REMARK    1  A    between atoms: C_7  and  C_1 
REMARK    2  A    between atoms: O_11  and  C_5 
ROOT
ATOM      1  C   UNL d   1      -0.308  -1.063   0.005  0.00  0.00     0.136 A 
ATOM      2  N   UNL d   1       0.977  -0.654   0.008  0.00  0.00    -0.293 N 
ATOM      3  HN  UNL d   1       1.818  -1.231   0.011  1.00  0.00     0.187 HD
ATOM      4  C   UNL d   1      -1.194   0.052   0.002  0.00  0.00     0.093 A 
ATOM      5  C   UNL d   1      -0.387   1.164   0.002  0.00  0.00     0.158 A 
ATOM      6  N   UNL d   1       0.898   0.692   0.005  0.00  0.00    -0.275 N 
ATOM      7  C   UNL d   1       2.101   1.488   0.005  0.00  0.00     0.180 C 
ENDROOT
BRANCH   1   8
ATOM      8  C   UNL d   1      -0.715  -2.512   0.004  0.00  0.00     0.434 C 
ATOM      9  F   UNL d   1       0.330  -3.381   0.028  0.00  0.00    -0.165 F 
ATOM     10  F   UNL d   1      -1.495  -2.811   1.079  0.00  0.00    -0.165 F 
ATOM     11  F   UNL d   1      -1.454  -2.820  -1.097  0.00  0.00    -0.165 F 
ENDBRANCH   1   8
BRANCH   5  12
ATOM     12  O   UNL d   1      -0.656   2.464   0.000  0.00  0.00    -0.345 OA
ATOM     13  H   UNL d   1      -1.626   2.565  -0.000  0.00  0.00     0.219 HD
ENDBRANCH   5  12
TORSDOF 2
