REMARK  4 active torsions:
REMARK  status: ('A' for Active; 'I' for Inactive)
REMARK    1  A    between atoms: C_5  and  C_1 
REMARK    2  A    between atoms: C_6  and  C_2 
REMARK    3  A    between atoms: O_13  and  C_7 
REMARK    4  A    between atoms: O_14  and  C_10 
ROOT
ATOM      1  C   UNL d   1       0.908   0.167  -0.425  0.00  0.00     0.037 C 
ATOM      2  C   UNL d   1       0.268   1.309  -0.100  0.00  0.00     0.055 C 
ATOM      3  C   UNL d   1       0.940   2.571   0.033  0.00  0.00     0.100 C 
ATOM      4  N   UNL d   1       1.480   3.589   0.147  0.00  0.00    -0.191 NA
ENDROOT
BRANCH   2   5
ATOM      5  C   UNL d   1      -1.191   1.274   0.050  0.00  0.00    -0.015 A 
ATOM      6  C   UNL d   1      -1.800   0.883   1.250  0.00  0.00     0.015 A 
ATOM      7  C   UNL d   1      -3.196   0.861   1.359  0.00  0.00     0.037 A 
ATOM      8  C   UNL d   1      -3.990   1.223   0.268  0.00  0.00     0.068 A 
ATOM      9  C   UNL d   1      -3.379   1.611  -0.925  0.00  0.00     0.037 A 
ATOM     10  C   UNL d   1      -1.990   1.637  -1.037  0.00  0.00     0.015 A 
BRANCH   8  11
ATOM     11  O   UNL d   1      -5.356   1.243   0.229  0.00  0.00    -0.356 OA
ATOM     12  C   UNL d   1      -6.046   0.854   1.408  0.00  0.00     0.210 C 
ENDBRANCH   8  11
ENDBRANCH   2   5
BRANCH   1  13
ATOM     13  C   UNL d   1       2.355   0.148  -0.663  0.00  0.00    -0.001 A 
ATOM     14  C   UNL d   1       2.918   0.494  -1.903  0.00  0.00     0.078 A 
ATOM     15  C   UNL d   1       4.278   0.803  -1.980  0.00  0.00     0.037 A 
ATOM     16  C   UNL d   1       5.087   0.714  -0.847  0.00  0.00     0.003 A 
ATOM     17  C   UNL d   1       4.548   0.287   0.365  0.00  0.00     0.001 A 
ATOM     18  C   UNL d   1       3.187  -0.001   0.457  0.00  0.00     0.014 A 
BRANCH  14  19
ATOM     19  O   UNL d   1       2.202   0.698  -3.054  0.00  0.00    -0.355 OA
ATOM     20  C   UNL d   1       1.411  -0.419  -3.459  0.00  0.00     0.210 C 
ENDBRANCH  14  19
ENDBRANCH   1  13
TORSDOF 4
