REMARK  3 active torsions:
REMARK  status: ('A' for Active; 'I' for Inactive)
REMARK    1  A    between atoms: N_2  and  C_1 
REMARK    2  A    between atoms: C_5  and  C_4 
REMARK       I    between atoms: N_6  and  C_5 
REMARK    3  A    between atoms: C_9  and  N_6 
ROOT
ATOM      1  C   UNL d   1      -0.842  -2.316  -0.015  0.00  0.00     0.280 C 
ATOM      2  N   UNL d   1      -2.209  -2.547  -0.011  0.00  0.00    -0.319 N 
ATOM      3  O   UNL d   1      -0.321  -1.206  -0.003  0.00  0.00    -0.265 OA
ATOM      4  H   UNL d   1      -2.502  -3.485   0.242  0.00  0.00     0.169 HD
ENDROOT
BRANCH   1   5
ATOM      5  C   UNL d   1      -0.010  -3.505   0.052  0.00  0.00     0.146 A 
ATOM      6  O   UNL d   1      -0.550  -4.759   0.218  0.00  0.00    -0.283 OA
ATOM      7  C   UNL d   1       0.512  -5.615   0.281  0.00  0.00     0.215 A 
ATOM      8  C   UNL d   1       1.713  -4.960   0.151  0.00  0.00     0.066 A 
ATOM      9  C   UNL d   1       1.373  -3.597  -0.001  0.00  0.00     0.047 A 
BRANCH   7  10
ATOM     10  N   UNL d   1       0.222  -7.000   0.485  0.00  0.00    -0.090 N 
ATOM     11  O   UNL d   1       1.197  -7.756   0.598  0.00  0.00    -0.530 OA
ATOM     12  O   UNL d   1      -0.968  -7.334   0.537  0.00  0.00    -0.530 OA
ENDBRANCH   7  10
ENDBRANCH   1   5
BRANCH   2  13
ATOM     13  C   UNL d   1      -3.203  -1.536  -0.086  0.00  0.00     0.074 A 
ATOM     14  C   UNL d   1      -3.004  -0.272  -0.663  0.00  0.00     0.143 A 
ATOM     15  F   UNL d   1      -1.899   0.014  -1.365  0.00  0.00    -0.204 F 
ATOM     16  C   UNL d   1      -3.991   0.713  -0.618  0.00  0.00     0.044 A 
ATOM     17  C   UNL d   1      -5.218   0.440  -0.023  0.00  0.00     0.003 A 
ATOM     18  C   UNL d   1      -5.462  -0.833   0.492  0.00  0.00     0.002 A 
ATOM     19  C   UNL d   1      -4.465  -1.819   0.452  0.00  0.00     0.033 A 
ENDBRANCH   2  13
TORSDOF 3
