REMARK  9 active torsions:
REMARK  status: ('A' for Active; 'I' for Inactive)
REMARK    1  A    between atoms: N_3  and  C_1 
REMARK    2  A    between atoms: N_7  and  C_1 
REMARK    3  A    between atoms: C_2  and  N_9 
REMARK    4  A    between atoms: N_15  and  C_2 
REMARK    5  A    between atoms: C_4  and  N_3 
REMARK    6  A    between atoms: N_9  and  N_7 
REMARK    7  A    between atoms: C_16  and  N_15 
REMARK    8  A    between atoms: C_18  and  C_16 
REMARK    9  A    between atoms: C_17  and  C_18 
ROOT
ATOM      1  N   UNL d   1      -1.095  -0.923  -0.741  0.00  0.00    -0.274 N 
ATOM      2  H   UNL d   1      -1.598  -0.146  -0.314  0.00  0.00     0.189 HD
ENDROOT
BRANCH   1   3
ATOM      3  C   UNL d   1      -1.688  -1.510  -1.846  0.00  0.00     0.186 C 
ATOM      4  S   UNL d   1      -3.191  -1.020  -2.361  0.00  0.00    -0.040 SA
BRANCH   3   5
ATOM      5  N   UNL d   1      -0.864  -2.430  -2.453  0.00  0.00    -0.366 N 
ATOM      6  H   UNL d   1      -0.210  -2.866  -1.808  0.00  0.00     0.161 HD
BRANCH   5   7
ATOM      7  C   UNL d   1      -1.034  -3.022  -3.772  0.00  0.00     0.126 C 
BRANCH   7   8
ATOM      8  C   UNL d   1      -0.013  -4.131  -4.032  0.00  0.00     0.058 C 
BRANCH   8   9
ATOM      9  C   UNL d   1      -0.032  -4.586  -5.466  0.00  0.00    -0.057 A 
ATOM     10  C   UNL d   1       0.793  -3.968  -6.418  0.00  0.00     0.007 A 
ATOM     11  C   UNL d   1       0.755  -4.368  -7.751  0.00  0.00     0.001 A 
ATOM     12  C   UNL d   1      -0.109  -5.385  -8.153  0.00  0.00     0.000 A 
ATOM     13  C   UNL d   1      -0.935  -6.002  -7.216  0.00  0.00     0.001 A 
ATOM     14  C   UNL d   1      -0.899  -5.606  -5.880  0.00  0.00     0.007 A 
ENDBRANCH   8   9
ENDBRANCH   7   8
ENDBRANCH   5   7
ENDBRANCH   3   5
ENDBRANCH   1   3
BRANCH   1  15
ATOM     15  N   UNL d   1       0.314  -0.769  -0.809  0.00  0.00    -0.274 N 
ATOM     16  H   UNL d   1       0.672  -0.899  -1.747  0.00  0.00     0.189 HD
BRANCH  15  17
ATOM     17  C   UNL d   1       0.993   0.052   0.055  0.00  0.00     0.186 C 
ATOM     18  S   UNL d   1       0.471   0.479   1.581  0.00  0.00    -0.040 SA
BRANCH  17  19
ATOM     19  N   UNL d   1       2.194   0.530  -0.393  0.00  0.00    -0.361 N 
ATOM     20  H   UNL d   1       2.733   1.031   0.307  0.00  0.00     0.162 HD
BRANCH  19  21
ATOM     21  C   UNL d   1       2.816   0.316  -1.691  0.00  0.00     0.092 C 
ATOM     22  C   UNL d   1       3.827   1.401  -2.147  0.00  0.00     0.031 C 
ATOM     23  C   UNL d   1       4.989   1.483  -1.185  0.00  0.00    -0.024 C 
ATOM     24  C   UNL d   1       4.521   0.632  -3.281  0.00  0.00     0.019 C 
ATOM     25  C   UNL d   1       5.687   0.344  -1.310  0.00  0.00    -0.026 C 
ATOM     26  C   UNL d   1       4.993  -0.496  -2.357  0.00  0.00     0.010 C 
ATOM     27  C   UNL d   1       3.656  -0.991  -1.760  0.00  0.00     0.034 C 
ENDBRANCH  19  21
ENDBRANCH  17  19
ENDBRANCH  15  17
ENDBRANCH   1  15
TORSDOF 9
