REMARK  7 active torsions:
REMARK  status: ('A' for Active; 'I' for Inactive)
REMARK    1  A    between atoms: N_3  and  C_1 
REMARK    2  A    between atoms: C_2  and  N_3 
REMARK    3  A    between atoms: S_11  and  C_2 
REMARK    4  A    between atoms: C_13  and  N_9 
REMARK    5  A    between atoms: C_12  and  C_13 
REMARK    6  A    between atoms: C_18  and  C_12 
REMARK    7  A    between atoms: O_14  and  C_18 
ROOT
ATOM      1  N   UNL d   1       4.640  -2.834  -0.217  0.00  0.00    -0.337 N 
ATOM      2  H   UNL d   1       4.405  -3.708   0.235  0.00  0.00     0.168 HD
ENDROOT
BRANCH   1   3
ATOM      3  C   UNL d   1       3.599  -1.933  -0.225  0.00  0.00     0.140 C 
ATOM      4  N   UNL d   1       3.648  -0.763  -0.759  0.00  0.00    -0.371 N 
ATOM      5  HN  UNL d   1       4.482  -0.535  -1.300  1.00  0.00     0.161 HD
BRANCH   4   6
ATOM      6  C   UNL d   1       2.626   0.260  -0.662  0.00  0.00     0.123 C 
BRANCH   6   7
ATOM      7  C   UNL d   1       2.775   1.169  -1.882  0.00  0.00     0.046 C 
BRANCH   7   8
ATOM      8  C   UNL d   1       1.869   2.390  -1.796  0.00  0.00     0.168 C 
BRANCH   8   9
ATOM      9  O   UNL d   1       2.020   3.157  -2.992  0.00  0.00    -0.396 OA
ATOM     10  C   UNL d   1       1.203   4.320  -2.975  0.00  0.00     0.201 C 
ENDBRANCH   8   9
ENDBRANCH   7   8
ENDBRANCH   6   7
ENDBRANCH   4   6
BRANCH   3  11
ATOM     11  S   UNL d   1       2.186  -2.553   0.630  0.00  0.00    -0.099 SA
ATOM     12  C   UNL d   1       1.315  -3.362  -0.732  0.00  0.00     0.099 C 
ENDBRANCH   3  11
ENDBRANCH   1   3
BRANCH   1  13
ATOM     13  C   UNL d   1       6.021  -2.526  -0.078  0.00  0.00     0.040 A 
ATOM     14  C   UNL d   1       6.492  -1.202  -0.003  0.00  0.00     0.037 A 
ATOM     15  C   UNL d   1       7.857  -0.886   0.138  0.00  0.00    -0.054 A 
ATOM     16  C   UNL d   1       8.275   0.561   0.203  0.00  0.00     0.049 C 
ATOM     17  C   UNL d   1       8.798  -1.919   0.207  0.00  0.00    -0.056 A 
ATOM     18  C   UNL d   1       8.350  -3.241   0.098  0.00  0.00     0.016 A 
ATOM     19  C   UNL d   1      10.268  -1.645   0.368  0.00  0.00     0.049 C 
ATOM     20  C   UNL d   1       6.987  -3.556  -0.081  0.00  0.00    -0.035 A 
ATOM     21  C   UNL d   1       6.642  -5.014  -0.216  0.00  0.00     0.050 C 
ENDBRANCH   1  13
TORSDOF 7
