REMARK  10 active torsions:
REMARK  status: ('A' for Active; 'I' for Inactive)
REMARK    1  A    between atoms: C_7  and  C_1 
REMARK    2  A    between atoms: C_2  and  C_8 
REMARK       I    between atoms: N_15  and  C_7 
REMARK       I    between atoms: C_8  and  N_16 
REMARK    3  A    between atoms: C_22  and  C_9 
REMARK    4  A    between atoms: C_21  and  C_10 
REMARK    5  A    between atoms: C_19  and  N_15 
REMARK    6  A    between atoms: C_30  and  N_15 
REMARK    7  A    between atoms: N_16  and  C_20 
REMARK    8  A    between atoms: C_29  and  N_16 
REMARK    9  A    between atoms: C_23  and  C_19 
REMARK   10  A    between atoms: C_20  and  C_24 
ROOT
ATOM      1  C   UNL d   1       1.155  -5.379  -0.100  0.00  0.00    -0.040 A 
ATOM      2  C   UNL d   1       3.990  -5.392   0.087  0.00  0.00    -0.040 A 
ATOM      3  C   UNL d   1       3.271  -6.577  -0.149  0.00  0.00     0.009 A 
ATOM      4  C   UNL d   1       1.881  -4.209   0.182  0.00  0.00     0.009 A 
ATOM      5  C   UNL d   1       1.863  -6.575  -0.222  0.00  0.00     0.009 A 
ATOM      6  C   UNL d   1       3.265  -4.219   0.300  0.00  0.00     0.009 A 
ENDROOT
BRANCH   1   7
ATOM      7  C   UNL d   1      -0.342  -5.200  -0.162  0.00  0.00     0.164 C 
BRANCH   7   8
ATOM      8  N   UNL d   1      -1.227  -6.262  -0.636  0.00  0.00    -0.344 N 
ATOM      9  C   UNL d   1      -1.107  -6.667  -1.978  0.00  0.00     0.259 C 
ATOM     10  O   UNL d   1      -0.322  -6.124  -2.756  0.00  0.00    -0.267 OA
BRANCH   9  11
ATOM     11  C   UNL d   1      -1.933  -7.780  -2.426  0.00  0.00     0.092 A 
ATOM     12  C   UNL d   1      -2.651  -7.963  -3.657  0.00  0.00     0.083 A 
ATOM     13  N   UNL d   1      -3.245  -9.171  -3.660  0.00  0.00    -0.259 N 
ATOM     14  O   UNL d   1      -2.939  -9.775  -2.472  0.00  0.00    -0.241 OA
ATOM     15  HN  UNL d   1      -3.817  -9.563  -4.408  1.00  0.00     0.195 HD
ATOM     16  C   UNL d   1      -2.156  -8.958  -1.732  0.00  0.00     0.090 A 
ATOM     17  C   UNL d   1      -1.764  -9.492  -0.414  0.00  0.00     0.080 C 
BRANCH  12  18
ATOM     18  C   UNL d   1      -2.880  -7.064  -4.800  0.00  0.00    -0.006 A 
ATOM     19  C   UNL d   1      -2.857  -5.670  -4.674  0.00  0.00     0.014 A 
ATOM     20  C   UNL d   1      -3.187  -4.847  -5.759  0.00  0.00     0.001 A 
ATOM     21  C   UNL d   1      -3.546  -5.405  -6.984  0.00  0.00     0.000 A 
ATOM     22  C   UNL d   1      -3.562  -6.787  -7.133  0.00  0.00     0.001 A 
ATOM     23  C   UNL d   1      -3.229  -7.608  -6.052  0.00  0.00     0.014 A 
ENDBRANCH  12  18
ENDBRANCH   9  11
BRANCH   8  24
ATOM     24  C   UNL d   1      -2.567  -6.227  -0.012  0.00  0.00     0.122 C 
ATOM     25  C   UNL d   1      -3.261  -4.874  -0.170  0.00  0.00     0.026 C 
ENDBRANCH   8  24
ENDBRANCH   7   8
ENDBRANCH   1   7
BRANCH   2  26
ATOM     26  C   UNL d   1       5.505  -5.369   0.131  0.00  0.00     0.164 C 
BRANCH  26  27
ATOM     27  N   UNL d   1       6.161  -4.828  -1.078  0.00  0.00    -0.344 N 
ATOM     28  C   UNL d   1       7.308  -5.507  -1.522  0.00  0.00     0.259 C 
ATOM     29  O   UNL d   1       7.776  -6.446  -0.877  0.00  0.00    -0.267 OA
BRANCH  28  30
ATOM     30  C   UNL d   1       7.983  -5.090  -2.742  0.00  0.00     0.092 A 
ATOM     31  C   UNL d   1       7.529  -4.766  -4.067  0.00  0.00     0.083 A 
ATOM     32  N   UNL d   1       8.579  -4.439  -4.844  0.00  0.00    -0.259 N 
ATOM     33  O   UNL d   1       9.707  -4.609  -4.087  0.00  0.00    -0.241 OA
ATOM     34  HN  UNL d   1       8.541  -4.123  -5.813  1.00  0.00     0.195 HD
ATOM     35  C   UNL d   1       9.361  -5.017  -2.845  0.00  0.00     0.090 A 
ATOM     36  C   UNL d   1      10.481  -5.274  -1.918  0.00  0.00     0.080 C 
BRANCH  31  37
ATOM     37  C   UNL d   1       6.179  -4.736  -4.651  0.00  0.00    -0.006 A 
ATOM     38  C   UNL d   1       5.134  -5.527  -4.158  0.00  0.00     0.014 A 
ATOM     39  C   UNL d   1       3.857  -5.453  -4.724  0.00  0.00     0.001 A 
ATOM     40  C   UNL d   1       3.613  -4.606  -5.804  0.00  0.00     0.000 A 
ATOM     41  C   UNL d   1       4.644  -3.826  -6.318  0.00  0.00     0.001 A 
ATOM     42  C   UNL d   1       5.915  -3.889  -5.744  0.00  0.00     0.014 A 
ENDBRANCH  31  37
ENDBRANCH  28  30
BRANCH  27  43
ATOM     43  C   UNL d   1       5.840  -3.453  -1.496  0.00  0.00     0.122 C 
ATOM     44  C   UNL d   1       6.279  -2.390  -0.497  0.00  0.00     0.026 C 
ENDBRANCH  27  43
ENDBRANCH  26  27
ENDBRANCH   2  26
TORSDOF 10
