REMARK  7 active torsions:
REMARK  status: ('A' for Active; 'I' for Inactive)
REMARK    1  A    between atoms: C_9  and  C_1 
REMARK    2  A    between atoms: S_2  and  N_7 
REMARK    3  A    between atoms: C_11  and  S_2 
REMARK    4  A    between atoms: C_16  and  N_3 
REMARK       I    between atoms: N_7  and  C_10 
REMARK    5  A    between atoms: C_17  and  C_8 
REMARK       I    between atoms: N_12  and  C_9 
REMARK       I    between atoms: C_10  and  N_13 
REMARK    6  A    between atoms: N_13  and  N_12 
REMARK    7  A    between atoms: C_22  and  C_16 
ROOT
ATOM      1  C   UNL d   1      -0.484  -2.510  -0.366  0.00  0.00     0.288 C 
ATOM      2  N   UNL d   1      -1.810  -2.857  -0.563  0.00  0.00    -0.261 N 
ATOM      3  O   UNL d   1       0.400  -3.366  -0.374  0.00  0.00    -0.264 OA
ATOM      4  H   UNL d   1      -2.572  -2.186  -0.574  0.00  0.00     0.190 HD
ENDROOT
BRANCH   1   5
ATOM      5  C   UNL d   1      -0.239  -1.095  -0.178  0.00  0.00     0.122 C 
ATOM      6  N   UNL d   1       0.995  -0.477  -0.206  0.00  0.00    -0.282 N 
ATOM      7  N   UNL d   1       0.932   0.854   0.027  0.00  0.00    -0.301 N 
ATOM      8  C   UNL d   1      -0.372   1.137   0.056  0.00  0.00     0.036 C 
ATOM      9  HN  UNL d   1       1.711   1.501   0.153  1.00  0.00     0.187 HD
ATOM     10  C   UNL d   1      -1.136  -0.053   0.013  0.00  0.00     0.064 C 
BRANCH   6  11
ATOM     11  C   UNL d   1       2.291  -1.020  -0.606  0.00  0.00     0.188 C 
BRANCH  11  12
ATOM     12  C   UNL d   1       2.511  -0.773  -2.084  0.00  0.00    -0.038 A 
ATOM     13  C   UNL d   1       3.043   0.452  -2.526  0.00  0.00     0.012 A 
ATOM     14  C   UNL d   1       3.108   0.744  -3.889  0.00  0.00     0.043 A 
ATOM     15  C   UNL d   1       2.644  -0.187  -4.809  0.00  0.00     0.116 A 
ATOM     16  C   UNL d   1       2.140  -1.415  -4.394  0.00  0.00     0.043 A 
ATOM     17  F   UNL d   1       2.666   0.109  -6.115  0.00  0.00    -0.206 F 
ATOM     18  C   UNL d   1       2.079  -1.712  -3.032  0.00  0.00     0.012 A 
ENDBRANCH  11  12
ENDBRANCH   6  11
BRANCH   8  19
ATOM     19  C   UNL d   1      -0.832   2.584   0.083  0.00  0.00    -0.007 C 
ATOM     20  C   UNL d   1      -2.370   2.692   0.057  0.00  0.00     0.021 C 
ATOM     21  C   UNL d   1      -0.318   3.293   1.350  0.00  0.00     0.021 C 
ATOM     22  C   UNL d   1      -0.288   3.325  -1.160  0.00  0.00     0.021 C 
ENDBRANCH   8  19
ENDBRANCH   1   5
BRANCH   2  23
ATOM     23  N   UNL d   1      -2.156  -4.207  -0.747  0.00  0.00    -0.248 N 
ATOM     24  C   UNL d   1      -3.482  -4.563  -0.731  0.00  0.00     0.348 C 
ATOM     25  N   UNL d   1      -3.826  -5.881  -1.007  0.00  0.00    -0.231 N 
ATOM     26  O   UNL d   1      -4.373  -3.756  -0.491  0.00  0.00    -0.245 OA
ATOM     27  H   UNL d   1      -4.823  -6.052  -1.111  0.00  0.00     0.183 HD
ATOM     28  H   UNL d   1      -1.450  -4.812  -1.166  0.00  0.00     0.192 HD
BRANCH  25  29
ATOM     29  S   UNL d   1      -2.877  -7.091  -1.611  0.00  0.00     0.266 S 
ATOM     30  O   UNL d   1      -3.752  -7.976  -2.346  0.00  0.00    -0.200 OA
ATOM     31  O   UNL d   1      -1.716  -6.488  -2.234  0.00  0.00    -0.200 OA
BRANCH  29  32
ATOM     32  C   UNL d   1      -2.326  -7.944  -0.152  0.00  0.00     0.080 A 
ATOM     33  C   UNL d   1      -3.027  -9.063   0.307  0.00  0.00     0.026 A 
ATOM     34  C   UNL d   1      -2.512  -9.814   1.368  0.00  0.00     0.008 A 
ATOM     35  C   UNL d   1      -1.298  -9.457   1.970  0.00  0.00    -0.062 A 
ATOM     36  C   UNL d   1      -0.610  -8.329   1.506  0.00  0.00     0.008 A 
ATOM     37  C   UNL d   1      -0.714 -10.314   3.056  0.00  0.00     0.048 C 
ATOM     38  C   UNL d   1      -1.117  -7.575   0.445  0.00  0.00     0.026 A 
ENDBRANCH  29  32
ENDBRANCH  25  29
ENDBRANCH   2  23
TORSDOF 7
