REMARK  0 active torsions:
REMARK  status: ('A' for Active; 'I' for Inactive)
ROOT
ATOM      1  C   UNL d   1      -0.069  -0.772  -0.779  0.00  0.00     0.031 C 
ATOM      2  C   UNL d   1       0.071   0.774  -0.778  0.00  0.00     0.031 C 
ATOM      3  C   UNL d   1      -1.389  -0.983  -0.063  0.00  0.00     0.136 C 
ATOM      4  C   UNL d   1       1.391   0.982  -0.060  0.00  0.00     0.136 C 
ATOM      5  C   UNL d   1       1.069  -1.344   0.098  0.00  0.00     0.025 C 
ATOM      6  C   UNL d   1      -1.066   1.344   0.099  0.00  0.00     0.025 C 
ATOM      7  C   UNL d   1      -1.758   0.185   0.797  0.00  0.00     0.080 C 
ATOM      8  C   UNL d   1       1.758  -0.185   0.799  0.00  0.00     0.080 C 
ATOM      9  O   UNL d   1      -2.035  -2.023  -0.097  0.00  0.00    -0.297 OA
ATOM     10  O   UNL d   1       2.038   2.025  -0.091  0.00  0.00    -0.297 OA
ATOM     11  C   UNL d   1      -0.079  -1.454  -2.146  0.00  0.00     0.025 C 
ATOM     12  C   UNL d   1       0.084   1.460  -2.144  0.00  0.00     0.025 C 
ENDROOT
TORSDOF 0
