REMARK  3 active torsions:
REMARK  status: ('A' for Active; 'I' for Inactive)
REMARK    1  A    between atoms: C_6  and  C_5 
REMARK    2  A    between atoms: O_15  and  C_9 
REMARK    3  A    between atoms: O_16  and  C_13 
ROOT
ATOM      1  C   UNL d   1       1.887   0.544   0.842  0.00  0.00     0.074 C 
ATOM      2  C   UNL d   1       0.789   1.557   0.704  0.00  0.00     0.263 C 
ATOM      3  S   UNL d   1       1.623  -0.946   1.664  0.00  0.00    -0.083 SA
ATOM      4  N   UNL d   1      -0.513   1.148   0.792  0.00  0.00    -0.321 N 
ATOM      5  C   UNL d   1       3.057   0.868   0.258  0.00  0.00     0.038 C 
ATOM      6  C   UNL d   1      -0.981  -0.142   1.069  0.00  0.00     0.052 A 
ATOM      7  C   UNL d   1      -0.119  -1.175   1.440  0.00  0.00     0.032 A 
ATOM      8  O   UNL d   1       1.018   2.733   0.428  0.00  0.00    -0.267 OA
ATOM      9  C   UNL d   1      -2.358  -0.375   0.973  0.00  0.00     0.031 A 
ATOM     10  C   UNL d   1      -0.649  -2.447   1.694  0.00  0.00     0.021 A 
ATOM     11  C   UNL d   1      -2.021  -2.683   1.589  0.00  0.00     0.002 A 
ATOM     12  C   UNL d   1      -2.876  -1.644   1.234  0.00  0.00     0.002 A 
ATOM     13  H   UNL d   1      -1.182   1.875   0.576  0.00  0.00     0.169 HD
ENDROOT
BRANCH   5  14
ATOM     14  C   UNL d   1       4.221  -0.015   0.082  0.00  0.00     0.001 A 
ATOM     15  C   UNL d   1       4.377  -0.866  -1.027  0.00  0.00     0.078 A 
ATOM     16  C   UNL d   1       5.487  -1.717  -1.084  0.00  0.00     0.040 A 
ATOM     17  C   UNL d   1       6.458  -1.712  -0.083  0.00  0.00     0.039 A 
ATOM     18  C   UNL d   1       6.332  -0.852   1.004  0.00  0.00     0.069 A 
ATOM     19  C   UNL d   1       5.209  -0.020   1.088  0.00  0.00     0.051 A 
BRANCH  15  20
ATOM     20  O   UNL d   1       3.526  -1.049  -2.084  0.00  0.00    -0.355 OA
ATOM     21  C   UNL d   1       2.818   0.075  -2.587  0.00  0.00     0.210 C 
ENDBRANCH  15  20
BRANCH  18  22
ATOM     22  O   UNL d   1       7.232  -0.736   2.030  0.00  0.00    -0.356 OA
ATOM     23  C   UNL d   1       8.407  -1.537   1.946  0.00  0.00     0.210 C 
ENDBRANCH  18  22
ENDBRANCH   5  14
TORSDOF 3
