REMARK  2 active torsions:
REMARK  status: ('A' for Active; 'I' for Inactive)
REMARK    1  A    between atoms: C_5  and  N_1 
REMARK    2  A    between atoms: C_9  and  C_5 
ROOT
ATOM      1  C   UNL d   1       0.280  -2.466  -0.046  0.00  0.00     0.123 C 
ATOM      2  C   UNL d   1       1.579  -3.243   0.234  0.00  0.00     0.038 C 
ENDROOT
BRANCH   1   3
ATOM      3  N   UNL d   1       0.420  -0.993   0.037  0.00  0.00    -0.293 N 
ATOM      4  C   UNL d   1      -0.501  -0.175   0.664  0.00  0.00     0.144 C 
ATOM      5  S   UNL d   1      -0.094   1.516   0.436  0.00  0.00    -0.091 SA
ATOM      6  S   UNL d   1      -1.845  -0.596   1.564  0.00  0.00    -0.052 SA
ATOM      7  C   UNL d   1       1.445   1.142  -0.399  0.00  0.00     0.185 C 
ATOM      8  C   UNL d   1       1.456  -0.346  -0.616  0.00  0.00     0.235 C 
ATOM      9  O   UNL d   1       2.336  -0.879  -1.284  0.00  0.00    -0.272 OA
ENDBRANCH   1   3
BRANCH   1  10
ATOM     10  C   UNL d   1      -0.421  -2.901  -1.331  0.00  0.00    -0.035 A 
ATOM     11  C   UNL d   1       0.272  -3.122  -2.530  0.00  0.00     0.009 A 
ATOM     12  C   UNL d   1      -0.398  -3.550  -3.679  0.00  0.00     0.001 A 
ATOM     13  C   UNL d   1      -1.777  -3.742  -3.655  0.00  0.00     0.000 A 
ATOM     14  C   UNL d   1      -2.487  -3.507  -2.483  0.00  0.00     0.001 A 
ATOM     15  C   UNL d   1      -1.815  -3.094  -1.331  0.00  0.00     0.009 A 
ENDBRANCH   1  10
TORSDOF 2
