REMARK  2 active torsions:
REMARK  status: ('A' for Active; 'I' for Inactive)
REMARK    1  A    between atoms: C_12  and  C_8 
REMARK    2  A    between atoms: C_16  and  C_11 
ROOT
ATOM      1  N   UNL d   1       0.419   1.377   0.239  0.00  0.00    -0.194 N 
ATOM      2  C   UNL d   1       0.858   0.106   0.182  0.00  0.00     0.176 A 
ATOM      3  N   UNL d   1       2.159   0.054   0.238  0.00  0.00    -0.319 N 
ATOM      4  HN  UNL d   1       2.772  -0.761   0.207  1.00  0.00     0.169 HD
ATOM      5  N   UNL d   1       1.438   2.242   0.349  0.00  0.00    -0.273 N 
ATOM      6  HN  UNL d   1       1.419   3.260   0.414  1.00  0.00     0.189 HD
ATOM      7  C   UNL d   1      -0.932   1.624   0.198  0.00  0.00     0.285 A 
ATOM      8  C   UNL d   1       2.494   1.402   0.349  0.00  0.00     0.133 A 
ATOM      9  C   UNL d   1      -1.590   0.281   0.076  0.00  0.00     0.079 A 
ATOM     10  S   UNL d   1      -0.416  -1.037   0.078  0.00  0.00    -0.046 SA
ATOM     11  C   UNL d   1      -2.908   0.070  -0.050  0.00  0.00     0.036 C 
ATOM     12  O   UNL d   1      -1.403   2.744   0.262  0.00  0.00    -0.265 OA
ENDROOT
BRANCH   8  13
ATOM     13  C   UNL d   1       3.872   1.864   0.486  0.00  0.00     0.009 A 
ATOM     14  C   UNL d   1       4.149   3.230   0.667  0.00  0.00     0.017 A 
ATOM     15  C   UNL d   1       5.463   3.677   0.830  0.00  0.00     0.025 A 
ATOM     16  C   UNL d   1       6.510   2.760   0.807  0.00  0.00     0.034 A 
ATOM     17  C   UNL d   1       6.254   1.402   0.619  0.00  0.00     0.025 A 
ATOM     18 CL   UNL d   1       8.127   3.306   1.018  0.00  0.00    -0.084 Cl
ATOM     19  C   UNL d   1       4.938   0.955   0.459  0.00  0.00     0.017 A 
ENDBRANCH   8  13
BRANCH  11  20
ATOM     20  C   UNL d   1      -3.897   1.145  -0.141  0.00  0.00    -0.035 A 
ATOM     21  C   UNL d   1      -4.237   1.663  -1.397  0.00  0.00     0.011 A 
ATOM     22  C   UNL d   1      -5.125   2.735  -1.498  0.00  0.00     0.001 A 
ATOM     23  C   UNL d   1      -5.679   3.291  -0.347  0.00  0.00     0.000 A 
ATOM     24  C   UNL d   1      -5.353   2.772   0.906  0.00  0.00     0.001 A 
ATOM     25  C   UNL d   1      -4.463   1.700   1.011  0.00  0.00     0.011 A 
ENDBRANCH  11  20
TORSDOF 2
