REMARK  1 active torsions:
REMARK  status: ('A' for Active; 'I' for Inactive)
REMARK    1  A    between atoms: C_7  and  N_5 
ROOT
ATOM      1  C   UNL d   1       0.870   0.805  -0.016  0.00  0.00     0.141 C 
ATOM      2  N   UNL d   1      -0.343   1.198   0.173  0.00  0.00    -0.370 N 
ATOM      3  HN  UNL d   1      -0.632   2.173   0.245  1.00  0.00     0.161 HD
ATOM      4  S   UNL d   1       1.135  -0.930  -0.001  0.00  0.00    -0.088 SA
ATOM      5  N   UNL d   1       1.995   1.549  -0.219  0.00  0.00    -0.337 N 
ATOM      6  C   UNL d   1      -1.255   0.045   0.269  0.00  0.00     0.137 C 
ATOM      7  C   UNL d   1      -0.491  -1.180   0.756  0.00  0.00     0.069 C 
ATOM      8  C   UNL d   1      -0.381  -1.225   2.276  0.00  0.00     0.023 C 
ATOM      9  H   UNL d   1       2.830   1.027  -0.447  0.00  0.00     0.168 HD
ENDROOT
BRANCH   5  10
ATOM     10  C   UNL d   1       2.165   2.927  -0.020  0.00  0.00     0.034 A 
ATOM     11  C   UNL d   1       1.269   3.706   0.725  0.00  0.00     0.031 A 
ATOM     12  C   UNL d   1       1.444   5.087   0.860  0.00  0.00     0.026 A 
ATOM     13  C   UNL d   1       2.512   5.712   0.229  0.00  0.00     0.034 A 
ATOM     14  C   UNL d   1       3.406   4.966  -0.533  0.00  0.00     0.026 A 
ATOM     15 CL   UNL d   1       2.723   7.411   0.384  0.00  0.00    -0.084 Cl
ATOM     16  C   UNL d   1       3.231   3.582  -0.656  0.00  0.00     0.031 A 
ENDBRANCH   5  10
TORSDOF 1
