REMARK  6 active torsions:
REMARK  status: ('A' for Active; 'I' for Inactive)
REMARK    1  A    between atoms: C_3  and  C_1 
REMARK    2  A    between atoms: C_8  and  C_2 
REMARK       I    between atoms: N_6  and  C_3 
REMARK    3  A    between atoms: C_7  and  N_6 
REMARK    4  A    between atoms: N_11  and  C_7 
REMARK    5  A    between atoms: C_18  and  N_11 
REMARK    6  A    between atoms: C_20  and  C_15 
ROOT
ATOM      1  C   UNL d   1       0.769  -4.722  -0.778  0.00  0.00     0.262 C 
ATOM      2  N   UNL d   1      -0.199  -3.882  -0.258  0.00  0.00    -0.299 N 
ATOM      3  O   UNL d   1       1.909  -4.429  -0.399  0.00  0.00    -0.267 OA
ATOM      4  H   UNL d   1       0.291  -3.273   0.385  0.00  0.00     0.171 HD
ENDROOT
BRANCH   1   5
ATOM      5  C   UNL d   1       0.551  -5.838  -1.668  0.00  0.00     0.093 A 
ATOM      6  C   UNL d   1      -0.359  -6.225  -2.718  0.00  0.00     0.085 A 
ATOM      7  N   UNL d   1       0.013  -7.423  -3.219  0.00  0.00    -0.259 N 
ATOM      8  O   UNL d   1       1.146  -7.813  -2.565  0.00  0.00    -0.241 OA
ATOM      9  HN  UNL d   1      -0.467  -7.943  -3.954  1.00  0.00     0.195 HD
ATOM     10  C   UNL d   1       1.475  -6.869  -1.656  0.00  0.00     0.090 A 
ATOM     11  C   UNL d   1       2.703  -7.127  -0.854  0.00  0.00     0.080 C 
BRANCH   6  12
ATOM     12  C   UNL d   1      -1.561  -5.607  -3.301  0.00  0.00     0.015 A 
ATOM     13  C   UNL d   1      -1.698  -4.242  -3.591  0.00  0.00     0.046 A 
ATOM     14 CL   UNL d   1      -0.380  -3.128  -3.507  0.00  0.00    -0.083 Cl
ATOM     15  C   UNL d   1      -2.929  -3.729  -4.034  0.00  0.00     0.025 A 
ATOM     16  C   UNL d   1      -4.017  -4.571  -4.255  0.00  0.00     0.002 A 
ATOM     17  C   UNL d   1      -3.872  -5.941  -4.071  0.00  0.00     0.001 A 
ATOM     18  C   UNL d   1      -2.658  -6.450  -3.602  0.00  0.00     0.015 A 
ENDBRANCH   6  12
ENDBRANCH   1   5
BRANCH   2  19
ATOM     19  C   UNL d   1      -1.552  -3.720  -0.093  0.00  0.00     0.179 C 
ATOM     20  S   UNL d   1      -2.684  -4.937  -0.058  0.00  0.00    -0.040 SA
BRANCH  19  21
ATOM     21  N   UNL d   1      -1.948  -2.417   0.137  0.00  0.00    -0.333 N 
ATOM     22  H   UNL d   1      -2.939  -2.343   0.345  0.00  0.00     0.168 HD
BRANCH  21  23
ATOM     23  C   UNL d   1      -1.241  -1.178   0.073  0.00  0.00     0.034 A 
ATOM     24  C   UNL d   1       0.066  -0.989  -0.399  0.00  0.00     0.030 A 
ATOM     25  C   UNL d   1       0.659   0.284  -0.451  0.00  0.00     0.010 A 
ATOM     26  C   UNL d   1      -0.057   1.421  -0.080  0.00  0.00    -0.055 A 
ATOM     27  C   UNL d   1      -1.359   1.234   0.411  0.00  0.00     0.010 A 
ATOM     28  C   UNL d   1      -1.938  -0.043   0.489  0.00  0.00     0.030 A 
BRANCH  26  29
ATOM     29  C   UNL d   1       0.436   2.832  -0.369  0.00  0.00     0.010 C 
ATOM     30  C   UNL d   1       1.913   3.124  -0.084  0.00  0.00     0.015 C 
ATOM     31  C   UNL d   1       0.127   3.163  -1.834  0.00  0.00     0.015 C 
ENDBRANCH  26  29
ENDBRANCH  21  23
ENDBRANCH  19  21
ENDBRANCH   2  19
TORSDOF 6
