REMARK  6 active torsions:
REMARK  status: ('A' for Active; 'I' for Inactive)
REMARK    1  A    between atoms: C_7  and  C_1 
REMARK    2  A    between atoms: S_2  and  C_9 
REMARK    3  A    between atoms: N_13  and  S_2 
REMARK    4  A    between atoms: C_15  and  C_5 
REMARK       I    between atoms: N_10  and  C_7 
REMARK    5  A    between atoms: N_14  and  N_10 
REMARK    6  A    between atoms: C_19  and  N_14 
ROOT
ATOM      1  C   UNL d   1       0.273  -2.658  -0.026  0.00  0.00     0.275 C 
ATOM      2  N   UNL d   1      -0.575  -3.759  -0.083  0.00  0.00    -0.265 N 
ATOM      3  O   UNL d   1       1.482  -2.881   0.049  0.00  0.00    -0.266 OA
ATOM      4  H   UNL d   1      -0.124  -4.662   0.033  0.00  0.00     0.190 HD
ENDROOT
BRANCH   2   5
ATOM      5  N   UNL d   1      -1.942  -3.701   0.189  0.00  0.00    -0.298 N 
ATOM      6  H   UNL d   1      -2.184  -3.504   1.162  0.00  0.00     0.187 HD
BRANCH   5   7
ATOM      7  C   UNL d   1      -2.737  -4.713  -0.405  0.00  0.00     0.048 A 
ATOM      8  C   UNL d   1      -4.073  -4.846   0.014  0.00  0.00     0.032 A 
ATOM      9  C   UNL d   1      -4.941  -5.761  -0.595  0.00  0.00     0.027 A 
ATOM     10  C   UNL d   1      -4.473  -6.550  -1.647  0.00  0.00     0.074 A 
ATOM     11  C   UNL d   1      -3.171  -6.397  -2.119  0.00  0.00     0.027 A 
ATOM     12  C   UNL d   1      -2.317  -5.472  -1.508  0.00  0.00     0.032 A 
BRANCH  10  13
ATOM     13  S   UNL d   1      -5.565  -7.695  -2.442  0.00  0.00     0.239 S 
ATOM     14  O   UNL d   1      -6.930  -7.341  -2.143  0.00  0.00    -0.206 OA
ATOM     15  O   UNL d   1      -5.100  -7.934  -3.791  0.00  0.00    -0.206 OA
BRANCH  13  16
ATOM     16  N   UNL d   1      -5.255  -9.107  -1.589  0.00  0.00    -0.225 NA
ATOM     17  H   UNL d   1      -6.105  -9.415  -1.113  0.00  0.00     0.136 HD
ATOM     18  H   UNL d   1      -4.857  -9.810  -2.212  0.00  0.00     0.136 HD
ENDBRANCH  13  16
ENDBRANCH  10  13
ENDBRANCH   5   7
ENDBRANCH   2   5
BRANCH   1  19
ATOM     19  C   UNL d   1      -0.260  -1.304  -0.044  0.00  0.00     0.094 A 
ATOM     20  C   UNL d   1       0.316  -0.094   0.500  0.00  0.00     0.083 A 
ATOM     21  N   UNL d   1      -0.489   0.952   0.240  0.00  0.00    -0.259 N 
ATOM     22  O   UNL d   1      -1.528   0.483  -0.507  0.00  0.00    -0.241 OA
ATOM     23  HN  UNL d   1      -0.348   1.915   0.545  1.00  0.00     0.195 HD
ATOM     24  C   UNL d   1      -1.386  -0.847  -0.712  0.00  0.00     0.090 A 
ATOM     25  C   UNL d   1      -2.406  -1.426  -1.611  0.00  0.00     0.080 C 
BRANCH  20  26
ATOM     26  C   UNL d   1       1.559   0.167   1.246  0.00  0.00    -0.006 A 
ATOM     27  C   UNL d   1       2.110  -0.747   2.151  0.00  0.00     0.014 A 
ATOM     28  C   UNL d   1       3.267  -0.426   2.876  0.00  0.00     0.001 A 
ATOM     29  C   UNL d   1       3.884   0.814   2.715  0.00  0.00     0.000 A 
ATOM     30  C   UNL d   1       3.351   1.736   1.821  0.00  0.00     0.001 A 
ATOM     31  C   UNL d   1       2.202   1.413   1.094  0.00  0.00     0.014 A 
ENDBRANCH  20  26
ENDBRANCH   1  19
TORSDOF 6
