REMARK  5 active torsions:
REMARK  status: ('A' for Active; 'I' for Inactive)
REMARK    1  A    between atoms: C_3  and  S_1 
REMARK    2  A    between atoms: N_7  and  S_1 
REMARK       I    between atoms: C_2  and  N_4 
REMARK    3  A    between atoms: C_10  and  C_2 
REMARK    4  A    between atoms: N_4  and  N_8 
REMARK    5  A    between atoms: N_8  and  C_13 
ROOT
ATOM      1  C   UNL d   1       0.417   0.987  -1.434  0.00  0.00     0.074 A 
ATOM      2  C   UNL d   1      -0.509   0.370  -2.272  0.00  0.00     0.026 A 
ATOM      3  C   UNL d   1       0.840   2.291  -1.688  0.00  0.00     0.026 A 
ATOM      4  C   UNL d   1      -0.584   2.367  -3.675  0.00  0.00     0.027 A 
ATOM      5  C   UNL d   1       0.331   2.977  -2.800  0.00  0.00     0.026 A 
ATOM      6  C   UNL d   1      -1.013   1.063  -3.378  0.00  0.00     0.026 A 
ENDROOT
BRANCH   4   7
ATOM      7  N   UNL d   1      -1.168   3.135  -4.715  0.00  0.00    -0.203 NA
ATOM      8  H   UNL d   1      -0.607   3.969  -4.936  0.00  0.00     0.153 HD
BRANCH   7   9
ATOM      9  N   UNL d   1      -1.420   2.411  -5.896  0.00  0.00    -0.287 N 
ATOM     10  C   UNL d   1      -1.219   3.076  -7.099  0.00  0.00     0.236 C 
ATOM     11  O   UNL d   1      -0.717   4.205  -7.130  0.00  0.00    -0.272 OA
ATOM     12  H   UNL d   1      -2.054   1.624  -5.833  0.00  0.00     0.184 HD
BRANCH  10  13
ATOM     13  C   UNL d   1      -1.656   2.255  -8.349  0.00  0.00     0.079 C 
ATOM     14  C   UNL d   1      -0.609   2.140  -9.491  0.00  0.00     0.014 C 
ATOM     15  C   UNL d   1      -1.771   2.232 -10.493  0.00  0.00     0.002 C 
ATOM     16  C   UNL d   1      -2.585   2.936  -9.390  0.00  0.00     0.014 C 
ENDBRANCH  10  13
ENDBRANCH   7   9
ENDBRANCH   4   7
BRANCH   1  17
ATOM     17  S   UNL d   1       1.004   0.133  -0.003  0.00  0.00     0.239 S 
ATOM     18  O   UNL d   1       0.476  -1.212   0.005  0.00  0.00    -0.206 OA
ATOM     19  O   UNL d   1       0.906   1.013   1.139  0.00  0.00    -0.206 OA
BRANCH  17  20
ATOM     20  N   UNL d   1       2.643  -0.037  -0.324  0.00  0.00    -0.225 NA
ATOM     21  H   UNL d   1       2.865  -1.024  -0.460  0.00  0.00     0.136 HD
ATOM     22  H   UNL d   1       3.182   0.401   0.424  0.00  0.00     0.136 HD
ENDBRANCH  17  20
ENDBRANCH   1  17
TORSDOF 5
