REMARK  8 active torsions:
REMARK  status: ('A' for Active; 'I' for Inactive)
REMARK    1  A    between atoms: N_5  and  C_1 
REMARK    2  A    between atoms: C_4  and  C_6 
REMARK       I    between atoms: C_7  and  N_23 
REMARK    3  A    between atoms: O_11  and  C_7 
REMARK    4  A    between atoms: C_8  and  C_14 
REMARK       I    between atoms: N_24  and  C_8 
REMARK    5  A    between atoms: C_20  and  O_11 
REMARK    6  A    between atoms: N_23  and  C_27 
REMARK    7  A    between atoms: C_31  and  N_24 
REMARK    8  A    between atoms: C_27  and  C_31 
ROOT
ATOM      1  N   UNL d   1       0.255   2.692   0.431  0.00  0.00    -0.218 N 
ATOM      2  C   UNL d   1      -0.060   3.312  -0.856  0.00  0.00     0.142 C 
ATOM      3  C   UNL d   1      -0.257   3.386   1.613  0.00  0.00     0.142 C 
ATOM      4  C   UNL d   1      -0.034   5.564   0.321  0.00  0.00     0.081 C 
ATOM      5  C   UNL d   1       0.462   4.749  -0.878  0.00  0.00     0.034 C 
ATOM      6  C   UNL d   1       0.286   4.818   1.625  0.00  0.00     0.034 C 
ENDROOT
BRANCH   4   7
ATOM      7  C   UNL d   1      -1.521   5.905   0.250  0.00  0.00     0.222 C 
ATOM      8  O   UNL d   1      -2.297   5.720   1.182  0.00  0.00    -0.273 OA
ATOM      9  N   UNL d   1      -1.922   6.508  -0.918  0.00  0.00    -0.359 N 
ATOM     10  H   UNL d   1      -1.227   6.893  -1.559  0.00  0.00     0.162 HD
BRANCH   9  11
ATOM     11  C   UNL d   1      -3.254   7.071  -1.058  0.00  0.00     0.142 C 
BRANCH  11  12
ATOM     12  C   UNL d   1      -3.379   8.447  -0.382  0.00  0.00     0.144 C 
BRANCH  12  13
ATOM     13  N   UNL d   1      -2.526   9.528  -0.864  0.00  0.00    -0.335 N 
ATOM     14  C   UNL d   1      -1.655   9.504  -1.906  0.00  0.00     0.361 C 
ATOM     15  O   UNL d   1      -1.438   8.549  -2.637  0.00  0.00    -0.238 OA
ATOM     16  H   UNL d   1      -2.594  10.424  -0.397  0.00  0.00     0.164 HD
BRANCH  14  17
ATOM     17  O   UNL d   1      -1.056  10.715  -2.010  0.00  0.00    -0.294 OA
BRANCH  17  18
ATOM     18  C   UNL d   1      -0.167  10.992  -3.126  0.00  0.00     0.061 C 
ATOM     19  C   UNL d   1      -0.925  10.862  -4.457  0.00  0.00     0.046 C 
ATOM     20  C   UNL d   1       0.287  12.449  -2.929  0.00  0.00     0.046 C 
ATOM     21  C   UNL d   1       1.077  10.091  -3.100  0.00  0.00     0.046 C 
ENDBRANCH  17  18
ENDBRANCH  14  17
ENDBRANCH  12  13
ENDBRANCH  11  12
ENDBRANCH   9  11
ENDBRANCH   4   7
BRANCH   1  22
ATOM     22  C   UNL d   1       0.103   1.307   0.452  0.00  0.00     0.680 A 
ATOM     23  N   UNL d   1       0.250   0.632  -0.699  0.00  0.00    -0.186 N 
ATOM     24  C   UNL d   1       0.173  -0.722  -0.688  0.00  0.00     0.133 A 
ATOM     25  HN  UNL d   1       0.417   1.132  -1.572  1.00  0.00     0.184 HD
ATOM     26  C   UNL d   1      -0.061  -1.425   0.475  0.00  0.00     0.052 A 
ATOM     27  C   UNL d   1      -0.204  -0.666   1.607  0.00  0.00     0.108 A 
ATOM     28  N   UNL d   1      -0.123   0.676   1.615  0.00  0.00    -0.202 N 
ATOM     29  HN  UNL d   1      -0.230   1.201   2.483  1.00  0.00     0.183 HD
BRANCH  24  30
ATOM     30  C   UNL d   1       0.359  -1.474  -1.990  0.00  0.00     0.433 C 
ATOM     31  F   UNL d   1       0.590  -0.680  -3.074  0.00  0.00    -0.165 F 
ATOM     32  F   UNL d   1       1.409  -2.347  -1.942  0.00  0.00    -0.165 F 
ATOM     33  F   UNL d   1      -0.728  -2.234  -2.313  0.00  0.00    -0.165 F 
ENDBRANCH  24  30
ENDBRANCH   1  22
TORSDOF 8
