REMARK  8 active torsions:
REMARK  status: ('A' for Active; 'I' for Inactive)
REMARK    1  A    between atoms: C_3  and  C_1 
REMARK    2  A    between atoms: C_4  and  C_2 
REMARK    3  A    between atoms: C_8  and  C_3 
REMARK    4  A    between atoms: C_9  and  C_3 
REMARK    5  A    between atoms: O_12  and  C_3 
REMARK    6  A    between atoms: C_10  and  C_4 
REMARK    7  A    between atoms: C_11  and  C_4 
REMARK    8  A    between atoms: O_13  and  C_4 
ROOT
ATOM      1  C   UNL d   1      -1.746   0.762  -0.269  0.00  0.00     0.201 C 
ATOM      2  C   UNL d   1      -1.390  -0.744  -0.174  0.00  0.00     0.201 C 
ATOM      3  O   UNL d   1      -0.587   1.469   0.271  0.00  0.00    -0.344 OA
ATOM      4  O   UNL d   1      -0.023  -0.753   0.349  0.00  0.00    -0.344 OA
ATOM      5  C   UNL d   1       0.494   0.566   0.326  0.00  0.00     0.158 C 
ATOM      6  C   UNL d   1       1.427   0.787  -0.868  0.00  0.00     0.078 C 
ATOM      7  C   UNL d   1       1.301   0.753   1.605  0.00  0.00     0.078 C 
ENDROOT
BRANCH   1   8
ATOM      8  C   UNL d   1      -2.287   1.477  -1.575  0.00  0.00     0.141 C 
BRANCH   8   9
ATOM      9  C   UNL d   1      -3.718   1.083  -2.005  0.00  0.00    -0.017 A 
ATOM     10  C   UNL d   1      -4.757   0.841  -1.083  0.00  0.00     0.011 A 
ATOM     11  C   UNL d   1      -6.049   0.506  -1.512  0.00  0.00     0.001 A 
ATOM     12  C   UNL d   1      -6.332   0.401  -2.870  0.00  0.00     0.000 A 
ATOM     13  C   UNL d   1      -5.333   0.659  -3.801  0.00  0.00     0.001 A 
ATOM     14  C   UNL d   1      -4.050   1.013  -3.369  0.00  0.00     0.011 A 
ENDBRANCH   8   9
BRANCH   8  15
ATOM     15  C   UNL d   1      -2.212   3.022  -1.350  0.00  0.00    -0.017 A 
ATOM     16  C   UNL d   1      -1.237   3.804  -2.002  0.00  0.00     0.011 A 
ATOM     17  C   UNL d   1      -1.081   5.165  -1.722  0.00  0.00     0.001 A 
ATOM     18  C   UNL d   1      -1.902   5.783  -0.786  0.00  0.00     0.000 A 
ATOM     19  C   UNL d   1      -2.888   5.043  -0.141  0.00  0.00     0.001 A 
ATOM     20  C   UNL d   1      -3.041   3.679  -0.418  0.00  0.00     0.011 A 
ENDBRANCH   8  15
BRANCH   8  21
ATOM     21  O   UNL d   1      -1.402   1.191  -2.671  0.00  0.00    -0.377 OA
ATOM     22  H   UNL d   1      -1.334   0.224  -2.779  0.00  0.00     0.211 HD
ENDBRANCH   8  21
ENDBRANCH   1   8
BRANCH   2  23
ATOM     23  C   UNL d   1      -1.368  -1.787  -1.353  0.00  0.00     0.141 C 
BRANCH  23  24
ATOM     24  C   UNL d   1      -0.776  -3.132  -0.818  0.00  0.00    -0.017 A 
ATOM     25  C   UNL d   1      -1.422  -3.833   0.224  0.00  0.00     0.011 A 
ATOM     26  C   UNL d   1      -0.910  -5.033   0.721  0.00  0.00     0.001 A 
ATOM     27  C   UNL d   1       0.267  -5.556   0.198  0.00  0.00     0.000 A 
ATOM     28  C   UNL d   1       0.923  -4.887  -0.831  0.00  0.00     0.001 A 
ATOM     29  C   UNL d   1       0.400  -3.697  -1.345  0.00  0.00     0.011 A 
ENDBRANCH  23  24
BRANCH  23  30
ATOM     30  C   UNL d   1      -2.634  -2.134  -2.132  0.00  0.00    -0.017 A 
ATOM     31  C   UNL d   1      -2.528  -2.461  -3.504  0.00  0.00     0.011 A 
ATOM     32  C   UNL d   1      -3.623  -2.911  -4.239  0.00  0.00     0.001 A 
ATOM     33  C   UNL d   1      -4.853  -3.063  -3.615  0.00  0.00     0.000 A 
ATOM     34  C   UNL d   1      -4.981  -2.770  -2.258  0.00  0.00     0.001 A 
ATOM     35  C   UNL d   1      -3.882  -2.309  -1.521  0.00  0.00     0.011 A 
ENDBRANCH  23  30
BRANCH  23  36
ATOM     36  O   UNL d   1      -0.455  -1.216  -2.312  0.00  0.00    -0.377 OA
ATOM     37  H   UNL d   1       0.406  -1.228  -1.857  0.00  0.00     0.211 HD
ENDBRANCH  23  36
ENDBRANCH   2  23
TORSDOF 8
