REMARK  6 active torsions:
REMARK  status: ('A' for Active; 'I' for Inactive)
REMARK    1  A    between atoms: N_8  and  S_1 
REMARK    2  A    between atoms: C_16  and  S_1 
REMARK    3  A    between atoms: C_9  and  C_2 
REMARK    4  A    between atoms: C_7  and  C_12 
REMARK    5  A    between atoms: N_11  and  N_8 
REMARK       I    between atoms: C_13  and  N_11 
REMARK    6  A    between atoms: C_12  and  C_13 
ROOT
ATOM      1  C   UNL d   1      -0.503  -1.736  -3.928  0.00  0.00     0.191 C 
ENDROOT
BRANCH   1   2
ATOM      2  C   UNL d   1      -0.800  -2.414  -2.653  0.00  0.00     0.157 A 
ATOM      3  N   UNL d   1      -0.399  -2.166  -1.429  0.00  0.00    -0.321 N 
ATOM      4  C   UNL d   1      -0.831  -3.285  -0.734  0.00  0.00     0.156 A 
ATOM      5  HN  UNL d   1       0.105  -1.352  -1.077  1.00  0.00     0.169 HD
ATOM      6  N   UNL d   1      -1.555  -4.135  -1.483  0.00  0.00    -0.241 N 
ATOM      7  O   UNL d   1      -1.529  -3.567  -2.753  0.00  0.00    -0.222 OA
ATOM      8  HN  UNL d   1      -2.016  -4.996  -1.190  1.00  0.00     0.196 HD
BRANCH   4   9
ATOM      9  C   UNL d   1      -0.388  -3.569   0.627  0.00  0.00     0.094 A 
ATOM     10  N   UNL d   1       0.463  -2.671   1.196  0.00  0.00    -0.360 N 
ATOM     11  C   UNL d   1       0.968  -3.016   2.402  0.00  0.00     0.105 A 
ATOM     12  HN  UNL d   1       0.704  -1.791   0.740  1.00  0.00     0.165 HD
ATOM     13  C   UNL d   1       0.649  -4.209   3.027  0.00  0.00     0.104 A 
ATOM     14  N   UNL d   1      -0.200  -5.107   2.479  0.00  0.00    -0.372 N 
ATOM     15  C   UNL d   1      -0.709  -4.762   1.267  0.00  0.00     0.121 A 
ATOM     16  HN  UNL d   1      -0.442  -5.982   2.943  1.00  0.00     0.164 HD
ENDBRANCH   4   9
ENDBRANCH   1   2
BRANCH   1  17
ATOM     17  C   UNL d   1       0.424  -0.538  -3.850  0.00  0.00     0.244 C 
ATOM     18  N   UNL d   1       0.910  -0.133  -2.620  0.00  0.00    -0.260 N 
ATOM     19  H   UNL d   1       0.690  -0.600  -1.741  0.00  0.00     0.190 HD
ATOM     20  O   UNL d   1       0.765   0.036  -4.888  0.00  0.00    -0.271 OA
BRANCH  18  21
ATOM     21  N   UNL d   1       1.863   0.977  -2.612  0.00  0.00    -0.220 N 
ATOM     22  H   UNL d   1       2.097   1.432  -3.497  0.00  0.00     0.200 HD
BRANCH  21  23
ATOM     23  S   UNL d   1       2.927   1.239  -1.344  0.00  0.00     0.276 S 
ATOM     24  O   UNL d   1       2.166   1.264  -0.110  0.00  0.00    -0.199 OA
ATOM     25  O   UNL d   1       3.813   2.329  -1.715  0.00  0.00    -0.199 OA
BRANCH  23  26
ATOM     26  C   UNL d   1       3.882  -0.266  -1.346  0.00  0.00     0.081 A 
ATOM     27  C   UNL d   1       5.015  -0.341  -2.157  0.00  0.00     0.025 A 
ATOM     28  C   UNL d   1       5.819  -1.475  -2.110  0.00  0.00     0.002 A 
ATOM     29  C   UNL d   1       5.495  -2.528  -1.252  0.00  0.00     0.000 A 
ATOM     30  C   UNL d   1       4.356  -2.453  -0.450  0.00  0.00     0.002 A 
ATOM     31  C   UNL d   1       3.542  -1.322  -0.488  0.00  0.00     0.025 A 
ENDBRANCH  23  26
ENDBRANCH  21  23
ENDBRANCH  18  21
ENDBRANCH   1  17
TORSDOF 6
