REMARK  2 active torsions:
REMARK  status: ('A' for Active; 'I' for Inactive)
REMARK    1  A    between atoms: N_9  and  C_7 
REMARK    2  A    between atoms: C_10  and  N_9 
ROOT
ATOM      1  N   UNL d   1      -2.450   0.889  -1.546  0.00  0.00    -0.284 NA
ATOM      2  H   UNL d   1      -3.228   0.432  -1.076  0.00  0.00     0.128 HD
ENDROOT
BRANCH   1   3
ATOM      3  C   UNL d   1      -1.161   0.698  -0.883  0.00  0.00     0.098 A 
ATOM      4  C   UNL d   1      -0.050   0.407  -1.892  0.00  0.00     0.168 A 
ATOM      5  S   UNL d   1       0.606  -1.194  -1.475  0.00  0.00     0.167 S 
ATOM      6  C   UNL d   1      -0.462  -1.502  -0.156  0.00  0.00     0.106 A 
ATOM      7  O   UNL d   1       1.949  -1.020  -0.957  0.00  0.00    -0.223 OA
ATOM      8  O   UNL d   1       0.321  -2.122  -2.548  0.00  0.00    -0.223 OA
ATOM      9  C   UNL d   1      -1.299  -0.480   0.040  0.00  0.00     0.005 A 
ENDBRANCH   1   3
BRANCH   1  10
ATOM     10  C   UNL d   1      -2.813   2.175  -1.976  0.00  0.00     0.009 A 
ATOM     11  C   UNL d   1      -1.888   3.149  -2.367  0.00  0.00     0.030 A 
ATOM     12  C   UNL d   1      -2.287   4.417  -2.829  0.00  0.00    -0.054 A 
ATOM     13  C   UNL d   1      -1.232   5.420  -3.210  0.00  0.00     0.049 C 
ATOM     14  C   UNL d   1      -3.656   4.715  -2.933  0.00  0.00    -0.056 A 
ATOM     15  C   UNL d   1      -4.588   3.726  -2.595  0.00  0.00     0.009 A 
ATOM     16  C   UNL d   1      -4.135   6.056  -3.410  0.00  0.00     0.049 C 
ATOM     17  C   UNL d   1      -4.170   2.472  -2.141  0.00  0.00     0.024 A 
ENDBRANCH   1  10
TORSDOF 2
