REMARK  2 active torsions:
REMARK  status: ('A' for Active; 'I' for Inactive)
REMARK    1  A    between atoms: C_8  and  C_2 
REMARK    2  A    between atoms: C_9  and  C_4 
ROOT
ATOM      1  C   UNL d   1      -0.415   0.115   0.017  0.00  0.00     0.082 A 
ATOM      2  C   UNL d   1       0.427  -0.982  -0.005  0.00  0.00     0.107 A 
ATOM      3  O   UNL d   1       1.729  -0.541  -0.012  0.00  0.00    -0.307 OA
ATOM      4  C   UNL d   1       1.712   0.829   0.019  0.00  0.00     0.088 A 
ATOM      5  C   UNL d   1       0.403   1.267   0.028  0.00  0.00     0.063 A 
ATOM      6  C   UNL d   1      -1.839   0.102   0.013  0.00  0.00     0.102 C 
ATOM      7  N   UNL d   1      -2.997   0.103   0.027  0.00  0.00    -0.191 NA
ENDROOT
BRANCH   2   8
ATOM      8  C   UNL d   1       0.227  -2.433  -0.035  0.00  0.00    -0.001 A 
ATOM      9  C   UNL d   1       1.175  -3.281  -0.627  0.00  0.00     0.014 A 
ATOM     10  C   UNL d   1       0.942  -4.657  -0.731  0.00  0.00     0.001 A 
ATOM     11  C   UNL d   1      -0.239  -5.207  -0.237  0.00  0.00     0.000 A 
ATOM     12  C   UNL d   1      -1.177  -4.386   0.379  0.00  0.00     0.001 A 
ATOM     13  C   UNL d   1      -0.942  -3.013   0.485  0.00  0.00     0.014 A 
ENDBRANCH   2   8
BRANCH   4  14
ATOM     14  C   UNL d   1       2.995   1.528   0.060  0.00  0.00    -0.002 A 
ATOM     15  C   UNL d   1       3.029   2.933   0.010  0.00  0.00     0.014 A 
ATOM     16  C   UNL d   1       4.233   3.633   0.122  0.00  0.00     0.001 A 
ATOM     17  C   UNL d   1       5.427   2.938   0.278  0.00  0.00     0.000 A 
ATOM     18  C   UNL d   1       5.417   1.545   0.303  0.00  0.00     0.001 A 
ATOM     19  C   UNL d   1       4.211   0.844   0.192  0.00  0.00     0.014 A 
ENDBRANCH   4  14
TORSDOF 2
