REMARK  6 active torsions:
REMARK  status: ('A' for Active; 'I' for Inactive)
REMARK    1  A    between atoms: C_10  and  C_1 
REMARK    2  A    between atoms: C_6  and  C_3 
REMARK    3  A    between atoms: C_4  and  O_17 
REMARK       I    between atoms: N_9  and  C_4 
REMARK    4  A    between atoms: C_19  and  C_7 
REMARK    5  A    between atoms: C_13  and  N_9 
REMARK    6  A    between atoms: O_17  and  C_19 
ROOT
ATOM      1  C   UNL d   1       2.291   1.482   0.267  0.00  0.00    -0.057 C 
ATOM      2  C   UNL d   1       3.283   2.160   0.285  0.00  0.00    -0.074 C 
ENDROOT
BRANCH   2   3
ATOM      3  C   UNL d   1       4.500   2.974   0.183  0.00  0.00     0.274 C 
BRANCH   3   4
ATOM      4  O   UNL d   1       5.239   2.952   1.411  0.00  0.00    -0.292 OA
BRANCH   4   5
ATOM      5  C   UNL d   1       6.551   2.637   1.307  0.00  0.00     0.366 C 
ATOM      6  N   UNL d   1       7.313   2.832   2.431  0.00  0.00    -0.303 N 
ATOM      7  H   UNL d   1       8.276   2.581   2.253  0.00  0.00     0.171 HD
ATOM      8  O   UNL d   1       7.092   2.232   0.282  0.00  0.00    -0.238 OA
BRANCH   6   9
ATOM      9  C   UNL d   1       7.036   3.441   3.670  0.00  0.00     0.038 A 
ATOM     10  C   UNL d   1       5.782   3.896   4.074  0.00  0.00     0.053 A 
ATOM     11  C   UNL d   1       5.643   4.582   5.284  0.00  0.00     0.036 A 
ATOM     12 CL   UNL d   1       4.097   5.185   5.748  0.00  0.00    -0.084 Cl
ATOM     13  C   UNL d   1       6.740   4.804   6.113  0.00  0.00     0.024 A 
ATOM     14  C   UNL d   1       7.988   4.315   5.739  0.00  0.00     0.004 A 
ATOM     15  C   UNL d   1       8.132   3.635   4.527  0.00  0.00     0.029 A 
ENDBRANCH   6   9
ENDBRANCH   4   5
ENDBRANCH   3   4
ENDBRANCH   2   3
BRANCH   1  16
ATOM     16  C   UNL d   1       1.145   0.640   0.179  0.00  0.00     0.059 A 
ATOM     17  S   UNL d   1       1.260  -1.060   0.145  0.00  0.00    -0.079 SA
ATOM     18  C   UNL d   1      -0.446  -1.262   0.090  0.00  0.00     0.033 A 
ATOM     19  C   UNL d   1      -1.076  -0.031   0.012  0.00  0.00     0.023 A 
ATOM     20  C   UNL d   1      -0.161   1.065   0.086  0.00  0.00     0.029 A 
BRANCH  18  21
ATOM     21  C   UNL d   1      -1.046  -2.603   0.115  0.00  0.00     0.049 A 
ATOM     22  N   UNL d   1      -2.244  -2.705  -0.513  0.00  0.00    -0.365 N 
ATOM     23  C   UNL d   1      -2.850  -3.913  -0.496  0.00  0.00     0.088 A 
ATOM     24  HN  UNL d   1      -2.669  -1.903  -0.978  1.00  0.00     0.165 HD
ATOM     25  C   UNL d   1      -2.332  -5.033   0.137  0.00  0.00     0.017 A 
ATOM     26  C   UNL d   1      -1.113  -4.908   0.786  0.00  0.00     0.004 A 
ATOM     27  C   UNL d   1      -0.458  -3.681   0.776  0.00  0.00     0.031 A 
ENDBRANCH  18  21
ENDBRANCH   1  16
TORSDOF 6
