REMARK  5 active torsions:
REMARK  status: ('A' for Active; 'I' for Inactive)
REMARK    1  A    between atoms: C_3  and  C_1 
REMARK       I    between atoms: N_4  and  C_1 
REMARK    2  A    between atoms: N_2  and  C_5 
REMARK    3  A    between atoms: C_11  and  N_4 
REMARK    4  A    between atoms: O_13  and  C_10 
REMARK    5  A    between atoms: O_14  and  C_12 
ROOT
ATOM      1  C   UNL d   1       1.066   0.187  -0.236  0.00  0.00     0.261 C 
ATOM      2  N   UNL d   1       0.340   0.238  -1.420  0.00  0.00    -0.323 N 
ATOM      3  O   UNL d   1       2.266  -0.055  -0.148  0.00  0.00    -0.267 OA
ATOM      4  H   UNL d   1      -0.613   0.591  -1.359  0.00  0.00     0.169 HD
ENDROOT
BRANCH   1   5
ATOM      5  C   UNL d   1       0.291   0.358   1.021  0.00  0.00     0.098 A 
ATOM      6  C   UNL d   1      -0.937  -0.298   1.196  0.00  0.00     0.084 A 
ATOM      7  C   UNL d   1      -1.583  -0.272   2.430  0.00  0.00     0.038 A 
ATOM      8  C   UNL d   1      -0.995   0.384   3.509  0.00  0.00     0.005 A 
ATOM      9  C   UNL d   1       0.217   1.057   3.344  0.00  0.00     0.038 A 
ATOM     10  C   UNL d   1       0.865   1.058   2.103  0.00  0.00     0.086 A 
BRANCH   6  11
ATOM     11  O   UNL d   1      -1.561  -1.020   0.213  0.00  0.00    -0.360 OA
ATOM     12  H   UNL d   1      -0.888  -1.350  -0.412  0.00  0.00     0.217 HD
ENDBRANCH   6  11
BRANCH  10  13
ATOM     13  O   UNL d   1       2.008   1.777   1.862  0.00  0.00    -0.355 OA
ATOM     14  C   UNL d   1       2.858   2.031   2.975  0.00  0.00     0.210 C 
ENDBRANCH  10  13
ENDBRANCH   1   5
BRANCH   2  15
ATOM     15  C   UNL d   1       0.850  -0.015  -2.717  0.00  0.00     0.037 A 
ATOM     16  C   UNL d   1       2.138  -0.505  -2.954  0.00  0.00     0.065 A 
ATOM     17  C   UNL d   1       2.605  -0.666  -4.266  0.00  0.00     0.105 A 
ATOM     18  C   UNL d   1       1.782  -0.369  -5.357  0.00  0.00     0.036 A 
ATOM     19  C   UNL d   1       0.480   0.071  -5.125  0.00  0.00     0.005 A 
ATOM     20  C   UNL d   1       0.017   0.243  -3.813  0.00  0.00     0.029 A 
BRANCH  17  21
ATOM     21  N   UNL d   1       3.976  -1.141  -4.493  0.00  0.00    -0.116 N 
ATOM     22  O   UNL d   1       4.616  -1.568  -3.523  0.00  0.00    -0.532 OA
ATOM     23  O   UNL d   1       4.410  -1.097  -5.655  0.00  0.00    -0.532 OA
ENDBRANCH  17  21
ENDBRANCH   2  15
TORSDOF 5
