REMARK  5 active torsions:
REMARK  status: ('A' for Active; 'I' for Inactive)
REMARK    1  A    between atoms: C_10  and  N_1 
REMARK    2  A    between atoms: C_3  and  C_8 
REMARK       I    between atoms: C_7  and  N_12 
REMARK       I    between atoms: N_14  and  C_7 
REMARK    3  A    between atoms: C_9  and  C_10 
REMARK       I    between atoms: N_15  and  C_9 
REMARK    4  A    between atoms: N_12  and  N_15 
REMARK    5  A    between atoms: C_24  and  N_14 
ROOT
ATOM      1  C   UNL d   1       2.523   2.618  -0.911  0.00  0.00     0.254 C 
ATOM      2  N   UNL d   1       3.020   3.632  -0.107  0.00  0.00    -0.265 N 
ATOM      3  O   UNL d   1       3.211   2.014  -1.731  0.00  0.00    -0.270 OA
ATOM      4  H   UNL d   1       2.484   3.866   0.730  0.00  0.00     0.190 HD
ENDROOT
BRANCH   1   5
ATOM      5  C   UNL d   1       1.022   2.355  -0.764  0.00  0.00     0.236 C 
BRANCH   5   6
ATOM      6  N   UNL d   1       0.694   1.067  -0.149  0.00  0.00    -0.307 N 
ATOM      7  C   UNL d   1       0.984  -0.177  -0.818  0.00  0.00     0.055 A 
ATOM      8  C   UNL d   1       1.396  -0.196  -2.163  0.00  0.00     0.047 A 
ATOM      9  C   UNL d   1       0.964  -1.407  -0.128  0.00  0.00     0.028 A 
ATOM     10  C   UNL d   1       1.873  -1.363  -2.786  0.00  0.00     0.050 A 
ATOM     11  C   UNL d   1       1.868  -2.560  -2.068  0.00  0.00     0.017 A 
ATOM     12  C   UNL d   1       1.401  -2.584  -0.756  0.00  0.00     0.021 A 
ATOM     13  S   UNL d   1       0.463  -1.566   1.577  0.00  0.00    -0.118 SA
ATOM     14  C   UNL d   1      -0.525  -0.074   1.671  0.00  0.00     0.182 C 
ATOM     15  C   UNL d   1       0.257   1.119   1.176  0.00  0.00     0.234 C 
ATOM     16  O   UNL d   1       0.380   2.136   1.866  0.00  0.00    -0.272 OA
BRANCH  10  17
ATOM     17  C   UNL d   1       2.429  -1.325  -4.191  0.00  0.00     0.417 C 
ATOM     18  F   UNL d   1       2.342  -0.101  -4.782  0.00  0.00    -0.166 F 
ATOM     19  F   UNL d   1       3.742  -1.679  -4.243  0.00  0.00    -0.166 F 
ATOM     20  F   UNL d   1       1.777  -2.183  -5.023  0.00  0.00    -0.166 F 
ENDBRANCH  10  17
ENDBRANCH   5   6
ENDBRANCH   1   5
BRANCH   2  21
ATOM     21  N   UNL d   1       4.418   3.795   0.038  0.00  0.00    -0.249 N 
ATOM     22  C   UNL d   1       5.336   4.113  -0.944  0.00  0.00     0.339 C 
ATOM     23  N   UNL d   1       4.846   4.175  -2.219  0.00  0.00    -0.308 N 
ATOM     24  O   UNL d   1       6.502   4.297  -0.601  0.00  0.00    -0.245 OA
ATOM     25  H   UNL d   1       3.860   3.985  -2.290  0.00  0.00     0.170 HD
ATOM     26  H   UNL d   1       4.819   3.665   0.963  0.00  0.00     0.192 HD
BRANCH  23  27
ATOM     27  C   UNL d   1       5.578   4.092  -3.422  0.00  0.00     0.036 A 
ATOM     28  C   UNL d   1       6.971   4.040  -3.482  0.00  0.00     0.031 A 
ATOM     29  C   UNL d   1       7.621   3.821  -4.703  0.00  0.00     0.026 A 
ATOM     30  C   UNL d   1       6.879   3.667  -5.870  0.00  0.00     0.034 A 
ATOM     31  C   UNL d   1       5.490   3.753  -5.835  0.00  0.00     0.026 A 
ATOM     32 CL   UNL d   1       7.679   3.347  -7.361  0.00  0.00    -0.084 Cl
ATOM     33  C   UNL d   1       4.839   3.964  -4.614  0.00  0.00     0.031 A 
ENDBRANCH  23  27
ENDBRANCH   2  21
TORSDOF 5
