REMARK  5 active torsions:
REMARK  status: ('A' for Active; 'I' for Inactive)
REMARK    1  A    between atoms: C_8  and  N_1 
REMARK    2  A    between atoms: N_2  and  C_7 
REMARK    3  A    between atoms: N_3  and  N_5 
REMARK    4  A    between atoms: C_13  and  C_11 
REMARK    5  A    between atoms: C_12  and  C_14 
ROOT
ATOM      1  N   UNL d   1      -1.833   5.155   2.185  0.00  0.00    -0.304 N 
ATOM      2  HN  UNL d   1      -0.954   5.426   1.744  1.00  0.00     0.186 HD
ATOM      3  C   UNL d   1      -2.662   6.028   2.682  0.00  0.00     0.032 C 
ATOM      4  C   UNL d   1      -3.975   5.664   3.352  0.00  0.00     0.070 C 
ENDROOT
BRANCH   1   5
ATOM      5  N   UNL d   1      -2.230   3.836   2.297  0.00  0.00    -0.304 N 
ATOM      6  C   UNL d   1      -1.411   2.972   1.768  0.00  0.00     0.032 C 
ATOM      7  C   UNL d   1      -0.110   3.350   1.080  0.00  0.00     0.070 C 
ATOM      8  HN  UNL d   1      -3.096   3.560   2.759  1.00  0.00     0.186 HD
BRANCH   6   9
ATOM      9  C   UNL d   1      -1.775   1.512   1.828  0.00  0.00    -0.010 A 
ATOM     10  C   UNL d   1      -0.950   0.522   1.279  0.00  0.00     0.049 A 
ATOM     11  C   UNL d   1      -1.348  -0.824   1.333  0.00  0.00     0.103 A 
ATOM     12  C   UNL d   1      -2.555  -1.194   1.938  0.00  0.00     0.036 A 
ATOM     13  C   UNL d   1      -3.371  -0.210   2.491  0.00  0.00     0.003 A 
ATOM     14  C   UNL d   1      -2.984   1.133   2.435  0.00  0.00     0.013 A 
BRANCH  11  15
ATOM     15  N   UNL d   1      -0.492  -1.857   0.735  0.00  0.00    -0.116 N 
ATOM     16  O   UNL d   1       0.560  -1.488   0.193  0.00  0.00    -0.532 OA
ATOM     17  O   UNL d   1      -0.872  -3.034   0.804  0.00  0.00    -0.532 OA
ENDBRANCH  11  15
ENDBRANCH   6   9
ENDBRANCH   1   5
BRANCH   3  18
ATOM     18  C   UNL d   1      -2.297   7.485   2.594  0.00  0.00    -0.010 A 
ATOM     19  C   UNL d   1      -1.113   7.854   1.937  0.00  0.00     0.049 A 
ATOM     20  C   UNL d   1      -0.755   9.207   1.852  0.00  0.00     0.103 A 
ATOM     21  C   UNL d   1      -1.567  10.199   2.415  0.00  0.00     0.036 A 
ATOM     22  C   UNL d   1      -2.744   9.832   3.065  0.00  0.00     0.003 A 
ATOM     23  C   UNL d   1      -3.107   8.484   3.154  0.00  0.00     0.013 A 
BRANCH  20  24
ATOM     24  N   UNL d   1       0.487   9.592   1.167  0.00  0.00    -0.116 N 
ATOM     25  O   UNL d   1       1.180   8.690   0.676  0.00  0.00    -0.532 OA
ATOM     26  O   UNL d   1       0.767  10.798   1.119  0.00  0.00    -0.532 OA
ENDBRANCH  20  24
ENDBRANCH   3  18
TORSDOF 5
