REMARK  2 active torsions:
REMARK  status: ('A' for Active; 'I' for Inactive)
REMARK    1  A    between atoms: C_6  and  C_1 
REMARK    2  A    between atoms: O_7  and  C_1 
ROOT
ATOM      1  C   UNL d   1      -0.017  -1.590  -0.337  0.00  0.00     0.141 A 
ATOM      2  C   UNL d   1      -1.199  -0.629  -0.192  0.00  0.00    -0.004 A 
ATOM      3  C   UNL d   1       1.172  -0.628  -0.204  0.00  0.00    -0.004 A 
ATOM      4  C   UNL d   1      -0.736   0.690   0.014  0.00  0.00    -0.015 A 
ATOM      5  C   UNL d   1       0.710   0.690   0.009  0.00  0.00    -0.015 A 
ATOM      6  C   UNL d   1      -2.558  -0.914  -0.226  0.00  0.00     0.012 A 
ATOM      7  C   UNL d   1       2.530  -0.913  -0.241  0.00  0.00     0.012 A 
ATOM      8  C   UNL d   1      -1.631   1.734   0.187  0.00  0.00     0.013 A 
ATOM      9  C   UNL d   1       1.604   1.735   0.179  0.00  0.00     0.013 A 
ATOM     10  C   UNL d   1      -3.458   0.140  -0.059  0.00  0.00     0.001 A 
ATOM     11  C   UNL d   1       3.431   0.142  -0.072  0.00  0.00     0.001 A 
ATOM     12  C   UNL d   1      -2.999   1.451   0.147  0.00  0.00     0.001 A 
ATOM     13  C   UNL d   1       2.973   1.454   0.136  0.00  0.00     0.001 A 
ENDROOT
BRANCH   1  14
ATOM     14  C   UNL d   1      -0.030  -2.393  -1.636  0.00  0.00    -0.015 A 
ATOM     15  C   UNL d   1      -0.031  -1.744  -2.886  0.00  0.00     0.011 A 
ATOM     16  C   UNL d   1      -0.025  -2.473  -4.078  0.00  0.00     0.001 A 
ATOM     17  C   UNL d   1      -0.024  -3.865  -4.046  0.00  0.00     0.000 A 
ATOM     18  C   UNL d   1      -0.040  -4.529  -2.823  0.00  0.00     0.001 A 
ATOM     19  C   UNL d   1      -0.043  -3.800  -1.629  0.00  0.00     0.011 A 
ENDBRANCH   1  14
BRANCH   1  20
ATOM     20  O   UNL d   1      -0.034  -2.447   0.808  0.00  0.00    -0.376 OA
ATOM     21  H   UNL d   1       0.272  -1.904   1.554  0.00  0.00     0.211 HD
ENDBRANCH   1  20
TORSDOF 2
