REMARK  7 active torsions:
REMARK  status: ('A' for Active; 'I' for Inactive)
REMARK    1  A    between atoms: C_7  and  C_3 
REMARK    2  A    between atoms: C_13  and  N_4 
REMARK    3  A    between atoms: O_14  and  C_7 
REMARK    4  A    between atoms: C_8  and  C_12 
REMARK    5  A    between atoms: N_9  and  O_14 
REMARK    6  A    between atoms: C_15  and  C_11 
REMARK    7  A    between atoms: N_21  and  C_11 
ROOT
ATOM      1  N   UNL d   1       3.200  -1.524   0.034  0.00  0.00    -0.246 N 
ATOM      2  HN  UNL d   1       3.428  -0.530   0.022  1.00  0.00     0.196 HD
ATOM      3  C   UNL d   1       4.097  -2.462   0.017  0.00  0.00     0.109 C 
ENDROOT
BRANCH   1   4
ATOM      4  O   UNL d   1       1.864  -2.019   0.070  0.00  0.00    -0.192 OA
BRANCH   4   5
ATOM      5  C   UNL d   1       0.999  -0.938   0.029  0.00  0.00     0.333 C 
ATOM      6  O   UNL d   1       1.359   0.242   0.011  0.00  0.00    -0.256 OA
BRANCH   5   7
ATOM      7  C   UNL d   1      -0.437  -1.283   0.016  0.00  0.00     0.127 A 
ATOM      8  N   UNL d   1      -0.966  -2.520   0.030  0.00  0.00    -0.292 N 
ATOM      9  N   UNL d   1      -2.323  -2.337   0.001  0.00  0.00    -0.287 N 
ATOM     10  HN  UNL d   1      -0.463  -3.407   0.057  1.00  0.00     0.187 HD
ATOM     11  C   UNL d   1      -2.664  -0.998  -0.019  0.00  0.00     0.028 A 
ATOM     12  C   UNL d   1      -4.021  -0.395  -0.040  0.00  0.00     0.070 C 
ATOM     13  C   UNL d   1      -1.469  -0.315  -0.012  0.00  0.00     0.063 A 
BRANCH   9  14
ATOM     14  C   UNL d   1      -3.216  -3.523  -0.005  0.00  0.00     0.043 C 
ATOM     15  C   UNL d   1      -2.408  -4.846   0.036  0.00  0.00     0.039 C 
ATOM     16  C   UNL d   1      -4.130  -3.529   1.239  0.00  0.00     0.039 C 
ATOM     17  C   UNL d   1      -4.064  -3.569  -1.294  0.00  0.00     0.039 C 
ENDBRANCH   9  14
ENDBRANCH   5   7
ENDBRANCH   4   5
ENDBRANCH   1   4
BRANCH   3  18
ATOM     18  C   UNL d   1       5.536  -2.031  -0.068  0.00  0.00     0.004 A 
ATOM     19  C   UNL d   1       5.931  -0.788   0.450  0.00  0.00     0.030 A 
ATOM     20  C   UNL d   1       7.266  -0.357   0.345  0.00  0.00     0.048 A 
ATOM     21  C   UNL d   1       8.200  -1.190  -0.290  0.00  0.00     0.016 A 
ATOM     22  C   UNL d   1       7.812  -2.426  -0.809  0.00  0.00     0.002 A 
ATOM     23  C   UNL d   1       6.484  -2.848  -0.696  0.00  0.00     0.015 A 
BRANCH  20  24
ATOM     24  C   UNL d   1       7.705   0.981   0.890  0.00  0.00     0.417 C 
ATOM     25  F   UNL d   1       6.709   1.690   1.486  0.00  0.00    -0.166 F 
ATOM     26  F   UNL d   1       8.687   0.859   1.828  0.00  0.00    -0.166 F 
ATOM     27  F   UNL d   1       8.218   1.794  -0.077  0.00  0.00    -0.166 F 
ENDBRANCH  20  24
ENDBRANCH   3  18
BRANCH   3  28
ATOM     28  N   UNL d   1       3.811  -3.804   0.076  0.00  0.00    -0.286 NA
ATOM     29  H   UNL d   1       2.854  -3.981   0.370  0.00  0.00     0.125 HD
ATOM     30  H   UNL d   1       4.480  -4.371   0.584  0.00  0.00     0.125 HD
ENDBRANCH   3  28
TORSDOF 7
