REMARK  10 active torsions:
REMARK  status: ('A' for Active; 'I' for Inactive)
REMARK    1  A    between atoms: C_2  and  S_1 
REMARK    2  A    between atoms: N_6  and  S_1 
REMARK    3  A    between atoms: O_10  and  C_3 
REMARK    4  A    between atoms: C_5  and  C_15 
REMARK    5  A    between atoms: C_17  and  N_6 
REMARK    6  A    between atoms: C_7  and  C_20 
REMARK    7  A    between atoms: C_8  and  C_22 
REMARK    8  A    between atoms: C_20  and  O_10 
REMARK    9  A    between atoms: O_18  and  C_16 
REMARK   10  A    between atoms: C_22  and  O_18 
ROOT
ATOM      1  C   UNL d   1       0.063  -0.455   1.641  0.00  0.00     0.109 C 
ATOM      2  C   UNL d   1      -0.541   0.440   2.542  0.00  0.00     0.115 C 
ATOM      3  C   UNL d   1      -0.654   0.037   3.901  0.00  0.00     0.112 C 
ATOM      4  C   UNL d   1      -0.781   1.021   4.935  0.00  0.00     0.105 C 
ATOM      5  N   UNL d   1      -0.933   1.807   5.781  0.00  0.00    -0.191 NA
ATOM      6  C   UNL d   1       0.340  -1.774   2.038  0.00  0.00     0.030 C 
ATOM      7  C   UNL d   1      -0.480  -1.312   4.266  0.00  0.00     0.092 C 
ATOM      8  C   UNL d   1       0.018  -2.208   3.321  0.00  0.00     0.040 C 
ENDROOT
BRANCH   2   9
ATOM      9  O   UNL d   1      -1.012   1.638   2.043  0.00  0.00    -0.339 OA
BRANCH   9  10
ATOM     10  C   UNL d   1      -2.156   2.219   2.717  0.00  0.00     0.293 C 
BRANCH  10  11
ATOM     11  C   UNL d   1      -3.090   3.057   1.846  0.00  0.00     0.408 C 
ATOM     12  F   UNL d   1      -2.744   3.070   0.546  0.00  0.00    -0.169 F 
ATOM     13  F   UNL d   1      -4.355   2.570   1.925  0.00  0.00    -0.169 F 
ATOM     14  F   UNL d   1      -3.137   4.337   2.283  0.00  0.00    -0.169 F 
ENDBRANCH  10  11
ENDBRANCH   9  10
ENDBRANCH   2   9
BRANCH   7  15
ATOM     15  O   UNL d   1      -0.683  -1.880   5.498  0.00  0.00    -0.341 OA
BRANCH  15  16
ATOM     16  C   UNL d   1      -1.740  -1.358   6.325  0.00  0.00     0.293 C 
BRANCH  16  17
ATOM     17  C   UNL d   1      -2.419  -2.434   7.171  0.00  0.00     0.408 C 
ATOM     18  F   UNL d   1      -1.884  -3.659   6.993  0.00  0.00    -0.169 F 
ATOM     19  F   UNL d   1      -2.335  -2.137   8.489  0.00  0.00    -0.169 F 
ATOM     20  F   UNL d   1      -3.736  -2.517   6.863  0.00  0.00    -0.169 F 
ENDBRANCH  16  17
ENDBRANCH  15  16
ENDBRANCH   7  15
BRANCH   1  21
ATOM     21  S   UNL d   1       0.793   0.069   0.093  0.00  0.00     0.248 S 
ATOM     22  O   UNL d   1       1.834  -0.883  -0.249  0.00  0.00    -0.205 OA
ATOM     23  O   UNL d   1       1.123   1.474   0.192  0.00  0.00    -0.205 OA
BRANCH  21  24
ATOM     24  N   UNL d   1      -0.437  -0.064  -1.064  0.00  0.00    -0.181 NA
ATOM     25  H   UNL d   1      -0.200   0.535  -1.858  0.00  0.00     0.146 HD
BRANCH  24  26
ATOM     26  C   UNL d   1      -0.885  -1.373  -1.396  0.00  0.00     0.023 A 
ATOM     27  C   UNL d   1      -2.083  -1.805  -0.834  0.00  0.00     0.040 A 
ATOM     28  C   UNL d   1      -2.544  -3.108  -1.061  0.00  0.00     0.049 A 
ATOM     29  C   UNL d   1      -1.770  -3.975  -1.849  0.00  0.00     0.016 A 
ATOM     30  C   UNL d   1      -0.583  -3.530  -2.433  0.00  0.00     0.003 A 
ATOM     31  C   UNL d   1      -0.143  -2.223  -2.215  0.00  0.00     0.024 A 
BRANCH  28  32
ATOM     32  C   UNL d   1      -3.852  -3.576  -0.475  0.00  0.00     0.417 C 
ATOM     33  F   UNL d   1      -4.508  -2.607   0.222  0.00  0.00    -0.166 F 
ATOM     34  F   UNL d   1      -4.723  -4.009  -1.426  0.00  0.00    -0.166 F 
ATOM     35  F   UNL d   1      -3.690  -4.612   0.392  0.00  0.00    -0.166 F 
ENDBRANCH  28  32
ENDBRANCH  24  26
ENDBRANCH  21  24
ENDBRANCH   1  21
TORSDOF 10
