REMARK  3 active torsions:
REMARK  status: ('A' for Active; 'I' for Inactive)
REMARK       I    between atoms: N_2  and  C_1 
REMARK    1  A    between atoms: C_4  and  C_1 
REMARK    2  A    between atoms: C_6  and  N_2 
REMARK    3  A    between atoms: C_3  and  C_6 
ROOT
ATOM      1  C   UNL d   1       1.020   0.433  -0.204  0.00  0.00     0.252 C 
ATOM      2  N   UNL d   1       0.443  -0.499  -1.034  0.00  0.00    -0.349 N 
ATOM      3  O   UNL d   1       2.137   0.904  -0.377  0.00  0.00    -0.268 OA
ATOM      4  H   UNL d   1      -0.489  -0.836  -0.853  0.00  0.00     0.163 HD
ENDROOT
BRANCH   2   5
ATOM      5  C   UNL d   1       1.139  -1.054  -2.189  0.00  0.00     0.114 C 
ATOM      6  C   UNL d   1       0.157  -1.189  -3.357  0.00  0.00     0.037 C 
BRANCH   5   7
ATOM      7  C   UNL d   1       1.787  -2.389  -1.842  0.00  0.00    -0.030 A 
ATOM      8  C   UNL d   1       3.176  -2.628  -1.947  0.00  0.00    -0.053 A 
ATOM      9  C   UNL d   1       3.676  -3.919  -1.682  0.00  0.00     0.014 A 
ATOM     10  C   UNL d   1       4.182  -1.597  -2.389  0.00  0.00     0.049 C 
ATOM     11  C   UNL d   1       2.842  -4.967  -1.277  0.00  0.00    -0.061 A 
ATOM     12  C   UNL d   1       1.480  -4.716  -1.127  0.00  0.00     0.007 A 
ATOM     13  C   UNL d   1       3.417  -6.324  -1.009  0.00  0.00     0.048 C 
ATOM     14  C   UNL d   1       0.962  -3.450  -1.409  0.00  0.00     0.010 A 
ENDBRANCH   5   7
ENDBRANCH   2   5
BRANCH   1  15
ATOM     15  C   UNL d   1       0.178   0.928   0.921  0.00  0.00     0.033 A 
ATOM     16  C   UNL d   1       0.406   2.233   1.384  0.00  0.00     0.042 A 
ATOM     17  C   UNL d   1      -0.376   2.767   2.411  0.00  0.00     0.056 A 
ATOM     18 CL   UNL d   1      -0.051   4.388   2.910  0.00  0.00    -0.083 Cl
ATOM     19  C   UNL d   1      -1.388   1.993   2.991  0.00  0.00     0.055 A 
ATOM     20  C   UNL d   1      -1.602   0.684   2.548  0.00  0.00     0.026 A 
ATOM     21 CL   UNL d   1      -2.404   2.590   4.254  0.00  0.00    -0.083 Cl
ATOM     22  C   UNL d   1      -0.819   0.149   1.520  0.00  0.00     0.019 A 
ENDBRANCH   1  15
TORSDOF 3
