REMARK  4 active torsions:
REMARK  status: ('A' for Active; 'I' for Inactive)
REMARK    1  A    between atoms: N_2  and  C_1 
REMARK    2  A    between atoms: C_3  and  N_2 
REMARK    3  A    between atoms: N_5  and  N_9 
REMARK    4  A    between atoms: C_7  and  C_14 
ROOT
ATOM      1  C   UNL d   1       1.686   0.300  -1.058  0.00  0.00     0.186 C 
ATOM      2  S   UNL d   1       1.210  -0.092  -2.612  0.00  0.00    -0.040 SA
ATOM      3  N   UNL d   1       3.011   0.333  -0.765  0.00  0.00    -0.277 N 
ATOM      4  H   UNL d   1       3.599   0.124  -1.568  0.00  0.00     0.189 HD
ENDROOT
BRANCH   3   5
ATOM      5  N   UNL d   1       3.498  -0.022   0.472  0.00  0.00    -0.309 N 
ATOM      6  C   UNL d   1       4.750  -0.373   0.451  0.00  0.00     0.120 C 
ATOM      7  HN  UNL d   1       2.933  -0.011   1.321  1.00  0.00     0.186 HD
BRANCH   6   8
ATOM      8  C   UNL d   1       5.476  -0.867   1.643  0.00  0.00     0.002 A 
ATOM      9  C   UNL d   1       6.796  -1.335   1.547  0.00  0.00     0.045 A 
ATOM     10 CL   UNL d   1       7.683  -1.368   0.063  0.00  0.00    -0.083 Cl
ATOM     11  C   UNL d   1       7.452  -1.821   2.685  0.00  0.00     0.024 A 
ATOM     12  C   UNL d   1       6.800  -1.838   3.918  0.00  0.00     0.002 A 
ATOM     13  C   UNL d   1       5.489  -1.376   4.016  0.00  0.00     0.001 A 
ATOM     14  C   UNL d   1       4.828  -0.892   2.885  0.00  0.00     0.014 A 
ENDBRANCH   6   8
ENDBRANCH   3   5
BRANCH   1  15
ATOM     15  N   UNL d   1       0.736   0.538  -0.130  0.00  0.00    -0.361 N 
ATOM     16  H   UNL d   1      -0.194   0.362  -0.488  0.00  0.00     0.162 HD
BRANCH  15  17
ATOM     17  C   UNL d   1       0.805   1.453   1.000  0.00  0.00     0.088 C 
ATOM     18  C   UNL d   1       0.189   2.854   0.695  0.00  0.00     0.009 C 
ATOM     19  C   UNL d   1      -0.237   3.321   2.091  0.00  0.00     0.011 C 
ATOM     20  C   UNL d   1      -1.193   2.736   0.025  0.00  0.00     0.007 C 
ATOM     21  C   UNL d   1      -1.099   2.084   2.341  0.00  0.00    -0.012 C 
ATOM     22  C   UNL d   1      -0.064   0.959   2.174  0.00  0.00     0.030 C 
ATOM     23  C   UNL d   1      -2.045   2.085   1.125  0.00  0.00     0.005 C 
ENDBRANCH  15  17
ENDBRANCH   1  15
TORSDOF 4
