REMARK  7 active torsions:
REMARK  status: ('A' for Active; 'I' for Inactive)
REMARK    1  A    between atoms: C_4  and  C_1 
REMARK       I    between atoms: N_7  and  C_4 
REMARK    2  A    between atoms: C_13  and  N_7 
REMARK    3  A    between atoms: C_9  and  C_11 
REMARK    4  A    between atoms: O_22  and  C_9 
REMARK    5  A    between atoms: N_10  and  C_15 
REMARK    6  A    between atoms: C_15  and  C_16 
REMARK    7  A    between atoms: C_27  and  O_22 
ROOT
ATOM      1  C   UNL d   1      -5.771   2.268  -0.214  0.00  0.00     0.035 A 
ATOM      2  C   UNL d   1      -3.479   2.591  -1.043  0.00  0.00    -0.028 A 
ATOM      3  C   UNL d   1      -4.866   2.794  -1.145  0.00  0.00     0.038 A 
ATOM      4  C   UNL d   1      -3.879   1.416   1.038  0.00  0.00     0.003 A 
ATOM      5  C   UNL d   1      -5.262   1.612   0.907  0.00  0.00     0.029 A 
ATOM      6  C   UNL d   1      -2.995   1.887   0.060  0.00  0.00     0.009 A 
ENDROOT
BRANCH   2   7
ATOM      7  C   UNL d   1      -2.553   3.172  -2.094  0.00  0.00     0.311 C 
BRANCH   7   8
ATOM      8  N   UNL d   1      -1.750   2.183  -2.860  0.00  0.00     0.092 N 
ATOM      9  C   UNL d   1      -2.623   1.324  -3.676  0.00  0.00     0.273 C 
ATOM     10  C   UNL d   1      -1.855   0.411  -4.638  0.00  0.00     0.045 C 
ATOM     11  C   UNL d   1      -0.864   1.165  -5.526  0.00  0.00     0.089 C 
ATOM     12  C   UNL d   1       0.036   2.017  -4.624  0.00  0.00     0.045 C 
ATOM     13  C   UNL d   1      -0.767   2.915  -3.680  0.00  0.00     0.273 C 
BRANCH  11  14
ATOM     14  C   UNL d   1      -1.485   2.006  -6.643  0.00  0.00     0.263 C 
ATOM     15  O   UNL d   1      -1.011   3.063  -7.042  0.00  0.00    -0.265 OA
BRANCH  14  16
ATOM     16  O   UNL d   1      -2.567   1.397  -7.205  0.00  0.00    -0.322 OA
BRANCH  16  17
ATOM     17  C   UNL d   1      -3.232   2.132  -8.249  0.00  0.00     0.174 C 
ATOM     18  C   UNL d   1      -2.665   1.790  -9.618  0.00  0.00     0.034 C 
ENDBRANCH  16  17
ENDBRANCH  14  16
ENDBRANCH  11  14
ENDBRANCH   7   8
ENDBRANCH   2   7
BRANCH   1  19
ATOM     19  N   UNL d   1      -7.181   2.362  -0.381  0.00  0.00    -0.322 N 
ATOM     20  C   UNL d   1      -7.810   2.640  -1.592  0.00  0.00     0.274 C 
ATOM     21  O   UNL d   1      -7.211   2.836  -2.652  0.00  0.00    -0.266 OA
ATOM     22  H   UNL d   1      -7.783   2.065   0.376  0.00  0.00     0.169 HD
BRANCH  20  23
ATOM     23  C   UNL d   1      -9.261   2.657  -1.600  0.00  0.00     0.125 A 
ATOM     24  N   UNL d   1     -10.046   2.452  -0.535  0.00  0.00    -0.256 N 
ATOM     25  O   UNL d   1     -11.361   2.557  -1.014  0.00  0.00    -0.242 OA
ATOM     26  HN  UNL d   1      -9.751   2.259   0.422  1.00  0.00     0.195 HD
ATOM     27  C   UNL d   1     -11.340   2.809  -2.352  0.00  0.00     0.075 A 
ATOM     28  C   UNL d   1     -10.038   2.881  -2.770  0.00  0.00     0.071 A 
ATOM     29  C   UNL d   1     -12.627   2.936  -3.059  0.00  0.00     0.079 C 
ENDBRANCH  20  23
ENDBRANCH   1  19
TORSDOF 7
