REMARK  6 active torsions:
REMARK  status: ('A' for Active; 'I' for Inactive)
REMARK    1  A    between atoms: C_6  and  C_1 
REMARK    2  A    between atoms: C_16  and  N_2 
REMARK    3  A    between atoms: N_14  and  C_3 
REMARK       I    between atoms: N_13  and  C_6 
REMARK    4  A    between atoms: C_9  and  C_17 
REMARK    5  A    between atoms: N_10  and  N_13 
REMARK    6  A    between atoms: C_19  and  C_16 
ROOT
ATOM      1  C   UNL d   1      -0.481  -2.808   0.127  0.00  0.00     0.280 C 
ATOM      2  N   UNL d   1      -1.810  -3.188   0.032  0.00  0.00    -0.266 N 
ATOM      3  O   UNL d   1       0.455  -3.603   0.243  0.00  0.00    -0.265 OA
ATOM      4  H   UNL d   1      -2.552  -2.500  -0.046  0.00  0.00     0.190 HD
ENDROOT
BRANCH   1   5
ATOM      5  C   UNL d   1      -0.214  -1.343   0.102  0.00  0.00     0.115 A 
ATOM      6  C   UNL d   1       1.025  -0.806   0.131  0.00  0.00     0.104 A 
ATOM      7  N   UNL d   1       0.996   0.589   0.124  0.00  0.00    -0.318 N 
ATOM      8  C   UNL d   1      -0.281   1.153   0.088  0.00  0.00     0.147 A 
ATOM      9  S   UNL d   1      -1.473  -0.162   0.082  0.00  0.00    -0.051 SA
ATOM     10  S   UNL d   1      -0.721   2.760   0.042  0.00  0.00    -0.052 SA
BRANCH   6  11
ATOM     11  N   UNL d   1       2.207  -1.518   0.158  0.00  0.00    -0.287 NA
ATOM     12  H   UNL d   1       2.819  -1.197   0.904  0.00  0.00     0.125 HD
ATOM     13  H   UNL d   1       2.029  -2.527   0.264  0.00  0.00     0.125 HD
ENDBRANCH   6  11
BRANCH   7  14
ATOM     14  C   UNL d   1       2.232   1.371   0.031  0.00  0.00     0.158 C 
BRANCH  14  15
ATOM     15  C   UNL d   1       2.776   1.799   1.368  0.00  0.00    -0.017 C 
ATOM     16  C   UNL d   1       2.335   1.494   2.597  0.00  0.00     0.008 C 
ENDBRANCH  14  15
ENDBRANCH   7  14
ENDBRANCH   1   5
BRANCH   2  17
ATOM     17  N   UNL d   1      -2.093  -4.519   0.058  0.00  0.00    -0.308 N 
ATOM     18  C   UNL d   1      -3.333  -4.884  -0.016  0.00  0.00     0.120 C 
ATOM     19  HN  UNL d   1      -1.347  -5.211   0.135  1.00  0.00     0.186 HD
BRANCH  18  20
ATOM     20  C   UNL d   1      -3.674  -6.330   0.019  0.00  0.00     0.003 A 
ATOM     21  C   UNL d   1      -4.994  -6.794  -0.043  0.00  0.00     0.047 A 
ATOM     22  C   UNL d   1      -5.257  -8.170   0.015  0.00  0.00     0.048 A 
ATOM     23 CL   UNL d   1      -6.350  -5.735  -0.193  0.00  0.00    -0.083 Cl
ATOM     24  C   UNL d   1      -4.205  -9.078   0.132  0.00  0.00     0.035 A 
ATOM     25  C   UNL d   1      -2.890  -8.630   0.186  0.00  0.00     0.025 A 
ATOM     26 CL   UNL d   1      -4.534 -10.764   0.214  0.00  0.00    -0.084 Cl
ATOM     27  C   UNL d   1      -2.625  -7.260   0.129  0.00  0.00     0.016 A 
ENDBRANCH  18  20
ENDBRANCH   2  17
TORSDOF 6
