REMARK  6 active torsions:
REMARK  status: ('A' for Active; 'I' for Inactive)
REMARK    1  A    between atoms: C_12  and  N_2 
REMARK    2  A    between atoms: C_9  and  C_5 
REMARK    3  A    between atoms: S_18  and  C_6 
REMARK    4  A    between atoms: C_7  and  C_8 
REMARK       I    between atoms: C_10  and  N_11 
REMARK       I    between atoms: N_15  and  C_10 
REMARK    5  A    between atoms: N_11  and  C_12 
REMARK    6  A    between atoms: C_14  and  N_15 
ROOT
ATOM      1  C   UNL d   1      -0.215  -1.262  -0.372  0.00  0.00     0.109 A 
ATOM      2  N   UNL d   1      -0.347   0.933  -0.406  0.00  0.00    -0.266 N 
ATOM      3  N   UNL d   1       0.857   0.677   0.152  0.00  0.00    -0.293 N 
ATOM      4  HN  UNL d   1       1.549   1.354   0.474  1.00  0.00     0.187 HD
ATOM      5  C   UNL d   1       0.940  -0.661   0.190  0.00  0.00     0.089 A 
ATOM      6  C   UNL d   1      -1.050  -0.212  -0.708  0.00  0.00     0.112 A 
ATOM      7  C   UNL d   1      -0.481  -2.653  -0.556  0.00  0.00     0.104 C 
ATOM      8  N   UNL d   1      -0.726  -3.772  -0.707  0.00  0.00    -0.191 NA
ENDROOT
BRANCH   5   9
ATOM      9  C   UNL d   1       2.156  -1.323   0.787  0.00  0.00     0.034 A 
ATOM     10  S   UNL d   1       2.442  -3.006   0.853  0.00  0.00    -0.100 SA
ATOM     11  C   UNL d   1       3.920  -2.798   1.683  0.00  0.00     0.050 A 
ATOM     12  C   UNL d   1       4.200  -1.470   1.908  0.00  0.00     0.008 A 
ATOM     13  C   UNL d   1       3.187  -0.617   1.378  0.00  0.00     0.022 A 
ENDBRANCH   5   9
BRANCH   6  14
ATOM     14  S   UNL d   1      -2.636  -0.111  -1.423  0.00  0.00    -0.114 SA
ATOM     15  C   UNL d   1      -3.503  -1.560  -0.774  0.00  0.00     0.097 C 
ENDBRANCH   6  14
BRANCH   2  16
ATOM     16  C   UNL d   1      -0.745   2.328  -0.653  0.00  0.00     0.276 C 
BRANCH  16  17
ATOM     17  N   UNL d   1       0.261   3.333  -0.351  0.00  0.00    -0.325 N 
ATOM     18  C   UNL d   1       0.329   4.269   0.623  0.00  0.00     0.322 C 
ATOM     19  N   UNL d   1      -0.831   4.553   1.305  0.00  0.00    -0.308 N 
ATOM     20  O   UNL d   1       1.401   4.848   0.780  0.00  0.00    -0.247 OA
ATOM     21  H   UNL d   1      -1.667   4.388   0.760  0.00  0.00     0.170 HD
ATOM     22  H   UNL d   1       1.174   3.162  -0.754  0.00  0.00     0.166 HD
BRANCH  19  23
ATOM     23  C   UNL d   1      -0.873   5.683   2.170  0.00  0.00     0.051 A 
ATOM     24  C   UNL d   1      -1.831   6.696   1.997  0.00  0.00     0.074 A 
ATOM     25  C   UNL d   1      -1.703   7.883   2.748  0.00  0.00     0.018 A 
ATOM     26  C   UNL d   1      -0.689   8.034   3.693  0.00  0.00     0.001 A 
ATOM     27  C   UNL d   1       0.195   6.988   3.927  0.00  0.00     0.002 A 
ATOM     28  C   UNL d   1       0.106   5.821   3.167  0.00  0.00     0.030 A 
BRANCH  24  29
ATOM     29  C   UNL d   1      -2.955   6.620   1.001  0.00  0.00     0.419 C 
ATOM     30  F   UNL d   1      -2.980   5.462   0.273  0.00  0.00    -0.166 F 
ATOM     31  F   UNL d   1      -4.179   6.694   1.597  0.00  0.00    -0.166 F 
ATOM     32  F   UNL d   1      -2.925   7.628   0.087  0.00  0.00    -0.166 F 
ENDBRANCH  24  29
ENDBRANCH  19  23
ENDBRANCH  16  17
ENDBRANCH   2  16
TORSDOF 6
