REMARK  0 active torsions:
REMARK  status: ('A' for Active; 'I' for Inactive)
ROOT
ATOM      1  C   UNL d   1      -0.090  -0.780  -0.722  0.00  0.00    -0.023 C 
ATOM      2  C   UNL d   1       0.092   0.780  -0.720  0.00  0.00    -0.023 C 
ATOM      3  C   UNL d   1      -1.784   0.150   0.659  0.00  0.00     0.128 C 
ATOM      4  C   UNL d   1       1.784  -0.153   0.667  0.00  0.00     0.128 C 
ATOM      5  C   UNL d   1      -0.961   1.343   0.269  0.00  0.00     0.088 C 
ATOM      6  C   UNL d   1       1.518   1.037  -0.203  0.00  0.00     0.088 C 
ATOM      7  C   UNL d   1      -1.519  -1.037  -0.211  0.00  0.00     0.088 C 
ATOM      8  C   UNL d   1       0.956  -1.344   0.275  0.00  0.00     0.088 C 
ATOM      9  O   UNL d   1      -2.630   0.172   1.543  0.00  0.00    -0.298 OA
ATOM     10  O   UNL d   1       2.631  -0.178   1.546  0.00  0.00    -0.298 OA
ATOM     11  C   UNL d   1       0.084  -1.458  -2.087  0.00  0.00     0.016 C 
ATOM     12  C   UNL d   1      -0.076   1.462  -2.086  0.00  0.00     0.016 C 
ENDROOT
TORSDOF 0
