REMARK  5 active torsions:
REMARK  status: ('A' for Active; 'I' for Inactive)
REMARK       I    between atoms: N_2  and  C_4 
REMARK       I    between atoms: C_5  and  N_2 
REMARK    1  A    between atoms: C_4  and  C_3 
REMARK       I    between atoms: N_15  and  C_5 
REMARK    2  A    between atoms: C_6  and  C_9 
REMARK    3  A    between atoms: C_7  and  C_10 
REMARK    4  A    between atoms: C_16  and  C_8 
REMARK    5  A    between atoms: C_14  and  N_15 
ROOT
ATOM      1  N   UNL d   1      -1.990   2.887   0.209  0.00  0.00    -0.274 N 
ATOM      2  C   UNL d   1      -0.709   2.432  -0.072  0.00  0.00     0.266 C 
ATOM      3  C   UNL d   1      -3.196   2.405  -0.257  0.00  0.00     0.327 C 
ATOM      4  N   UNL d   1      -4.274   2.992   0.399  0.00  0.00    -0.309 N 
ATOM      5  O   UNL d   1      -3.316   1.538  -1.111  0.00  0.00    -0.247 OA
ATOM      6  O   UNL d   1       0.123   3.323  -0.284  0.00  0.00    -0.267 OA
ATOM      7  H   UNL d   1      -1.972   3.891   0.273  0.00  0.00     0.173 HD
ATOM      8  H   UNL d   1      -4.252   3.991   0.537  0.00  0.00     0.170 HD
ENDROOT
BRANCH   4   9
ATOM      9  C   UNL d   1      -5.480   2.312   0.672  0.00  0.00     0.037 A 
ATOM     10  C   UNL d   1      -5.510   0.916   0.753  0.00  0.00     0.045 A 
ATOM     11  C   UNL d   1      -6.680   0.229   1.099  0.00  0.00     0.050 A 
ATOM     12  C   UNL d   1      -7.840   0.964   1.372  0.00  0.00     0.032 A 
ATOM     13  C   UNL d   1      -7.833   2.369   1.312  0.00  0.00     0.050 A 
ATOM     14  C   UNL d   1      -6.640   3.036   0.963  0.00  0.00     0.045 A 
BRANCH  11  15
ATOM     15  C   UNL d   1      -6.644  -1.276   1.208  0.00  0.00     0.417 C 
ATOM     16  F   UNL d   1      -7.876  -1.835   1.368  0.00  0.00    -0.166 F 
ATOM     17  F   UNL d   1      -6.103  -1.872   0.111  0.00  0.00    -0.166 F 
ATOM     18  F   UNL d   1      -5.902  -1.696   2.270  0.00  0.00    -0.166 F 
ENDBRANCH  11  15
BRANCH  13  19
ATOM     19  C   UNL d   1      -9.094   3.149   1.609  0.00  0.00     0.417 C 
ATOM     20  F   UNL d   1     -10.061   2.405   2.209  0.00  0.00    -0.166 F 
ATOM     21  F   UNL d   1      -8.869   4.206   2.439  0.00  0.00    -0.166 F 
ATOM     22  F   UNL d   1      -9.661   3.667   0.487  0.00  0.00    -0.166 F 
ENDBRANCH  13  19
ENDBRANCH   4   9
BRANCH   2  23
ATOM     23  C   UNL d   1      -0.319   1.019  -0.045  0.00  0.00     0.073 C 
ATOM     24  S   UNL d   1      -1.371  -0.322   0.113  0.00  0.00    -0.084 SA
ATOM     25  C   UNL d   1      -0.124  -1.466  -0.154  0.00  0.00     0.016 C 
ATOM     26  C   UNL d   1       1.109  -0.846  -0.135  0.00  0.00     0.021 C 
ATOM     27  C   UNL d   1       0.996   0.575  -0.094  0.00  0.00     0.026 C 
BRANCH  25  28
ATOM     28  C   UNL d   1      -0.416  -2.885  -0.393  0.00  0.00    -0.019 A 
ATOM     29  C   UNL d   1      -1.227  -3.641   0.465  0.00  0.00     0.014 A 
ATOM     30  C   UNL d   1      -1.454  -5.001   0.216  0.00  0.00     0.024 A 
ATOM     31  C   UNL d   1      -0.876  -5.614  -0.894  0.00  0.00     0.034 A 
ATOM     32  C   UNL d   1      -0.078  -4.877  -1.764  0.00  0.00     0.024 A 
ATOM     33 CL   UNL d   1      -1.142  -7.287  -1.191  0.00  0.00    -0.084 Cl
ATOM     34  C   UNL d   1       0.151  -3.521  -1.511  0.00  0.00     0.014 A 
ENDBRANCH  25  28
ENDBRANCH   2  23
TORSDOF 5
