REMARK  7 active torsions:
REMARK  status: ('A' for Active; 'I' for Inactive)
REMARK    1  A    between atoms: C_9  and  C_1 
REMARK    2  A    between atoms: C_2  and  C_12 
REMARK       I    between atoms: C_3  and  N_6 
REMARK    3  A    between atoms: C_13  and  C_3 
REMARK    4  A    between atoms: N_6  and  C_8 
REMARK    5  A    between atoms: C_8  and  C_9 
REMARK    6  A    between atoms: C_10  and  C_8 
REMARK    7  A    between atoms: O_26  and  C_10 
ROOT
ATOM      1  C   UNL d   1       3.594  -2.354   0.138  0.00  0.00     0.189 C 
ENDROOT
BRANCH   1   2
ATOM      2  N   UNL d   1       4.098  -1.527   1.251  0.00  0.00    -0.343 N 
ATOM      3  C   UNL d   1       3.711  -1.672   2.569  0.00  0.00     0.252 C 
ATOM      4  O   UNL d   1       2.665  -2.223   2.897  0.00  0.00    -0.268 OA
ATOM      5  H   UNL d   1       5.034  -1.200   1.086  0.00  0.00     0.163 HD
BRANCH   3   6
ATOM      6  C   UNL d   1       4.690  -1.213   3.629  0.00  0.00     0.032 A 
ATOM      7  C   UNL d   1       5.929  -0.624   3.333  0.00  0.00     0.018 A 
ATOM      8  C   UNL d   1       6.874  -0.386   4.341  0.00  0.00     0.017 A 
ATOM      9  C   UNL d   1       6.599  -0.709   5.676  0.00  0.00     0.048 A 
ATOM     10  C   UNL d   1       5.331  -1.226   5.988  0.00  0.00     0.017 A 
ATOM     11  C   UNL d   1       4.392  -1.477   4.976  0.00  0.00     0.018 A 
BRANCH   9  12
ATOM     12  C   UNL d   1       7.658  -0.558   6.744  0.00  0.00     0.417 C 
ATOM     13  F   UNL d   1       8.769   0.106   6.316  0.00  0.00    -0.166 F 
ATOM     14  F   UNL d   1       7.217   0.120   7.838  0.00  0.00    -0.166 F 
ATOM     15  F   UNL d   1       8.099  -1.762   7.202  0.00  0.00    -0.166 F 
ENDBRANCH   9  12
ENDBRANCH   3   6
ENDBRANCH   1   2
BRANCH   1  16
ATOM     16  C   UNL d   1       2.080  -2.502  -0.062  0.00  0.00     0.075 C 
BRANCH  16  17
ATOM     17  C   UNL d   1       1.263  -1.293  -0.459  0.00  0.00    -0.037 A 
ATOM     18  C   UNL d   1       1.399  -0.485  -1.666  0.00  0.00    -0.011 A 
ATOM     19  C   UNL d   1       0.323   0.404  -1.809  0.00  0.00     0.015 A 
ATOM     20  C   UNL d   1       2.374  -0.481  -2.700  0.00  0.00     0.037 A 
ATOM     21  C   UNL d   1       0.190   1.255  -2.927  0.00  0.00     0.021 A 
ATOM     22  S   UNL d   1      -0.770   0.299  -0.488  0.00  0.00    -0.101 SA
ATOM     23  C   UNL d   1       1.180   1.250  -3.908  0.00  0.00     0.025 A 
ATOM     24  C   UNL d   1       2.267   0.397  -3.784  0.00  0.00     0.035 A 
ATOM     25 CL   UNL d   1       3.501   0.423  -4.986  0.00  0.00    -0.084 Cl
ATOM     26  C   UNL d   1       0.143  -0.920   0.261  0.00  0.00     0.058 A 
ENDBRANCH  16  17
ENDBRANCH   1  16
BRANCH   1  27
ATOM     27  C   UNL d   1       4.197  -3.776   0.123  0.00  0.00     0.281 C 
ATOM     28  O   UNL d   1       3.966  -4.594  -0.768  0.00  0.00    -0.263 OA
BRANCH  27  29
ATOM     29  O   UNL d   1       5.021  -4.022   1.179  0.00  0.00    -0.325 OA
ATOM     30  C   UNL d   1       5.505  -5.367   1.228  0.00  0.00     0.213 C 
ENDBRANCH  27  29
ENDBRANCH   1  27
TORSDOF 7
