REMARK  2 active torsions:
REMARK  status: ('A' for Active; 'I' for Inactive)
REMARK    1  A    between atoms: N_9  and  C_2 
REMARK    2  A    between atoms: C_8  and  C_3 
ROOT
ATOM      1  C   UNL d   1      -0.186   1.180  -0.241  0.00  0.00     0.098 A 
ATOM      2  C   UNL d   1       0.536   0.771   0.852  0.00  0.00     0.163 A 
ATOM      3  C   UNL d   1      -0.419  -1.032   0.027  0.00  0.00     0.089 A 
ATOM      4  O   UNL d   1       0.404  -0.572   1.022  0.00  0.00    -0.292 OA
ATOM      5  C   UNL d   1      -0.804   0.026  -0.775  0.00  0.00     0.065 A 
ATOM      6  C   UNL d   1      -0.284   2.513  -0.729  0.00  0.00     0.104 C 
ATOM      7  N   UNL d   1      -0.365   3.596  -1.142  0.00  0.00    -0.191 NA
ENDROOT
BRANCH   2   8
ATOM      8  N   UNL d   1       1.307   1.407   1.743  0.00  0.00    -0.378 N 
ATOM      9  H   UNL d   1       1.597   2.372   1.620  0.00  0.00     0.158 HD
ATOM     10  H   UNL d   1       1.868   0.870   2.398  0.00  0.00     0.158 HD
ENDBRANCH   2   8
BRANCH   3  11
ATOM     11  C   UNL d   1      -0.711  -2.465   0.008  0.00  0.00    -0.002 A 
ATOM     12  C   UNL d   1      -1.485  -3.007  -1.031  0.00  0.00     0.014 A 
ATOM     13  C   UNL d   1      -1.789  -4.370  -1.070  0.00  0.00     0.001 A 
ATOM     14  C   UNL d   1      -1.320  -5.214  -0.069  0.00  0.00     0.000 A 
ATOM     15  C   UNL d   1      -0.548  -4.696   0.969  0.00  0.00     0.001 A 
ATOM     16  C   UNL d   1      -0.245  -3.330   1.007  0.00  0.00     0.014 A 
ENDBRANCH   3  11
TORSDOF 2
