REMARK  6 active torsions:
REMARK  status: ('A' for Active; 'I' for Inactive)
REMARK    1  A    between atoms: C_3  and  C_1 
REMARK    2  A    between atoms: C_7  and  C_2 
REMARK    3  A    between atoms: C_6  and  C_8 
REMARK    4  A    between atoms: O_13  and  C_7 
REMARK    5  A    between atoms: N_19  and  C_8 
REMARK    6  A    between atoms: N_9  and  O_13 
ROOT
ATOM      1  C   UNL d   1      -1.863   0.939   0.309  0.00  0.00     0.318 C 
ATOM      2  O   UNL d   1      -1.016   1.804   0.496  0.00  0.00    -0.257 OA
ENDROOT
BRANCH   1   3
ATOM      3  C   UNL d   1      -1.522  -0.462   0.065  0.00  0.00     0.077 A 
ATOM      4  C   UNL d   1      -2.245  -1.682   0.434  0.00  0.00     0.069 A 
ATOM      5  N   UNL d   1      -1.596  -2.812   0.120  0.00  0.00    -0.325 N 
ATOM      6  S   UNL d   1      -0.198  -2.483  -0.676  0.00  0.00    -0.025 SA
ATOM      7  HN  UNL d   1      -1.926  -3.750   0.346  1.00  0.00     0.174 HD
ATOM      8  C   UNL d   1      -0.330  -0.795  -0.564  0.00  0.00     0.088 A 
BRANCH   4   9
ATOM      9  C   UNL d   1      -3.543  -1.822   1.134  0.00  0.00     0.036 A 
ATOM     10  C   UNL d   1      -4.543  -2.706   0.661  0.00  0.00     0.048 A 
ATOM     11 CL   UNL d   1      -4.368  -3.698  -0.755  0.00  0.00    -0.083 Cl
ATOM     12  C   UNL d   1      -5.775  -2.836   1.324  0.00  0.00     0.025 A 
ATOM     13  C   UNL d   1      -6.061  -2.056   2.436  0.00  0.00     0.003 A 
ATOM     14  C   UNL d   1      -5.087  -1.200   2.934  0.00  0.00     0.025 A 
ATOM     15  C   UNL d   1      -3.822  -1.126   2.327  0.00  0.00     0.048 A 
ATOM     16 CL   UNL d   1      -2.618  -0.247   3.213  0.00  0.00    -0.083 Cl
ENDBRANCH   4   9
ENDBRANCH   1   3
BRANCH   1  17
ATOM     17  O   UNL d   1      -3.207   1.194   0.168  0.00  0.00    -0.193 OA
BRANCH  17  18
ATOM     18  N   UNL d   1      -3.648   2.102   1.160  0.00  0.00    -0.241 N 
ATOM     19  C   UNL d   1      -4.281   3.126   0.661  0.00  0.00     0.133 C 
ATOM     20  HN  UNL d   1      -3.487   1.970   2.159  1.00  0.00     0.196 HD
BRANCH  19  21
ATOM     21  C   UNL d   1      -5.039   4.014   1.624  0.00  0.00     0.053 A 
ATOM     22  C   UNL d   1      -4.545   4.297   2.914  0.00  0.00     0.049 A 
ATOM     23 CL   UNL d   1      -2.935   3.930   3.433  0.00  0.00    -0.083 Cl
ATOM     24  C   UNL d   1      -5.343   4.970   3.859  0.00  0.00     0.025 A 
ATOM     25  C   UNL d   1      -6.628   5.391   3.533  0.00  0.00     0.003 A 
ATOM     26  C   UNL d   1      -7.108   5.170   2.248  0.00  0.00     0.025 A 
ATOM     27  C   UNL d   1      -6.326   4.487   1.297  0.00  0.00     0.049 A 
ATOM     28 CL   UNL d   1      -7.084   4.271  -0.245  0.00  0.00    -0.083 Cl
ENDBRANCH  19  21
BRANCH  19  29
ATOM     29  N   UNL d   1      -4.301   3.394  -0.681  0.00  0.00    -0.383 N 
ATOM     30  H   UNL d   1      -4.584   4.316  -0.994  0.00  0.00     0.157 HD
ATOM     31  H   UNL d   1      -3.546   2.985  -1.220  0.00  0.00     0.157 HD
ENDBRANCH  19  29
ENDBRANCH  17  18
ENDBRANCH   1  17
TORSDOF 6
