REMARK  10 active torsions:
REMARK  status: ('A' for Active; 'I' for Inactive)
REMARK    1  A    between atoms: N_4  and  C_1 
REMARK    2  A    between atoms: C_5  and  C_1 
REMARK    3  A    between atoms: C_10  and  C_1 
REMARK       I    between atoms: C_2  and  N_4 
REMARK    4  A    between atoms: C_6  and  C_2 
REMARK    5  A    between atoms: C_3  and  S_9 
REMARK       I    between atoms: N_8  and  C_3 
REMARK    6  A    between atoms: O_16  and  C_5 
REMARK    7  A    between atoms: C_7  and  C_6 
REMARK    8  A    between atoms: O_18  and  C_7 
REMARK    9  A    between atoms: C_15  and  N_8 
REMARK   10  A    between atoms: S_9  and  C_10 
ROOT
ATOM      1  C   UNL d   1       0.971   0.148  -0.169  0.00  0.00     0.194 C 
ENDROOT
BRANCH   1   2
ATOM      2  N   UNL d   1       0.295   0.631  -1.387  0.00  0.00    -0.346 N 
ATOM      3  C   UNL d   1       0.105   1.968  -1.621  0.00  0.00     0.227 C 
ATOM      4  O   UNL d   1       0.463   2.819  -0.805  0.00  0.00    -0.273 OA
ATOM      5  H   UNL d   1       0.025  -0.048  -2.098  0.00  0.00     0.163 HD
BRANCH   3   6
ATOM      6  C   UNL d   1      -0.644   2.402  -2.851  0.00  0.00     0.213 C 
BRANCH   6   7
ATOM      7  C   UNL d   1      -0.751   1.475  -4.021  0.00  0.00     0.267 C 
ATOM      8  O   UNL d   1      -0.414   0.300  -4.037  0.00  0.00    -0.265 OA
BRANCH   7   9
ATOM      9  O   UNL d   1      -1.333   2.151  -5.055  0.00  0.00    -0.326 OA
ATOM     10  C   UNL d   1      -1.561   1.440  -6.276  0.00  0.00     0.213 C 
ENDBRANCH   7   9
ENDBRANCH   6   7
ENDBRANCH   3   6
ENDBRANCH   1   2
BRANCH   1  11
ATOM     11  C   UNL d   1       0.322  -1.092   0.470  0.00  0.00     0.282 C 
ATOM     12  O   UNL d   1       0.752  -1.621   1.491  0.00  0.00    -0.263 OA
BRANCH  11  13
ATOM     13  O   UNL d   1      -0.754  -1.551  -0.229  0.00  0.00    -0.325 OA
ATOM     14  C   UNL d   1      -1.362  -2.716   0.341  0.00  0.00     0.213 C 
ENDBRANCH  11  13
ENDBRANCH   1  11
BRANCH   1  15
ATOM     15  C   UNL d   1       2.441  -0.213  -0.419  0.00  0.00     0.119 C 
BRANCH  15  16
ATOM     16  S   UNL d   1       3.589   1.205  -0.603  0.00  0.00    -0.067 SA
BRANCH  16  17
ATOM     17  C   UNL d   1       5.060   0.262  -0.783  0.00  0.00     0.284 C 
ATOM     18  N   UNL d   1       6.151   1.082  -0.893  0.00  0.00    -0.318 N 
ATOM     19  H   UNL d   1       5.959   2.069  -0.775  0.00  0.00     0.169 HD
ATOM     20  O   UNL d   1       5.029  -0.959  -0.810  0.00  0.00    -0.260 OA
BRANCH  18  21
ATOM     21  C   UNL d   1       7.466   0.683  -1.208  0.00  0.00     0.035 A 
ATOM     22  C   UNL d   1       7.814  -0.643  -1.495  0.00  0.00     0.031 A 
ATOM     23  C   UNL d   1       9.115  -0.976  -1.880  0.00  0.00     0.026 A 
ATOM     24  C   UNL d   1      10.083   0.016  -1.972  0.00  0.00     0.034 A 
ATOM     25  C   UNL d   1       9.762   1.336  -1.664  0.00  0.00     0.026 A 
ATOM     26 CL   UNL d   1      11.674  -0.391  -2.482  0.00  0.00    -0.084 Cl
ATOM     27  C   UNL d   1       8.456   1.669  -1.282  0.00  0.00     0.031 A 
ENDBRANCH  18  21
ENDBRANCH  16  17
ENDBRANCH  15  16
ENDBRANCH   1  15
TORSDOF 10
