REMARK  5 active torsions:
REMARK  status: ('A' for Active; 'I' for Inactive)
REMARK    1  A    between atoms: C_7  and  C_3 
REMARK    2  A    between atoms: C_10  and  N_4 
REMARK    3  A    between atoms: S_9  and  C_7 
REMARK    4  A    between atoms: C_8  and  C_11 
REMARK    5  A    between atoms: C_13  and  S_9 
ROOT
ATOM      1  C   UNL d   1      -0.597  -2.457   0.187  0.00  0.00     0.241 C 
ATOM      2  O   UNL d   1      -1.686  -2.893  -0.177  0.00  0.00    -0.278 OA
ENDROOT
BRANCH   1   3
ATOM      3  C   UNL d   1      -0.318  -1.003   0.200  0.00  0.00     0.107 A 
ATOM      4  N   UNL d   1       0.888  -0.425   0.340  0.00  0.00    -0.293 N 
ATOM      5  N   UNL d   1       0.682   0.916   0.222  0.00  0.00    -0.287 N 
ATOM      6  HN  UNL d   1       1.779  -0.896   0.501  1.00  0.00     0.187 HD
ATOM      7  C   UNL d   1      -0.660   1.216   0.082  0.00  0.00     0.028 A 
ATOM      8  C   UNL d   1      -1.286   2.561  -0.021  0.00  0.00     0.070 C 
ATOM      9  C   UNL d   1      -1.306  -0.001   0.038  0.00  0.00     0.062 A 
BRANCH   5  10
ATOM     10  C   UNL d   1       1.850   1.831   0.198  0.00  0.00     0.043 C 
ATOM     11  C   UNL d   1       3.189   1.054   0.328  0.00  0.00     0.039 C 
ATOM     12  C   UNL d   1       1.915   2.583  -1.148  0.00  0.00     0.039 C 
ATOM     13  C   UNL d   1       1.810   2.822   1.377  0.00  0.00     0.039 C 
ENDBRANCH   5  10
ENDBRANCH   1   3
BRANCH   1  14
ATOM     14  S   UNL d   1       0.715  -3.512   0.710  0.00  0.00    -0.046 SA
BRANCH  14  15
ATOM     15  C   UNL d   1       0.006  -5.101   1.155  0.00  0.00     0.009 A 
ATOM     16  C   UNL d   1       0.901  -6.177   1.318  0.00  0.00     0.035 A 
ATOM     17  C   UNL d   1       0.465  -7.450   1.745  0.00  0.00     0.049 A 
ATOM     18  C   UNL d   1      -0.900  -7.653   1.976  0.00  0.00     0.016 A 
ATOM     19  C   UNL d   1      -1.799  -6.603   1.815  0.00  0.00     0.002 A 
ATOM     20  C   UNL d   1      -1.346  -5.335   1.428  0.00  0.00     0.019 A 
BRANCH  17  21
ATOM     21  C   UNL d   1       1.431  -8.582   1.995  0.00  0.00     0.417 C 
ATOM     22  F   UNL d   1       2.736  -8.252   1.770  0.00  0.00    -0.166 F 
ATOM     23  F   UNL d   1       1.381  -9.029   3.281  0.00  0.00    -0.166 F 
ATOM     24  F   UNL d   1       1.183  -9.669   1.214  0.00  0.00    -0.166 F 
ENDBRANCH  17  21
ENDBRANCH  14  15
ENDBRANCH   1  14
TORSDOF 5
