REMARK  6 active torsions:
REMARK  status: ('A' for Active; 'I' for Inactive)
REMARK       I    between atoms: C_2  and  N_1 
REMARK    1  A    between atoms: O_7  and  C_2 
REMARK    2  A    between atoms: C_3  and  C_6 
REMARK       I    between atoms: N_14  and  C_6 
REMARK    3  A    between atoms: C_13  and  O_7 
REMARK    4  A    between atoms: N_10  and  C_16 
REMARK    5  A    between atoms: C_15  and  N_14 
REMARK    6  A    between atoms: C_16  and  C_15 
ROOT
ATOM      1  N   UNL d   1       2.247   0.631   0.244  0.00  0.00    -0.310 N 
ATOM      2  C   UNL d   1       3.043   1.453   1.031  0.00  0.00     0.364 C 
ATOM      3  C   UNL d   1       2.235  -0.827   0.553  0.00  0.00     0.186 C 
ATOM      4  C   UNL d   1       1.200   1.128  -0.644  0.00  0.00     0.168 C 
ATOM      5  C   UNL d   1       1.139  -1.622  -0.196  0.00  0.00     0.074 C 
ATOM      6  C   UNL d   1      -0.133   0.506  -0.277  0.00  0.00    -0.034 A 
ATOM      7  C   UNL d   1      -0.174  -0.891  -0.107  0.00  0.00    -0.048 A 
ATOM      8  O   UNL d   1       3.725   1.004   1.956  0.00  0.00    -0.238 OA
ATOM      9  C   UNL d   1      -1.306   1.246  -0.120  0.00  0.00     0.009 A 
ATOM     10  C   UNL d   1      -1.385  -1.547   0.124  0.00  0.00     0.008 A 
ATOM     11  C   UNL d   1      -2.554  -0.800   0.258  0.00  0.00     0.001 A 
ATOM     12  C   UNL d   1      -2.510   0.593   0.161  0.00  0.00     0.001 A 
ENDROOT
BRANCH   3  13
ATOM     13  C   UNL d   1       3.587  -1.481   0.211  0.00  0.00     0.241 C 
ATOM     14  O   UNL d   1       3.845  -1.960  -0.890  0.00  0.00    -0.271 OA
ATOM     15  N   UNL d   1       4.508  -1.434   1.234  0.00  0.00    -0.358 N 
ATOM     16  H   UNL d   1       4.338  -0.804   2.019  0.00  0.00     0.162 HD
BRANCH  15  17
ATOM     17  C   UNL d   1       5.844  -1.973   1.114  0.00  0.00     0.152 C 
BRANCH  17  18
ATOM     18  C   UNL d   1       6.838  -1.258   2.050  0.00  0.00     0.292 C 
BRANCH  18  19
ATOM     19  N   UNL d   1       6.466  -1.262   3.485  0.00  0.00     0.090 N 
ATOM     20  C   UNL d   1       6.429  -2.630   4.027  0.00  0.00     0.272 C 
ATOM     21  C   UNL d   1       6.083  -2.650   5.516  0.00  0.00     0.030 C 
ATOM     22  C   UNL d   1       7.046  -1.788   6.318  0.00  0.00     0.003 C 
ATOM     23  C   UNL d   1       7.092  -0.383   5.733  0.00  0.00     0.030 C 
ATOM     24  C   UNL d   1       7.414  -0.420   4.238  0.00  0.00     0.272 C 
ENDBRANCH  18  19
ENDBRANCH  17  18
ENDBRANCH  15  17
ENDBRANCH   3  13
BRANCH   2  25
ATOM     25  O   UNL d   1       3.055   2.765   0.670  0.00  0.00    -0.294 OA
BRANCH  25  26
ATOM     26  C   UNL d   1       4.028   3.674   1.280  0.00  0.00     0.061 C 
ATOM     27  C   UNL d   1       5.469   3.241   0.948  0.00  0.00     0.046 C 
ATOM     28  C   UNL d   1       3.741   5.064   0.678  0.00  0.00     0.046 C 
ATOM     29  C   UNL d   1       3.859   3.801   2.802  0.00  0.00     0.046 C 
ENDBRANCH  25  26
ENDBRANCH   2  25
TORSDOF 6
