REMARK  6 active torsions:
REMARK  status: ('A' for Active; 'I' for Inactive)
REMARK    1  A    between atoms: N_4  and  C_1 
REMARK    2  A    between atoms: C_2  and  N_4 
REMARK    3  A    between atoms: N_10  and  C_2 
REMARK    4  A    between atoms: C_14  and  N_10 
REMARK    5  A    between atoms: C_16  and  C_14 
REMARK    6  A    between atoms: C_15  and  C_16 
ROOT
ATOM      1  C   UNL d   1       4.196   3.901  -1.293  0.00  0.00     0.172 C 
ATOM      2  S   UNL d   1       2.605   4.405  -1.250  0.00  0.00    -0.041 SA
ENDROOT
BRANCH   1   3
ATOM      3  N   UNL d   1       5.024   3.854  -2.386  0.00  0.00    -0.332 N 
ATOM      4  H   UNL d   1       5.460   2.944  -2.477  0.00  0.00     0.168 HD
BRANCH   3   5
ATOM      5  C   UNL d   1       5.012   4.643  -3.558  0.00  0.00     0.058 A 
ATOM      6  C   UNL d   1       5.342   3.971  -4.743  0.00  0.00     0.057 A 
ATOM      7  C   UNL d   1       5.418   4.652  -5.962  0.00  0.00     0.058 A 
ATOM      8 CL   UNL d   1       5.843   3.738  -7.364  0.00  0.00    -0.082 Cl
ATOM      9  C   UNL d   1       5.174   6.026  -6.006  0.00  0.00     0.057 A 
ATOM     10  C   UNL d   1       4.880   6.715  -4.828  0.00  0.00     0.051 A 
ATOM     11 CL   UNL d   1       5.271   6.936  -7.470  0.00  0.00    -0.082 Cl
ATOM     12  C   UNL d   1       4.820   6.037  -3.603  0.00  0.00     0.062 A 
ATOM     13 CL   UNL d   1       4.721   7.034  -2.192  0.00  0.00    -0.082 Cl
ENDBRANCH   3   5
ENDBRANCH   1   3
BRANCH   1  14
ATOM     14  N   UNL d   1       4.744   3.378  -0.149  0.00  0.00    -0.367 N 
ATOM     15  H   UNL d   1       4.139   3.430   0.664  0.00  0.00     0.161 HD
BRANCH  14  16
ATOM     16  C   UNL d   1       6.156   3.088   0.079  0.00  0.00     0.126 C 
BRANCH  16  17
ATOM     17  C   UNL d   1       7.007   4.359   0.155  0.00  0.00     0.058 C 
BRANCH  17  18
ATOM     18  C   UNL d   1       8.477   4.036   0.214  0.00  0.00    -0.057 A 
ATOM     19  C   UNL d   1       9.213   3.869  -0.968  0.00  0.00     0.007 A 
ATOM     20  C   UNL d   1      10.569   3.545  -0.916  0.00  0.00     0.001 A 
ATOM     21  C   UNL d   1      11.200   3.385   0.316  0.00  0.00     0.000 A 
ATOM     22  C   UNL d   1      10.477   3.548   1.496  0.00  0.00     0.001 A 
ATOM     23  C   UNL d   1       9.120   3.870   1.446  0.00  0.00     0.007 A 
ENDBRANCH  17  18
ENDBRANCH  16  17
ENDBRANCH  14  16
ENDBRANCH   1  14
TORSDOF 6
