REMARK  7 active torsions:
REMARK  status: ('A' for Active; 'I' for Inactive)
REMARK    1  A    between atoms: N_2  and  C_1 
REMARK    2  A    between atoms: S_9  and  C_3 
REMARK    3  A    between atoms: C_10  and  C_4 
REMARK       I    between atoms: C_6  and  N_11 
REMARK       I    between atoms: N_15  and  C_6 
REMARK    4  A    between atoms: C_12  and  S_9 
REMARK    5  A    between atoms: O_20  and  C_10 
REMARK    6  A    between atoms: N_11  and  C_13 
REMARK    7  A    between atoms: C_21  and  N_15 
ROOT
ATOM      1  C   UNL d   1      -0.715   4.133  -1.166  0.00  0.00     0.034 A 
ATOM      2  C   UNL d   1       0.324   4.224  -2.134  0.00  0.00     0.053 A 
ATOM      3  C   UNL d   1      -0.824   5.152  -0.203  0.00  0.00     0.021 A 
ATOM      4  C   UNL d   1       1.200   5.324  -2.075  0.00  0.00     0.031 A 
ATOM      5  C   UNL d   1       0.067   6.225  -0.160  0.00  0.00     0.002 A 
ATOM      6  C   UNL d   1       1.072   6.316  -1.102  0.00  0.00     0.002 A 
ENDROOT
BRANCH   1   7
ATOM      7  S   UNL d   1      -2.089   2.979  -1.370  0.00  0.00    -0.068 SA
BRANCH   7   8
ATOM      8  C   UNL d   1      -2.260   2.005   0.115  0.00  0.00     0.108 A 
ATOM      9  C   UNL d   1      -2.864   2.386   1.308  0.00  0.00     0.137 A 
ATOM     10  C   UNL d   1      -3.042   1.471   2.361  0.00  0.00     0.058 A 
ATOM     11  C   UNL d   1      -2.667   0.140   2.182  0.00  0.00     0.057 A 
ATOM     12  C   UNL d   1      -2.123  -0.196   0.956  0.00  0.00     0.106 A 
ATOM     13  N   UNL d   1      -1.895   0.702  -0.053  0.00  0.00    -0.357 N 
ATOM     14  HN  UNL d   1      -1.457   0.398  -0.923  1.00  0.00     0.166 HD
BRANCH   9  15
ATOM     15  N   UNL d   1      -3.421   3.690   1.509  0.00  0.00    -0.113 N 
ATOM     16  O   UNL d   1      -2.923   4.372   2.409  0.00  0.00    -0.532 OA
ATOM     17  O   UNL d   1      -4.388   4.014   0.809  0.00  0.00    -0.532 OA
ENDBRANCH   9  15
BRANCH  11  18
ATOM     18  C   UNL d   1      -2.884  -0.807   3.298  0.00  0.00     0.294 C 
ATOM     19  O   UNL d   1      -3.368  -0.460   4.363  0.00  0.00    -0.259 OA
BRANCH  18  20
ATOM     20  O   UNL d   1      -2.442  -2.045   2.984  0.00  0.00    -0.322 OA
ATOM     21  C   UNL d   1      -2.513  -2.969   4.075  0.00  0.00     0.213 C 
ENDBRANCH  18  20
ENDBRANCH  11  18
ENDBRANCH   7   8
ENDBRANCH   1   7
BRANCH   2  22
ATOM     22  N   UNL d   1       0.434   3.208  -3.125  0.00  0.00    -0.312 N 
ATOM     23  C   UNL d   1       0.979   3.189  -4.391  0.00  0.00     0.303 C 
ATOM     24  N   UNL d   1       1.593   4.341  -4.801  0.00  0.00    -0.210 NA
ATOM     25  O   UNL d   1       0.840   2.186  -5.087  0.00  0.00    -0.253 OA
ATOM     26  H   UNL d   1       2.447   4.404  -4.263  0.00  0.00     0.138 HD
ATOM     27  H   UNL d   1      -0.152   2.392  -2.971  0.00  0.00     0.170 HD
BRANCH  24  28
ATOM     28  C   UNL d   1       1.890   4.670  -6.138  0.00  0.00     0.016 A 
ATOM     29  C   UNL d   1       2.664   3.862  -6.968  0.00  0.00     0.024 A 
ATOM     30  C   UNL d   1       3.136   4.375  -8.181  0.00  0.00     0.002 A 
ATOM     31  C   UNL d   1       2.836   5.685  -8.560  0.00  0.00     0.000 A 
ATOM     32  C   UNL d   1       2.035   6.480  -7.744  0.00  0.00     0.002 A 
ATOM     33  C   UNL d   1       1.566   5.972  -6.533  0.00  0.00     0.024 A 
ENDBRANCH  24  28
ENDBRANCH   2  22
TORSDOF 7
