REMARK  3 active torsions:
REMARK  status: ('A' for Active; 'I' for Inactive)
REMARK    1  A    between atoms: C_7  and  N_2 
REMARK    2  A    between atoms: C_6  and  O_11 
REMARK    3  A    between atoms: O_11  and  C_18 
ROOT
ATOM      1  C   UNL d   1      -2.440   0.046   2.058  0.00  0.00     0.046 A 
ATOM      2  C   UNL d   1      -2.323  -0.999   2.990  0.00  0.00     0.033 A 
ATOM      3  C   UNL d   1      -3.314   1.091   2.370  0.00  0.00     0.033 A 
ATOM      4  C   UNL d   1      -3.954   0.009   4.458  0.00  0.00     0.078 A 
ATOM      5  C   UNL d   1      -4.066   1.069   3.554  0.00  0.00     0.039 A 
ATOM      6  C   UNL d   1      -3.051  -1.007   4.185  0.00  0.00     0.039 A 
ENDROOT
BRANCH   1   7
ATOM      7  N   UNL d   1      -1.628   0.059   0.889  0.00  0.00    -0.236 N 
ATOM      8  C   UNL d   1      -0.976  -1.043   0.385  0.00  0.00     0.311 A 
ATOM      9  N   UNL d   1      -0.010  -0.629  -0.537  0.00  0.00    -0.211 NA
ATOM     10  O   UNL d   1      -1.110  -2.221   0.696  0.00  0.00    -0.253 OA
ATOM     11  C   UNL d   1      -0.040   0.803  -0.667  0.00  0.00     0.222 A 
ATOM     12  C   UNL d   1       1.322  -1.185  -0.362  0.00  0.00     0.112 C 
ATOM     13  S   UNL d   1       1.558   1.398  -0.026  0.00  0.00    -0.138 SA
ATOM     14  C   UNL d   1      -1.196   1.202   0.245  0.00  0.00     0.260 A 
ATOM     15  C   UNL d   1       2.049  -0.239   0.588  0.00  0.00     0.091 C 
ATOM     16  O   UNL d   1      -1.575   2.353   0.392  0.00  0.00    -0.270 OA
ENDBRANCH   1   7
BRANCH   4  17
ATOM     17  O   UNL d   1      -4.771   0.093   5.544  0.00  0.00    -0.255 OA
BRANCH  17  18
ATOM     18  C   UNL d   1      -4.910  -1.066   6.355  0.00  0.00     0.530 C 
ATOM     19  F   UNL d   1      -5.067  -2.188   5.620  0.00  0.00    -0.144 F 
ATOM     20  F   UNL d   1      -3.838  -1.206   7.164  0.00  0.00    -0.144 F 
ATOM     21  F   UNL d   1      -6.010  -0.922   7.128  0.00  0.00    -0.144 F 
ENDBRANCH  17  18
ENDBRANCH   4  17
TORSDOF 3
