REMARK  4 active torsions:
REMARK  status: ('A' for Active; 'I' for Inactive)
REMARK       I    between atoms: N_2  and  C_1 
REMARK       I    between atoms: N_3  and  C_1 
REMARK    1  A    between atoms: C_13  and  N_2 
REMARK    2  A    between atoms: C_17  and  N_2 
REMARK    3  A    between atoms: C_9  and  N_3 
REMARK    4  A    between atoms: C_14  and  C_17 
ROOT
ATOM      1  N   UNL d   1       0.728   1.176   4.473  0.00  0.00    -0.197 NA
ATOM      2  C   UNL d   1       1.176   0.380   3.744  0.00  0.00     0.060 C 
ATOM      3  C   UNL d   1       1.779  -0.633   2.838  0.00  0.00     0.144 C 
ENDROOT
BRANCH   3   4
ATOM      4  C   UNL d   1       0.731  -1.344   1.956  0.00  0.00     0.142 C 
BRANCH   4   5
ATOM      5  N   UNL d   1      -0.037  -0.457   1.059  0.00  0.00    -0.329 N 
ATOM      6  C   UNL d   1       0.722   0.097   0.022  0.00  0.00     0.323 C 
ATOM      7  N   UNL d   1       0.042   0.812  -0.935  0.00  0.00    -0.309 N 
ATOM      8  O   UNL d   1       1.938  -0.094  -0.002  0.00  0.00    -0.247 OA
ATOM      9  H   UNL d   1      -0.961   0.811  -0.906  0.00  0.00     0.170 HD
BRANCH   7  10
ATOM     10  C   UNL d   1       0.606   1.291  -2.143  0.00  0.00     0.037 A 
ATOM     11  C   UNL d   1       1.986   1.358  -2.368  0.00  0.00     0.039 A 
ATOM     12  C   UNL d   1       2.441   1.582  -3.653  0.00  0.00    -0.021 A 
ATOM     13  C   UNL d   1       3.822   1.489  -4.166  0.00  0.00     0.068 C 
ATOM     14  C   UNL d   1       1.562   1.805  -4.691  0.00  0.00     0.075 A 
ATOM     15  C   UNL d   1       3.585   1.918  -5.614  0.00  0.00     0.180 C 
ATOM     16  O   UNL d   1       2.167   1.910  -5.913  0.00  0.00    -0.350 OA
ATOM     17  C   UNL d   1       0.200   1.860  -4.483  0.00  0.00     0.039 A 
ATOM     18  C   UNL d   1      -0.280   1.610  -3.191  0.00  0.00     0.032 A 
ENDBRANCH   7  10
BRANCH   5  19
ATOM     19  C   UNL d   1      -1.515  -0.570   1.088  0.00  0.00     0.080 C 
ATOM     20  C   UNL d   1      -1.983  -1.844   0.371  0.00  0.00     0.032 C 
ATOM     21  C   UNL d   1      -2.103  -0.472   2.499  0.00  0.00     0.032 C 
ENDBRANCH   5  19
ENDBRANCH   4   5
ENDBRANCH   3   4
TORSDOF 4
