REMARK  4 active torsions:
REMARK  status: ('A' for Active; 'I' for Inactive)
REMARK    1  A    between atoms: N_2  and  S_1 
REMARK    2  A    between atoms: C_4  and  S_1 
REMARK    3  A    between atoms: C_3  and  N_2 
REMARK    4  A    between atoms: N_5  and  C_6 
ROOT
ATOM      1  N   UNL d   1       0.240   0.454  -1.534  0.00  0.00    -0.278 N 
ATOM      2  H   UNL d   1       0.240  -0.327  -2.179  0.00  0.00     0.179 HD
ENDROOT
BRANCH   1   3
ATOM      3  S   UNL d   1      -0.254   0.193   0.037  0.00  0.00     0.263 S 
ATOM      4  O   UNL d   1       0.221   1.218   0.940  0.00  0.00    -0.200 OA
ATOM      5  O   UNL d   1      -0.067  -1.218   0.306  0.00  0.00    -0.200 OA
BRANCH   3   6
ATOM      6  C   UNL d   1      -2.003   0.441  -0.181  0.00  0.00     0.081 A 
ATOM      7  C   UNL d   1      -2.560   1.707   0.010  0.00  0.00     0.052 A 
ATOM      8  C   UNL d   1      -3.917   1.892  -0.245  0.00  0.00     0.074 A 
ATOM      9 CL   UNL d   1      -4.607   3.460  -0.063  0.00  0.00    -0.081 Cl
ATOM     10  C   UNL d   1      -4.704   0.816  -0.663  0.00  0.00     0.138 A 
ATOM     11  C   UNL d   1      -4.150  -0.451  -0.826  0.00  0.00     0.045 A 
ATOM     12  F   UNL d   1      -6.009   0.986  -0.925  0.00  0.00    -0.204 F 
ATOM     13  C   UNL d   1      -2.795  -0.645  -0.580  0.00  0.00     0.028 A 
ENDBRANCH   3   6
ENDBRANCH   1   3
BRANCH   1  14
ATOM     14  C   UNL d   1       0.776   1.704  -1.941  0.00  0.00     0.069 A 
ATOM     15  C   UNL d   1       2.134   2.049  -1.704  0.00  0.00     0.058 A 
ATOM     16  C   UNL d   1       2.547   3.307  -2.163  0.00  0.00     0.031 A 
ATOM     17  C   UNL d   1       1.671   4.182  -2.812  0.00  0.00     0.002 A 
ATOM     18  C   UNL d   1       0.347   3.819  -3.023  0.00  0.00     0.002 A 
ATOM     19  C   UNL d   1      -0.099   2.573  -2.598  0.00  0.00     0.032 A 
BRANCH  15  20
ATOM     20  N   UNL d   1       2.996   1.208  -0.999  0.00  0.00    -0.375 N 
ATOM     21  C   UNL d   1       4.142   1.758  -0.252  0.00  0.00     0.149 C 
ATOM     22  C   UNL d   1       4.463   0.828   0.932  0.00  0.00     0.187 C 
ATOM     23  O   UNL d   1       4.698  -0.526   0.502  0.00  0.00    -0.388 OA
ATOM     24  C   UNL d   1       3.539  -1.031  -0.186  0.00  0.00     0.187 C 
ATOM     25  C   UNL d   1       3.228  -0.182  -1.430  0.00  0.00     0.149 C 
ENDBRANCH  15  20
ENDBRANCH   1  14
TORSDOF 4
