REMARK  8 active torsions:
REMARK  status: ('A' for Active; 'I' for Inactive)
REMARK    1  A    between atoms: N_2  and  S_1 
REMARK    2  A    between atoms: C_4  and  S_1 
REMARK    3  A    between atoms: C_10  and  N_2 
REMARK    4  A    between atoms: N_3  and  C_7 
REMARK    5  A    between atoms: C_20  and  C_17 
REMARK    6  A    between atoms: C_21  and  C_20 
REMARK    7  A    between atoms: C_23  and  C_21 
REMARK    8  A    between atoms: C_22  and  C_23 
ROOT
ATOM      1  S   UNL d   1       1.064  -0.128   0.082  0.00  0.00     0.263 S 
ATOM      2  O   UNL d   1       0.464  -1.352  -0.401  0.00  0.00    -0.200 OA
ATOM      3  O   UNL d   1       2.506   0.026   0.142  0.00  0.00    -0.200 OA
ENDROOT
BRANCH   1   4
ATOM      4  N   UNL d   1       0.499   0.191   1.633  0.00  0.00    -0.281 N 
ATOM      5  H   UNL d   1       1.164   0.621   2.272  0.00  0.00     0.179 HD
BRANCH   4   6
ATOM      6  C   UNL d   1      -0.887   0.287   1.891  0.00  0.00     0.042 A 
ATOM      7  C   UNL d   1      -1.592  -0.852   2.252  0.00  0.00     0.032 A 
ATOM      8  C   UNL d   1      -2.966  -0.769   2.516  0.00  0.00     0.031 A 
ATOM      9  C   UNL d   1      -3.668   0.442   2.426  0.00  0.00     0.030 A 
ATOM     10  C   UNL d   1      -2.927   1.570   2.039  0.00  0.00     0.031 A 
ATOM     11  C   UNL d   1      -1.551   1.504   1.790  0.00  0.00     0.032 A 
BRANCH   9  12
ATOM     12  N   UNL d   1      -5.021   0.527   2.679  0.00  0.00    -0.381 N 
ATOM     13  C   UNL d   1      -5.933  -0.603   2.491  0.00  0.00     0.123 C 
ATOM     14  C   UNL d   1      -7.109  -0.132   1.632  0.00  0.00     0.020 C 
ATOM     15  C   UNL d   1      -7.783   1.107   2.222  0.00  0.00     0.003 C 
ATOM     16  C   UNL d   1      -6.769   2.212   2.529  0.00  0.00     0.020 C 
ATOM     17  C   UNL d   1      -5.604   1.683   3.362  0.00  0.00     0.123 C 
ENDBRANCH   9  12
ENDBRANCH   4   6
ENDBRANCH   1   4
BRANCH   1  18
ATOM     18  C   UNL d   1       0.415   1.225  -0.875  0.00  0.00     0.079 A 
ATOM     19  C   UNL d   1       1.173   2.383  -1.053  0.00  0.00     0.026 A 
ATOM     20  C   UNL d   1       0.607   3.477  -1.713  0.00  0.00     0.009 A 
ATOM     21  C   UNL d   1      -0.709   3.411  -2.198  0.00  0.00    -0.058 A 
ATOM     22  C   UNL d   1      -1.429   2.212  -2.068  0.00  0.00     0.009 A 
ATOM     23  C   UNL d   1      -0.866   1.119  -1.414  0.00  0.00     0.026 A 
BRANCH  21  24
ATOM     24  C   UNL d   1      -1.362   4.624  -2.820  0.00  0.00     0.038 C 
BRANCH  24  25
ATOM     25  C   UNL d   1      -2.603   5.105  -2.054  0.00  0.00     0.005 C 
BRANCH  25  26
ATOM     26  C   UNL d   1      -2.299   5.531  -0.614  0.00  0.00    -0.000 C 
BRANCH  26  27
ATOM     27  C   UNL d   1      -3.570   5.992   0.099  0.00  0.00    -0.005 C 
ATOM     28  C   UNL d   1      -3.284   6.406   1.532  0.00  0.00     0.005 C 
ENDBRANCH  26  27
ENDBRANCH  25  26
ENDBRANCH  24  25
ENDBRANCH  21  24
ENDBRANCH   1  18
TORSDOF 8
