REMARK  4 active torsions:
REMARK  status: ('A' for Active; 'I' for Inactive)
REMARK    1  A    between atoms: C_3  and  N_1 
REMARK    2  A    between atoms: S_4  and  C_2 
REMARK    3  A    between atoms: C_5  and  S_4 
REMARK    4  A    between atoms: C_15  and  C_8 
ROOT
ATOM      1  C   UNL d   1      -0.420  -0.660  -2.156  0.00  0.00     0.151 A 
ATOM      2  N   UNL d   1      -0.841   0.480  -2.729  0.00  0.00    -0.336 N 
ATOM      3  HN  UNL d   1      -1.791   0.823  -2.586  1.00  0.00     0.168 HD
ATOM      4  C   UNL d   1       0.037   1.158  -3.501  0.00  0.00     0.047 A 
ATOM      5  N   UNL d   1       0.812  -1.176  -2.296  0.00  0.00    -0.346 N 
ATOM      6  HN  UNL d   1       1.081  -2.057  -1.857  1.00  0.00     0.167 HD
ATOM      7  C   UNL d   1       1.336   0.713  -3.671  0.00  0.00     0.047 A 
ATOM      8  C   UNL d   1       1.669  -0.467  -3.047  0.00  0.00     0.092 A 
ENDROOT
BRANCH   1   9
ATOM      9  S   UNL d   1      -1.486  -1.456  -0.989  0.00  0.00    -0.034 SA
BRANCH   9  10
ATOM     10  C   UNL d   1      -2.419  -2.518  -2.062  0.00  0.00     0.110 A 
ATOM     11  C   UNL d   1      -2.136  -3.852  -2.320  0.00  0.00     0.136 A 
ATOM     12  C   UNL d   1      -2.985  -4.619  -3.133  0.00  0.00     0.040 A 
ATOM     13  C   UNL d   1      -4.122  -4.020  -3.662  0.00  0.00     0.020 A 
ATOM     14  C   UNL d   1      -4.352  -2.689  -3.362  0.00  0.00     0.089 A 
ATOM     15  N   UNL d   1      -3.535  -1.940  -2.585  0.00  0.00    -0.358 N 
ATOM     16  HN  UNL d   1      -3.752  -0.961  -2.395  1.00  0.00     0.166 HD
BRANCH  11  17
ATOM     17  N   UNL d   1      -0.993  -4.509  -1.741  0.00  0.00    -0.113 N 
ATOM     18  O   UNL d   1      -0.965  -4.624  -0.508  0.00  0.00    -0.532 OA
ATOM     19  O   UNL d   1      -0.168  -4.990  -2.528  0.00  0.00    -0.532 OA
ENDBRANCH  11  17
ENDBRANCH   9  10
ENDBRANCH   1   9
BRANCH   4  20
ATOM     20  C   UNL d   1      -0.466   2.401  -4.116  0.00  0.00     0.006 A 
ATOM     21  C   UNL d   1      -1.502   3.136  -3.531  0.00  0.00     0.101 A 
ATOM     22  N   UNL d   1      -2.004   4.304  -4.014  0.00  0.00    -0.374 N 
ATOM     23  C   UNL d   1      -1.462   4.771  -5.155  0.00  0.00     0.087 A 
ATOM     24  HN  UNL d   1      -2.754   4.802  -3.535  1.00  0.00     0.164 HD
ATOM     25  C   UNL d   1      -0.447   4.125  -5.836  0.00  0.00     0.018 A 
ATOM     26  C   UNL d   1       0.049   2.932  -5.310  0.00  0.00     0.016 A 
ENDBRANCH   4  20
TORSDOF 4
