REMARK  3 active torsions:
REMARK  status: ('A' for Active; 'I' for Inactive)
REMARK    1  A    between atoms: C_7  and  C_1 
REMARK    2  A    between atoms: C_14  and  C_5 
REMARK       I    between atoms: N_8  and  C_7 
REMARK    3  A    between atoms: C_11  and  N_8 
ROOT
ATOM      1  C   UNL d   1      -0.341  -2.545  -0.181  0.00  0.00     0.266 C 
ATOM      2  N   UNL d   1       0.835  -3.272  -0.108  0.00  0.00    -0.308 N 
ATOM      3  O   UNL d   1      -1.461  -3.044  -0.255  0.00  0.00    -0.267 OA
ATOM      4  H   UNL d   1       1.702  -2.757  -0.110  0.00  0.00     0.170 HD
ENDROOT
BRANCH   1   5
ATOM      5  C   UNL d   1      -0.185  -1.094  -0.177  0.00  0.00     0.097 A 
ATOM      6  S   UNL d   1       1.305  -0.291   0.115  0.00  0.00    -0.064 SA
ATOM      7  C   UNL d   1       0.512   1.236   0.018  0.00  0.00     0.085 A 
ATOM      8  N   UNL d   1      -0.777   1.169  -0.236  0.00  0.00    -0.352 N 
ATOM      9  C   UNL d   1      -1.183  -0.148  -0.370  0.00  0.00     0.029 A 
ATOM     10  HN  UNL d   1      -1.393   1.977  -0.324  1.00  0.00     0.166 HD
ATOM     11  C   UNL d   1      -2.615  -0.406  -0.684  0.00  0.00     0.070 C 
BRANCH   7  12
ATOM     12  C   UNL d   1       1.222   2.499   0.264  0.00  0.00    -0.002 A 
ATOM     13  C   UNL d   1       2.503   2.759  -0.244  0.00  0.00     0.014 A 
ATOM     14  C   UNL d   1       3.120   3.995  -0.019  0.00  0.00     0.001 A 
ATOM     15  C   UNL d   1       2.467   4.982   0.718  0.00  0.00     0.000 A 
ATOM     16  C   UNL d   1       1.194   4.740   1.227  0.00  0.00     0.001 A 
ATOM     17  C   UNL d   1       0.575   3.510   0.995  0.00  0.00     0.014 A 
ENDBRANCH   7  12
ENDBRANCH   1   5
BRANCH   2  18
ATOM     18  C   UNL d   1       0.902  -4.668   0.028  0.00  0.00     0.108 A 
ATOM     19  N   UNL d   1      -0.226  -5.389   0.134  0.00  0.00    -0.342 N 
ATOM     20  C   UNL d   1      -0.156  -6.711   0.346  0.00  0.00     0.043 A 
ATOM     21  HN  UNL d   1      -1.134  -4.932   0.054  1.00  0.00     0.167 HD
ATOM     22  C   UNL d   1      -1.331  -7.438   0.482  0.00  0.00     0.030 A 
ATOM     23  C   UNL d   1       1.071  -7.390   0.455  0.00  0.00    -0.009 A 
ATOM     24  C   UNL d   1      -1.318  -8.810   0.743  0.00  0.00     0.002 A 
ATOM     25  C   UNL d   1      -0.105  -9.478   0.865  0.00  0.00     0.001 A 
ATOM     26  C   UNL d   1       1.089  -8.774   0.714  0.00  0.00     0.013 A 
ATOM     27  C   UNL d   1       2.241  -6.635   0.307  0.00  0.00     0.017 A 
ATOM     28  C   UNL d   1       2.156  -5.258   0.095  0.00  0.00     0.049 A 
ENDBRANCH   2  18
TORSDOF 3
