REMARK  4 active torsions:
REMARK  status: ('A' for Active; 'I' for Inactive)
REMARK    1  A    between atoms: C_8  and  C_2 
REMARK    2  A    between atoms: S_10  and  C_5 
REMARK    3  A    between atoms: C_9  and  C_15 
REMARK    4  A    between atoms: C_15  and  S_10 
ROOT
ATOM      1  O   UNL d   1      -1.130   0.124  -0.117  0.00  0.00    -0.267 OA
ATOM      2  C   UNL d   1      -0.278  -0.939   0.035  0.00  0.00     0.175 A 
ATOM      3  N   UNL d   1       0.980  -0.563   0.153  0.00  0.00    -0.277 N 
ATOM      4  HN  UNL d   1       1.789  -1.170   0.281  1.00  0.00     0.189 HD
ATOM      5  C   UNL d   1      -0.268   1.189  -0.087  0.00  0.00     0.203 A 
ATOM      6  N   UNL d   1       0.986   0.812   0.069  0.00  0.00    -0.272 N 
ATOM      7  HN  UNL d   1       1.803   1.421   0.117  1.00  0.00     0.189 HD
ENDROOT
BRANCH   2   8
ATOM      8  C   UNL d   1      -0.854  -2.279   0.058  0.00  0.00     0.017 A 
ATOM      9  C   UNL d   1      -2.217  -2.510  -0.188  0.00  0.00     0.017 A 
ATOM     10  C   UNL d   1      -2.739  -3.808  -0.154  0.00  0.00     0.025 A 
ATOM     11  C   UNL d   1      -1.904  -4.887   0.125  0.00  0.00     0.034 A 
ATOM     12  C   UNL d   1      -0.548  -4.681   0.366  0.00  0.00     0.025 A 
ATOM     13 CL   UNL d   1      -2.549  -6.481   0.175  0.00  0.00    -0.084 Cl
ATOM     14  C   UNL d   1      -0.028  -3.382   0.330  0.00  0.00     0.017 A 
ENDBRANCH   2   8
BRANCH   5  15
ATOM     15  S   UNL d   1      -0.795   2.839  -0.220  0.00  0.00    -0.085 SA
BRANCH  15  16
ATOM     16  C   UNL d   1       0.717   3.602  -0.867  0.00  0.00     0.087 C 
BRANCH  16  17
ATOM     17  C   UNL d   1       0.529   5.087  -0.962  0.00  0.00    -0.005 A 
ATOM     18  C   UNL d   1      -0.398   5.717  -1.974  0.00  0.00     0.006 A 
ATOM     19  C   UNL d   1       1.089   5.838  -2.147  0.00  0.00     0.006 A 
ENDBRANCH  16  17
ENDBRANCH  15  16
ENDBRANCH   5  15
TORSDOF 4
