REMARK  2 active torsions:
REMARK  status: ('A' for Active; 'I' for Inactive)
REMARK    1  A    between atoms: C_7  and  C_3 
REMARK    2  A    between atoms: C_10  and  C_4 
ROOT
ATOM      1  N   UNL d   1       1.403  -0.596   0.019  0.00  0.00    -0.349 N 
ATOM      2  HN  UNL d   1       2.285  -1.108   0.064  1.00  0.00     0.166 HD
ATOM      3  C   UNL d   1       0.210  -1.158  -0.034  0.00  0.00     0.085 A 
ATOM      4  C   UNL d   1       1.293   0.788   0.003  0.00  0.00     0.050 A 
ATOM      5  S   UNL d   1      -1.108  -0.044  -0.009  0.00  0.00    -0.081 SA
ATOM      6  C   UNL d   1      -0.005   1.260   0.014  0.00  0.00     0.082 A 
ENDROOT
BRANCH   3   7
ATOM      7  C   UNL d   1      -0.028  -2.612  -0.059  0.00  0.00     0.001 A 
ATOM      8  C   UNL d   1      -1.152  -3.179  -0.676  0.00  0.00     0.057 A 
ATOM      9  C   UNL d   1      -1.339  -4.559  -0.667  0.00  0.00     0.123 A 
ATOM     10  F   UNL d   1      -2.427  -5.065  -1.266  0.00  0.00    -0.206 F 
ATOM     11  C   UNL d   1      -0.424  -5.416  -0.056  0.00  0.00    -0.023 A 
ATOM     12  C   UNL d   1       0.709  -4.862   0.547  0.00  0.00     0.011 A 
ATOM     13  C   UNL d   1      -0.667  -6.894  -0.062  0.00  0.00     0.051 C 
ATOM     14  C   UNL d   1       0.905  -3.475   0.539  0.00  0.00     0.015 A 
ENDBRANCH   3   7
BRANCH   4  15
ATOM     15  C   UNL d   1       2.470   1.651   0.002  0.00  0.00    -0.009 A 
ATOM     16  C   UNL d   1       2.439   2.935  -0.560  0.00  0.00     0.014 A 
ATOM     17  C   UNL d   1       3.574   3.751  -0.541  0.00  0.00     0.007 A 
ATOM     18  C   UNL d   1       4.764   3.297   0.037  0.00  0.00    -0.062 A 
ATOM     19  C   UNL d   1       4.804   2.012   0.588  0.00  0.00     0.007 A 
ATOM     20  C   UNL d   1       5.970   4.189   0.057  0.00  0.00     0.048 C 
ATOM     21  C   UNL d   1       3.668   1.195   0.566  0.00  0.00     0.014 A 
ENDBRANCH   4  15
TORSDOF 2
