REMARK  7 active torsions:
REMARK  status: ('A' for Active; 'I' for Inactive)
REMARK    1  A    between atoms: N_2  and  C_1 
REMARK    2  A    between atoms: C_3  and  C_5 
REMARK       I    between atoms: N_7  and  C_3 
REMARK    3  A    between atoms: S_9  and  C_6 
REMARK    4  A    between atoms: C_16  and  N_7 
REMARK    5  A    between atoms: C_19  and  N_7 
REMARK    6  A    between atoms: C_18  and  S_9 
REMARK    7  A    between atoms: C_17  and  C_19 
ROOT
ATOM      1  N   UNL d   1      -4.888   2.781   0.378  0.00  0.00    -0.197 NA
ATOM      2  C   UNL d   1      -4.774   1.660   0.662  0.00  0.00     0.060 C 
ATOM      3  C   UNL d   1      -4.626   0.245   1.000  0.00  0.00     0.143 C 
ENDROOT
BRANCH   3   4
ATOM      4  C   UNL d   1      -4.006  -0.528  -0.165  0.00  0.00     0.140 C 
BRANCH   4   5
ATOM      5  N   UNL d   1      -3.391  -1.809   0.229  0.00  0.00    -0.342 N 
ATOM      6  C   UNL d   1      -1.998  -2.035   0.052  0.00  0.00     0.254 C 
ATOM      7  O   UNL d   1      -1.536  -3.163  -0.125  0.00  0.00    -0.267 OA
BRANCH   6   8
ATOM      8  C   UNL d   1      -0.992  -0.926   0.070  0.00  0.00     0.034 A 
ATOM      9  C   UNL d   1      -1.143   0.246   0.808  0.00  0.00     0.054 A 
ATOM     10  C   UNL d   1      -0.185   1.276   0.709  0.00  0.00     0.120 A 
ATOM     11  C   UNL d   1       1.001   1.120  -0.016  0.00  0.00     0.038 A 
ATOM     12  C   UNL d   1       1.182  -0.098  -0.687  0.00  0.00     0.022 A 
ATOM     13  C   UNL d   1       0.198  -1.099  -0.653  0.00  0.00     0.018 A 
BRANCH  10  14
ATOM     14  N   UNL d   1      -0.533   2.544   1.331  0.00  0.00    -0.114 N 
ATOM     15  O   UNL d   1      -0.894   2.502   2.515  0.00  0.00    -0.532 OA
ATOM     16  O   UNL d   1      -0.539   3.551   0.613  0.00  0.00    -0.532 OA
ENDBRANCH  10  14
BRANCH  11  17
ATOM     17  S   UNL d   1       2.293   2.344  -0.170  0.00  0.00    -0.088 SA
BRANCH  17  18
ATOM     18  C   UNL d   1       3.245   2.082   1.317  0.00  0.00     0.005 A 
ATOM     19  C   UNL d   1       3.862   0.854   1.580  0.00  0.00     0.019 A 
ATOM     20  C   UNL d   1       4.640   0.684   2.728  0.00  0.00     0.001 A 
ATOM     21  C   UNL d   1       4.817   1.744   3.615  0.00  0.00     0.000 A 
ATOM     22  C   UNL d   1       4.220   2.976   3.352  0.00  0.00     0.001 A 
ATOM     23  C   UNL d   1       3.438   3.145   2.205  0.00  0.00     0.019 A 
ENDBRANCH  17  18
ENDBRANCH  11  17
ENDBRANCH   6   8
BRANCH   5  24
ATOM     24  C   UNL d   1      -4.231  -3.049   0.324  0.00  0.00     0.087 C 
ATOM     25  C   UNL d   1      -5.774  -2.917   0.308  0.00  0.00     0.025 C 
ATOM     26  C   UNL d   1      -6.488  -2.648   1.642  0.00  0.00     0.002 C 
ATOM     27  C   UNL d   1      -5.771  -3.055   2.927  0.00  0.00     0.000 C 
ATOM     28  C   UNL d   1      -4.258  -3.154   2.825  0.00  0.00     0.002 C 
ATOM     29  C   UNL d   1      -3.857  -3.890   1.558  0.00  0.00     0.025 C 
ENDBRANCH   5  24
ENDBRANCH   4   5
ENDBRANCH   3   4
TORSDOF 7
