REMARK  3 active torsions:
REMARK  status: ('A' for Active; 'I' for Inactive)
REMARK    1  A    between atoms: C_4  and  C_1 
REMARK    2  A    between atoms: C_2  and  C_3 
REMARK    3  A    between atoms: N_9  and  C_5 
ROOT
ATOM      1  C   UNL d   1       1.030   3.671  -0.007  0.00  0.00     0.050 A 
ATOM      2  C   UNL d   1       0.584   1.292  -0.082  0.00  0.00     0.050 A 
ATOM      3  C   UNL d   1      -1.313   2.878  -0.155  0.00  0.00     0.030 A 
ATOM      4  C   UNL d   1       1.492   2.352  -0.004  0.00  0.00     0.032 A 
ATOM      5  C   UNL d   1      -0.358   3.908  -0.095  0.00  0.00     0.045 A 
ATOM      6  C   UNL d   1      -0.799   1.569  -0.148  0.00  0.00     0.045 A 
ENDROOT
BRANCH   1   7
ATOM      7  C   UNL d   1       1.981   4.838   0.068  0.00  0.00     0.417 C 
ATOM      8  F   UNL d   1       3.289   4.469   0.163  0.00  0.00    -0.166 F 
ATOM      9  F   UNL d   1       1.901   5.650  -1.021  0.00  0.00    -0.166 F 
ATOM     10  F   UNL d   1       1.742   5.638   1.148  0.00  0.00    -0.166 F 
ENDBRANCH   1   7
BRANCH   2  11
ATOM     11  C   UNL d   1       1.059  -0.141  -0.112  0.00  0.00     0.417 C 
ATOM     12  F   UNL d   1       2.411  -0.268  -0.007  0.00  0.00    -0.166 F 
ATOM     13  F   UNL d   1       0.712  -0.778  -1.262  0.00  0.00    -0.166 F 
ATOM     14  F   UNL d   1       0.534  -0.887   0.900  0.00  0.00    -0.166 F 
ENDBRANCH   2  11
BRANCH   3  15
ATOM     15  N   UNL d   1      -2.672   3.157  -0.295  0.00  0.00    -0.390 N 
ATOM     16  C   UNL d   1      -3.246   4.322   0.389  0.00  0.00     0.149 C 
ATOM     17  C   UNL d   1      -3.640   2.077  -0.493  0.00  0.00     0.149 C 
ENDBRANCH   3  15
TORSDOF 3
