REMARK  7 active torsions:
REMARK  status: ('A' for Active; 'I' for Inactive)
REMARK    1  A    between atoms: C_8  and  C_1 
REMARK    2  A    between atoms: N_16  and  C_2 
REMARK       I    between atoms: N_15  and  C_8 
REMARK    3  A    between atoms: C_20  and  C_10 
REMARK    4  A    between atoms: N_12  and  N_15 
REMARK    5  A    between atoms: O_25  and  C_14 
REMARK    6  A    between atoms: O_26  and  C_18 
REMARK    7  A    between atoms: C_23  and  C_22 
ROOT
ATOM      1  C   UNL d   1       2.407   0.061  -0.012  0.00  0.00     0.174 A 
ATOM      2  C   UNL d   1       1.663   1.227  -0.011  0.00  0.00     0.081 A 
ATOM      3  C   UNL d   1       0.290   0.867   0.008  0.00  0.00     0.051 A 
ATOM      4  C   UNL d   1       0.284  -0.533   0.006  0.00  0.00     0.162 A 
ATOM      5  O   UNL d   1       1.566  -1.019   0.001  0.00  0.00    -0.285 OA
ATOM      6  N   UNL d   1      -0.790  -1.346  -0.001  0.00  0.00    -0.335 N 
ATOM      7  HN  UNL d   1      -0.714  -2.364   0.009  1.00  0.00     0.168 HD
ATOM      8  C   UNL d   1      -0.958   1.527   0.018  0.00  0.00    -0.043 A 
ATOM      9  C   UNL d   1      -1.980  -0.698  -0.021  0.00  0.00     0.044 A 
ATOM     10  C   UNL d   1      -2.092   0.696   0.011  0.00  0.00     0.038 A 
ATOM     11  C   UNL d   1      -1.183   3.012   0.017  0.00  0.00     0.049 C 
ENDROOT
BRANCH   1  12
ATOM     12  C   UNL d   1       3.848  -0.101  -0.016  0.00  0.00     0.296 C 
ATOM     13  N   UNL d   1       4.316  -1.412  -0.042  0.00  0.00    -0.264 N 
ATOM     14  H   UNL d   1       3.665  -2.191  -0.058  0.00  0.00     0.190 HD
ATOM     15  O   UNL d   1       4.608   0.873   0.005  0.00  0.00    -0.264 OA
BRANCH  13  16
ATOM     16  N   UNL d   1       5.666  -1.612  -0.041  0.00  0.00    -0.308 N 
ATOM     17  C   UNL d   1       6.106  -2.827  -0.073  0.00  0.00     0.118 C 
ATOM     18  HN  UNL d   1       6.312  -0.823  -0.016  1.00  0.00     0.186 HD
BRANCH  17  19
ATOM     19  C   UNL d   1       7.564  -3.089  -0.065  0.00  0.00    -0.017 A 
ATOM     20  C   UNL d   1       8.034  -4.403  -0.108  0.00  0.00     0.052 A 
ATOM     21  C   UNL d   1       9.413  -4.673  -0.086  0.00  0.00     0.102 A 
ATOM     22  C   UNL d   1      10.314  -3.602  -0.010  0.00  0.00     0.099 A 
ATOM     23  C   UNL d   1       9.845  -2.284   0.020  0.00  0.00     0.040 A 
ATOM     24  C   UNL d   1       8.474  -2.028  -0.009  0.00  0.00     0.016 A 
BRANCH  21  25
ATOM     25  O   UNL d   1       9.691  -6.013  -0.142  0.00  0.00    -0.353 OA
ATOM     26  C   UNL d   1      11.052  -6.418  -0.185  0.00  0.00     0.210 C 
ENDBRANCH  21  25
BRANCH  22  27
ATOM     27  O   UNL d   1      11.665  -3.803   0.042  0.00  0.00    -0.358 OA
ATOM     28  H   UNL d   1      12.115  -2.946   0.127  0.00  0.00     0.217 HD
ENDBRANCH  22  27
ENDBRANCH  17  19
ENDBRANCH  13  16
ENDBRANCH   1  12
BRANCH   2  29
ATOM     29  N   UNL d   1       2.200   2.463  -0.032  0.00  0.00    -0.396 N 
ATOM     30  H   UNL d   1       3.217   2.580   0.003  0.00  0.00     0.156 HD
ATOM     31  H   UNL d   1       1.687   3.326   0.086  0.00  0.00     0.156 HD
ENDBRANCH   2  29
BRANCH   9  32
ATOM     32  C   UNL d   1      -3.189  -1.552  -0.103  0.00  0.00    -0.009 A 
ATOM     33  C   UNL d   1      -3.256  -2.789   0.561  0.00  0.00     0.013 A 
ATOM     34  C   UNL d   1      -4.400  -3.594   0.487  0.00  0.00     0.001 A 
ATOM     35  C   UNL d   1      -5.501  -3.181  -0.257  0.00  0.00     0.000 A 
ATOM     36  C   UNL d   1      -5.461  -1.965  -0.929  0.00  0.00     0.001 A 
ATOM     37  C   UNL d   1      -4.318  -1.163  -0.854  0.00  0.00     0.013 A 
ENDBRANCH   9  32
TORSDOF 7
