REMARK  6 active torsions:
REMARK  status: ('A' for Active; 'I' for Inactive)
REMARK    1  A    between atoms: N_2  and  C_1 
REMARK    2  A    between atoms: N_10  and  C_3 
REMARK    3  A    between atoms: C_9  and  C_4 
REMARK    4  A    between atoms: C_5  and  C_11 
REMARK    5  A    between atoms: O_21  and  C_9 
REMARK    6  A    between atoms: C_15  and  N_10 
ROOT
ATOM      1  C   UNL d   1       0.849   1.181   0.177  0.00  0.00     0.147 A 
ATOM      2  C   UNL d   1      -0.538   1.212   0.071  0.00  0.00     0.139 A 
ATOM      3  C   UNL d   1       0.841  -1.220   0.013  0.00  0.00     0.057 A 
ATOM      4  C   UNL d   1       1.558  -0.028   0.138  0.00  0.00     0.059 A 
ATOM      5  N   UNL d   1      -1.220   0.042  -0.042  0.00  0.00    -0.349 N 
ATOM      6  HN  UNL d   1      -2.237   0.046  -0.110  1.00  0.00     0.167 HD
ATOM      7  C   UNL d   1      -0.537  -1.133  -0.063  0.00  0.00     0.107 A 
ENDROOT
BRANCH   2   8
ATOM      8  N   UNL d   1      -1.275   2.417   0.138  0.00  0.00    -0.340 N 
ATOM      9  H   UNL d   1      -0.981   3.085  -0.572  0.00  0.00     0.167 HD
BRANCH   8  10
ATOM     10  C   UNL d   1      -2.650   2.475   0.450  0.00  0.00     0.034 A 
ATOM     11  C   UNL d   1      -3.140   1.736   1.535  0.00  0.00     0.045 A 
ATOM     12  C   UNL d   1      -4.511   1.616   1.785  0.00  0.00     0.050 A 
ATOM     13  C   UNL d   1      -5.406   2.313   0.964  0.00  0.00     0.016 A 
ATOM     14  C   UNL d   1      -4.930   3.098  -0.087  0.00  0.00     0.003 A 
ATOM     15  C   UNL d   1      -3.558   3.175  -0.348  0.00  0.00     0.029 A 
BRANCH  12  16
ATOM     16  C   UNL d   1      -4.999   0.698   2.874  0.00  0.00     0.417 C 
ATOM     17  F   UNL d   1      -3.996   0.062   3.546  0.00  0.00    -0.166 F 
ATOM     18  F   UNL d   1      -5.727   1.347   3.824  0.00  0.00    -0.166 F 
ATOM     19  F   UNL d   1      -5.804  -0.291   2.395  0.00  0.00    -0.166 F 
ENDBRANCH  12  16
ENDBRANCH   8  10
ENDBRANCH   2   8
BRANCH   1  20
ATOM     20  N   UNL d   1       1.582   2.394   0.425  0.00  0.00    -0.112 N 
ATOM     21  O   UNL d   1       1.430   3.323  -0.384  0.00  0.00    -0.532 OA
ATOM     22  O   UNL d   1       2.340   2.407   1.403  0.00  0.00    -0.532 OA
ENDBRANCH   1  20
BRANCH   3  23
ATOM     23  C   UNL d   1       1.477  -2.555  -0.029  0.00  0.00     0.294 C 
ATOM     24  O   UNL d   1       0.856  -3.598  -0.108  0.00  0.00    -0.259 OA
BRANCH  23  25
ATOM     25  O   UNL d   1       2.823  -2.418   0.028  0.00  0.00    -0.322 OA
ATOM     26  C   UNL d   1       3.544  -3.651   0.008  0.00  0.00     0.213 C 
ENDBRANCH  23  25
ENDBRANCH   3  23
TORSDOF 6
