REMARK  7 active torsions:
REMARK  status: ('A' for Active; 'I' for Inactive)
REMARK    1  A    between atoms: C_8  and  N_1 
REMARK    2  A    between atoms: S_9  and  C_2 
REMARK    3  A    between atoms: C_21  and  S_9 
REMARK    4  A    between atoms: C_12  and  C_21 
REMARK    5  A    between atoms: O_14  and  C_15 
REMARK    6  A    between atoms: C_16  and  O_14 
REMARK    7  A    between atoms: C_19  and  C_16 
ROOT
ATOM      1  C   UNL d   1      -0.511  -2.682   0.052  0.00  0.00     0.043 A 
ATOM      2  C   UNL d   1      -0.183  -3.488   1.150  0.00  0.00     0.033 A 
ATOM      3  C   UNL d   1      -1.139  -3.275  -1.048  0.00  0.00     0.033 A 
ATOM      4  C   UNL d   1      -1.132  -5.434   0.050  0.00  0.00     0.069 A 
ATOM      5  C   UNL d   1      -0.480  -4.858   1.139  0.00  0.00     0.039 A 
ATOM      6  C   UNL d   1      -1.444  -4.639  -1.050  0.00  0.00     0.039 A 
ENDROOT
BRANCH   1   7
ATOM      7  N   UNL d   1      -0.206  -1.287   0.033  0.00  0.00    -0.279 N 
ATOM      8  C   UNL d   1       0.887  -0.619   0.573  0.00  0.00     0.167 A 
ATOM      9  N   UNL d   1       0.802   0.669   0.326  0.00  0.00    -0.278 N 
ATOM     10  N   UNL d   1      -0.340   0.891  -0.380  0.00  0.00    -0.287 N 
ATOM     11  HN  UNL d   1       1.476   1.379   0.613  1.00  0.00     0.189 HD
ATOM     12  C   UNL d   1      -0.952  -0.264  -0.558  0.00  0.00     0.101 A 
ATOM     13  HN  UNL d   1      -0.667   1.797  -0.716  1.00  0.00     0.188 HD
ATOM     14  C   UNL d   1      -2.297  -0.381  -1.176  0.00  0.00     0.091 C 
BRANCH   8  15
ATOM     15  S   UNL d   1       2.285  -1.359   1.294  0.00  0.00    -0.088 SA
BRANCH  15  16
ATOM     16  C   UNL d   1       3.271   0.111   1.698  0.00  0.00     0.108 C 
BRANCH  16  17
ATOM     17  C   UNL d   1       4.532  -0.315   2.393  0.00  0.00    -0.026 C 
ATOM     18  C   UNL d   1       4.870   0.043   3.640  0.00  0.00     0.007 C 
ENDBRANCH  16  17
ENDBRANCH  15  16
ENDBRANCH   8  15
ENDBRANCH   1   7
BRANCH   4  19
ATOM     19  O   UNL d   1      -1.408  -6.771   0.160  0.00  0.00    -0.347 OA
BRANCH  19  20
ATOM     20  C   UNL d   1      -2.406  -7.259  -0.741  0.00  0.00     0.214 C 
BRANCH  20  21
ATOM     21  C   UNL d   1      -2.904  -8.618  -0.316  0.00  0.00    -0.034 A 
ATOM     22  C   UNL d   1      -4.269  -8.924  -0.445  0.00  0.00     0.009 A 
ATOM     23  C   UNL d   1      -4.749 -10.187  -0.104  0.00  0.00     0.001 A 
ATOM     24  C   UNL d   1      -3.872 -11.162   0.357  0.00  0.00     0.000 A 
ATOM     25  C   UNL d   1      -2.511 -10.877   0.477  0.00  0.00     0.001 A 
ATOM     26  C   UNL d   1      -2.026  -9.613   0.138  0.00  0.00     0.009 A 
ENDBRANCH  20  21
ENDBRANCH  19  20
ENDBRANCH   4  19
TORSDOF 7
