REMARK  9 active torsions:
REMARK  status: ('A' for Active; 'I' for Inactive)
REMARK    1  A    between atoms: C_7  and  N_1 
REMARK    2  A    between atoms: S_8  and  C_2 
REMARK    3  A    between atoms: C_15  and  S_8 
REMARK    4  A    between atoms: C_9  and  C_15 
REMARK       I    between atoms: N_10  and  C_9 
REMARK    5  A    between atoms: C_16  and  N_10 
REMARK    6  A    between atoms: O_17  and  C_18 
REMARK    7  A    between atoms: C_20  and  O_17 
REMARK    8  A    between atoms: O_28  and  C_19 
REMARK    9  A    between atoms: C_27  and  C_20 
ROOT
ATOM      1  N   UNL d   1       0.905  -0.783  -0.046  0.00  0.00    -0.241 N 
ATOM      2  C   UNL d   1       0.875   0.524  -0.431  0.00  0.00     0.170 A 
ATOM      3  C   UNL d   1      -0.413  -1.082   0.235  0.00  0.00     0.347 A 
ATOM      4  N   UNL d   1      -0.283   1.103  -0.351  0.00  0.00    -0.275 N 
ATOM      5  HN  UNL d   1      -0.518   2.073  -0.564  1.00  0.00     0.189 HD
ATOM      6  N   UNL d   1      -1.108   0.118   0.083  0.00  0.00    -0.249 N 
ATOM      7  O   UNL d   1      -0.935  -2.140   0.554  0.00  0.00    -0.245 OA
ATOM      8  H   UNL d   1      -2.114   0.224   0.146  0.00  0.00     0.192 HD
ENDROOT
BRANCH   1   9
ATOM      9  C   UNL d   1       1.977  -1.709  -0.048  0.00  0.00     0.046 C 
ATOM     10  C   UNL d   1       1.769  -3.067  -0.322  0.00  0.00     0.033 C 
ATOM     11  C   UNL d   1       2.853  -3.913  -0.588  0.00  0.00     0.039 C 
ATOM     12  C   UNL d   1       4.145  -3.413  -0.554  0.00  0.00     0.069 C 
ATOM     13  C   UNL d   1       4.371  -2.123  -0.087  0.00  0.00     0.039 C 
ATOM     14  C   UNL d   1       3.290  -1.279   0.164  0.00  0.00     0.033 C 
BRANCH  12  15
ATOM     15  O   UNL d   1       5.141  -4.231  -1.023  0.00  0.00    -0.347 OA
BRANCH  15  16
ATOM     16  C   UNL d   1       6.233  -3.512  -1.613  0.00  0.00     0.214 C 
BRANCH  16  17
ATOM     17  C   UNL d   1       6.939  -4.375  -2.622  0.00  0.00    -0.034 A 
ATOM     18  C   UNL d   1       7.027  -3.973  -3.963  0.00  0.00     0.009 A 
ATOM     19  C   UNL d   1       7.715  -4.756  -4.889  0.00  0.00     0.001 A 
ATOM     20  C   UNL d   1       8.319  -5.943  -4.481  0.00  0.00     0.000 A 
ATOM     21  C   UNL d   1       8.234  -6.351  -3.152  0.00  0.00     0.001 A 
ATOM     22  C   UNL d   1       7.547  -5.569  -2.223  0.00  0.00     0.009 A 
ENDBRANCH  16  17
ENDBRANCH  15  16
ENDBRANCH  12  15
ENDBRANCH   1   9
BRANCH   2  23
ATOM     23  S   UNL d   1       2.189   1.407  -1.140  0.00  0.00    -0.083 SA
BRANCH  23  24
ATOM     24  C   UNL d   1       2.127   0.740  -2.823  0.00  0.00     0.185 C 
BRANCH  24  25
ATOM     25  C   UNL d   1       0.957   1.180  -3.691  0.00  0.00     0.231 C 
ATOM     26  N   UNL d   1       0.011   1.992  -3.102  0.00  0.00    -0.327 N 
ATOM     27  H   UNL d   1       0.207   2.325  -2.162  0.00  0.00     0.169 HD
ATOM     28  O   UNL d   1       0.935   0.807  -4.865  0.00  0.00    -0.272 OA
BRANCH  26  29
ATOM     29  C   UNL d   1      -1.143   2.518  -3.713  0.00  0.00     0.034 A 
ATOM     30  C   UNL d   1      -1.652   2.038  -4.918  0.00  0.00     0.032 A 
ATOM     31  C   UNL d   1      -2.723   2.679  -5.545  0.00  0.00     0.039 A 
ATOM     32  C   UNL d   1      -3.301   3.807  -4.969  0.00  0.00     0.068 A 
ATOM     33  C   UNL d   1      -2.850   4.238  -3.720  0.00  0.00     0.039 A 
ATOM     34  C   UNL d   1      -1.788   3.587  -3.084  0.00  0.00     0.032 A 
BRANCH  32  35
ATOM     35  O   UNL d   1      -4.295   4.563  -5.527  0.00  0.00    -0.356 OA
ATOM     36  C   UNL d   1      -4.672   4.220  -6.857  0.00  0.00     0.210 C 
ENDBRANCH  32  35
ENDBRANCH  26  29
ENDBRANCH  24  25
ENDBRANCH  23  24
ENDBRANCH   2  23
TORSDOF 9
