REMARK  6 active torsions:
REMARK  status: ('A' for Active; 'I' for Inactive)
REMARK    1  A    between atoms: C_2  and  S_1 
REMARK    2  A    between atoms: C_5  and  S_1 
REMARK    3  A    between atoms: C_8  and  C_2 
REMARK    4  A    between atoms: C_11  and  N_3 
REMARK    5  A    between atoms: N_4  and  C_8 
REMARK    6  A    between atoms: C_20  and  C_11 
ROOT
ATOM      1  N   UNL d   1      -0.505  -4.294  -3.281  0.00  0.00     0.096 N 
ATOM      2  N   UNL d   1       0.160  -3.509  -0.424  0.00  0.00     0.092 N 
ATOM      3  C   UNL d   1      -0.863  -2.983  -2.695  0.00  0.00     0.303 C 
ATOM      4  C   UNL d   1       0.719  -4.769  -2.598  0.00  0.00     0.303 C 
ATOM      5  C   UNL d   1      -1.031  -3.030  -1.157  0.00  0.00     0.302 C 
ATOM      6  C   UNL d   1       0.649  -4.766  -1.047  0.00  0.00     0.302 C 
ENDROOT
BRANCH   2   7
ATOM      7  C   UNL d   1       1.232  -2.493  -0.345  0.00  0.00     0.287 C 
BRANCH   7   8
ATOM      8  C   UNL d   1       0.778  -1.257   0.426  0.00  0.00     0.176 C 
BRANCH   8   9
ATOM      9  S   UNL d   1       2.048  -0.023   0.493  0.00  0.00     0.177 S 
ATOM     10  O   UNL d   1       2.343   0.409  -0.856  0.00  0.00    -0.223 OA
ATOM     11  O   UNL d   1       3.100  -0.483   1.382  0.00  0.00    -0.223 OA
BRANCH   9  12
ATOM     12  C   UNL d   1       1.213   1.327   1.307  0.00  0.00     0.059 A 
ATOM     13  C   UNL d   1       1.266   1.433   2.701  0.00  0.00     0.026 A 
ATOM     14  C   UNL d   1       0.643   2.513   3.328  0.00  0.00     0.044 A 
ATOM     15  C   UNL d   1      -0.019   3.468   2.560  0.00  0.00     0.116 A 
ATOM     16  C   UNL d   1      -0.081   3.361   1.174  0.00  0.00     0.044 A 
ATOM     17  F   UNL d   1      -0.599   4.512   3.166  0.00  0.00    -0.206 F 
ATOM     18  C   UNL d   1       0.540   2.285   0.537  0.00  0.00     0.026 A 
ENDBRANCH   9  12
ENDBRANCH   8   9
ENDBRANCH   7   8
ENDBRANCH   2   7
BRANCH   1  19
ATOM     19  C   UNL d   1      -1.655  -5.207  -3.139  0.00  0.00     0.311 C 
BRANCH  19  20
ATOM     20  C   UNL d   1      -1.466  -6.601  -3.681  0.00  0.00    -0.030 A 
ATOM     21  C   UNL d   1      -1.542  -7.700  -2.810  0.00  0.00     0.009 A 
ATOM     22  C   UNL d   1      -1.458  -9.000  -3.303  0.00  0.00     0.001 A 
ATOM     23  C   UNL d   1      -1.297  -9.213  -4.670  0.00  0.00     0.000 A 
ATOM     24  C   UNL d   1      -1.211  -8.127  -5.542  0.00  0.00     0.001 A 
ATOM     25  C   UNL d   1      -1.292  -6.824  -5.050  0.00  0.00     0.009 A 
ENDBRANCH  19  20
ENDBRANCH   1  19
TORSDOF 6
