REMARK  2 active torsions:
REMARK  status: ('A' for Active; 'I' for Inactive)
REMARK    1  A    between atoms: C_7  and  C_1 
REMARK    2  A    between atoms: C_9  and  C_7 
ROOT
ATOM      1  C   UNL d   1      -2.283  -0.307   0.068  0.00  0.00     0.019 A 
ATOM      2  C   UNL d   1      -1.316   0.814   0.180  0.00  0.00     0.193 A 
ATOM      3  C   UNL d   1       0.114   0.459   0.092  0.00  0.00     0.048 A 
ATOM      4  C   UNL d   1      -1.780  -1.550   0.007  0.00  0.00     0.154 A 
ATOM      5  O   UNL d   1      -0.453  -1.899   0.009  0.00  0.00    -0.321 OA
ATOM      6  C   UNL d   1       0.471  -0.886   0.019  0.00  0.00     0.089 A 
ATOM      7  O   UNL d   1      -1.677   1.971   0.353  0.00  0.00    -0.287 OA
ATOM      8  C   UNL d   1       1.100   1.450   0.085  0.00  0.00     0.018 A 
ATOM      9  C   UNL d   1       1.817  -1.249  -0.048  0.00  0.00     0.038 A 
ATOM     10  C   UNL d   1       2.446   1.087   0.006  0.00  0.00     0.001 A 
ATOM     11  C   UNL d   1       2.804  -0.262  -0.057  0.00  0.00     0.003 A 
ENDROOT
BRANCH   1  12
ATOM     12  C   UNL d   1      -3.751  -0.001   0.082  0.00  0.00     0.083 C 
BRANCH  12  13
ATOM     13  C   UNL d   1      -4.319   0.240  -1.299  0.00  0.00    -0.054 A 
ATOM     14  C   UNL d   1      -4.788  -0.831  -2.075  0.00  0.00     0.007 A 
ATOM     15  C   UNL d   1      -5.284  -0.610  -3.362  0.00  0.00     0.001 A 
ATOM     16  C   UNL d   1      -5.315   0.681  -3.886  0.00  0.00     0.000 A 
ATOM     17  C   UNL d   1      -4.854   1.752  -3.123  0.00  0.00     0.001 A 
ATOM     18  C   UNL d   1      -4.354   1.533  -1.837  0.00  0.00     0.007 A 
ENDBRANCH  12  13
ENDBRANCH   1  12
TORSDOF 2
