REMARK  2 active torsions:
REMARK  status: ('A' for Active; 'I' for Inactive)
REMARK    1  A    between atoms: O_9  and  C_5 
REMARK    2  A    between atoms: O_10  and  C_6 
ROOT
ATOM      1  C   UNL d   1      -0.860   1.274  -0.055  0.00  0.00     0.059 A 
ATOM      2  C   UNL d   1       0.515  -1.152   0.026  0.00  0.00     0.064 A 
ATOM      3  C   UNL d   1       1.217   0.050  -0.098  0.00  0.00     0.070 A 
ATOM      4  C   UNL d   1      -1.569   0.070   0.085  0.00  0.00     0.042 A 
ATOM      5  C   UNL d   1       0.540   1.276  -0.130  0.00  0.00     0.091 A 
ATOM      6  C   UNL d   1      -0.885  -1.152   0.107  0.00  0.00     0.086 A 
ATOM      7 CL   UNL d   1       2.941  -0.025  -0.170  0.00  0.00    -0.081 Cl
ATOM      8  I   UNL d   1      -3.645   0.255   0.366  0.00  0.00    -0.042 I 
ENDROOT
BRANCH   5   9
ATOM      9  O   UNL d   1       1.304   2.410  -0.233  0.00  0.00    -0.354 OA
ATOM     10  C   UNL d   1       0.648   3.666  -0.089  0.00  0.00     0.210 C 
ENDBRANCH   5   9
BRANCH   6  11
ATOM     11  O   UNL d   1      -1.454  -2.374   0.344  0.00  0.00    -0.355 OA
ATOM     12  C   UNL d   1      -2.341  -2.823  -0.678  0.00  0.00     0.210 C 
ENDBRANCH   6  11
TORSDOF 2
