REMARK  7 active torsions:
REMARK  status: ('A' for Active; 'I' for Inactive)
REMARK    1  A    between atoms: N_2  and  S_1 
REMARK    2  A    between atoms: C_4  and  S_1 
REMARK       I    between atoms: C_3  and  N_2 
REMARK       I    between atoms: N_13  and  C_3 
REMARK    3  A    between atoms: C_7  and  C_20 
REMARK    4  A    between atoms: C_21  and  N_13 
REMARK    5  A    between atoms: S_19  and  C_22 
REMARK    6  A    between atoms: C_20  and  S_19 
REMARK    7  A    between atoms: C_22  and  C_21 
ROOT
ATOM      1  N   UNL d   1       0.505  -1.236   1.129  0.00  0.00    -0.232 N 
ATOM      2  C   UNL d   1       0.896  -2.560   1.192  0.00  0.00     0.329 C 
ATOM      3  O   UNL d   1       1.619  -3.075   0.350  0.00  0.00    -0.246 OA
ATOM      4  N   UNL d   1       0.391  -3.252   2.258  0.00  0.00    -0.342 N 
ATOM      5  H   UNL d   1      -0.118  -0.816   1.803  0.00  0.00     0.183 HD
ATOM      6  H   UNL d   1      -0.339  -2.845   2.822  0.00  0.00     0.164 HD
ENDROOT
BRANCH   1   7
ATOM      7  S   UNL d   1       1.023  -0.185  -0.058  0.00  0.00     0.266 S 
ATOM      8  O   UNL d   1       2.465  -0.088   0.010  0.00  0.00    -0.200 OA
ATOM      9  O   UNL d   1       0.199   1.002   0.089  0.00  0.00    -0.200 OA
BRANCH   7  10
ATOM     10  C   UNL d   1       0.551  -0.947  -1.592  0.00  0.00     0.080 A 
ATOM     11  C   UNL d   1      -0.798  -1.212  -1.839  0.00  0.00     0.026 A 
ATOM     12  C   UNL d   1      -1.178  -1.768  -3.063  0.00  0.00     0.008 A 
ATOM     13  C   UNL d   1      -0.219  -2.054  -4.047  0.00  0.00    -0.062 A 
ATOM     14  C   UNL d   1       1.133  -1.787  -3.783  0.00  0.00     0.008 A 
ATOM     15  C   UNL d   1      -0.651  -2.624  -5.366  0.00  0.00     0.048 C 
ATOM     16  C   UNL d   1       1.520  -1.238  -2.559  0.00  0.00     0.026 A 
ENDBRANCH   7  10
ENDBRANCH   1   7
BRANCH   4  17
ATOM     17  C   UNL d   1       0.615  -4.690   2.317  0.00  0.00     0.134 C 
BRANCH  17  18
ATOM     18  C   UNL d   1      -0.024  -5.395   3.515  0.00  0.00     0.094 C 
BRANCH  18  19
ATOM     19  S   UNL d   1      -1.833  -5.197   3.457  0.00  0.00    -0.161 SA
BRANCH  19  20
ATOM     20  C   UNL d   1      -2.307  -6.222   4.896  0.00  0.00     0.139 C 
BRANCH  20  21
ATOM     21  C   UNL d   1      -3.788  -6.221   5.025  0.00  0.00     0.061 A 
ATOM     22  O   UNL d   1      -4.307  -5.678   6.166  0.00  0.00    -0.326 OA
ATOM     23  C   UNL d   1      -5.659  -5.724   6.048  0.00  0.00     0.142 A 
ATOM     24  C   UNL d   1      -6.021  -6.300   4.853  0.00  0.00     0.027 A 
ATOM     25  C   UNL d   1      -4.813  -6.641   4.200  0.00  0.00     0.035 A 
ENDBRANCH  20  21
ENDBRANCH  19  20
ENDBRANCH  18  19
ENDBRANCH  17  18
ENDBRANCH   4  17
TORSDOF 7
