REMARK  6 active torsions:
REMARK  status: ('A' for Active; 'I' for Inactive)
REMARK    1  A    between atoms: N_3  and  C_1 
REMARK    2  A    between atoms: N_6  and  C_1 
REMARK    3  A    between atoms: C_2  and  N_4 
REMARK    4  A    between atoms: N_14  and  C_2 
REMARK    5  A    between atoms: N_4  and  N_3 
REMARK    6  A    between atoms: C_5  and  N_6 
ROOT
ATOM      1  C   UNL d   1       0.966  -0.021   0.070  0.00  0.00     0.191 C 
ATOM      2  S   UNL d   1       2.405   0.421   0.802  0.00  0.00    -0.039 SA
ENDROOT
BRANCH   1   3
ATOM      3  N   UNL d   1       0.611   0.279  -1.217  0.00  0.00    -0.272 N 
ATOM      4  H   UNL d   1      -0.361   0.454  -1.449  0.00  0.00     0.189 HD
BRANCH   3   5
ATOM      5  N   UNL d   1       1.537   0.539  -2.259  0.00  0.00    -0.270 N 
ATOM      6  C   UNL d   1       2.188  -0.698  -2.705  0.00  0.00     0.180 C 
BRANCH   5   7
ATOM      7  C   UNL d   1       1.282   1.650  -3.086  0.00  0.00     0.188 C 
ATOM      8  S   UNL d   1       1.785   1.790  -4.679  0.00  0.00    -0.039 SA
BRANCH   7   9
ATOM      9  N   UNL d   1       0.522   2.611  -2.429  0.00  0.00    -0.370 N 
ATOM     10  C   UNL d   1       0.171   3.915  -2.959  0.00  0.00     0.148 C 
ATOM     11  H   UNL d   1       0.611   2.545  -1.422  0.00  0.00     0.161 HD
ENDBRANCH   7   9
ENDBRANCH   5   7
ENDBRANCH   3   5
ENDBRANCH   1   3
BRANCH   1  12
ATOM     12  N   UNL d   1       0.063  -0.723   0.824  0.00  0.00    -0.332 N 
ATOM     13  H   UNL d   1       0.343  -0.772   1.800  0.00  0.00     0.168 HD
BRANCH  12  14
ATOM     14  C   UNL d   1      -1.075  -1.488   0.472  0.00  0.00     0.037 A 
ATOM     15  C   UNL d   1      -1.454  -1.801  -0.837  0.00  0.00     0.053 A 
ATOM     16  C   UNL d   1      -2.613  -2.545  -1.078  0.00  0.00     0.037 A 
ATOM     17 CL   UNL d   1      -3.080  -2.879  -2.703  0.00  0.00    -0.084 Cl
ATOM     18  C   UNL d   1      -3.385  -3.028  -0.030  0.00  0.00     0.048 A 
ATOM     19  C   UNL d   1      -2.983  -2.764   1.273  0.00  0.00     0.037 A 
ATOM     20  C   UNL d   1      -1.839  -2.000   1.527  0.00  0.00     0.053 A 
ATOM     21 CL   UNL d   1      -3.903  -3.383   2.589  0.00  0.00    -0.084 Cl
ENDBRANCH  12  14
ENDBRANCH   1  12
TORSDOF 6
