REMARK  5 active torsions:
REMARK  status: ('A' for Active; 'I' for Inactive)
REMARK    1  A    between atoms: C_2  and  C_1 
REMARK    2  A    between atoms: O_12  and  C_2 
REMARK    3  A    between atoms: N_5  and  C_3 
REMARK    4  A    between atoms: C_4  and  C_11 
REMARK    5  A    between atoms: C_11  and  N_5 
ROOT
ATOM      1  C   UNL d   1       1.358  -0.127   0.006  0.00  0.00     0.058 A 
ATOM      2  C   UNL d   1       0.552  -1.288  -0.110  0.00  0.00     0.025 A 
ATOM      3  C   UNL d   1       0.767   1.148   0.064  0.00  0.00     0.020 A 
ATOM      4  C   UNL d   1      -0.841  -1.112  -0.119  0.00  0.00     0.024 A 
ATOM      5  C   UNL d   1      -0.617   1.291   0.026  0.00  0.00     0.001 A 
ATOM      6  C   UNL d   1      -1.419   0.160  -0.059  0.00  0.00     0.002 A 
ENDROOT
BRANCH   2   7
ATOM      7  N   UNL d   1       1.155  -2.572  -0.075  0.00  0.00    -0.286 NA
ATOM      8  H   UNL d   1       1.356  -2.797   0.906  0.00  0.00     0.128 HD
BRANCH   7   9
ATOM      9  C   UNL d   1       0.431  -3.713  -0.681  0.00  0.00     0.157 C 
BRANCH   9  10
ATOM     10  C   UNL d   1      -0.622  -4.380   0.142  0.00  0.00     0.065 A 
ATOM     11  O   UNL d   1      -1.623  -4.989  -0.560  0.00  0.00    -0.326 OA
ATOM     12  C   UNL d   1      -2.483  -5.522   0.345  0.00  0.00     0.142 A 
ATOM     13  C   UNL d   1      -2.052  -5.265   1.624  0.00  0.00     0.027 A 
ATOM     14  C   UNL d   1      -0.846  -4.532   1.496  0.00  0.00     0.036 A 
ENDBRANCH   9  10
ENDBRANCH   7   9
ENDBRANCH   2   7
BRANCH   1  15
ATOM     15  C   UNL d   1       2.854  -0.156   0.044  0.00  0.00     0.177 C 
ATOM     16  O   UNL d   1       3.529   0.797   0.398  0.00  0.00    -0.646 OA
BRANCH  15  17
ATOM     17  O   UNL d   1       3.401  -1.312  -0.390  0.00  0.00    -0.773 OA
ATOM     18  H   UNL d   1       2.699  -1.976  -0.593  0.00  0.00     0.167 HD
ENDBRANCH  15  17
ENDBRANCH   1  15
TORSDOF 5
