REMARK  2 active torsions:
REMARK  status: ('A' for Active; 'I' for Inactive)
REMARK    1  A    between atoms: C_8  and  N_2 
REMARK    2  A    between atoms: C_10  and  N_3 
ROOT
ATOM      1  C   UNL d   1      -1.198   0.335   0.134  0.00  0.00     0.332 C 
ATOM      2  N   UNL d   1       0.073   0.944   0.220  0.00  0.00    -0.234 N 
ATOM      3  N   UNL d   1      -1.184  -1.051  -0.020  0.00  0.00    -0.329 N 
ATOM      4  C   UNL d   1       1.280   0.297  -0.082  0.00  0.00     0.234 C 
ATOM      5  C   UNL d   1       1.174  -1.146  -0.483  0.00  0.00     0.123 C 
ATOM      6  C   UNL d   1       0.033  -1.786   0.249  0.00  0.00     0.137 C 
ATOM      7  O   UNL d   1      -2.255   0.966   0.117  0.00  0.00    -0.246 OA
ATOM      8  O   UNL d   1       2.395   0.826  -0.077  0.00  0.00    -0.272 OA
ENDROOT
BRANCH   2   9
ATOM      9  C   UNL d   1       0.108   2.359   0.464  0.00  0.00     0.047 A 
ATOM     10  C   UNL d   1      -0.579   2.908   1.555  0.00  0.00     0.030 A 
ATOM     11  C   UNL d   1      -0.531   4.282   1.805  0.00  0.00     0.002 A 
ATOM     12  C   UNL d   1       0.171   5.125   0.944  0.00  0.00     0.000 A 
ATOM     13  C   UNL d   1       0.837   4.595  -0.158  0.00  0.00     0.002 A 
ATOM     14  C   UNL d   1       0.819   3.218  -0.389  0.00  0.00     0.030 A 
ENDBRANCH   2   9
BRANCH   3  15
ATOM     15  C   UNL d   1      -2.439  -1.773  -0.309  0.00  0.00     0.080 C 
ATOM     16  C   UNL d   1      -2.385  -2.422  -1.694  0.00  0.00     0.032 C 
ATOM     17  C   UNL d   1      -2.791  -2.791   0.775  0.00  0.00     0.032 C 
ENDBRANCH   3  15
TORSDOF 2
