REMARK  5 active torsions:
REMARK  status: ('A' for Active; 'I' for Inactive)
REMARK       I    between atoms: N_2  and  C_1 
REMARK       I    between atoms: N_3  and  C_1 
REMARK    1  A    between atoms: C_7  and  N_2 
REMARK    2  A    between atoms: C_17  and  N_2 
REMARK    3  A    between atoms: C_8  and  N_3 
REMARK    4  A    between atoms: C_11  and  C_7 
REMARK    5  A    between atoms: C_9  and  C_17 
ROOT
ATOM      1  N   UNL d   1       3.278   4.566   2.176  0.00  0.00    -0.197 NA
ATOM      2  C   UNL d   1       2.690   3.587   1.969  0.00  0.00     0.060 C 
ATOM      3  C   UNL d   1       1.955   2.347   1.684  0.00  0.00     0.144 C 
ENDROOT
BRANCH   3   4
ATOM      4  C   UNL d   1       1.233   2.463   0.343  0.00  0.00     0.142 C 
BRANCH   4   5
ATOM      5  N   UNL d   1       0.487   1.239  -0.014  0.00  0.00    -0.329 N 
ATOM      6  C   UNL d   1       0.953   0.198  -0.833  0.00  0.00     0.323 C 
ATOM      7  N   UNL d   1       2.258   0.339  -1.246  0.00  0.00    -0.309 N 
ATOM      8  O   UNL d   1       0.230  -0.741  -1.154  0.00  0.00    -0.247 OA
ATOM      9  H   UNL d   1       2.794   1.064  -0.804  0.00  0.00     0.170 HD
BRANCH   7  10
ATOM     10  C   UNL d   1       2.987  -0.417  -2.185  0.00  0.00     0.036 A 
ATOM     11  C   UNL d   1       2.496  -1.534  -2.868  0.00  0.00     0.032 A 
ATOM     12  C   UNL d   1       3.307  -2.201  -3.798  0.00  0.00     0.044 A 
ATOM     13  C   UNL d   1       4.594  -1.746  -4.049  0.00  0.00     0.116 A 
ATOM     14  C   UNL d   1       5.096  -0.635  -3.386  0.00  0.00     0.044 A 
ATOM     15  F   UNL d   1       5.364  -2.378  -4.944  0.00  0.00    -0.206 F 
ATOM     16  C   UNL d   1       4.292   0.022  -2.453  0.00  0.00     0.032 A 
ENDBRANCH   7  10
BRANCH   5  17
ATOM     17  C   UNL d   1      -0.906   1.162   0.465  0.00  0.00     0.166 C 
BRANCH  17  18
ATOM     18  C   UNL d   1      -1.770   2.276  -0.092  0.00  0.00    -0.040 A 
ATOM     19  C   UNL d   1      -1.688   2.636  -1.447  0.00  0.00     0.009 A 
ATOM     20  C   UNL d   1      -2.385   3.742  -1.931  0.00  0.00     0.001 A 
ATOM     21  C   UNL d   1      -3.203   4.478  -1.077  0.00  0.00     0.000 A 
ATOM     22  C   UNL d   1      -3.346   4.092   0.254  0.00  0.00     0.001 A 
ATOM     23  C   UNL d   1      -2.637   2.993   0.746  0.00  0.00     0.009 A 
ENDBRANCH  17  18
ENDBRANCH   5  17
ENDBRANCH   4   5
ENDBRANCH   3   4
TORSDOF 5
