REMARK  3 active torsions:
REMARK  status: ('A' for Active; 'I' for Inactive)
REMARK    1  A    between atoms: C_7  and  N_1 
REMARK    2  A    between atoms: C_9  and  C_4 
REMARK    3  A    between atoms: O_16  and  C_10 
ROOT
ATOM      1  N   UNL d   1       0.968   0.137   0.212  0.00  0.00    -0.365 N 
ATOM      2  HN  UNL d   1       0.509  -0.709   0.551  1.00  0.00     0.165 HD
ATOM      3  C   UNL d   1       0.259   1.169  -0.113  0.00  0.00     0.099 C 
ENDROOT
BRANCH   1   4
ATOM      4  C   UNL d   1       2.370   0.176   0.101  0.00  0.00     0.032 A 
ATOM      5  C   UNL d   1       3.145   1.325   0.306  0.00  0.00     0.036 A 
ATOM      6  C   UNL d   1       4.551   1.286   0.268  0.00  0.00    -0.054 A 
ATOM      7  C   UNL d   1       5.324   2.558   0.483  0.00  0.00     0.049 C 
ATOM      8  C   UNL d   1       5.203   0.057   0.055  0.00  0.00    -0.056 A 
ATOM      9  C   UNL d   1       4.431  -1.095  -0.156  0.00  0.00     0.009 A 
ATOM     10  C   UNL d   1       6.702  -0.051   0.083  0.00  0.00     0.049 C 
ATOM     11  C   UNL d   1       3.034  -1.029  -0.135  0.00  0.00     0.030 A 
ENDBRANCH   1   4
BRANCH   3  12
ATOM     12  C   UNL d   1      -1.212   1.181   0.035  0.00  0.00    -0.021 A 
ATOM     13  C   UNL d   1      -1.901   0.049   0.480  0.00  0.00     0.015 A 
ATOM     14  C   UNL d   1      -3.294   0.089   0.621  0.00  0.00     0.037 A 
ATOM     15  C   UNL d   1      -3.998   1.254   0.313  0.00  0.00     0.068 A 
ATOM     16  C   UNL d   1      -3.298   2.382  -0.127  0.00  0.00     0.037 A 
ATOM     17  C   UNL d   1      -1.909   2.350  -0.267  0.00  0.00     0.015 A 
BRANCH  15  18
ATOM     18  O   UNL d   1      -5.353   1.422   0.394  0.00  0.00    -0.356 OA
ATOM     19  C   UNL d   1      -6.114   0.306   0.839  0.00  0.00     0.210 C 
ENDBRANCH  15  18
ENDBRANCH   3  12
TORSDOF 3
