REMARK  6 active torsions:
REMARK  status: ('A' for Active; 'I' for Inactive)
REMARK    1  A    between atoms: N_12  and  S_1 
REMARK    2  A    between atoms: C_4  and  C_5 
REMARK    3  A    between atoms: C_6  and  S_16 
REMARK    4  A    between atoms: C_18  and  N_12 
REMARK    5  A    between atoms: S_16  and  C_21 
REMARK    6  A    between atoms: C_21  and  C_18 
ROOT
ATOM      1  N   UNL d   1      -4.729  -7.234   1.900  0.00  0.00    -0.352 N 
ATOM      2  HN  UNL d   1      -5.025  -8.183   2.131  1.00  0.00     0.166 HD
ATOM      3  C   UNL d   1      -3.601  -7.028   1.170  0.00  0.00     0.118 A 
ATOM      4  C   UNL d   1      -3.933  -4.652   1.239  0.00  0.00     0.015 A 
ATOM      5  C   UNL d   1      -3.177  -5.750   0.827  0.00  0.00     0.053 A 
ATOM      6  C   UNL d   1      -5.451  -6.181   2.313  0.00  0.00     0.044 A 
ATOM      7  C   UNL d   1      -5.102  -4.847   2.017  0.00  0.00     0.007 A 
ATOM      8  C   UNL d   1      -5.932  -3.808   2.515  0.00  0.00     0.015 A 
ATOM      9  C   UNL d   1      -6.591  -6.432   3.066  0.00  0.00     0.030 A 
ATOM     10  C   UNL d   1      -7.074  -4.086   3.267  0.00  0.00     0.001 A 
ATOM     11  C   UNL d   1      -7.405  -5.404   3.541  0.00  0.00     0.002 A 
ENDROOT
BRANCH   4  12
ATOM     12  S   UNL d   1      -3.311  -3.017   0.838  0.00  0.00    -0.128 SA
BRANCH  12  13
ATOM     13  C   UNL d   1      -3.454  -3.019  -0.989  0.00  0.00     0.095 C 
BRANCH  13  14
ATOM     14  C   UNL d   1      -3.028  -1.635  -1.482  0.00  0.00     0.114 C 
BRANCH  14  15
ATOM     15  N   UNL d   1      -3.141  -1.523  -2.955  0.00  0.00    -0.220 NA
ATOM     16  H   UNL d   1      -2.648  -2.251  -3.478  0.00  0.00     0.139 HD
BRANCH  15  17
ATOM     17  S   UNL d   1      -2.695  -0.024  -3.611  0.00  0.00     0.205 S 
ATOM     18  O   UNL d   1      -2.780  -0.176  -5.043  0.00  0.00    -0.212 OA
ATOM     19  O   UNL d   1      -1.462   0.374  -2.966  0.00  0.00    -0.212 OA
ATOM     20  C   UNL d   1      -4.011   1.048  -3.065  0.00  0.00     0.179 C 
ENDBRANCH  15  17
ENDBRANCH  14  15
ENDBRANCH  13  14
ENDBRANCH  12  13
ENDBRANCH   4  12
BRANCH   3  21
ATOM     21  C   UNL d   1      -2.779  -8.223   0.708  0.00  0.00     0.432 C 
ATOM     22  F   UNL d   1      -3.272  -9.432   1.093  0.00  0.00    -0.165 F 
ATOM     23  F   UNL d   1      -2.677  -8.279  -0.654  0.00  0.00    -0.165 F 
ATOM     24  F   UNL d   1      -1.493  -8.180   1.165  0.00  0.00    -0.165 F 
ENDBRANCH   3  21
TORSDOF 6
