REMARK  4 active torsions:
REMARK  status: ('A' for Active; 'I' for Inactive)
REMARK       I    between atoms: C_4  and  N_1 
REMARK    1  A    between atoms: C_10  and  C_4 
REMARK    2  A    between atoms: C_11  and  C_5 
REMARK    3  A    between atoms: C_8  and  C_13 
REMARK    4  A    between atoms: C_18  and  C_9 
ROOT
ATOM      1  N   UNL d   1       0.224  -0.841  -0.708  0.00  0.00    -0.231 N 
ATOM      2  N   UNL d   1      -0.166   0.399  -1.105  0.00  0.00    -0.291 N 
ATOM      3  HN  UNL d   1      -0.290   0.732  -2.061  1.00  0.00     0.187 HD
ATOM      4  C   UNL d   1       0.501  -1.848  -1.653  0.00  0.00     0.276 C 
ATOM      5  C   UNL d   1      -0.351   1.092   0.029  0.00  0.00     0.060 A 
ATOM      6  C   UNL d   1      -0.118   0.270   1.162  0.00  0.00     0.051 A 
ATOM      7  C   UNL d   1       0.278  -0.945   0.662  0.00  0.00     0.122 A 
ATOM      8  O   UNL d   1       1.227  -2.775  -1.294  0.00  0.00    -0.265 OA
ENDROOT
BRANCH   5   9
ATOM      9  C   UNL d   1      -0.753   2.499   0.014  0.00  0.00    -0.008 A 
ATOM     10  C   UNL d   1      -1.519   3.034   1.059  0.00  0.00     0.015 A 
ATOM     11  C   UNL d   1      -1.889   4.383   1.055  0.00  0.00     0.021 A 
ATOM     12  C   UNL d   1      -1.497   5.213   0.003  0.00  0.00     0.018 A 
ATOM     13  C   UNL d   1      -0.737   4.690  -1.045  0.00  0.00     0.021 A 
ATOM     14  C   UNL d   1      -0.368   3.341  -1.041  0.00  0.00     0.015 A 
BRANCH  12  15
ATOM     15  C   UNL d   1      -1.856   6.599  -0.003  0.00  0.00    -0.061 C 
ATOM     16  C   UNL d   1      -2.118   7.768  -0.025  0.00  0.00    -0.061 C 
BRANCH  16  17
ATOM     17  C   UNL d   1      -2.386   9.175  -0.059  0.00  0.00     0.018 A 
ATOM     18  C   UNL d   1      -3.041   9.791   1.010  0.00  0.00     0.020 A 
ATOM     19  C   UNL d   1      -3.272  11.169   0.988  0.00  0.00     0.001 A 
ATOM     20  C   UNL d   1      -2.850  11.930  -0.102  0.00  0.00     0.000 A 
ATOM     21  C   UNL d   1      -2.205  11.315  -1.175  0.00  0.00     0.001 A 
ATOM     22  C   UNL d   1      -1.974   9.938  -1.154  0.00  0.00     0.020 A 
ENDBRANCH  16  17
ENDBRANCH  12  15
ENDBRANCH   5   9
BRANCH   4  23
ATOM     23  C   UNL d   1      -0.095  -1.884  -3.014  0.00  0.00     0.034 A 
ATOM     24  C   UNL d   1       0.600  -2.505  -4.059  0.00  0.00     0.019 A 
ATOM     25  C   UNL d   1      -0.001  -2.632  -5.315  0.00  0.00     0.025 A 
ATOM     26  C   UNL d   1      -1.297  -2.155  -5.519  0.00  0.00     0.034 A 
ATOM     27  C   UNL d   1      -1.997  -1.546  -4.481  0.00  0.00     0.025 A 
ATOM     28 CL   UNL d   1      -2.046  -2.335  -7.057  0.00  0.00    -0.084 Cl
ATOM     29  C   UNL d   1      -1.399  -1.413  -3.227  0.00  0.00     0.019 A 
ENDBRANCH   4  23
TORSDOF 4
