REMARK  5 active torsions:
REMARK  status: ('A' for Active; 'I' for Inactive)
REMARK    1  A    between atoms: C_7  and  C_2 
REMARK    2  A    between atoms: C_4  and  S_10 
REMARK    3  A    between atoms: C_13  and  C_7 
REMARK    4  A    between atoms: S_10  and  C_16 
REMARK    5  A    between atoms: C_16  and  C_13 
ROOT
ATOM      1  C   UNL d   1      -5.983  -0.221   0.098  0.00  0.00     0.087 C 
ENDROOT
BRANCH   1   2
ATOM      2  S   UNL d   1      -7.324   1.022  -0.037  0.00  0.00    -0.126 SA
BRANCH   2   3
ATOM      3  C   UNL d   1      -7.194   1.860   1.557  0.00  0.00     0.044 A 
ATOM      4  C   UNL d   1      -6.521   3.095   1.675  0.00  0.00     0.052 A 
ATOM      5 CL   UNL d   1      -5.702   3.849   0.343  0.00  0.00    -0.083 Cl
ATOM      6  C   UNL d   1      -6.477   3.784   2.895  0.00  0.00     0.025 A 
ATOM      7  C   UNL d   1      -7.114   3.265   4.017  0.00  0.00     0.003 A 
ATOM      8  C   UNL d   1      -7.792   2.054   3.923  0.00  0.00     0.025 A 
ATOM      9  C   UNL d   1      -7.834   1.355   2.708  0.00  0.00     0.052 A 
ATOM     10 CL   UNL d   1      -8.723  -0.133   2.708  0.00  0.00    -0.083 Cl
ENDBRANCH   2   3
ENDBRANCH   1   2
BRANCH   1  11
ATOM     11  C   UNL d   1      -4.611   0.436   0.033  0.00  0.00     0.095 C 
BRANCH  11  12
ATOM     12  C   UNL d   1      -3.478  -0.581   0.024  0.00  0.00     0.167 C 
ATOM     13  O   UNL d   1      -3.716  -1.787   0.045  0.00  0.00    -0.292 OA
BRANCH  12  14
ATOM     14  C   UNL d   1      -2.127  -0.017  -0.002  0.00  0.00     0.052 A 
ATOM     15  S   UNL d   1      -0.771  -1.072   0.009  0.00  0.00    -0.074 SA
ATOM     16  C   UNL d   1       0.311   0.226  -0.020  0.00  0.00     0.075 A 
ATOM     17  C   UNL d   1      -0.304   1.450  -0.041  0.00  0.00     0.033 A 
ATOM     18 CL   UNL d   1       2.002  -0.067  -0.021  0.00  0.00    -0.076 Cl
ATOM     19  C   UNL d   1      -1.724   1.309  -0.033  0.00  0.00     0.025 A 
ENDBRANCH  12  14
ENDBRANCH  11  12
ENDBRANCH   1  11
TORSDOF 5
