REMARK  6 active torsions:
REMARK  status: ('A' for Active; 'I' for Inactive)
REMARK    1  A    between atoms: C_2  and  N_1 
REMARK       I    between atoms: C_5  and  N_1 
REMARK    2  A    between atoms: N_10  and  C_2 
REMARK    3  A    between atoms: C_3  and  C_6 
REMARK    4  A    between atoms: C_4  and  C_7 
REMARK    5  A    between atoms: C_11  and  C_5 
REMARK    6  A    between atoms: C_9  and  N_10 
ROOT
ATOM      1  C   UNL d   1       4.732  -1.890  -0.945  0.00  0.00     0.050 A 
ATOM      2  C   UNL d   1       4.400  -1.571  -3.342  0.00  0.00     0.050 A 
ATOM      3  C   UNL d   1       5.254  -1.707  -2.232  0.00  0.00     0.032 A 
ATOM      4  C   UNL d   1       2.477  -1.741  -1.862  0.00  0.00     0.035 A 
ATOM      5  C   UNL d   1       3.342  -1.920  -0.781  0.00  0.00     0.045 A 
ATOM      6  C   UNL d   1       3.005  -1.633  -3.151  0.00  0.00     0.045 A 
ENDROOT
BRANCH   4   7
ATOM      7  N   UNL d   1       1.080  -1.677  -1.667  0.00  0.00    -0.333 N 
ATOM      8  H   UNL d   1       0.481  -1.955  -2.446  0.00  0.00     0.168 HD
BRANCH   7   9
ATOM      9  C   UNL d   1       0.428  -1.023  -0.646  0.00  0.00     0.178 C 
ATOM     10  S   UNL d   1       1.040   0.134   0.404  0.00  0.00    -0.040 SA
BRANCH   9  11
ATOM     11  N   UNL d   1      -0.903  -1.335  -0.467  0.00  0.00    -0.303 N 
ATOM     12  C   UNL d   1      -1.700  -2.241  -1.152  0.00  0.00     0.231 C 
ATOM     13  O   UNL d   1      -1.354  -2.748  -2.220  0.00  0.00    -0.272 OA
ATOM     14  H   UNL d   1      -1.300  -0.866   0.333  0.00  0.00     0.171 HD
BRANCH  12  15
ATOM     15  C   UNL d   1      -3.082  -2.477  -0.507  0.00  0.00     0.030 C 
ATOM     16  C   UNL d   1      -3.907  -1.181  -0.557  0.00  0.00     0.025 C 
ATOM     17  C   UNL d   1      -3.825  -3.574  -1.286  0.00  0.00     0.025 C 
ATOM     18  C   UNL d   1      -2.931  -2.935   0.955  0.00  0.00     0.025 C 
ENDBRANCH  12  15
ENDBRANCH   9  11
ENDBRANCH   7   9
ENDBRANCH   4   7
BRANCH   1  19
ATOM     19  C   UNL d   1       5.616  -2.021   0.270  0.00  0.00     0.417 C 
ATOM     20  F   UNL d   1       6.941  -1.869  -0.003  0.00  0.00    -0.166 F 
ATOM     21  F   UNL d   1       5.324  -1.096   1.226  0.00  0.00    -0.166 F 
ATOM     22  F   UNL d   1       5.494  -3.235   0.874  0.00  0.00    -0.166 F 
ENDBRANCH   1  19
BRANCH   2  23
ATOM     23  C   UNL d   1       4.970  -1.304  -4.717  0.00  0.00     0.417 C 
ATOM     24  F   UNL d   1       6.317  -1.097  -4.714  0.00  0.00    -0.166 F 
ATOM     25  F   UNL d   1       4.750  -2.328  -5.585  0.00  0.00    -0.166 F 
ATOM     26  F   UNL d   1       4.428  -0.196  -5.296  0.00  0.00    -0.166 F 
ENDBRANCH   2  23
TORSDOF 6
