REMARK  7 active torsions:
REMARK  status: ('A' for Active; 'I' for Inactive)
REMARK    1  A    between atoms: C_7  and  S_1 
REMARK    2  A    between atoms: N_9  and  S_1 
REMARK    3  A    between atoms: C_13  and  C_2 
REMARK    4  A    between atoms: C_10  and  C_3 
REMARK    5  A    between atoms: C_4  and  N_12 
REMARK    6  A    between atoms: O_27  and  C_13 
REMARK    7  A    between atoms: C_31  and  O_27 
ROOT
ATOM      1  C   UNL d   1       3.374   6.971   3.195  0.00  0.00     0.072 A 
ATOM      2  C   UNL d   1       4.204   5.910   2.825  0.00  0.00     0.134 A 
ATOM      3  C   UNL d   1       2.343   4.460   2.532  0.00  0.00     0.125 A 
ATOM      4  N   UNL d   1       3.679   4.670   2.496  0.00  0.00    -0.337 N 
ATOM      5  HN  UNL d   1       4.305   3.912   2.225  1.00  0.00     0.167 HD
ATOM      6  C   UNL d   1       1.496   5.472   2.994  0.00  0.00     0.089 A 
ATOM      7  C   UNL d   1       2.004   6.724   3.311  0.00  0.00     0.046 A 
ATOM      8  C   UNL d   1       0.094   5.244   3.202  0.00  0.00     0.103 C 
ATOM      9  N   UNL d   1      -1.042   5.077   3.347  0.00  0.00    -0.191 NA
ENDROOT
BRANCH   3  10
ATOM     10  N   UNL d   1       1.828   3.233   2.157  0.00  0.00    -0.364 N 
ATOM     11  C   UNL d   1       2.648   2.013   2.254  0.00  0.00     0.140 C 
ATOM     12  C   UNL d   1       1.681   0.818   2.446  0.00  0.00     0.127 C 
ATOM     13  N   UNL d   1       0.657   0.737   1.346  0.00  0.00    -0.203 NA
ATOM     14  C   UNL d   1      -0.079   2.035   1.189  0.00  0.00     0.127 C 
ATOM     15  C   UNL d   1       0.912   3.206   0.994  0.00  0.00     0.140 C 
BRANCH  13  16
ATOM     16  S   UNL d   1       1.153  -0.026  -0.090  0.00  0.00     0.245 S 
ATOM     17  O   UNL d   1       1.379   1.015  -1.077  0.00  0.00    -0.206 OA
ATOM     18  O   UNL d   1       2.178  -0.992   0.194  0.00  0.00    -0.206 OA
BRANCH  16  19
ATOM     19  C   UNL d   1      -0.321  -0.894  -0.567  0.00  0.00     0.096 A 
ATOM     20  C   UNL d   1      -0.815  -1.958   0.189  0.00  0.00     0.056 A 
ATOM     21 CL   UNL d   1      -0.053  -2.584   1.607  0.00  0.00    -0.083 Cl
ATOM     22  C   UNL d   1      -2.014  -2.572  -0.196  0.00  0.00     0.025 A 
ATOM     23  C   UNL d   1      -2.705  -2.137  -1.328  0.00  0.00     0.002 A 
ATOM     24  C   UNL d   1      -2.192  -1.099  -2.100  0.00  0.00     0.002 A 
ATOM     25  C   UNL d   1      -1.000  -0.478  -1.725  0.00  0.00     0.026 A 
ENDBRANCH  16  19
ENDBRANCH  13  16
ENDBRANCH   3  10
BRANCH   1  26
ATOM     26  C   UNL d   1       3.846   8.345   3.436  0.00  0.00     0.295 C 
ATOM     27  O   UNL d   1       4.711   8.889   2.779  0.00  0.00    -0.259 OA
BRANCH  26  28
ATOM     28  O   UNL d   1       3.170   8.860   4.494  0.00  0.00    -0.318 OA
BRANCH  28  29
ATOM     29  C   UNL d   1       3.741  10.034   5.089  0.00  0.00     0.174 C 
ATOM     30  C   UNL d   1       4.564   9.559   6.270  0.00  0.00     0.034 C 
ENDBRANCH  28  29
ENDBRANCH  26  28
ENDBRANCH   1  26
BRANCH   2  31
ATOM     31  C   UNL d   1       5.726   6.005   2.819  0.00  0.00     0.433 C 
ATOM     32  F   UNL d   1       6.270   7.150   3.309  0.00  0.00    -0.165 F 
ATOM     33  F   UNL d   1       6.287   5.024   3.591  0.00  0.00    -0.165 F 
ATOM     34  F   UNL d   1       6.258   5.837   1.574  0.00  0.00    -0.165 F 
ENDBRANCH   2  31
TORSDOF 7
