REMARK  3 active torsions:
REMARK  status: ('A' for Active; 'I' for Inactive)
REMARK    1  A    between atoms: C_2  and  N_1 
REMARK    2  A    between atoms: C_6  and  C_2 
REMARK    3  A    between atoms: C_7  and  C_3 
ROOT
ATOM      1  C   UNL d   1       0.238   0.683   1.166  0.00  0.00     0.114 C 
ATOM      2  C   UNL d   1      -1.102   0.822   1.154  0.00  0.00     0.048 C 
ENDROOT
BRANCH   1   3
ATOM      3  N   UNL d   1       0.982   1.393   2.186  0.00  0.00    -0.115 N 
ATOM      4  O   UNL d   1       1.219   0.779   3.235  0.00  0.00    -0.532 OA
ATOM      5  O   UNL d   1       1.366   2.536   1.906  0.00  0.00    -0.532 OA
ENDBRANCH   1   3
BRANCH   1   6
ATOM      6  C   UNL d   1       0.950  -0.157   0.197  0.00  0.00    -0.003 A 
ATOM      7  C   UNL d   1       1.336   0.364  -1.046  0.00  0.00     0.014 A 
ATOM      8  C   UNL d   1       2.001  -0.442  -1.973  0.00  0.00     0.001 A 
ATOM      9  C   UNL d   1       2.281  -1.773  -1.666  0.00  0.00     0.000 A 
ATOM     10  C   UNL d   1       1.896  -2.301  -0.435  0.00  0.00     0.001 A 
ATOM     11  C   UNL d   1       1.232  -1.498   0.494  0.00  0.00     0.014 A 
ENDBRANCH   1   6
BRANCH   2  12
ATOM     12  C   UNL d   1      -1.931   1.616   2.065  0.00  0.00    -0.034 A 
ATOM     13  C   UNL d   1      -2.277   2.932   1.737  0.00  0.00     0.011 A 
ATOM     14  C   UNL d   1      -3.123   3.666   2.573  0.00  0.00     0.001 A 
ATOM     15  C   UNL d   1      -3.625   3.090   3.739  0.00  0.00     0.000 A 
ATOM     16  C   UNL d   1      -3.275   1.783   4.076  0.00  0.00     0.001 A 
ATOM     17  C   UNL d   1      -2.429   1.048   3.243  0.00  0.00     0.011 A 
ENDBRANCH   2  12
TORSDOF 3
