REMARK  2 active torsions:
REMARK  status: ('A' for Active; 'I' for Inactive)
REMARK    1  A    between atoms: C_7  and  C_1 
REMARK    2  A    between atoms: C_9  and  C_7 
ROOT
ATOM      1  C   UNL d   1       2.110   0.689  -0.428  0.00  0.00     0.004 C 
ATOM      2  C   UNL d   1       0.820   1.354  -0.092  0.00  0.00     0.190 C 
ATOM      3  C   UNL d   1      -0.431   0.565  -0.074  0.00  0.00     0.032 A 
ATOM      4  C   UNL d   1       2.258  -0.644  -0.389  0.00  0.00     0.061 C 
ATOM      5  S   UNL d   1       1.060  -1.804   0.017  0.00  0.00    -0.101 SA
ATOM      6  C   UNL d   1      -0.421  -0.831  -0.052  0.00  0.00     0.019 A 
ATOM      7  O   UNL d   1       0.784   2.562   0.141  0.00  0.00    -0.287 OA
ATOM      8  C   UNL d   1      -1.653   1.259  -0.086  0.00  0.00     0.017 A 
ATOM      9  C   UNL d   1      -1.646  -1.518  -0.059  0.00  0.00     0.020 A 
ATOM     10  C   UNL d   1      -2.862   0.565  -0.102  0.00  0.00     0.001 A 
ATOM     11  C   UNL d   1      -2.858  -0.826  -0.092  0.00  0.00     0.001 A 
ENDROOT
BRANCH   1  12
ATOM     12  C   UNL d   1       3.289   1.596  -0.683  0.00  0.00     0.081 C 
BRANCH  12  13
ATOM     13  C   UNL d   1       3.519   1.964  -2.135  0.00  0.00    -0.054 A 
ATOM     14  C   UNL d   1       2.916   3.106  -2.686  0.00  0.00     0.009 A 
ATOM     15  C   UNL d   1       3.232   3.517  -3.985  0.00  0.00     0.019 A 
ATOM     16  C   UNL d   1       4.141   2.785  -4.744  0.00  0.00     0.011 A 
ATOM     17  C   UNL d   1       4.714   1.624  -4.229  0.00  0.00     0.019 A 
ATOM     18 BR   UNL d   1       4.634   3.389  -6.465  0.00  0.00    -0.051 Br
ATOM     19  C   UNL d   1       4.397   1.210  -2.930  0.00  0.00     0.009 A 
ENDBRANCH  12  13
ENDBRANCH   1  12
TORSDOF 2
