REMARK  6 active torsions:
REMARK  status: ('A' for Active; 'I' for Inactive)
REMARK    1  A    between atoms: C_2  and  C_1 
REMARK       I    between atoms: N_6  and  C_2 
REMARK    2  A    between atoms: O_8  and  C_3 
REMARK    3  A    between atoms: O_7  and  C_4 
REMARK    4  A    between atoms: C_9  and  N_6 
REMARK    5  A    between atoms: C_14  and  C_9 
REMARK    6  A    between atoms: C_10  and  C_14 
ROOT
ATOM      1  C   UNL d   1       2.957  -0.514   0.491  0.00  0.00     0.257 C 
ATOM      2  O   UNL d   1       3.248  -0.088   1.602  0.00  0.00    -0.267 OA
ATOM      3  N   UNL d   1       3.807  -1.270  -0.281  0.00  0.00    -0.356 N 
ATOM      4  H   UNL d   1       3.408  -1.751  -1.081  0.00  0.00     0.162 HD
ENDROOT
BRANCH   1   5
ATOM      5  C   UNL d   1       1.592  -0.334  -0.067  0.00  0.00     0.098 A 
ATOM      6  C   UNL d   1       1.024   0.941  -0.226  0.00  0.00     0.086 A 
ATOM      7  C   UNL d   1      -0.255   1.067  -0.787  0.00  0.00     0.038 A 
ATOM      8  C   UNL d   1      -0.975  -0.060  -1.186  0.00  0.00     0.005 A 
ATOM      9  C   UNL d   1      -0.408  -1.323  -1.054  0.00  0.00     0.038 A 
ATOM     10  C   UNL d   1       0.861  -1.465  -0.489  0.00  0.00     0.086 A 
BRANCH   6  11
ATOM     11  O   UNL d   1       1.694   2.127  -0.074  0.00  0.00    -0.355 OA
ATOM     12  C   UNL d   1       2.046   2.442   1.270  0.00  0.00     0.210 C 
ENDBRANCH   6  11
BRANCH  10  13
ATOM     13  O   UNL d   1       1.385  -2.734  -0.524  0.00  0.00    -0.355 OA
ATOM     14  C   UNL d   1       1.541  -3.313   0.772  0.00  0.00     0.210 C 
ENDBRANCH  10  13
ENDBRANCH   1   5
BRANCH   3  15
ATOM     15  C   UNL d   1       5.090  -1.710   0.232  0.00  0.00     0.127 C 
BRANCH  15  16
ATOM     16  C   UNL d   1       5.797  -2.616  -0.771  0.00  0.00     0.058 C 
BRANCH  16  17
ATOM     17  C   UNL d   1       7.223  -2.910  -0.392  0.00  0.00    -0.057 A 
ATOM     18  C   UNL d   1       7.559  -4.087   0.288  0.00  0.00     0.007 A 
ATOM     19  C   UNL d   1       8.891  -4.358   0.607  0.00  0.00     0.001 A 
ATOM     20  C   UNL d   1       9.893  -3.453   0.259  0.00  0.00     0.000 A 
ATOM     21  C   UNL d   1       9.564  -2.271  -0.402  0.00  0.00     0.001 A 
ATOM     22  C   UNL d   1       8.235  -1.999  -0.724  0.00  0.00     0.007 A 
ENDBRANCH  16  17
ENDBRANCH  15  16
ENDBRANCH   3  15
TORSDOF 6
