REMARK  4 active torsions:
REMARK  status: ('A' for Active; 'I' for Inactive)
REMARK    1  A    between atoms: C_2  and  N_1 
REMARK       I    between atoms: C_3  and  N_1 
REMARK    2  A    between atoms: C_4  and  C_2 
REMARK    3  A    between atoms: O_11  and  C_3 
REMARK    4  A    between atoms: C_12  and  O_11 
ROOT
ATOM      1  C   UNL d   1       0.429   0.852   0.884  0.00  0.00     0.132 C 
ATOM      2  S   UNL d   1      -1.211   0.769   0.517  0.00  0.00    -0.058 SA
ENDROOT
BRANCH   1   3
ATOM      3  N   UNL d   1       1.275   0.212  -0.011  0.00  0.00    -0.291 N 
ATOM      4  C   UNL d   1       2.637   0.089  -0.154  0.00  0.00     0.365 C 
ATOM      5  O   UNL d   1       3.500   0.605   0.539  0.00  0.00    -0.238 OA
ATOM      6  H   UNL d   1       0.775  -0.256  -0.755  0.00  0.00     0.172 HD
BRANCH   4   7
ATOM      7  O   UNL d   1       2.877  -0.672  -1.252  0.00  0.00    -0.304 OA
BRANCH   7   8
ATOM      8  C   UNL d   1       4.241  -0.750  -1.697  0.00  0.00     0.176 C 
ATOM      9  C   UNL d   1       4.949  -1.940  -1.081  0.00  0.00     0.034 C 
ENDBRANCH   7   8
ENDBRANCH   4   7
ENDBRANCH   1   3
BRANCH   1  10
ATOM     10  C   UNL d   1       0.873   1.554   2.077  0.00  0.00     0.070 A 
ATOM     11  N   UNL d   1       2.186   1.839   2.409  0.00  0.00    -0.363 N 
ATOM     12  C   UNL d   1       2.262   2.506   3.602  0.00  0.00     0.088 A 
ATOM     13  H   UNL d   1       2.990   1.579   1.846  0.00  0.00     0.165 HD
ATOM     14  C   UNL d   1       0.988   2.670   4.076  0.00  0.00     0.019 A 
ATOM     15  C   UNL d   1       0.119   2.083   3.126  0.00  0.00     0.034 A 
ENDBRANCH   1  10
TORSDOF 4
