REMARK  4 active torsions:
REMARK  status: ('A' for Active; 'I' for Inactive)
REMARK    1  A    between atoms: C_8  and  N_3 
REMARK    2  A    between atoms: C_7  and  C_4 
REMARK    3  A    between atoms: C_9  and  C_5 
REMARK    4  A    between atoms: O_12  and  N_10 
ROOT
ATOM      1  N   UNL d   1       0.911  -0.648   0.189  0.00  0.00    -0.292 N 
ATOM      2  HN  UNL d   1       1.722  -1.247   0.344  1.00  0.00     0.187 HD
ATOM      3  N   UNL d   1      -0.380  -1.040   0.048  0.00  0.00    -0.266 N 
ATOM      4  C   UNL d   1      -0.434   1.177  -0.016  0.00  0.00     0.028 A 
ATOM      5  C   UNL d   1       0.898   0.690   0.083  0.00  0.00     0.072 A 
ATOM      6  C   UNL d   1      -1.217   0.043  -0.068  0.00  0.00     0.132 A 
ENDROOT
BRANCH   3   7
ATOM      7  C   UNL d   1      -0.731  -2.420   0.028  0.00  0.00     0.056 A 
ATOM      8  C   UNL d   1       0.264  -3.390   0.211  0.00  0.00     0.031 A 
ATOM      9  C   UNL d   1      -0.064  -4.749   0.189  0.00  0.00     0.002 A 
ATOM     10  C   UNL d   1      -1.384  -5.146  -0.020  0.00  0.00     0.000 A 
ATOM     11  C   UNL d   1      -2.378  -4.188  -0.204  0.00  0.00     0.002 A 
ATOM     12  C   UNL d   1      -2.058  -2.826  -0.179  0.00  0.00     0.031 A 
ENDBRANCH   3   7
BRANCH   5  13
ATOM     13  C   UNL d   1       2.154   1.446   0.031  0.00  0.00    -0.007 A 
ATOM     14  C   UNL d   1       3.264   1.042   0.785  0.00  0.00     0.014 A 
ATOM     15  C   UNL d   1       4.472   1.740   0.700  0.00  0.00     0.001 A 
ATOM     16  C   UNL d   1       4.583   2.849  -0.137  0.00  0.00     0.000 A 
ATOM     17  C   UNL d   1       3.489   3.259  -0.896  0.00  0.00     0.001 A 
ATOM     18  C   UNL d   1       2.285   2.557  -0.818  0.00  0.00     0.014 A 
ENDBRANCH   5  13
BRANCH   4  19
ATOM     19  C   UNL d   1      -0.900   2.540  -0.073  0.00  0.00     0.129 C 
ATOM     20  N   UNL d   1      -2.050   2.797  -0.607  0.00  0.00    -0.280 N 
ATOM     21  HN  UNL d   1      -2.701   2.104  -0.977  1.00  0.00     0.193 HD
BRANCH  20  22
ATOM     22  O   UNL d   1      -2.256   4.183  -0.595  0.00  0.00    -0.290 OA
ATOM     23  H   UNL d   1      -3.092   4.275  -1.090  0.00  0.00     0.244 HD
ENDBRANCH  20  22
ENDBRANCH   4  19
TORSDOF 4
