REMARK  3 active torsions:
REMARK  status: ('A' for Active; 'I' for Inactive)
REMARK    1  A    between atoms: N_3  and  C_1 
REMARK    2  A    between atoms: O_10  and  C_1 
REMARK    3  A    between atoms: C_2  and  N_3 
ROOT
ATOM      1  C   UNL d   1       1.036  -2.433   0.924  0.00  0.00     0.037 A 
ATOM      2  C   UNL d   1       0.671  -3.633   0.305  0.00  0.00     0.053 A 
ATOM      3  C   UNL d   1       1.956  -2.464   1.975  0.00  0.00     0.053 A 
ATOM      4  C   UNL d   1       2.480  -3.682   2.415  0.00  0.00     0.037 A 
ATOM      5  C   UNL d   1       1.187  -4.847   0.768  0.00  0.00     0.037 A 
ATOM      6  C   UNL d   1       2.094  -4.880   1.822  0.00  0.00     0.048 A 
ATOM      7 CL   UNL d   1       3.642  -3.698   3.684  0.00  0.00    -0.084 Cl
ATOM      8 CL   UNL d   1       0.701  -6.318   0.019  0.00  0.00    -0.084 Cl
ENDROOT
BRANCH   1   9
ATOM      9  N   UNL d   1       0.513  -1.237   0.391  0.00  0.00    -0.327 N 
ATOM     10  H   UNL d   1       0.106  -1.295  -0.534  0.00  0.00     0.169 HD
BRANCH   9  11
ATOM     11  C   UNL d   1       0.383  -0.000   0.975  0.00  0.00     0.214 C 
ATOM     12  S   UNL d   1       0.268   0.420   2.578  0.00  0.00    -0.033 SA
BRANCH  11  13
ATOM     13  O   UNL d   1       0.153   1.005   0.093  0.00  0.00    -0.332 OA
ATOM     14  C   UNL d   1       1.072   1.165  -0.998  0.00  0.00     0.212 C 
ENDBRANCH  11  13
ENDBRANCH   9  11
ENDBRANCH   1   9
TORSDOF 3
