REMARK  9 active torsions:
REMARK  status: ('A' for Active; 'I' for Inactive)
REMARK    1  A    between atoms: C_14  and  C_2 
REMARK    2  A    between atoms: S_10  and  C_5 
REMARK    3  A    between atoms: C_8  and  N_11 
REMARK    4  A    between atoms: N_17  and  C_8 
REMARK    5  A    between atoms: C_9  and  C_16 
REMARK       I    between atoms: N_12  and  C_9 
REMARK    6  A    between atoms: C_16  and  S_10 
REMARK    7  A    between atoms: N_11  and  N_12 
REMARK    8  A    between atoms: C_21  and  N_17 
REMARK    9  A    between atoms: C_19  and  C_21 
ROOT
ATOM      1  S   UNL d   1       0.298  -2.785  -0.007  0.00  0.00    -0.083 SA
ENDROOT
BRANCH   1   2
ATOM      2  C   UNL d   1       0.104  -1.072   0.018  0.00  0.00     0.163 A 
ATOM      3  N   UNL d   1      -1.116  -0.448   0.100  0.00  0.00    -0.315 N 
ATOM      4  C   UNL d   1      -0.846   0.903   0.183  0.00  0.00     0.134 A 
ATOM      5  C   UNL d   1      -2.398  -1.104   0.049  0.00  0.00     0.160 C 
ATOM      6  N   UNL d   1       0.466   1.059   0.060  0.00  0.00    -0.283 N 
ATOM      7  N   UNL d   1       1.058  -0.174  -0.029  0.00  0.00    -0.278 N 
ATOM      8  HN  UNL d   1       0.956   1.953   0.034  1.00  0.00     0.188 HD
ATOM      9  HN  UNL d   1       2.057  -0.359  -0.114  1.00  0.00     0.189 HD
BRANCH   4  10
ATOM     10  C   UNL d   1      -1.808   2.002   0.325  0.00  0.00     0.009 A 
ATOM     11  C   UNL d   1      -2.944   1.913   1.145  0.00  0.00     0.015 A 
ATOM     12  C   UNL d   1      -3.841   2.982   1.242  0.00  0.00     0.001 A 
ATOM     13  C   UNL d   1      -3.599   4.164   0.547  0.00  0.00     0.000 A 
ATOM     14  C   UNL d   1      -2.456   4.283  -0.239  0.00  0.00     0.001 A 
ATOM     15  C   UNL d   1      -1.567   3.211  -0.346  0.00  0.00     0.015 A 
ENDBRANCH   4  10
ENDBRANCH   1   2
BRANCH   1  16
ATOM     16  C   UNL d   1       2.108  -2.940  -0.149  0.00  0.00     0.186 C 
BRANCH  16  17
ATOM     17  C   UNL d   1       2.524  -4.400  -0.045  0.00  0.00     0.245 C 
ATOM     18  N   UNL d   1       1.788  -5.277  -0.821  0.00  0.00    -0.267 N 
ATOM     19  H   UNL d   1       0.910  -4.990  -1.249  0.00  0.00     0.190 HD
ATOM     20  O   UNL d   1       3.479  -4.775   0.635  0.00  0.00    -0.271 OA
BRANCH  18  21
ATOM     21  N   UNL d   1       1.976  -6.655  -0.631  0.00  0.00    -0.274 N 
ATOM     22  H   UNL d   1       2.732  -6.882   0.016  0.00  0.00     0.189 HD
BRANCH  21  23
ATOM     23  C   UNL d   1       1.713  -7.552  -1.659  0.00  0.00     0.186 C 
ATOM     24  S   UNL d   1       1.042  -7.122  -3.132  0.00  0.00    -0.040 SA
BRANCH  23  25
ATOM     25  N   UNL d   1       2.058  -8.835  -1.282  0.00  0.00    -0.363 N 
ATOM     26  H   UNL d   1       2.090  -8.996  -0.284  0.00  0.00     0.162 HD
BRANCH  25  27
ATOM     27  C   UNL d   1       1.938 -10.030  -2.095  0.00  0.00     0.148 C 
BRANCH  27  28
ATOM     28  C   UNL d   1       2.967 -10.996  -1.599  0.00  0.00    -0.018 C 
ATOM     29  C   UNL d   1       2.717 -12.245  -1.183  0.00  0.00     0.008 C 
ENDBRANCH  27  28
ENDBRANCH  25  27
ENDBRANCH  23  25
ENDBRANCH  21  23
ENDBRANCH  18  21
ENDBRANCH  16  17
ENDBRANCH   1  16
TORSDOF 9
