REMARK  2 active torsions:
REMARK  status: ('A' for Active; 'I' for Inactive)
REMARK    1  A    between atoms: C_8  and  N_1 
REMARK    2  A    between atoms: S_9  and  C_2 
ROOT
ATOM      1  N   UNL d   1      -0.323   1.139  -0.042  0.00  0.00    -0.286 N 
ATOM      2  C   UNL d   1      -0.936  -0.023   0.395  0.00  0.00     0.164 A 
ATOM      3  N   UNL d   1      -0.150  -1.057   0.185  0.00  0.00    -0.279 N 
ATOM      4  HN  UNL d   1      -0.349  -2.023   0.445  1.00  0.00     0.189 HD
ATOM      5  N   UNL d   1       0.981  -0.609  -0.444  0.00  0.00    -0.294 N 
ATOM      6  HN  UNL d   1       1.773  -1.179  -0.741  1.00  0.00     0.187 HD
ATOM      7  C   UNL d   1       0.857   0.688  -0.594  0.00  0.00     0.207 A 
ENDROOT
BRANCH   1   8
ATOM      8  C   UNL d   1      -0.719   2.504   0.036  0.00  0.00     0.042 A 
ATOM      9  C   UNL d   1      -1.531   2.967   1.081  0.00  0.00     0.030 A 
ATOM     10  C   UNL d   1      -1.902   4.313   1.140  0.00  0.00     0.002 A 
ATOM     11  C   UNL d   1      -1.459   5.207   0.170  0.00  0.00     0.000 A 
ATOM     12  C   UNL d   1      -0.633   4.761  -0.858  0.00  0.00     0.002 A 
ATOM     13  C   UNL d   1      -0.257   3.418  -0.925  0.00  0.00     0.030 A 
ENDBRANCH   1   8
BRANCH   2  14
ATOM     14  S   UNL d   1      -2.574  -0.193   0.940  0.00  0.00    -0.105 SA
ATOM     15  H   UNL d   1      -3.092   0.929   0.423  0.00  0.00     0.110 HD
ENDBRANCH   2  14
TORSDOF 2
