REMARK  4 active torsions:
REMARK  status: ('A' for Active; 'I' for Inactive)
REMARK    1  A    between atoms: C_12  and  C_3 
REMARK    2  A    between atoms: C_11  and  C_6 
REMARK    3  A    between atoms: S_13  and  C_11 
REMARK    4  A    between atoms: C_14  and  S_13 
ROOT
ATOM      1  C   UNL d   1       0.150   1.129  -0.088  0.00  0.00     0.172 A 
ATOM      2  N   UNL d   1      -0.286  -0.137   0.162  0.00  0.00    -0.235 N 
ATOM      3  C   UNL d   1      -1.941   1.149  -0.028  0.00  0.00     0.207 A 
ATOM      4  N   UNL d   1      -0.832   1.975  -0.213  0.00  0.00    -0.316 N 
ATOM      5  HN  UNL d   1      -0.799   2.978  -0.397  1.00  0.00     0.169 HD
ATOM      6  C   UNL d   1       1.938  -0.540   0.164  0.00  0.00     0.090 A 
ATOM      7  N   UNL d   1      -1.629  -0.153   0.207  0.00  0.00    -0.273 N 
ATOM      8  HN  UNL d   1      -2.254  -0.941   0.376  1.00  0.00     0.189 HD
ATOM      9  C   UNL d   1       0.708  -1.091   0.308  0.00  0.00     0.054 A 
ATOM     10  S   UNL d   1       1.871   1.209  -0.178  0.00  0.00    -0.045 SA
ATOM     11  C   UNL d   1       0.295  -2.495   0.598  0.00  0.00     0.072 C 
ENDROOT
BRANCH   6  12
ATOM     12  C   UNL d   1       3.232  -1.283   0.292  0.00  0.00     0.233 C 
ATOM     13  O   UNL d   1       3.268  -2.475   0.581  0.00  0.00    -0.279 OA
BRANCH  12  14
ATOM     14  S   UNL d   1       4.733  -0.467  -0.096  0.00  0.00    -0.044 SA
BRANCH  14  15
ATOM     15  C   UNL d   1       5.204   0.382   1.404  0.00  0.00     0.047 A 
ATOM     16  C   UNL d   1       4.395   0.564   2.534  0.00  0.00     0.136 A 
ATOM     17  C   UNL d   1       4.781   1.400   3.578  0.00  0.00     0.086 A 
ATOM     18  F   UNL d   1       3.201  -0.036   2.638  0.00  0.00    -0.205 F 
ATOM     19  C   UNL d   1       6.008   2.041   3.514  0.00  0.00     0.119 A 
ATOM     20  C   UNL d   1       6.868   1.827   2.444  0.00  0.00     0.044 A 
ATOM     21  F   UNL d   1       6.366   2.884   4.490  0.00  0.00    -0.206 F 
ATOM     22  C   UNL d   1       6.468   0.997   1.394  0.00  0.00     0.025 A 
ENDBRANCH  14  15
ENDBRANCH  12  14
ENDBRANCH   6  12
BRANCH   3  23
ATOM     23  C   UNL d   1      -3.370   1.644  -0.100  0.00  0.00     0.450 C 
ATOM     24  F   UNL d   1      -3.461   2.998  -0.184  0.00  0.00    -0.163 F 
ATOM     25  F   UNL d   1      -4.025   1.144  -1.186  0.00  0.00    -0.163 F 
ATOM     26  F   UNL d   1      -4.100   1.278   0.992  0.00  0.00    -0.163 F 
ENDBRANCH   3  23
TORSDOF 4
