REMARK  7 active torsions:
REMARK  status: ('A' for Active; 'I' for Inactive)
REMARK       I    between atoms: C_2  and  N_1 
REMARK    1  A    between atoms: C_5  and  N_1 
REMARK    2  A    between atoms: C_9  and  C_2 
REMARK    3  A    between atoms: N_3  and  C_6 
REMARK    4  A    between atoms: C_6  and  C_5 
REMARK    5  A    between atoms: C_10  and  C_5 
REMARK    6  A    between atoms: C_11  and  C_6 
REMARK    7  A    between atoms: C_12  and  C_7 
ROOT
ATOM      1  C   UNL d   1       2.428  -0.123   0.240  0.00  0.00     0.145 C 
ENDROOT
BRANCH   1   2
ATOM      2  N   UNL d   1       0.968  -0.052   0.101  0.00  0.00    -0.346 N 
ATOM      3  C   UNL d   1       0.302  -0.490  -1.022  0.00  0.00     0.252 C 
ATOM      4  O   UNL d   1       0.868  -0.963  -2.002  0.00  0.00    -0.268 OA
ATOM      5  H   UNL d   1       0.462   0.181   0.941  0.00  0.00     0.163 HD
BRANCH   3   6
ATOM      6  C   UNL d   1      -1.184  -0.350  -1.020  0.00  0.00     0.032 A 
ATOM      7  C   UNL d   1      -1.843   0.603  -0.231  0.00  0.00     0.017 A 
ATOM      8  C   UNL d   1      -3.229   0.759  -0.329  0.00  0.00     0.001 A 
ATOM      9  C   UNL d   1      -3.963  -0.030  -1.214  0.00  0.00     0.000 A 
ATOM     10  C   UNL d   1      -3.317  -0.988  -1.994  0.00  0.00     0.001 A 
ATOM     11  C   UNL d   1      -1.932  -1.147  -1.899  0.00  0.00     0.017 A 
ENDBRANCH   3   6
ENDBRANCH   1   2
BRANCH   1  12
ATOM     12  C   UNL d   1       3.027   1.311   0.490  0.00  0.00     0.141 C 
BRANCH  12  13
ATOM     13  N   UNL d   1       2.524   1.894   1.771  0.00  0.00    -0.387 N 
ATOM     14  C   UNL d   1       2.608   3.182   1.825  0.00  0.00     0.095 C 
ATOM     15  HN  UNL d   1       2.148   1.327   2.532  1.00  0.00     0.159 HD
BRANCH  14  16
ATOM     16  C   UNL d   1       2.358   3.932   3.073  0.00  0.00    -0.021 A 
ATOM     17  C   UNL d   1       2.108   3.264   4.275  0.00  0.00     0.013 A 
ATOM     18  C   UNL d   1       1.980   3.992   5.460  0.00  0.00     0.001 A 
ATOM     19  C   UNL d   1       2.098   5.383   5.441  0.00  0.00     0.000 A 
ATOM     20  C   UNL d   1       2.337   6.049   4.239  0.00  0.00     0.001 A 
ATOM     21  C   UNL d   1       2.469   5.325   3.052  0.00  0.00     0.013 A 
ENDBRANCH  14  16
ENDBRANCH  12  13
BRANCH  12  22
ATOM     22  C   UNL d   1       4.553   1.329   0.397  0.00  0.00    -0.033 A 
ATOM     23  C   UNL d   1       5.363   1.263   1.544  0.00  0.00     0.009 A 
ATOM     24  C   UNL d   1       6.755   1.316   1.440  0.00  0.00     0.001 A 
ATOM     25  C   UNL d   1       7.359   1.422   0.190  0.00  0.00     0.000 A 
ATOM     26  C   UNL d   1       6.569   1.470  -0.959  0.00  0.00     0.001 A 
ATOM     27  C   UNL d   1       5.178   1.423  -0.856  0.00  0.00     0.009 A 
ENDBRANCH  12  22
ENDBRANCH   1  12
BRANCH   1  28
ATOM     28  C   UNL d   1       2.772  -1.185   1.278  0.00  0.00    -0.033 A 
ATOM     29  C   UNL d   1       3.475  -2.339   0.892  0.00  0.00     0.009 A 
ATOM     30  C   UNL d   1       3.772  -3.338   1.820  0.00  0.00     0.001 A 
ATOM     31  C   UNL d   1       3.367  -3.201   3.145  0.00  0.00     0.000 A 
ATOM     32  C   UNL d   1       2.664  -2.070   3.544  0.00  0.00     0.001 A 
ATOM     33  C   UNL d   1       2.364  -1.071   2.616  0.00  0.00     0.009 A 
ENDBRANCH   1  28
TORSDOF 7
