REMARK  4 active torsions:
REMARK  status: ('A' for Active; 'I' for Inactive)
REMARK    1  A    between atoms: C_7  and  C_1 
REMARK    2  A    between atoms: C_8  and  C_2 
REMARK    3  A    between atoms: O_9  and  C_5 
REMARK    4  A    between atoms: O_10  and  C_6 
ROOT
ATOM      1  C   UNL d   1       1.434  -0.275   0.149  0.00  0.00    -0.015 A 
ATOM      2  C   UNL d   1      -1.412   0.161  -0.152  0.00  0.00    -0.015 A 
ATOM      3  C   UNL d   1      -0.492   1.221  -0.041  0.00  0.00     0.048 A 
ATOM      4  C   UNL d   1       0.513  -1.333  -0.000  0.00  0.00     0.048 A 
ATOM      5  C   UNL d   1      -0.876  -1.141  -0.115  0.00  0.00     0.075 A 
ATOM      6  C   UNL d   1       0.890   1.026   0.145  0.00  0.00     0.075 A 
ENDROOT
BRANCH   1   7
ATOM      7  C   UNL d   1       2.944  -0.562   0.322  0.00  0.00    -0.021 C 
ATOM      8  C   UNL d   1       3.296  -2.074   0.336  0.00  0.00     0.019 C 
ATOM      9  C   UNL d   1       3.753   0.055  -0.842  0.00  0.00     0.019 C 
ATOM     10  C   UNL d   1       3.465  -0.003   1.666  0.00  0.00     0.019 C 
ENDBRANCH   1   7
BRANCH   6  11
ATOM     11  O   UNL d   1       1.754   2.082   0.294  0.00  0.00    -0.355 OA
ATOM     12  C   UNL d   1       1.192   3.304   0.773  0.00  0.00     0.210 C 
ENDBRANCH   6  11
BRANCH   5  13
ATOM     13  O   UNL d   1      -1.762  -2.183  -0.203  0.00  0.00    -0.355 OA
ATOM     14  C   UNL d   1      -1.266  -3.506  -0.041  0.00  0.00     0.210 C 
ENDBRANCH   5  13
BRANCH   2  15
ATOM     15  C   UNL d   1      -2.928   0.448  -0.297  0.00  0.00    -0.021 C 
ATOM     16  C   UNL d   1      -3.281   1.960  -0.332  0.00  0.00     0.019 C 
ATOM     17  C   UNL d   1      -3.468  -0.141  -1.619  0.00  0.00     0.019 C 
ATOM     18  C   UNL d   1      -3.710  -0.137   0.901  0.00  0.00     0.019 C 
ENDBRANCH   2  15
TORSDOF 4
