REMARK  2 active torsions:
REMARK  status: ('A' for Active; 'I' for Inactive)
REMARK    1  A    between atoms: C_10  and  N_9 
REMARK    2  A    between atoms: C_11  and  C_10 
ROOT
ATOM      1  S   UNL d   1       2.096  -0.670  -1.502  0.00  0.00    -0.034 SA
ATOM      2  C   UNL d   1       2.195   0.919  -0.841  0.00  0.00     0.147 A 
ATOM      3  N   UNL d   1       1.128   1.665  -0.991  0.00  0.00    -0.334 N 
ATOM      4  HN  UNL d   1       1.023   2.618  -0.642  1.00  0.00     0.168 HD
ATOM      5  C   UNL d   1       0.550  -0.306  -2.110  0.00  0.00     0.104 A 
ATOM      6  C   UNL d   1       0.164   0.963  -1.694  0.00  0.00     0.068 A 
ATOM      7  N   UNL d   1      -0.166  -1.170  -2.863  0.00  0.00    -0.358 N 
ATOM      8  HN  UNL d   1       0.179  -2.087  -3.148  1.00  0.00     0.166 HD
ATOM      9  N   UNL d   1       3.338   1.317  -0.249  0.00  0.00    -0.366 N 
ATOM     10  C   UNL d   1      -1.130   1.385  -2.038  0.00  0.00     0.034 A 
ATOM     11  C   UNL d   1      -1.385  -0.695  -3.200  0.00  0.00     0.089 A 
ATOM     12  C   UNL d   1      -1.913   0.529  -2.813  0.00  0.00     0.019 A 
ATOM     13  H   UNL d   1       3.929   0.653   0.228  0.00  0.00     0.162 HD
ENDROOT
BRANCH   9  14
ATOM     14  C   UNL d   1       3.594   2.721  -0.008  0.00  0.00     0.160 C 
BRANCH  14  15
ATOM     15  C   UNL d   1       5.088   2.971  -0.011  0.00  0.00    -0.041 A 
ATOM     16  C   UNL d   1       5.873   2.590  -1.114  0.00  0.00     0.009 A 
ATOM     17  C   UNL d   1       7.246   2.846  -1.135  0.00  0.00     0.001 A 
ATOM     18  C   UNL d   1       7.849   3.494  -0.059  0.00  0.00     0.000 A 
ATOM     19  C   UNL d   1       7.081   3.884   1.037  0.00  0.00     0.001 A 
ATOM     20  C   UNL d   1       5.707   3.625   1.061  0.00  0.00     0.009 A 
ENDBRANCH  14  15
ENDBRANCH   9  14
TORSDOF 2
