REMARK  2 active torsions:
REMARK  status: ('A' for Active; 'I' for Inactive)
REMARK    1  A    between atoms: C_3  and  C_4 
REMARK    2  A    between atoms: N_7  and  C_5 
ROOT
ATOM      1  C   UNL d   1       0.172  -0.870   0.092  0.00  0.00    -0.012 C 
ATOM      2  C   UNL d   1      -1.244  -1.333   0.154  0.00  0.00     0.155 C 
ATOM      3  C   UNL d   1       1.214  -1.710   0.017  0.00  0.00     0.012 C 
ATOM      4  O   UNL d   1      -1.599  -2.497   0.069  0.00  0.00    -0.293 OA
ATOM      5  C   UNL d   1       0.145   0.627   0.144  0.00  0.00     0.043 C 
ATOM      6  C   UNL d   1      -2.166  -0.152   0.272  0.00  0.00     0.084 C 
ATOM      7  C   UNL d   1      -1.220   0.947   0.746  0.00  0.00     0.012 C 
ENDROOT
BRANCH   3   8
ATOM      8  C   UNL d   1       2.586  -1.255  -0.057  0.00  0.00     0.017 C 
ATOM      9  C   UNL d   1       3.653  -2.062  -0.141  0.00  0.00     0.084 C 
BRANCH   9  10
ATOM     10  N   UNL d   1       4.995  -1.720  -0.220  0.00  0.00    -0.398 N 
ATOM     11  C   UNL d   1       5.508  -0.351  -0.195  0.00  0.00     0.148 C 
ATOM     12  C   UNL d   1       6.046  -2.738  -0.282  0.00  0.00     0.148 C 
ENDBRANCH   9  10
ENDBRANCH   3   8
TORSDOF 2
