REMARK  7 active torsions:
REMARK  status: ('A' for Active; 'I' for Inactive)
REMARK    1  A    between atoms: C_2  and  C_1 
REMARK       I    between atoms: N_5  and  C_2 
REMARK    2  A    between atoms: N_8  and  C_3 
REMARK    3  A    between atoms: C_6  and  N_5 
REMARK    4  A    between atoms: O_19  and  C_9 
REMARK    5  A    between atoms: O_20  and  C_11 
REMARK    6  A    between atoms: C_26  and  O_19 
REMARK    7  A    between atoms: C_27  and  O_20 
ROOT
ATOM      1  C   UNL d   1      -1.192  -5.853  -0.163  0.00  0.00     0.067 A 
ATOM      2  C   UNL d   1      -1.026  -4.691  -0.943  0.00  0.00     0.071 A 
ATOM      3  C   UNL d   1       1.213  -4.312  -0.066  0.00  0.00     0.071 A 
ATOM      4  C   UNL d   1      -0.078  -6.261   0.604  0.00  0.00     0.097 A 
ATOM      5  C   UNL d   1       1.090  -5.487   0.672  0.00  0.00     0.071 A 
ATOM      6  C   UNL d   1       0.157  -3.931  -0.913  0.00  0.00     0.097 A 
ENDROOT
BRANCH   3   7
ATOM      7  N   UNL d   1       2.326  -3.439   0.036  0.00  0.00    -0.320 N 
ATOM      8  C   UNL d   1       3.478  -3.630   0.774  0.00  0.00     0.259 C 
ATOM      9  O   UNL d   1       3.827  -4.693   1.284  0.00  0.00    -0.267 OA
ATOM     10  H   UNL d   1       2.199  -2.559  -0.458  0.00  0.00     0.169 HD
BRANCH   8  11
ATOM     11  C   UNL d   1       4.367  -2.447   0.976  0.00  0.00     0.071 A 
ATOM     12  C   UNL d   1       4.042  -1.156   0.550  0.00  0.00     0.135 A 
ATOM     13  C   UNL d   1       4.870  -0.071   0.833  0.00  0.00     0.085 A 
ATOM     14  F   UNL d   1       2.914  -0.919  -0.137  0.00  0.00    -0.205 F 
ATOM     15  C   UNL d   1       6.042  -0.279   1.548  0.00  0.00     0.119 A 
ATOM     16  C   UNL d   1       6.403  -1.550   1.975  0.00  0.00     0.043 A 
ATOM     17  F   UNL d   1       6.833   0.763   1.835  0.00  0.00    -0.206 F 
ATOM     18  C   UNL d   1       5.567  -2.633   1.690  0.00  0.00     0.023 A 
ENDBRANCH   8  11
ENDBRANCH   3   7
BRANCH   6  19
ATOM     19  O   UNL d   1       0.359  -2.781  -1.646  0.00  0.00    -0.349 OA
BRANCH  19  20
ATOM     20  C   UNL d   1      -0.528  -2.559  -2.744  0.00  0.00     0.171 C 
ATOM     21  C   UNL d   1       0.019  -1.419  -3.584  0.00  0.00     0.034 C 
ENDBRANCH  19  20
ENDBRANCH   6  19
BRANCH   4  22
ATOM     22  O   UNL d   1      -0.047  -7.388   1.394  0.00  0.00    -0.349 OA
BRANCH  22  23
ATOM     23  C   UNL d   1      -0.389  -8.604   0.720  0.00  0.00     0.171 C 
ATOM     24  C   UNL d   1       0.793  -9.553   0.771  0.00  0.00     0.034 C 
ENDBRANCH  22  23
ENDBRANCH   4  22
BRANCH   1  25
ATOM     25  N   UNL d   1      -2.401  -6.534  -0.145  0.00  0.00    -0.374 N 
ATOM     26  C   UNL d   1      -3.299  -6.620  -1.304  0.00  0.00     0.149 C 
ATOM     27  C   UNL d   1      -4.604  -5.857  -1.043  0.00  0.00     0.187 C 
ATOM     28  O   UNL d   1      -5.238  -6.297   0.169  0.00  0.00    -0.388 OA
ATOM     29  C   UNL d   1      -4.369  -6.071   1.291  0.00  0.00     0.187 C 
ATOM     30  C   UNL d   1      -3.042  -6.834   1.150  0.00  0.00     0.149 C 
ENDBRANCH   1  25
TORSDOF 7
