REMARK  5 active torsions:
REMARK  status: ('A' for Active; 'I' for Inactive)
REMARK    1  A    between atoms: C_2  and  N_1 
REMARK    2  A    between atoms: C_3  and  C_10 
REMARK       I    between atoms: N_9  and  C_3 
REMARK    3  A    between atoms: S_6  and  C_5 
REMARK    4  A    between atoms: C_10  and  S_6 
REMARK    5  A    between atoms: N_11  and  N_9 
ROOT
ATOM      1  C   UNL d   1       0.103   0.621   0.808  0.00  0.00     0.119 A 
ATOM      2  C   UNL d   1       0.581   1.897   1.145  0.00  0.00     0.034 A 
ATOM      3  C   UNL d   1      -1.096   0.111   1.339  0.00  0.00     0.037 A 
ATOM      4  C   UNL d   1      -0.188   2.649   2.050  0.00  0.00     0.021 A 
ATOM      5  C   UNL d   1      -1.838   0.884   2.227  0.00  0.00     0.003 A 
ATOM      6  C   UNL d   1      -1.385   2.152   2.580  0.00  0.00     0.002 A 
ENDROOT
BRANCH   2   7
ATOM      7  S   UNL d   1       2.114   2.669   0.628  0.00  0.00    -0.118 SA
BRANCH   7   8
ATOM      8  C   UNL d   1       1.905   2.812  -1.173  0.00  0.00     0.183 C 
BRANCH   8   9
ATOM      9  C   UNL d   1       0.704   3.659  -1.538  0.00  0.00     0.241 C 
ATOM     10  O   UNL d   1      -0.409   3.176  -1.752  0.00  0.00    -0.271 OA
ATOM     11  N   UNL d   1       0.972   5.020  -1.643  0.00  0.00    -0.293 N 
ATOM     12  H   UNL d   1       1.807   5.407  -1.206  0.00  0.00     0.183 HD
BRANCH  11  13
ATOM     13  N   UNL d   1      -0.078   5.903  -1.985  0.00  0.00    -0.247 NA
ATOM     14  H   UNL d   1      -0.949   5.349  -1.985  0.00  0.00     0.143 HD
ATOM     15  H   UNL d   1       0.041   6.168  -2.967  0.00  0.00     0.143 HD
ENDBRANCH  11  13
ENDBRANCH   8   9
ENDBRANCH   7   8
ENDBRANCH   2   7
BRANCH   1  16
ATOM     16  N   UNL d   1       0.837  -0.255  -0.083  0.00  0.00    -0.114 N 
ATOM     17  O   UNL d   1       1.987  -0.576   0.245  0.00  0.00    -0.532 OA
ATOM     18  O   UNL d   1       0.247  -0.650  -1.097  0.00  0.00    -0.532 OA
ENDBRANCH   1  16
TORSDOF 5
