REMARK  2 active torsions:
REMARK  status: ('A' for Active; 'I' for Inactive)
REMARK    1  A    between atoms: N_8  and  C_7 
REMARK    2  A    between atoms: C_11  and  N_8 
ROOT
ATOM      1  C   UNL d   1       1.169   0.067   0.050  0.00  0.00     0.115 A 
ATOM      2  N   UNL d   1      -0.902  -1.151   0.037  0.00  0.00    -0.275 N 
ATOM      3  N   UNL d   1      -0.963   1.165  -0.036  0.00  0.00    -0.275 N 
ATOM      4  C   UNL d   1       0.463  -1.233   0.085  0.00  0.00     0.266 A 
ATOM      5  C   UNL d   1       0.395   1.324  -0.029  0.00  0.00     0.266 A 
ATOM      6  C   UNL d   1      -1.645  -0.013  -0.017  0.00  0.00     0.329 A 
ATOM      7  C   UNL d   1       2.514   0.063   0.090  0.00  0.00     0.111 C 
ATOM      8  O   UNL d   1       0.913   2.435  -0.087  0.00  0.00    -0.267 OA
ATOM      9  O   UNL d   1       1.033  -2.316   0.150  0.00  0.00    -0.267 OA
ATOM     10  O   UNL d   1      -2.870  -0.048  -0.048  0.00  0.00    -0.246 OA
ATOM     11  H   UNL d   1      -1.409  -2.024   0.054  0.00  0.00     0.173 HD
ATOM     12  H   UNL d   1      -1.519   2.007  -0.086  0.00  0.00     0.173 HD
ENDROOT
BRANCH   7  13
ATOM     13  N   UNL d   1       3.384   1.126   0.038  0.00  0.00    -0.363 N 
ATOM     14  H   UNL d   1       2.963   2.046  -0.133  0.00  0.00     0.165 HD
BRANCH  13  15
ATOM     15  C   UNL d   1       4.793   1.114   0.104  0.00  0.00     0.054 A 
ATOM     16  C   UNL d   1       5.541   2.189  -0.423  0.00  0.00     0.062 A 
ATOM     17  C   UNL d   1       6.939   2.170  -0.436  0.00  0.00     0.050 A 
ATOM     18 CL   UNL d   1       4.745   3.572  -1.097  0.00  0.00    -0.082 Cl
ATOM     19  C   UNL d   1       7.613   1.071   0.085  0.00  0.00     0.035 A 
ATOM     20  C   UNL d   1       6.904   0.000   0.619  0.00  0.00     0.026 A 
ATOM     21 CL   UNL d   1       9.332   1.031   0.067  0.00  0.00    -0.084 Cl
ATOM     22  C   UNL d   1       5.505   0.021   0.622  0.00  0.00     0.033 A 
ENDBRANCH  13  15
ENDBRANCH   7  13
TORSDOF 2
