REMARK  5 active torsions:
REMARK  status: ('A' for Active; 'I' for Inactive)
REMARK    1  A    between atoms: C_6  and  C_1 
REMARK    2  A    between atoms: N_9  and  C_6 
REMARK    3  A    between atoms: O_11  and  C_10 
REMARK    4  A    between atoms: C_13  and  O_11 
REMARK    5  A    between atoms: C_14  and  C_13 
ROOT
ATOM      1  C   UNL d   1      -1.534  -1.194  -0.068  0.00  0.00    -0.002 A 
ATOM      2  C   UNL d   1      -0.185  -0.709  -0.147  0.00  0.00     0.003 A 
ATOM      3  N   UNL d   1      -1.553   1.041  -0.038  0.00  0.00    -0.365 N 
ATOM      4  C   UNL d   1      -2.345  -0.075  -0.007  0.00  0.00     0.098 A 
ATOM      5  C   UNL d   1      -0.227   0.682  -0.103  0.00  0.00     0.043 A 
ATOM      6  C   UNL d   1       1.073  -1.338  -0.227  0.00  0.00     0.051 A 
ATOM      7  C   UNL d   1       0.929   1.472  -0.114  0.00  0.00     0.033 A 
ATOM      8  C   UNL d   1       2.245  -0.570  -0.248  0.00  0.00     0.070 A 
ATOM      9  C   UNL d   1       2.168   0.818  -0.178  0.00  0.00     0.039 A 
ATOM     10  H   UNL d   1      -1.891   1.992  -0.001  0.00  0.00     0.165 HD
ENDROOT
BRANCH   8  11
ATOM     11  O   UNL d   1       3.393  -1.312  -0.280  0.00  0.00    -0.347 OA
BRANCH  11  12
ATOM     12  C   UNL d   1       4.569  -0.677  -0.778  0.00  0.00     0.214 C 
BRANCH  12  13
ATOM     13  C   UNL d   1       5.720  -1.661  -0.751  0.00  0.00    -0.034 A 
ATOM     14  C   UNL d   1       6.729  -1.591  -1.724  0.00  0.00     0.009 A 
ATOM     15  C   UNL d   1       7.817  -2.465  -1.681  0.00  0.00     0.001 A 
ATOM     16  C   UNL d   1       7.917  -3.411  -0.663  0.00  0.00     0.000 A 
ATOM     17  C   UNL d   1       6.928  -3.485   0.316  0.00  0.00     0.001 A 
ATOM     18  C   UNL d   1       5.841  -2.610   0.276  0.00  0.00     0.009 A 
ENDBRANCH  12  13
ENDBRANCH  11  12
ENDBRANCH   8  11
BRANCH   1  19
ATOM     19  C   UNL d   1      -1.958  -2.631  -0.009  0.00  0.00     0.312 C 
BRANCH  19  20
ATOM     20  N   UNL d   1      -2.920  -2.968  -1.073  0.00  0.00     0.084 N 
ATOM     21  C   UNL d   1      -2.315  -2.883  -2.405  0.00  0.00     0.309 C 
ATOM     22  C   UNL d   1      -3.419  -4.330  -0.856  0.00  0.00     0.309 C 
ENDBRANCH  19  20
ENDBRANCH   1  19
TORSDOF 5
