REMARK  4 active torsions:
REMARK  status: ('A' for Active; 'I' for Inactive)
REMARK       I    between atoms: N_2  and  C_1 
REMARK       I    between atoms: N_7  and  C_1 
REMARK    1  A    between atoms: C_4  and  N_2 
REMARK    2  A    between atoms: C_3  and  O_8 
REMARK    3  A    between atoms: C_13  and  N_7 
REMARK    4  A    between atoms: O_8  and  C_15 
ROOT
ATOM      1  C   UNL d   1       0.960   0.063  -0.005  0.00  0.00     0.326 C 
ATOM      2  N   UNL d   1       0.275  -1.060  -0.413  0.00  0.00    -0.294 N 
ATOM      3  N   UNL d   1       0.198   1.184   0.168  0.00  0.00    -0.309 N 
ATOM      4  O   UNL d   1       2.164  -0.038   0.214  0.00  0.00    -0.247 OA
ATOM      5  H   UNL d   1       0.854  -1.887  -0.443  0.00  0.00     0.172 HD
ATOM      6  H   UNL d   1      -0.780   1.044  -0.077  0.00  0.00     0.170 HD
ENDROOT
BRANCH   3   7
ATOM      7  C   UNL d   1       0.547   2.446   0.657  0.00  0.00     0.036 A 
ATOM      8  C   UNL d   1       1.850   2.831   0.962  0.00  0.00     0.032 A 
ATOM      9  C   UNL d   1       2.107   4.110   1.475  0.00  0.00     0.039 A 
ATOM     10  C   UNL d   1       1.057   4.991   1.729  0.00  0.00     0.078 A 
ATOM     11  C   UNL d   1      -0.241   4.622   1.378  0.00  0.00     0.039 A 
ATOM     12  C   UNL d   1      -0.496   3.358   0.847  0.00  0.00     0.032 A 
BRANCH  10  13
ATOM     13  O   UNL d   1       1.176   6.242   2.251  0.00  0.00    -0.255 OA
BRANCH  13  14
ATOM     14  C   UNL d   1       2.177   6.482   3.229  0.00  0.00     0.530 C 
ATOM     15  F   UNL d   1       2.818   5.376   3.661  0.00  0.00    -0.144 F 
ATOM     16  F   UNL d   1       3.087   7.346   2.730  0.00  0.00    -0.144 F 
ATOM     17  F   UNL d   1       1.593   7.063   4.303  0.00  0.00    -0.144 F 
ENDBRANCH  13  14
ENDBRANCH  10  13
ENDBRANCH   3   7
BRANCH   2  18
ATOM     18  C   UNL d   1      -1.076  -1.174  -0.749  0.00  0.00     0.109 A 
ATOM     19  N   UNL d   1      -1.827  -0.054  -0.828  0.00  0.00    -0.346 N 
ATOM     20  C   UNL d   1      -3.132  -0.159  -1.164  0.00  0.00     0.007 A 
ATOM     21  HN  UNL d   1      -1.415   0.859  -0.636  1.00  0.00     0.167 HD
ATOM     22  C   UNL d   1      -3.901   1.120  -1.299  0.00  0.00     0.068 C 
ATOM     23  C   UNL d   1      -3.738  -1.387  -1.387  0.00  0.00     0.025 A 
ATOM     24  C   UNL d   1      -2.960  -2.538  -1.290  0.00  0.00     0.006 A 
ATOM     25  C   UNL d   1      -1.605  -2.434  -0.982  0.00  0.00     0.049 A 
ENDBRANCH   2  18
TORSDOF 4
