REMARK  3 active torsions:
REMARK  status: ('A' for Active; 'I' for Inactive)
REMARK    1  A    between atoms: C_12  and  N_3 
REMARK    2  A    between atoms: C_14  and  N_5 
REMARK    3  A    between atoms: N_11  and  C_7 
ROOT
ATOM      1  C   UNL d   1       0.045   0.658   0.071  0.00  0.00     0.104 C 
ATOM      2  C   UNL d   1       0.002  -0.702   0.029  0.00  0.00     0.139 C 
ATOM      3  N   UNL d   1       1.222  -1.427  -0.059  0.00  0.00    -0.248 N 
ATOM      4  C   UNL d   1       2.483  -0.788  -0.182  0.00  0.00     0.342 C 
ATOM      5  N   UNL d   1       2.502   0.589  -0.020  0.00  0.00    -0.229 N 
ATOM      6  C   UNL d   1       1.375   1.309   0.307  0.00  0.00     0.272 C 
ATOM      7  C   UNL d   1      -1.184   1.481   0.028  0.00  0.00     0.055 C 
ATOM      8  N   UNL d   1      -1.286  -1.311   0.122  0.00  0.00    -0.303 N 
ATOM      9  C   UNL d   1      -2.371   0.866   0.000  0.00  0.00     0.105 C 
ATOM     10  C   UNL d   1      -2.480  -0.586   0.041  0.00  0.00     0.251 C 
ATOM     11  O   UNL d   1       3.525  -1.429  -0.376  0.00  0.00    -0.245 OA
ATOM     12  O   UNL d   1       1.437   2.442   0.779  0.00  0.00    -0.266 OA
ATOM     13  O   UNL d   1      -3.604  -1.079   0.024  0.00  0.00    -0.268 OA
ATOM     14  C   UNL d   1      -1.536  -2.715   0.412  0.00  0.00     0.161 C 
ENDROOT
BRANCH   3  15
ATOM     15  C   UNL d   1       1.329  -2.858  -0.143  0.00  0.00     0.045 A 
ATOM     16  C   UNL d   1       2.023  -3.550   0.866  0.00  0.00     0.030 A 
ATOM     17  C   UNL d   1       2.077  -4.943   0.862  0.00  0.00     0.002 A 
ATOM     18  C   UNL d   1       1.449  -5.656  -0.155  0.00  0.00     0.000 A 
ATOM     19  C   UNL d   1       0.810  -4.977  -1.194  0.00  0.00     0.002 A 
ATOM     20  C   UNL d   1       0.770  -3.579  -1.203  0.00  0.00     0.030 A 
ENDBRANCH   3  15
BRANCH   5  21
ATOM     21  C   UNL d   1       3.782   1.254   0.020  0.00  0.00     0.047 A 
ATOM     22  C   UNL d   1       4.693   1.103  -1.036  0.00  0.00     0.030 A 
ATOM     23  C   UNL d   1       5.915   1.782  -1.026  0.00  0.00     0.002 A 
ATOM     24  C   UNL d   1       6.254   2.605   0.048  0.00  0.00     0.000 A 
ATOM     25  C   UNL d   1       5.370   2.751   1.111  0.00  0.00     0.002 A 
ATOM     26  C   UNL d   1       4.143   2.085   1.095  0.00  0.00     0.030 A 
ENDBRANCH   5  21
BRANCH   7  27
ATOM     27  N   UNL d   1      -1.201   2.887  -0.043  0.00  0.00    -0.380 N 
ATOM     28  C   UNL d   1      -0.596   3.573  -1.202  0.00  0.00     0.123 C 
ATOM     29  C   UNL d   1      -1.166   4.978  -1.373  0.00  0.00     0.020 C 
ATOM     30  C   UNL d   1      -1.016   5.786  -0.092  0.00  0.00     0.003 C 
ATOM     31  C   UNL d   1      -1.722   5.066   1.049  0.00  0.00     0.020 C 
ATOM     32  C   UNL d   1      -1.181   3.653   1.227  0.00  0.00     0.123 C 
ENDBRANCH   7  27
TORSDOF 3
