REMARK  7 active torsions:
REMARK  status: ('A' for Active; 'I' for Inactive)
REMARK    1  A    between atoms: N_3  and  S_1 
REMARK    2  A    between atoms: C_10  and  S_1 
REMARK    3  A    between atoms: C_2  and  C_12 
REMARK    4  A    between atoms: C_11  and  N_3 
REMARK    5  A    between atoms: C_9  and  C_13 
REMARK    6  A    between atoms: C_12  and  S_17 
REMARK    7  A    between atoms: S_17  and  C_18 
ROOT
ATOM      1  C   UNL d   1       0.691  -1.815  -1.682  0.00  0.00     0.059 A 
ATOM      2  C   UNL d   1       2.010  -1.862  -2.169  0.00  0.00     0.028 A 
ATOM      3  C   UNL d   1      -0.324  -2.515  -2.353  0.00  0.00     0.031 A 
ATOM      4  C   UNL d   1       2.255  -2.580  -3.356  0.00  0.00     0.021 A 
ATOM      5  C   UNL d   1      -0.050  -3.245  -3.509  0.00  0.00     0.002 A 
ATOM      6  C   UNL d   1       1.242  -3.273  -4.016  0.00  0.00     0.002 A 
ENDROOT
BRANCH   1   7
ATOM      7  N   UNL d   1       0.308  -1.081  -0.522  0.00  0.00    -0.279 N 
ATOM      8  H   UNL d   1      -0.200  -1.591   0.199  0.00  0.00     0.179 HD
BRANCH   7   9
ATOM      9  S   UNL d   1      -0.134   0.538  -0.629  0.00  0.00     0.263 S 
ATOM     10  O   UNL d   1       0.872   1.275  -1.367  0.00  0.00    -0.200 OA
ATOM     11  O   UNL d   1      -0.519   0.937   0.708  0.00  0.00    -0.200 OA
BRANCH   9  12
ATOM     12  C   UNL d   1      -1.615   0.518  -1.617  0.00  0.00     0.080 A 
ATOM     13  C   UNL d   1      -1.545   0.720  -3.002  0.00  0.00     0.041 A 
ATOM     14  C   UNL d   1      -2.723   0.711  -3.768  0.00  0.00     0.049 A 
ATOM     15  C   UNL d   1      -3.957   0.529  -3.118  0.00  0.00     0.016 A 
ATOM     16  C   UNL d   1      -4.020   0.360  -1.734  0.00  0.00     0.002 A 
ATOM     17  C   UNL d   1      -2.850   0.360  -0.979  0.00  0.00     0.025 A 
BRANCH  14  18
ATOM     18  C   UNL d   1      -2.696   0.880  -5.269  0.00  0.00     0.417 C 
ATOM     19  F   UNL d   1      -1.446   1.033  -5.784  0.00  0.00    -0.166 F 
ATOM     20  F   UNL d   1      -3.236  -0.193  -5.912  0.00  0.00    -0.166 F 
ATOM     21  F   UNL d   1      -3.412   1.961  -5.684  0.00  0.00    -0.166 F 
ENDBRANCH  14  18
ENDBRANCH   9  12
ENDBRANCH   7   9
ENDBRANCH   1   7
BRANCH   2  22
ATOM     22  S   UNL d   1       3.493  -1.128  -1.497  0.00  0.00    -0.123 SA
BRANCH  22  23
ATOM     23  C   UNL d   1       3.285  -1.088   0.299  0.00  0.00     0.119 C 
BRANCH  23  24
ATOM     24  C   UNL d   1       2.964  -2.319   1.150  0.00  0.00    -0.036 C 
ATOM     25  C   UNL d   1       3.467  -3.626   0.901  0.00  0.00    -0.048 C 
ATOM     26  C   UNL d   1       3.042  -4.726   1.709  0.00  0.00    -0.049 C 
ATOM     27  C   UNL d   1       4.496  -3.908  -0.171  0.00  0.00     0.049 C 
ATOM     28  C   UNL d   1       3.448  -6.151   1.369  0.00  0.00     0.049 C 
ATOM     29  C   UNL d   1       2.268  -4.511   2.881  0.00  0.00    -0.049 C 
ATOM     30  C   UNL d   1       1.932  -3.192   3.250  0.00  0.00    -0.049 C 
ATOM     31  C   UNL d   1       1.901  -5.705   3.739  0.00  0.00     0.049 C 
ATOM     32  C   UNL d   1       2.240  -2.107   2.370  0.00  0.00    -0.048 C 
ATOM     33  C   UNL d   1       1.325  -2.868   4.602  0.00  0.00     0.049 C 
ATOM     34  C   UNL d   1       1.813  -0.718   2.828  0.00  0.00     0.049 C 
ENDBRANCH  23  24
ENDBRANCH  22  23
ENDBRANCH   2  22
TORSDOF 7
