REMARK  8 active torsions:
REMARK  status: ('A' for Active; 'I' for Inactive)
REMARK       I    between atoms: N_2  and  C_1 
REMARK       I    between atoms: N_5  and  C_1 
REMARK    1  A    between atoms: C_3  and  N_2 
REMARK    2  A    between atoms: C_11  and  N_5 
REMARK    3  A    between atoms: O_8  and  C_12 
REMARK    4  A    between atoms: C_10  and  O_8 
REMARK    5  A    between atoms: C_9  and  C_11 
REMARK    6  A    between atoms: C_12  and  C_9 
REMARK    7  A    between atoms: O_18  and  C_9 
REMARK    8  A    between atoms: O_20  and  C_13 
ROOT
ATOM      1  C   UNL d   1       1.010  -0.062   0.016  0.00  0.00     0.320 C 
ATOM      2  N   UNL d   1       2.347   0.270   0.114  0.00  0.00    -0.308 N 
ATOM      3  N   UNL d   1       0.337   0.854  -0.753  0.00  0.00    -0.340 N 
ATOM      4  O   UNL d   1       0.445  -0.993   0.576  0.00  0.00    -0.247 OA
ATOM      5  H   UNL d   1       2.506   1.261   0.035  0.00  0.00     0.170 HD
ATOM      6  H   UNL d   1       0.867   1.403  -1.417  0.00  0.00     0.164 HD
ENDROOT
BRANCH   3   7
ATOM      7  C   UNL d   1      -1.105   0.811  -0.903  0.00  0.00     0.158 C 
BRANCH   7   8
ATOM      8  C   UNL d   1      -1.589   1.864  -1.909  0.00  0.00     0.160 C 
BRANCH   8   9
ATOM      9  C   UNL d   1      -3.121   1.865  -2.017  0.00  0.00     0.209 C 
BRANCH   9  10
ATOM     10  O   UNL d   1      -3.512   2.807  -3.021  0.00  0.00    -0.349 OA
BRANCH  10  11
ATOM     11  C   UNL d   1      -4.851   2.989  -3.211  0.00  0.00     0.069 A 
ATOM     12  C   UNL d   1      -5.872   2.256  -2.607  0.00  0.00     0.039 A 
ATOM     13  C   UNL d   1      -7.213   2.534  -2.886  0.00  0.00     0.039 A 
ATOM     14  C   UNL d   1      -7.553   3.554  -3.776  0.00  0.00     0.068 A 
ATOM     15  C   UNL d   1      -6.532   4.287  -4.384  0.00  0.00     0.039 A 
ATOM     16  C   UNL d   1      -5.193   4.011  -4.101  0.00  0.00     0.039 A 
BRANCH  14  17
ATOM     17  O   UNL d   1      -8.822   3.916  -4.136  0.00  0.00    -0.356 OA
ATOM     18  C   UNL d   1      -9.887   3.194  -3.528  0.00  0.00     0.210 C 
ENDBRANCH  14  17
ENDBRANCH  10  11
ENDBRANCH   9  10
ENDBRANCH   8   9
BRANCH   8  19
ATOM     19  O   UNL d   1      -1.097   3.156  -1.508  0.00  0.00    -0.392 OA
ATOM     20  H   UNL d   1      -1.581   3.425  -0.709  0.00  0.00     0.210 HD
ENDBRANCH   8  19
ENDBRANCH   7   8
ENDBRANCH   3   7
BRANCH   2  21
ATOM     21  C   UNL d   1       3.256  -0.465   0.913  0.00  0.00     0.047 A 
ATOM     22  C   UNL d   1       4.143   0.207   1.802  0.00  0.00     0.001 A 
ATOM     23  C   UNL d   1       4.988  -0.583   2.624  0.00  0.00    -0.024 A 
ATOM     24  C   UNL d   1       4.203   1.614   1.970  0.00  0.00     0.014 A 
ATOM     25  C   UNL d   1       5.819   0.031   3.576  0.00  0.00     0.012 A 
ATOM     26  C   UNL d   1       4.979  -1.981   2.504  0.00  0.00     0.012 A 
ATOM     27  C   UNL d   1       5.840   1.416   3.728  0.00  0.00     0.001 A 
ATOM     28  C   UNL d   1       5.039   2.209   2.919  0.00  0.00     0.001 A 
ATOM     29  C   UNL d   1       4.135  -2.617   1.598  0.00  0.00     0.003 A 
ATOM     30  C   UNL d   1       3.269  -1.863   0.815  0.00  0.00     0.030 A 
ENDBRANCH   2  21
TORSDOF 8
