REMARK  5 active torsions:
REMARK  status: ('A' for Active; 'I' for Inactive)
REMARK    1  A    between atoms: N_2  and  S_1 
REMARK    2  A    between atoms: C_10  and  S_1 
REMARK    3  A    between atoms: C_3  and  N_2 
REMARK       I    between atoms: C_4  and  N_11 
REMARK    4  A    between atoms: C_9  and  C_4 
REMARK    5  A    between atoms: N_11  and  C_24 
ROOT
ATOM      1  C   UNL d   1       0.644   0.792  -1.408  0.00  0.00     0.075 A 
ATOM      2  C   UNL d   1       0.180  -0.104  -2.372  0.00  0.00     0.027 A 
ATOM      3  C   UNL d   1       0.663   2.160  -1.671  0.00  0.00     0.027 A 
ATOM      4  C   UNL d   1      -0.236   1.754  -3.897  0.00  0.00     0.035 A 
ATOM      5  C   UNL d   1      -0.252   0.379  -3.615  0.00  0.00     0.031 A 
ATOM      6  C   UNL d   1       0.230   2.633  -2.913  0.00  0.00     0.031 A 
ENDROOT
BRANCH   1   7
ATOM      7  S   UNL d   1       1.117   0.200   0.201  0.00  0.00     0.248 S 
ATOM      8  O   UNL d   1       1.012   1.325   1.110  0.00  0.00    -0.205 OA
ATOM      9  O   UNL d   1       0.387  -1.024   0.451  0.00  0.00    -0.205 OA
BRANCH   7  10
ATOM     10  N   UNL d   1       2.760  -0.062  -0.004  0.00  0.00    -0.151 NA
ATOM     11  H   UNL d   1       3.251   0.470   0.708  0.00  0.00     0.149 HD
BRANCH  10  12
ATOM     12  C   UNL d   1       3.100  -1.407   0.104  0.00  0.00     0.171 A 
ATOM     13  N   UNL d   1       3.006  -2.160  -0.994  0.00  0.00    -0.336 N 
ATOM     14  C   UNL d   1       3.273  -3.469  -0.817  0.00  0.00     0.009 A 
ATOM     15  HN  UNL d   1       2.751  -1.772  -1.902  1.00  0.00     0.168 HD
ATOM     16  C   UNL d   1       3.220  -4.355  -2.024  0.00  0.00     0.068 C 
ATOM     17  C   UNL d   1       3.578  -4.003   0.424  0.00  0.00     0.049 A 
ATOM     18  C   UNL d   1       3.627  -3.122   1.490  0.00  0.00     0.009 A 
ATOM     19  N   UNL d   1       3.414  -1.801   1.340  0.00  0.00    -0.336 N 
ATOM     20  C   UNL d   1       3.903  -3.622   2.876  0.00  0.00     0.068 C 
ATOM     21  HN  UNL d   1       3.487  -1.146   2.118  1.00  0.00     0.168 HD
ENDBRANCH  10  12
ENDBRANCH   7  10
ENDBRANCH   1   7
BRANCH   4  22
ATOM     22  N   UNL d   1      -0.725   2.173  -5.154  0.00  0.00    -0.321 N 
ATOM     23  C   UNL d   1      -0.825   3.472  -5.625  0.00  0.00     0.279 C 
ATOM     24  O   UNL d   1      -0.405   4.467  -5.043  0.00  0.00    -0.265 OA
ATOM     25  H   UNL d   1      -1.089   1.461  -5.778  0.00  0.00     0.169 HD
BRANCH  23  26
ATOM     26  C   UNL d   1      -1.505   3.594  -6.901  0.00  0.00     0.142 A 
ATOM     27  O   UNL d   1      -1.933   2.479  -7.574  0.00  0.00    -0.317 OA
ATOM     28  C   UNL d   1      -2.561   2.914  -8.700  0.00  0.00     0.143 A 
ATOM     29  C   UNL d   1      -2.551   4.288  -8.764  0.00  0.00     0.027 A 
ATOM     30  C   UNL d   1      -1.856   4.726  -7.615  0.00  0.00     0.045 A 
ENDBRANCH  23  26
ENDBRANCH   4  22
TORSDOF 5
