REMARK  6 active torsions:
REMARK  status: ('A' for Active; 'I' for Inactive)
REMARK    1  A    between atoms: C_9  and  C_1 
REMARK    2  A    between atoms: C_7  and  C_2 
REMARK    3  A    between atoms: N_11  and  C_5 
REMARK    4  A    between atoms: O_18  and  C_9 
REMARK    5  A    between atoms: C_17  and  N_11 
REMARK    6  A    between atoms: C_19  and  O_18 
ROOT
ATOM      1  C   UNL d   1      -1.606   1.385   0.065  0.00  0.00     0.072 A 
ATOM      2  C   UNL d   1      -2.239   0.150  -0.001  0.00  0.00     0.134 A 
ATOM      3  N   UNL d   1      -1.497  -1.003  -0.018  0.00  0.00    -0.336 N 
ATOM      4  HN  UNL d   1      -1.976  -1.904  -0.011  1.00  0.00     0.167 HD
ATOM      5  C   UNL d   1      -0.142  -0.976  -0.045  0.00  0.00     0.127 A 
ATOM      6  C   UNL d   1       0.532   0.237  -0.105  0.00  0.00     0.089 A 
ATOM      7  C   UNL d   1      -0.205   1.423  -0.018  0.00  0.00     0.046 A 
ATOM      8  C   UNL d   1       1.952   0.305  -0.229  0.00  0.00     0.103 C 
ATOM      9  N   UNL d   1       3.103   0.385  -0.374  0.00  0.00    -0.191 NA
ENDROOT
BRANCH   5  10
ATOM     10  N   UNL d   1       0.556  -2.199   0.031  0.00  0.00    -0.341 N 
ATOM     11  H   UNL d   1       1.190  -2.334  -0.749  0.00  0.00     0.167 HD
BRANCH  10  12
ATOM     12  C   UNL d   1       0.037  -3.408   0.547  0.00  0.00     0.033 A 
ATOM     13  C   UNL d   1       0.390  -4.634  -0.028  0.00  0.00     0.029 A 
ATOM     14  C   UNL d   1      -0.153  -5.830   0.457  0.00  0.00     0.002 A 
ATOM     15  C   UNL d   1      -1.034  -5.815   1.536  0.00  0.00     0.000 A 
ATOM     16  C   UNL d   1      -1.360  -4.608   2.145  0.00  0.00     0.002 A 
ATOM     17  C   UNL d   1      -0.823  -3.417   1.656  0.00  0.00     0.029 A 
ENDBRANCH  10  12
ENDBRANCH   5  10
BRANCH   1  18
ATOM     18  C   UNL d   1      -2.344   2.647   0.244  0.00  0.00     0.295 C 
ATOM     19  O   UNL d   1      -3.328   2.766   0.948  0.00  0.00    -0.259 OA
BRANCH  18  20
ATOM     20  O   UNL d   1      -1.760   3.591  -0.528  0.00  0.00    -0.318 OA
BRANCH  20  21
ATOM     21  C   UNL d   1      -2.535   4.772  -0.779  0.00  0.00     0.174 C 
ATOM     22  C   UNL d   1      -3.190   4.582  -2.134  0.00  0.00     0.034 C 
ENDBRANCH  20  21
ENDBRANCH  18  20
ENDBRANCH   1  18
BRANCH   2  23
ATOM     23  C   UNL d   1      -3.743  -0.036  -0.148  0.00  0.00     0.433 C 
ATOM     24  F   UNL d   1      -4.472   1.087  -0.383  0.00  0.00    -0.165 F 
ATOM     25  F   UNL d   1      -4.038  -0.842  -1.217  0.00  0.00    -0.165 F 
ATOM     26  F   UNL d   1      -4.311  -0.645   0.932  0.00  0.00    -0.165 F 
ENDBRANCH   2  23
TORSDOF 6
