REMARK  3 active torsions:
REMARK  status: ('A' for Active; 'I' for Inactive)
REMARK    1  A    between atoms: C_7  and  N_2 
REMARK    2  A    between atoms: N_9  and  C_7 
REMARK    3  A    between atoms: C_12  and  N_9 
ROOT
ATOM      1  C   UNL d   1       2.143  -2.415  -0.068  0.00  0.00     0.240 C 
ENDROOT
BRANCH   1   2
ATOM      2  N   UNL d   1       1.566  -1.073  -0.063  0.00  0.00    -0.260 N 
ATOM      3  N   UNL d   1       0.812  -0.654   0.973  0.00  0.00    -0.018 NA
ATOM      4  N   UNL d   1       0.443   0.596   0.715  0.00  0.00    -0.282 N 
ATOM      5  C   UNL d   1       0.983   0.961  -0.490  0.00  0.00     0.074 A 
ATOM      6  HN  UNL d   1      -0.141   1.183   1.311  1.00  0.00     0.184 HD
ATOM      7  C   UNL d   1       0.908   2.166  -1.203  0.00  0.00     0.033 A 
ATOM      8  C   UNL d   1       1.711  -0.100  -1.017  0.00  0.00     0.078 A 
ATOM      9  C   UNL d   1       1.579   2.260  -2.429  0.00  0.00     0.002 A 
ATOM     10  C   UNL d   1       2.305   1.178  -2.935  0.00  0.00     0.002 A 
ATOM     11  C   UNL d   1       2.388  -0.032  -2.237  0.00  0.00     0.033 A 
ENDBRANCH   1   2
BRANCH   1  12
ATOM     12  N   UNL d   1       3.610  -2.426  -0.080  0.00  0.00    -0.275 NA
ATOM     13  H   UNL d   1       3.984  -1.776   0.610  0.00  0.00     0.129 HD
BRANCH  12  14
ATOM     14  C   UNL d   1       4.287  -3.647  -0.080  0.00  0.00     0.010 A 
ATOM     15  C   UNL d   1       3.804  -4.796  -0.722  0.00  0.00     0.031 A 
ATOM     16  C   UNL d   1       4.569  -5.977  -0.818  0.00  0.00    -0.043 A 
ATOM     17  C   UNL d   1       4.006  -7.152  -1.569  0.00  0.00     0.049 C 
ATOM     18  C   UNL d   1       5.852  -5.992  -0.256  0.00  0.00     0.017 A 
ATOM     19  C   UNL d   1       6.355  -4.856   0.377  0.00  0.00     0.021 A 
ATOM     20 BR   UNL d   1       6.980  -7.516  -0.354  0.00  0.00    -0.051 Br
ATOM     21  C   UNL d   1       5.585  -3.692   0.442  0.00  0.00     0.025 A 
ENDBRANCH  12  14
ENDBRANCH   1  12
TORSDOF 3
