REMARK  12 active torsions:
REMARK  status: ('A' for Active; 'I' for Inactive)
REMARK    1  A    between atoms: N_4  and  C_1 
REMARK    2  A    between atoms: N_8  and  C_1 
REMARK    3  A    between atoms: C_2  and  N_3 
REMARK    4  A    between atoms: N_7  and  C_2 
REMARK    5  A    between atoms: C_5  and  C_10 
REMARK    6  A    between atoms: C_6  and  C_9 
REMARK    7  A    between atoms: C_14  and  N_7 
REMARK    8  A    between atoms: C_13  and  N_8 
REMARK    9  A    between atoms: C_31  and  C_41 
REMARK   10  A    between atoms: C_40  and  C_32 
REMARK   11  A    between atoms: C_35  and  C_40 
REMARK   12  A    between atoms: C_41  and  C_35 
ROOT
ATOM      1  C   UNL d   1      -2.170   4.773  -1.474  0.00  0.00     0.001 C 
ENDROOT
BRANCH   1   2
ATOM      2  C   UNL d   1      -0.938   4.294  -2.262  0.00  0.00     0.005 C 
BRANCH   2   3
ATOM      3  C   UNL d   1       0.437   4.863  -1.837  0.00  0.00    -0.012 C 
ATOM      4  C   UNL d   1       1.591   4.071  -2.501  0.00  0.00     0.024 C 
ATOM      5  C   UNL d   1       1.785   4.411  -3.981  0.00  0.00     0.125 C 
ATOM      6  N   UNL d   1       1.839   5.855  -4.223  0.00  0.00    -0.358 N 
ATOM      7  C   UNL d   1       0.778   6.647  -3.633  0.00  0.00     0.125 C 
ATOM      8  C   UNL d   1       0.669   6.352  -2.138  0.00  0.00     0.024 C 
BRANCH   6   9
ATOM      9  C   UNL d   1       2.765   6.460  -5.051  0.00  0.00     0.174 C 
ATOM     10  S   UNL d   1       4.416   6.337  -4.825  0.00  0.00    -0.041 SA
BRANCH   9  11
ATOM     11  N   UNL d   1       2.265   7.351  -5.974  0.00  0.00    -0.333 N 
ATOM     12  H   UNL d   1       2.894   8.108  -6.221  0.00  0.00     0.168 HD
BRANCH  11  13
ATOM     13  C   UNL d   1       1.304   7.042  -6.971  0.00  0.00     0.035 A 
ATOM     14  C   UNL d   1       0.922   5.730  -7.264  0.00  0.00     0.045 A 
ATOM     15  C   UNL d   1       0.064   5.445  -8.341  0.00  0.00     0.050 A 
ATOM     16  C   UNL d   1      -0.444   6.509  -9.102  0.00  0.00     0.016 A 
ATOM     17  C   UNL d   1      -0.074   7.820  -8.811  0.00  0.00     0.003 A 
ATOM     18  C   UNL d   1       0.812   8.085  -7.761  0.00  0.00     0.029 A 
BRANCH  15  19
ATOM     19  C   UNL d   1      -0.270   4.018  -8.710  0.00  0.00     0.417 C 
ATOM     20  F   UNL d   1       0.331   3.095  -7.906  0.00  0.00    -0.166 F 
ATOM     21  F   UNL d   1      -1.602   3.759  -8.644  0.00  0.00    -0.166 F 
ATOM     22  F   UNL d   1       0.113   3.711  -9.980  0.00  0.00    -0.166 F 
ENDBRANCH  15  19
ENDBRANCH  11  13
ENDBRANCH   9  11
ENDBRANCH   6   9
ENDBRANCH   2   3
ENDBRANCH   1   2
BRANCH   1  23
ATOM     23  C   UNL d   1      -2.667   6.207  -1.685  0.00  0.00     0.005 C 
BRANCH  23  24
ATOM     24  C   UNL d   1      -2.843   6.652  -3.152  0.00  0.00    -0.012 C 
ATOM     25  C   UNL d   1      -2.847   8.186  -3.260  0.00  0.00     0.024 C 
ATOM     26  C   UNL d   1      -4.109   8.781  -2.644  0.00  0.00     0.125 C 
ATOM     27  N   UNL d   1      -5.292   8.198  -3.275  0.00  0.00    -0.358 N 
ATOM     28  C   UNL d   1      -5.375   6.734  -3.328  0.00  0.00     0.125 C 
ATOM     29  C   UNL d   1      -4.096   6.085  -3.834  0.00  0.00     0.024 C 
BRANCH  27  30
ATOM     30  C   UNL d   1      -6.153   9.016  -3.964  0.00  0.00     0.174 C 
ATOM     31  S   UNL d   1      -6.403   8.912  -5.616  0.00  0.00    -0.041 SA
BRANCH  30  32
ATOM     32  N   UNL d   1      -6.760  10.034  -3.276  0.00  0.00    -0.333 N 
ATOM     33  H   UNL d   1      -7.151  10.742  -3.888  0.00  0.00     0.168 HD
BRANCH  32  34
ATOM     34  C   UNL d   1      -7.305  10.014  -1.967  0.00  0.00     0.035 A 
ATOM     35  C   UNL d   1      -7.231   8.917  -1.106  0.00  0.00     0.045 A 
ATOM     36  C   UNL d   1      -7.931   8.881   0.111  0.00  0.00     0.050 A 
ATOM     37  C   UNL d   1      -8.700   9.989   0.478  0.00  0.00     0.016 A 
ATOM     38  C   UNL d   1      -8.760  11.106  -0.355  0.00  0.00     0.003 A 
ATOM     39  C   UNL d   1      -8.066  11.116  -1.570  0.00  0.00     0.029 A 
BRANCH  36  40
ATOM     40  C   UNL d   1      -7.889   7.648   0.980  0.00  0.00     0.417 C 
ATOM     41  F   UNL d   1      -7.111   6.648   0.474  0.00  0.00    -0.166 F 
ATOM     42  F   UNL d   1      -7.402   7.900   2.225  0.00  0.00    -0.166 F 
ATOM     43  F   UNL d   1      -9.122   7.099   1.161  0.00  0.00    -0.166 F 
ENDBRANCH  36  40
ENDBRANCH  32  34
ENDBRANCH  30  32
ENDBRANCH  27  30
ENDBRANCH  23  24
ENDBRANCH   1  23
TORSDOF 12
