REMARK  3 active torsions:
REMARK  status: ('A' for Active; 'I' for Inactive)
REMARK    1  A    between atoms: C_5  and  N_1 
REMARK    2  A    between atoms: C_7  and  C_2 
REMARK    3  A    between atoms: O_14  and  C_11 
ROOT
ATOM      1  N   UNL d   1      -0.602  -1.188   0.224  0.00  0.00    -0.299 N 
ATOM      2  C   UNL d   1       0.793  -1.341  -0.156  0.00  0.00     0.188 C 
ATOM      3  S   UNL d   1       1.490   0.334  -0.278  0.00  0.00    -0.129 SA
ATOM      4  C   UNL d   1      -1.143   0.094   0.107  0.00  0.00     0.235 C 
ATOM      5  C   UNL d   1      -0.121   1.121  -0.317  0.00  0.00     0.179 C 
ATOM      6  O   UNL d   1      -2.325   0.398   0.247  0.00  0.00    -0.272 OA
ENDROOT
BRANCH   1   7
ATOM      7  C   UNL d   1      -1.437  -2.317   0.463  0.00  0.00     0.039 A 
ATOM      8  C   UNL d   1      -1.285  -3.501  -0.259  0.00  0.00     0.032 A 
ATOM      9  C   UNL d   1      -2.107  -4.608   0.006  0.00  0.00     0.039 A 
ATOM     10  C   UNL d   1      -3.056  -4.550   1.024  0.00  0.00     0.068 A 
ATOM     11  C   UNL d   1      -3.179  -3.385   1.778  0.00  0.00     0.039 A 
ATOM     12  C   UNL d   1      -2.397  -2.266   1.480  0.00  0.00     0.032 A 
BRANCH  10  13
ATOM     13  O   UNL d   1      -3.867  -5.584   1.398  0.00  0.00    -0.356 OA
ATOM     14  C   UNL d   1      -4.308  -6.419   0.333  0.00  0.00     0.210 C 
ENDBRANCH  10  13
ENDBRANCH   1   7
BRANCH   2  15
ATOM     15  C   UNL d   1       1.654  -2.178   0.780  0.00  0.00    -0.025 A 
ATOM     16  C   UNL d   1       2.776  -2.851   0.262  0.00  0.00     0.010 A 
ATOM     17  C   UNL d   1       3.634  -3.568   1.100  0.00  0.00     0.001 A 
ATOM     18  C   UNL d   1       3.383  -3.629   2.468  0.00  0.00     0.000 A 
ATOM     19  C   UNL d   1       2.274  -2.975   2.999  0.00  0.00     0.001 A 
ATOM     20  C   UNL d   1       1.422  -2.247   2.164  0.00  0.00     0.010 A 
ENDBRANCH   2  15
TORSDOF 3
