REMARK  6 active torsions:
REMARK  status: ('A' for Active; 'I' for Inactive)
REMARK       I    between atoms: N_3  and  C_1 
REMARK    1  A    between atoms: O_4  and  C_1 
REMARK    2  A    between atoms: C_7  and  N_2 
REMARK    3  A    between atoms: C_10  and  N_3 
REMARK    4  A    between atoms: C_6  and  O_4 
REMARK    5  A    between atoms: C_12  and  C_7 
REMARK    6  A    between atoms: C_11  and  C_10 
ROOT
ATOM      1  N   UNL d   1       0.115   6.182  -0.301  0.00  0.00     0.092 N 
ATOM      2  C   UNL d   1       0.067   5.094   0.685  0.00  0.00     0.273 C 
ATOM      3  C   UNL d   1       0.772   5.712  -1.534  0.00  0.00     0.273 C 
ATOM      4  C   UNL d   1      -0.225   3.377  -1.203  0.00  0.00     0.007 C 
ATOM      5  C   UNL d   1       0.007   4.550  -2.168  0.00  0.00     0.036 C 
ATOM      6  C   UNL d   1      -0.738   3.906   0.145  0.00  0.00     0.036 C 
ENDROOT
BRANCH   4   7
ATOM      7  C   UNL d   1       1.020   2.489  -1.028  0.00  0.00     0.129 C 
BRANCH   7   8
ATOM      8  N   UNL d   1       1.373   1.822  -2.268  0.00  0.00    -0.337 N 
ATOM      9  C   UNL d   1       2.607   1.882  -2.831  0.00  0.00     0.361 C 
ATOM     10  O   UNL d   1       3.564   2.471  -2.355  0.00  0.00    -0.238 OA
ATOM     11  H   UNL d   1       0.694   1.249  -2.749  0.00  0.00     0.164 HD
BRANCH   9  12
ATOM     12  O   UNL d   1       2.589   1.209  -4.006  0.00  0.00    -0.294 OA
BRANCH  12  13
ATOM     13  C   UNL d   1       3.768   1.172  -4.856  0.00  0.00     0.061 C 
ATOM     14  C   UNL d   1       4.901   0.384  -4.190  0.00  0.00     0.046 C 
ATOM     15  C   UNL d   1       3.327   0.421  -6.122  0.00  0.00     0.046 C 
ATOM     16  C   UNL d   1       4.215   2.580  -5.267  0.00  0.00     0.046 C 
ENDBRANCH  12  13
ENDBRANCH   9  12
ENDBRANCH   7   8
ENDBRANCH   4   7
BRANCH   1  17
ATOM     17  C   UNL d   1       0.837   7.366   0.209  0.00  0.00     0.311 C 
BRANCH  17  18
ATOM     18  C   UNL d   1       0.224   8.018   1.433  0.00  0.00    -0.030 A 
ATOM     19  C   UNL d   1       0.962   8.108   2.625  0.00  0.00     0.009 A 
ATOM     20  C   UNL d   1       0.426   8.742   3.748  0.00  0.00     0.001 A 
ATOM     21  C   UNL d   1      -0.851   9.297   3.693  0.00  0.00     0.000 A 
ATOM     22  C   UNL d   1      -1.593   9.215   2.516  0.00  0.00     0.001 A 
ATOM     23  C   UNL d   1      -1.060   8.579   1.392  0.00  0.00     0.009 A 
ENDBRANCH  17  18
ENDBRANCH   1  17
TORSDOF 6
