REMARK  7 active torsions:
REMARK  status: ('A' for Active; 'I' for Inactive)
REMARK    1  A    between atoms: N_2  and  C_1 
REMARK    2  A    between atoms: C_5  and  N_2 
REMARK    3  A    between atoms: C_12  and  N_4 
REMARK    4  A    between atoms: C_14  and  C_6 
REMARK    5  A    between atoms: O_11  and  C_13 
REMARK    6  A    between atoms: C_13  and  C_12 
REMARK    7  A    between atoms: C_15  and  C_14 
ROOT
ATOM      1  N   UNL d   1       0.334   1.126  -0.451  0.00  0.00    -0.333 N 
ATOM      2  H   UNL d   1      -0.578   1.081   0.005  0.00  0.00     0.168 HD
ENDROOT
BRANCH   1   3
ATOM      3  C   UNL d   1       1.004  -0.074  -0.440  0.00  0.00     0.172 C 
ATOM      4  S   UNL d   1       2.630  -0.341  -0.149  0.00  0.00    -0.041 SA
ATOM      5  N   UNL d   1       0.232  -1.179  -0.657  0.00  0.00    -0.365 N 
ATOM      6  H   UNL d   1       0.749  -2.049  -0.630  0.00  0.00     0.161 HD
BRANCH   5   7
ATOM      7  C   UNL d   1      -1.118  -1.208  -1.206  0.00  0.00     0.148 C 
BRANCH   7   8
ATOM      8  C   UNL d   1      -2.196  -1.104  -0.129  0.00  0.00     0.183 C 
BRANCH   8   9
ATOM      9  O   UNL d   1      -2.212   0.204   0.446  0.00  0.00    -0.399 OA
ATOM     10  H   UNL d   1      -2.921   0.199   1.115  0.00  0.00     0.209 HD
ENDBRANCH   8   9
ENDBRANCH   7   8
ENDBRANCH   5   7
ENDBRANCH   1   3
BRANCH   1  11
ATOM     11  C   UNL d   1       0.894   2.405  -0.639  0.00  0.00     0.034 A 
ATOM     12  C   UNL d   1       1.895   2.621  -1.592  0.00  0.00     0.030 A 
ATOM     13  C   UNL d   1       2.459   3.886  -1.753  0.00  0.00     0.009 A 
ATOM     14  C   UNL d   1       2.036   4.954  -0.956  0.00  0.00    -0.058 A 
ATOM     15  C   UNL d   1       0.990   4.749  -0.047  0.00  0.00     0.009 A 
ATOM     16  C   UNL d   1       0.405   3.484   0.094  0.00  0.00     0.030 A 
BRANCH  14  17
ATOM     17  C   UNL d   1       2.740   6.286  -1.053  0.00  0.00     0.038 C 
BRANCH  17  18
ATOM     18  C   UNL d   1       3.607   6.606   0.171  0.00  0.00     0.000 C 
ATOM     19  C   UNL d   1       4.713   5.587   0.419  0.00  0.00     0.005 C 
ENDBRANCH  17  18
ENDBRANCH  14  17
ENDBRANCH   1  11
TORSDOF 7
