REMARK  6 active torsions:
REMARK  status: ('A' for Active; 'I' for Inactive)
REMARK    1  A    between atoms: N_2  and  C_1 
REMARK    2  A    between atoms: N_4  and  C_1 
REMARK    3  A    between atoms: C_5  and  N_2 
REMARK    4  A    between atoms: C_13  and  N_4 
REMARK    5  A    between atoms: O_12  and  C_14 
REMARK    6  A    between atoms: C_14  and  C_13 
ROOT
ATOM      1  N   UNL d   1       0.497  -0.242   1.175  0.00  0.00    -0.333 N 
ATOM      2  H   UNL d   1      -0.495  -0.403   0.997  0.00  0.00     0.168 HD
ENDROOT
BRANCH   1   3
ATOM      3  C   UNL d   1       1.220  -0.022   0.032  0.00  0.00     0.172 C 
ATOM      4  S   UNL d   1       2.538   0.985  -0.180  0.00  0.00    -0.041 SA
BRANCH   3   5
ATOM      5  N   UNL d   1       0.767  -0.689  -1.076  0.00  0.00    -0.365 N 
ATOM      6  H   UNL d   1       1.321  -0.511  -1.907  0.00  0.00     0.161 HD
BRANCH   5   7
ATOM      7  C   UNL d   1      -0.138  -1.833  -1.102  0.00  0.00     0.148 C 
BRANCH   7   8
ATOM      8  C   UNL d   1      -1.615  -1.434  -1.093  0.00  0.00     0.183 C 
BRANCH   8   9
ATOM      9  O   UNL d   1      -1.993  -0.913   0.183  0.00  0.00    -0.399 OA
ATOM     10  H   UNL d   1      -2.946  -0.713   0.124  0.00  0.00     0.209 HD
ENDBRANCH   8   9
ENDBRANCH   7   8
ENDBRANCH   5   7
ENDBRANCH   3   5
ENDBRANCH   1   3
BRANCH   1  11
ATOM     11  C   UNL d   1       0.854  -0.052   2.524  0.00  0.00     0.034 A 
ATOM     12  C   UNL d   1      -0.177   0.173   3.444  0.00  0.00     0.031 A 
ATOM     13  C   UNL d   1       0.107   0.328   4.804  0.00  0.00     0.026 A 
ATOM     14  C   UNL d   1       1.421   0.224   5.252  0.00  0.00     0.034 A 
ATOM     15  C   UNL d   1       2.452  -0.030   4.351  0.00  0.00     0.026 A 
ATOM     16 CL   UNL d   1       1.772   0.391   6.928  0.00  0.00    -0.084 Cl
ATOM     17  C   UNL d   1       2.166  -0.168   2.989  0.00  0.00     0.031 A 
ENDBRANCH   1  11
TORSDOF 6
