REMARK  5 active torsions:
REMARK  status: ('A' for Active; 'I' for Inactive)
REMARK    1  A    between atoms: C_15  and  C_6 
REMARK    2  A    between atoms: N_7  and  C_9 
REMARK    3  A    between atoms: N_8  and  C_14 
REMARK    4  A    between atoms: O_27  and  C_15 
REMARK    5  A    between atoms: C_28  and  O_27 
ROOT
ATOM      1  C   UNL d   1      -1.719   0.514  -0.048  0.00  0.00     0.003 A 
ATOM      2  C   UNL d   1       0.592   0.036   0.073  0.00  0.00     0.018 A 
ATOM      3  C   UNL d   1      -0.439   1.131   0.094  0.00  0.00    -0.008 A 
ATOM      4  C   UNL d   1      -0.152  -1.267   0.056  0.00  0.00    -0.009 A 
ATOM      5  C   UNL d   1      -1.533  -0.947  -0.039  0.00  0.00    -0.013 A 
ATOM      6  C   UNL d   1      -2.865   1.323  -0.138  0.00  0.00     0.053 A 
ATOM      7  C   UNL d   1      -1.467   3.300   0.207  0.00  0.00     0.104 A 
ATOM      8  C   UNL d   1       1.939   0.194  -0.004  0.00  0.00     0.136 C 
ATOM      9  C   UNL d   1      -0.314   2.510   0.240  0.00  0.00     0.049 A 
ATOM     10  C   UNL d   1      -2.727   2.721   0.004  0.00  0.00     0.054 A 
ATOM     11  C   UNL d   1       0.272  -2.592   0.152  0.00  0.00     0.049 A 
ATOM     12  C   UNL d   1      -0.689  -3.613   0.124  0.00  0.00     0.103 A 
ATOM     13  C   UNL d   1       2.577   1.464  -0.076  0.00  0.00     0.111 C 
ATOM     14  C   UNL d   1       2.854  -0.894  -0.061  0.00  0.00     0.111 C 
ATOM     15  N   UNL d   1       3.108   2.495  -0.140  0.00  0.00    -0.191 NA
ATOM     16  N   UNL d   1       3.619  -1.768  -0.103  0.00  0.00    -0.191 NA
ATOM     17  C   UNL d   1      -2.473  -1.976  -0.035  0.00  0.00     0.015 A 
ATOM     18  C   UNL d   1      -2.053  -3.310   0.024  0.00  0.00     0.037 A 
ENDROOT
BRANCH   6  19
ATOM     19  C   UNL d   1      -4.197   0.815  -0.562  0.00  0.00     0.294 C 
ATOM     20  O   UNL d   1      -4.348  -0.098  -1.355  0.00  0.00    -0.259 OA
BRANCH  19  21
ATOM     21  O   UNL d   1      -5.181   1.617  -0.080  0.00  0.00    -0.318 OA
BRANCH  21  22
ATOM     22  C   UNL d   1      -6.413   1.573  -0.821  0.00  0.00     0.174 C 
ATOM     23  C   UNL d   1      -6.308   2.547  -1.984  0.00  0.00     0.034 C 
ENDBRANCH  21  22
ENDBRANCH  19  21
ENDBRANCH   6  19
BRANCH   7  24
ATOM     24  N   UNL d   1      -1.352   4.759   0.361  0.00  0.00    -0.116 N 
ATOM     25  O   UNL d   1      -0.223   5.230   0.542  0.00  0.00    -0.532 OA
ATOM     26  O   UNL d   1      -2.394   5.424   0.307  0.00  0.00    -0.532 OA
ENDBRANCH   7  24
BRANCH  12  27
ATOM     27  N   UNL d   1      -0.263  -5.017   0.230  0.00  0.00    -0.116 N 
ATOM     28  O   UNL d   1       0.946  -5.243   0.369  0.00  0.00    -0.532 OA
ATOM     29  O   UNL d   1      -1.141  -5.889   0.182  0.00  0.00    -0.532 OA
ENDBRANCH  12  27
TORSDOF 5
