REMARK  2 active torsions:
REMARK  status: ('A' for Active; 'I' for Inactive)
REMARK       I    between atoms: C_2  and  N_7 
REMARK    1  A    between atoms: C_3  and  C_2 
REMARK    2  A    between atoms: N_7  and  C_12 
ROOT
ATOM      1  S   UNL d   1      -1.770  -0.133   0.078  0.00  0.00     0.152 S 
ATOM      2  C   UNL d   1       0.723  -0.709   0.202  0.00  0.00    -0.035 A 
ATOM      3  C   UNL d   1      -0.574  -1.410   0.471  0.00  0.00     0.179 C 
ATOM      4  C   UNL d   1      -0.699   1.279   0.330  0.00  0.00     0.179 C 
ATOM      5  C   UNL d   1       0.651   0.684   0.076  0.00  0.00    -0.037 A 
ATOM      6  O   UNL d   1      -2.814  -0.129   1.088  0.00  0.00    -0.227 OA
ATOM      7  O   UNL d   1      -2.094  -0.216  -1.333  0.00  0.00    -0.227 OA
ATOM      8  C   UNL d   1       3.089  -0.659  -0.284  0.00  0.00     0.035 A 
ATOM      9  C   UNL d   1       1.939  -1.375   0.054  0.00  0.00     0.038 A 
ATOM     10  C   UNL d   1       1.785   1.409  -0.267  0.00  0.00     0.011 A 
ATOM     11  C   UNL d   1       2.994   0.731  -0.471  0.00  0.00     0.030 A 
ENDROOT
BRANCH   8  12
ATOM     12  N   UNL d   1       4.363  -1.250  -0.430  0.00  0.00    -0.323 N 
ATOM     13  C   UNL d   1       4.715  -2.573  -0.204  0.00  0.00     0.263 C 
ATOM     14  O   UNL d   1       3.912  -3.467   0.057  0.00  0.00    -0.267 OA
ATOM     15  H   UNL d   1       5.130  -0.629  -0.659  0.00  0.00     0.169 HD
BRANCH  13  16
ATOM     16  C   UNL d   1       6.149  -2.855  -0.253  0.00  0.00     0.072 A 
ATOM     17  S   UNL d   1       7.325  -1.659  -0.605  0.00  0.00    -0.097 SA
ATOM     18  C   UNL d   1       8.616  -2.743  -0.311  0.00  0.00     0.050 A 
ATOM     19  C   UNL d   1       8.169  -4.007  -0.000  0.00  0.00     0.009 A 
ATOM     20  C   UNL d   1       6.747  -4.077   0.006  0.00  0.00     0.025 A 
ENDBRANCH  13  16
ENDBRANCH   8  12
TORSDOF 2
