REMARK  5 active torsions:
REMARK  status: ('A' for Active; 'I' for Inactive)
REMARK    1  A    between atoms: C_3  and  N_1 
REMARK    2  A    between atoms: N_2  and  C_11 
REMARK    3  A    between atoms: C_25  and  C_6 
REMARK    4  A    between atoms: N_7  and  C_18 
REMARK    5  A    between atoms: C_21  and  N_9 
ROOT
ATOM      1  C   UNL d   1      -3.813   0.048  -0.098  0.00  0.00     0.037 A 
ATOM      2  C   UNL d   1      -4.529   0.655  -1.169  0.00  0.00    -0.030 A 
ATOM      3  C   UNL d   1      -4.607  -0.636   0.859  0.00  0.00     0.032 A 
ATOM      4  C   UNL d   1      -5.948   0.565  -1.204  0.00  0.00     0.040 A 
ATOM      5  C   UNL d   1      -6.697  -0.118  -0.243  0.00  0.00     0.048 A 
ATOM      6  C   UNL d   1      -6.006  -0.718   0.794  0.00  0.00     0.033 A 
ENDROOT
BRANCH   5   7
ATOM      7  N   UNL d   1      -8.109  -0.151  -0.252  0.00  0.00    -0.300 N 
ATOM      8  N   UNL d   1      -8.569  -0.289  -1.405  0.00  0.00    -0.300 N 
ATOM      9  HN  UNL d   1      -7.995  -0.470  -2.228  1.00  0.00     0.187 HD
ATOM     10  HN  UNL d   1      -8.685  -0.071   0.585  1.00  0.00     0.187 HD
BRANCH   8  11
ATOM     11  C   UNL d   1      -9.973  -0.165  -1.440  0.00  0.00     0.048 A 
ATOM     12  C   UNL d   1     -10.559   0.458  -2.554  0.00  0.00     0.033 A 
ATOM     13  C   UNL d   1     -11.946   0.609  -2.655  0.00  0.00     0.038 A 
ATOM     14  C   UNL d   1     -12.767   0.123  -1.630  0.00  0.00     0.103 A 
ATOM     15  C   UNL d   1     -12.206  -0.514  -0.518  0.00  0.00     0.038 A 
ATOM     16  C   UNL d   1     -10.818  -0.660  -0.433  0.00  0.00     0.033 A 
BRANCH  14  17
ATOM     17  N   UNL d   1     -14.221   0.286  -1.719  0.00  0.00    -0.116 N 
ATOM     18  O   UNL d   1     -14.681   0.854  -2.722  0.00  0.00    -0.532 OA
ATOM     19  O   UNL d   1     -14.912  -0.160  -0.789  0.00  0.00    -0.532 OA
ENDBRANCH  14  17
ENDBRANCH   8  11
ENDBRANCH   5   7
BRANCH   2  20
ATOM     20  C   UNL d   1      -3.847   1.370  -2.324  0.00  0.00     0.036 C 
ATOM     21  C   UNL d   1      -4.703   1.932  -3.459  0.00  0.00     0.010 C 
ENDBRANCH   2  20
BRANCH   1  22
ATOM     22  N   UNL d   1      -2.434   0.049   0.056  0.00  0.00    -0.372 N 
ATOM     23  C   UNL d   1      -1.477   0.992  -0.550  0.00  0.00     0.162 C 
ATOM     24  C   UNL d   1      -0.141   0.444  -0.151  0.00  0.00    -0.032 A 
ATOM     25  C   UNL d   1       1.110   0.787  -0.641  0.00  0.00     0.009 A 
ATOM     26  C   UNL d   1      -0.296  -0.567   0.793  0.00  0.00    -0.032 A 
ATOM     27  C   UNL d   1       2.220   0.093  -0.161  0.00  0.00     0.001 A 
ATOM     28  C   UNL d   1       2.069  -0.910   0.810  0.00  0.00     0.001 A 
ATOM     29  C   UNL d   1       0.802  -1.242   1.300  0.00  0.00     0.009 A 
ATOM     30  C   UNL d   1      -1.750  -0.776   1.084  0.00  0.00     0.162 C 
ENDBRANCH   1  22
TORSDOF 5
