REMARK  3 active torsions:
REMARK  status: ('A' for Active; 'I' for Inactive)
REMARK       I    between atoms: N_5  and  C_1 
REMARK    1  A    between atoms: O_7  and  C_1 
REMARK    2  A    between atoms: N_2  and  O_7 
REMARK    3  A    between atoms: C_13  and  N_5 
ROOT
ATOM      1  C   UNL d   1       0.808  -0.460  -1.383  0.00  0.00     0.387 C 
ATOM      2  N   UNL d   1       1.757  -0.209  -2.343  0.00  0.00    -0.301 N 
ATOM      3  O   UNL d   1       0.510  -1.539  -0.887  0.00  0.00    -0.236 OA
ATOM      4  H   UNL d   1       1.802   0.761  -2.623  0.00  0.00     0.171 HD
ENDROOT
BRANCH   1   5
ATOM      5  O   UNL d   1       0.204   0.726  -1.029  0.00  0.00    -0.181 OA
BRANCH   5   6
ATOM      6  N   UNL d   1      -1.192   0.550  -1.067  0.00  0.00    -0.264 N 
ATOM      7  C   UNL d   1      -1.780   0.911   0.034  0.00  0.00     0.014 C 
ATOM      8  C   UNL d   1      -3.282   0.797   0.099  0.00  0.00     0.084 C 
ATOM      9  C   UNL d   1      -1.116   1.423   1.284  0.00  0.00     0.084 C 
ATOM     10  C   UNL d   1      -3.635  -0.069   1.301  0.00  0.00     0.277 C 
ATOM     11  N   UNL d   1      -3.041   0.460   2.543  0.00  0.00     0.084 N 
ATOM     12  C   UNL d   1      -1.570   0.534   2.445  0.00  0.00     0.277 C 
ATOM     13  C   UNL d   1      -3.427  -0.388   3.675  0.00  0.00     0.309 C 
ATOM     14  HN  UNL d   1      -1.690   0.178  -1.876  1.00  0.00     0.194 HD
ENDBRANCH   5   6
ENDBRANCH   1   5
BRANCH   2  15
ATOM     15  C   UNL d   1       2.546  -1.135  -3.046  0.00  0.00     0.037 A 
ATOM     16  C   UNL d   1       2.523  -2.513  -2.810  0.00  0.00     0.031 A 
ATOM     17  C   UNL d   1       3.331  -3.376  -3.560  0.00  0.00     0.026 A 
ATOM     18  C   UNL d   1       4.167  -2.863  -4.548  0.00  0.00     0.034 A 
ATOM     19  C   UNL d   1       4.198  -1.494  -4.796  0.00  0.00     0.026 A 
ATOM     20 CL   UNL d   1       5.162  -3.925  -5.465  0.00  0.00    -0.084 Cl
ATOM     21  C   UNL d   1       3.389  -0.634  -4.047  0.00  0.00     0.031 A 
ENDBRANCH   2  15
TORSDOF 3
