REMARK  3 active torsions:
REMARK  status: ('A' for Active; 'I' for Inactive)
REMARK    1  A    between atoms: C_8  and  C_1 
REMARK    2  A    between atoms: C_12  and  C_3 
REMARK    3  A    between atoms: S_15  and  C_4 
ROOT
ATOM      1  C   UNL d   1      -0.791   1.277  -0.027  0.00  0.00     0.020 A 
ATOM      2  C   UNL d   1      -1.444   0.013   0.000  0.00  0.00     0.090 A 
ATOM      3  C   UNL d   1       0.626   1.295  -0.040  0.00  0.00     0.045 A 
ATOM      4  C   UNL d   1      -0.682  -1.147  -0.053  0.00  0.00     0.089 A 
ATOM      5  N   UNL d   1       0.667  -1.120  -0.104  0.00  0.00    -0.353 N 
ATOM      6  HN  UNL d   1       1.197  -1.989  -0.169  1.00  0.00     0.166 HD
ATOM      7  C   UNL d   1       1.312   0.073  -0.067  0.00  0.00     0.021 A 
ATOM      8  C   UNL d   1      -2.868  -0.083   0.152  0.00  0.00     0.103 C 
ATOM      9  N   UNL d   1      -4.006  -0.224   0.277  0.00  0.00    -0.191 NA
ATOM     10  C   UNL d   1       2.812  -0.035  -0.060  0.00  0.00     0.069 C 
ENDROOT
BRANCH   1  11
ATOM     11  C   UNL d   1      -1.575   2.531  -0.015  0.00  0.00     0.017 A 
ATOM     12  S   UNL d   1      -2.709   2.833  -1.278  0.00  0.00    -0.101 SA
ATOM     13  C   UNL d   1      -3.172   4.330  -0.605  0.00  0.00     0.050 A 
ATOM     14  C   UNL d   1      -2.423   4.646   0.505  0.00  0.00     0.008 A 
ATOM     15  C   UNL d   1      -1.514   3.604   0.856  0.00  0.00     0.020 A 
ENDBRANCH   1  11
BRANCH   4  16
ATOM     16  S   UNL d   1      -1.334  -2.811  -0.070  0.00  0.00    -0.124 SA
ATOM     17  H   UNL d   1      -2.643  -2.532   0.007  0.00  0.00     0.108 HD
ENDBRANCH   4  16
BRANCH   3  18
ATOM     18  C   UNL d   1       1.426   2.543   0.077  0.00  0.00     0.158 C 
ATOM     19  O   UNL d   1       2.246   2.628   0.989  0.00  0.00    -0.293 OA
ATOM     20  C   UNL d   1       1.265   3.653  -0.927  0.00  0.00     0.097 C 
ENDBRANCH   3  18
TORSDOF 3
