REMARK  3 active torsions:
REMARK  status: ('A' for Active; 'I' for Inactive)
REMARK    1  A    between atoms: N_3  and  C_1 
REMARK    2  A    between atoms: C_5  and  C_10 
REMARK    3  A    between atoms: O_19  and  C_9 
ROOT
ATOM      1  C   UNL d   1       1.413  -1.379  -0.042  0.00  0.00     0.064 A 
ATOM      2  C   UNL d   1       2.576  -0.571  -0.104  0.00  0.00     0.078 A 
ATOM      3  C   UNL d   1       2.483   0.839  -0.047  0.00  0.00    -0.038 A 
ATOM      4  C   UNL d   1       0.134  -0.736   0.002  0.00  0.00     0.002 A 
ATOM      5  C   UNL d   1       3.869  -1.166  -0.274  0.00  0.00     0.102 C 
ATOM      6  N   UNL d   1       4.935  -1.619  -0.390  0.00  0.00    -0.191 NA
ATOM      7  C   UNL d   1       0.051   0.678   0.018  0.00  0.00    -0.023 A 
ATOM      8  C   UNL d   1       1.219   1.440   0.018  0.00  0.00     0.020 A 
ATOM      9  C   UNL d   1       3.674   1.764  -0.090  0.00  0.00     0.050 C 
ATOM     10  C   UNL d   1      -1.089  -1.448  -0.002  0.00  0.00     0.014 A 
ATOM     11  C   UNL d   1      -1.199   1.321   0.009  0.00  0.00     0.012 A 
ATOM     12  C   UNL d   1      -2.327  -0.799  -0.019  0.00  0.00     0.001 A 
ATOM     13  C   UNL d   1      -2.382   0.588  -0.021  0.00  0.00     0.001 A 
ENDROOT
BRANCH   1  14
ATOM     14  N   UNL d   1       1.404  -2.800  -0.146  0.00  0.00    -0.363 N 
ATOM     15  C   UNL d   1       2.241  -3.561   0.486  0.00  0.00     0.102 C 
ATOM     16  HN  UNL d   1       0.707  -3.239  -0.748  1.00  0.00     0.165 HD
BRANCH  15  17
ATOM     17  C   UNL d   1       2.134  -5.040   0.404  0.00  0.00     0.015 A 
ATOM     18  C   UNL d   1       3.157  -5.864   0.887  0.00  0.00     0.094 A 
ATOM     19  C   UNL d   1       3.004  -7.256   0.849  0.00  0.00     0.046 A 
ATOM     20 BR   UNL d   1       4.371  -8.402   1.494  0.00  0.00    -0.048 Br
ATOM     21  C   UNL d   1       1.834  -7.829   0.349  0.00  0.00     0.041 A 
ATOM     22  C   UNL d   1       0.821  -7.000  -0.129  0.00  0.00     0.013 A 
ATOM     23  C   UNL d   1       0.967  -5.614  -0.116  0.00  0.00     0.034 A 
ATOM     24 BR   UNL d   1      -0.784  -7.764  -0.774  0.00  0.00    -0.051 Br
BRANCH  18  25
ATOM     25  O   UNL d   1       4.296  -5.298   1.396  0.00  0.00    -0.358 OA
ATOM     26  H   UNL d   1       4.920  -6.015   1.620  0.00  0.00     0.217 HD
ENDBRANCH  18  25
ENDBRANCH  15  17
ENDBRANCH   1  14
TORSDOF 3
