REMARK  3 active torsions:
REMARK  status: ('A' for Active; 'I' for Inactive)
REMARK    1  A    between atoms: S_6  and  C_1 
REMARK    2  A    between atoms: N_4  and  C_7 
REMARK    3  A    between atoms: C_11  and  S_6 
ROOT
ATOM      1  C   UNL d   1      -2.337  -0.111  -0.084  0.00  0.00     0.150 A 
ATOM      2  N   UNL d   1      -1.588  -1.187  -0.084  0.00  0.00    -0.335 N 
ATOM      3  HN  UNL d   1      -1.894  -2.158  -0.023  1.00  0.00     0.168 HD
ATOM      4  N   UNL d   1      -1.597   1.034  -0.159  0.00  0.00    -0.335 N 
ATOM      5  C   UNL d   1      -0.300  -0.717  -0.185  0.00  0.00     0.061 A 
ATOM      6  C   UNL d   1      -0.276   0.675  -0.230  0.00  0.00     0.061 A 
ATOM      7  C   UNL d   1       0.909  -1.424  -0.246  0.00  0.00     0.032 A 
ATOM      8  C   UNL d   1       0.902   1.419  -0.331  0.00  0.00     0.032 A 
ATOM      9  C   UNL d   1       2.105  -0.703  -0.353  0.00  0.00     0.002 A 
ATOM     10  C   UNL d   1       2.098   0.694  -0.395  0.00  0.00     0.002 A 
ATOM     11  H   UNL d   1      -1.970   1.971  -0.169  0.00  0.00     0.168 HD
ENDROOT
BRANCH   1  12
ATOM     12  S   UNL d   1      -4.060  -0.004   0.003  0.00  0.00    -0.052 SA
BRANCH  12  13
ATOM     13  C   UNL d   1      -4.443  -1.753   0.056  0.00  0.00     0.030 A 
ATOM     14  C   UNL d   1      -4.719  -2.522  -1.089  0.00  0.00     0.053 A 
ATOM     15  C   UNL d   1      -5.030  -3.883  -0.976  0.00  0.00     0.061 A 
ATOM     16 CL   UNL d   1      -4.707  -1.846  -2.682  0.00  0.00    -0.083 Cl
ATOM     17  C   UNL d   1      -5.066  -4.480   0.290  0.00  0.00     0.104 A 
ATOM     18  C   UNL d   1      -4.798  -3.728   1.439  0.00  0.00     0.037 A 
ATOM     19  C   UNL d   1      -4.491  -2.371   1.317  0.00  0.00     0.023 A 
BRANCH  17  20
ATOM     20  N   UNL d   1      -5.398  -5.905   0.414  0.00  0.00    -0.116 N 
ATOM     21  O   UNL d   1      -5.648  -6.530  -0.625  0.00  0.00    -0.532 OA
ATOM     22  O   UNL d   1      -5.415  -6.395   1.552  0.00  0.00    -0.532 OA
ENDBRANCH  17  20
ENDBRANCH  12  13
ENDBRANCH   1  12
TORSDOF 3
