REMARK  3 active torsions:
REMARK  status: ('A' for Active; 'I' for Inactive)
REMARK    1  A    between atoms: N_2  and  C_1 
REMARK    2  A    between atoms: N_3  and  C_1 
REMARK    3  A    between atoms: C_4  and  N_2 
ROOT
ATOM      1  N   UNL d   1       0.390   1.125   0.073  0.00  0.00    -0.333 N 
ATOM      2  H   UNL d   1      -0.611   1.162   0.193  0.00  0.00     0.168 HD
ENDROOT
BRANCH   1   3
ATOM      3  C   UNL d   1       0.958  -0.083   0.453  0.00  0.00     0.174 C 
ATOM      4  S   UNL d   1       2.248  -0.173   1.537  0.00  0.00    -0.041 SA
BRANCH   3   5
ATOM      5  N   UNL d   1       0.316  -1.206  -0.093  0.00  0.00    -0.354 N 
ATOM      6  C   UNL d   1       0.720  -2.598   0.206  0.00  0.00     0.151 C 
ATOM      7  C   UNL d   1       0.891  -3.409  -1.083  0.00  0.00     0.187 C 
ATOM      8  O   UNL d   1      -0.310  -3.383  -1.867  0.00  0.00    -0.388 OA
ATOM      9  C   UNL d   1      -0.630  -2.037  -2.241  0.00  0.00     0.187 C 
ATOM     10  C   UNL d   1      -0.840  -1.146  -1.008  0.00  0.00     0.151 C 
ENDBRANCH   3   5
ENDBRANCH   1   3
BRANCH   1  11
ATOM     11  C   UNL d   1       1.045   2.360  -0.169  0.00  0.00     0.040 A 
ATOM     12  C   UNL d   1       0.361   3.583  -0.034  0.00  0.00    -0.035 A 
ATOM     13  C   UNL d   1      -1.058   3.723   0.445  0.00  0.00     0.050 C 
ATOM     14  C   UNL d   1       1.038   4.781  -0.351  0.00  0.00     0.009 A 
ATOM     15  C   UNL d   1       2.362   4.772  -0.785  0.00  0.00     0.001 A 
ATOM     16  C   UNL d   1       3.029   3.564  -0.929  0.00  0.00     0.002 A 
ATOM     17  C   UNL d   1       2.369   2.370  -0.638  0.00  0.00     0.030 A 
ENDBRANCH   1  11
TORSDOF 3
