REMARK  3 active torsions:
REMARK  status: ('A' for Active; 'I' for Inactive)
REMARK       I    between atoms: N_2  and  C_1 
REMARK       I    between atoms: N_3  and  C_1 
REMARK    1  A    between atoms: C_5  and  N_2 
REMARK    2  A    between atoms: C_6  and  N_3 
REMARK    3  A    between atoms: C_13  and  C_6 
ROOT
ATOM      1  C   UNL d   1       0.797  -0.072  -0.066  0.00  0.00     0.320 C 
ATOM      2  N   UNL d   1       2.163  -0.118   0.115  0.00  0.00    -0.309 N 
ATOM      3  N   UNL d   1       0.154   0.370   1.067  0.00  0.00    -0.339 N 
ATOM      4  O   UNL d   1       0.188  -0.409  -1.073  0.00  0.00    -0.247 OA
ATOM      5  H   UNL d   1       2.479  -0.019   1.067  0.00  0.00     0.170 HD
ATOM      6  H   UNL d   1       0.667   0.945   1.717  0.00  0.00     0.164 HD
ENDROOT
BRANCH   2   7
ATOM      7  C   UNL d   1       3.128  -0.513  -0.837  0.00  0.00     0.036 A 
ATOM      8  C   UNL d   1       2.845  -0.695  -2.195  0.00  0.00     0.032 A 
ATOM      9  C   UNL d   1       3.843  -1.109  -3.082  0.00  0.00     0.044 A 
ATOM     10  C   UNL d   1       5.128  -1.334  -2.611  0.00  0.00     0.116 A 
ATOM     11  C   UNL d   1       5.437  -1.144  -1.271  0.00  0.00     0.044 A 
ATOM     12  F   UNL d   1       6.082  -1.740  -3.459  0.00  0.00    -0.206 F 
ATOM     13  C   UNL d   1       4.439  -0.727  -0.384  0.00  0.00     0.032 A 
ENDBRANCH   2   7
BRANCH   3  14
ATOM     14  C   UNL d   1      -1.292   0.446   1.123  0.00  0.00     0.162 C 
BRANCH  14  15
ATOM     15  C   UNL d   1      -1.784   1.869   1.204  0.00  0.00    -0.040 A 
ATOM     16  C   UNL d   1      -1.503   2.785   0.179  0.00  0.00     0.009 A 
ATOM     17  C   UNL d   1      -1.998   4.089   0.238  0.00  0.00     0.001 A 
ATOM     18  C   UNL d   1      -2.784   4.490   1.316  0.00  0.00     0.000 A 
ATOM     19  C   UNL d   1      -3.076   3.588   2.337  0.00  0.00     0.001 A 
ATOM     20  C   UNL d   1      -2.579   2.284   2.283  0.00  0.00     0.009 A 
ENDBRANCH  14  15
ENDBRANCH   3  14
TORSDOF 3
