REMARK  4 active torsions:
REMARK  status: ('A' for Active; 'I' for Inactive)
REMARK    1  A    between atoms: S_7  and  C_1 
REMARK    2  A    between atoms: C_15  and  N_5 
REMARK    3  A    between atoms: C_8  and  S_7 
REMARK    4  A    between atoms: C_16  and  C_15 
ROOT
ATOM      1  N   UNL d   1       2.222   0.803   3.542  0.00  0.00    -0.197 NA
ATOM      2  C   UNL d   1       2.065   1.362   2.540  0.00  0.00     0.060 C 
ATOM      3  C   UNL d   1       1.903   2.111   1.285  0.00  0.00     0.145 C 
ENDROOT
BRANCH   3   4
ATOM      4  C   UNL d   1       2.004   1.217   0.054  0.00  0.00     0.163 C 
BRANCH   4   5
ATOM      5  N   UNL d   1       0.927   0.248  -0.032  0.00  0.00    -0.294 N 
ATOM      6  C   UNL d   1       1.016  -1.117  -0.127  0.00  0.00     0.043 C 
ATOM      7  C   UNL d   1      -0.278  -1.567   0.054  0.00  0.00     0.056 C 
ATOM      8  C   UNL d   1       2.289  -1.850  -0.341  0.00  0.00     0.071 C 
ATOM      9  C   UNL d   1      -1.087  -0.403   0.047  0.00  0.00     0.041 C 
ATOM     10  N   UNL d   1      -0.338   0.707  -0.025  0.00  0.00    -0.301 N 
ATOM     11  C   UNL d   1      -2.566  -0.284   0.069  0.00  0.00     0.071 C 
ATOM     12  HN  UNL d   1      -0.654   1.676  -0.065  1.00  0.00     0.187 HD
BRANCH   7  13
ATOM     13  S   UNL d   1      -0.796  -3.230   0.172  0.00  0.00    -0.050 SA
BRANCH  13  14
ATOM     14  C   UNL d   1      -1.661  -3.279   1.730  0.00  0.00     0.149 A 
ATOM     15  N   UNL d   1      -2.626  -4.210   1.851  0.00  0.00    -0.346 N 
ATOM     16  C   UNL d   1      -3.340  -4.189   2.993  0.00  0.00     0.091 A 
ATOM     17  HN  UNL d   1      -2.806  -4.896   1.118  1.00  0.00     0.167 HD
ATOM     18  C   UNL d   1      -3.132  -3.282   4.003  0.00  0.00     0.034 A 
ATOM     19  C   UNL d   1      -2.106  -2.393   3.796  0.00  0.00     0.091 A 
ATOM     20  N   UNL d   1      -1.358  -2.374   2.678  0.00  0.00    -0.346 N 
ATOM     21  HN  UNL d   1      -0.598  -1.705   2.555  1.00  0.00     0.167 HD
ENDBRANCH  13  14
ENDBRANCH   7  13
ENDBRANCH   4   5
ENDBRANCH   3   4
TORSDOF 4
