REMARK  2 active torsions:
REMARK  status: ('A' for Active; 'I' for Inactive)
REMARK    1  A    between atoms: C_4  and  C_1 
REMARK    2  A    between atoms: O_11  and  C_2 
ROOT
ATOM      1  C   UNL d   1      -0.303  -1.696  -0.004  0.00  0.00     0.006 A 
ATOM      2  C   UNL d   1       0.752  -0.851   0.066  0.00  0.00     0.126 A 
ATOM      3  C   UNL d   1       0.768   0.644   0.114  0.00  0.00     0.205 A 
ATOM      4  C   UNL d   1      -1.709  -1.302  -0.004  0.00  0.00     0.015 A 
ATOM      5  C   UNL d   1      -0.408   1.511  -0.036  0.00  0.00     0.058 A 
ATOM      6  O   UNL d   1       1.874   1.182   0.256  0.00  0.00    -0.285 OA
ATOM      7  C   UNL d   1      -2.298  -0.104  -0.038  0.00  0.00     0.001 A 
ATOM      8  C   UNL d   1      -1.700   1.190  -0.109  0.00  0.00     0.004 A 
ENDROOT
BRANCH   1   9
ATOM      9  C   UNL d   1      -0.009  -3.150  -0.024  0.00  0.00    -0.058 C 
ATOM     10  C   UNL d   1      -0.390  -3.952   0.986  0.00  0.00     0.019 C 
ATOM     11  C   UNL d   1       0.716  -3.705  -1.221  0.00  0.00     0.048 C 
ENDBRANCH   1   9
BRANCH   2  12
ATOM     12  O   UNL d   1       2.052  -1.389   0.125  0.00  0.00    -0.356 OA
ATOM     13  H   UNL d   1       2.638  -0.607   0.230  0.00  0.00     0.218 HD
ENDBRANCH   2  12
TORSDOF 2
