REMARK  6 active torsions:
REMARK  status: ('A' for Active; 'I' for Inactive)
REMARK    1  A    between atoms: C_3  and  C_1 
REMARK    2  A    between atoms: N_7  and  C_2 
REMARK    3  A    between atoms: C_6  and  C_11 
REMARK       I    between atoms: C_8  and  N_7 
REMARK       I    between atoms: N_12  and  C_8 
REMARK    4  A    between atoms: O_13  and  C_10 
REMARK    5  A    between atoms: C_11  and  N_12 
REMARK    6  A    between atoms: C_19  and  O_13 
ROOT
ATOM      1  N   UNL d   1       1.499  -3.655  -2.432  0.00  0.00    -0.306 N 
ATOM      2  C   UNL d   1       1.741  -3.454  -1.101  0.00  0.00     0.321 C 
ATOM      3  N   UNL d   1       2.644  -2.470  -0.822  0.00  0.00    -0.338 N 
ATOM      4  O   UNL d   1       1.225  -4.076  -0.173  0.00  0.00    -0.247 OA
ATOM      5  H   UNL d   1       2.236  -3.371  -3.064  0.00  0.00     0.170 HD
ATOM      6  H   UNL d   1       2.753  -2.370   0.184  0.00  0.00     0.164 HD
ENDROOT
BRANCH   3   7
ATOM      7  C   UNL d   1       2.823  -1.262  -1.607  0.00  0.00     0.167 C 
BRANCH   7   8
ATOM      8  C   UNL d   1       3.778  -0.309  -0.942  0.00  0.00     0.015 A 
ATOM      9  C   UNL d   1       5.171  -0.392  -1.156  0.00  0.00     0.085 A 
ATOM     10  C   UNL d   1       6.048   0.467  -0.478  0.00  0.00     0.038 A 
ATOM     11  C   UNL d   1       5.555   1.437   0.394  0.00  0.00     0.004 A 
ATOM     12  C   UNL d   1       4.182   1.567   0.576  0.00  0.00     0.024 A 
ATOM     13  C   UNL d   1       3.303   0.694  -0.071  0.00  0.00     0.044 A 
ATOM     14 CL   UNL d   1       1.613   0.949   0.208  0.00  0.00    -0.084 Cl
BRANCH   9  15
ATOM     15  O   UNL d   1       5.686  -1.048  -2.259  0.00  0.00    -0.310 OA
BRANCH  15  16
ATOM     16  C   UNL d   1       5.997  -2.385  -2.170  0.00  0.00     0.076 A 
ATOM     17  C   UNL d   1       5.313  -3.244  -3.035  0.00  0.00     0.037 A 
ATOM     18  C   UNL d   1       5.682  -4.581  -3.151  0.00  0.00     0.003 A 
ATOM     19  C   UNL d   1       6.782  -5.053  -2.442  0.00  0.00     0.000 A 
ATOM     20  C   UNL d   1       7.496  -4.190  -1.606  0.00  0.00     0.003 A 
ATOM     21  C   UNL d   1       7.101  -2.854  -1.461  0.00  0.00     0.037 A 
ENDBRANCH  15  16
ENDBRANCH   9  15
ENDBRANCH   7   8
ENDBRANCH   3   7
BRANCH   1  22
ATOM     22  C   UNL d   1       0.484  -4.439  -2.948  0.00  0.00     0.077 A 
ATOM     23  C   UNL d   1       0.389  -4.830  -4.274  0.00  0.00     0.186 A 
ATOM     24  O   UNL d   1      -0.753  -5.554  -4.469  0.00  0.00    -0.308 OA
ATOM     25  C   UNL d   1      -1.393  -5.628  -3.270  0.00  0.00     0.052 A 
ATOM     26  C   UNL d   1      -2.680  -6.349  -3.256  0.00  0.00     0.077 C 
ATOM     27  C   UNL d   1      -0.663  -4.968  -2.303  0.00  0.00     0.064 A 
BRANCH  23  28
ATOM     28  C   UNL d   1       1.270  -4.639  -5.446  0.00  0.00     0.441 C 
ATOM     29  F   UNL d   1       2.310  -3.804  -5.151  0.00  0.00    -0.164 F 
ATOM     30  F   UNL d   1       1.826  -5.800  -5.876  0.00  0.00    -0.164 F 
ATOM     31  F   UNL d   1       0.625  -4.086  -6.504  0.00  0.00    -0.164 F 
ENDBRANCH  23  28
ENDBRANCH   1  22
TORSDOF 6
