REMARK  3 active torsions:
REMARK  status: ('A' for Active; 'I' for Inactive)
REMARK    1  A    between atoms: N_2  and  C_1 
REMARK    2  A    between atoms: N_6  and  N_2 
REMARK       I    between atoms: C_3  and  N_6 
REMARK       I    between atoms: N_9  and  C_3 
REMARK    3  A    between atoms: C_15  and  N_9 
ROOT
ATOM      1  N   UNL d   1      -2.296  -2.222   0.073  0.00  0.00    -0.215 NA
ATOM      2  H   UNL d   1      -3.083  -2.791  -0.276  0.00  0.00     0.147 HD
ENDROOT
BRANCH   1   3
ATOM      3  C   UNL d   1      -2.337  -0.893  -0.451  0.00  0.00     0.069 A 
ATOM      4  C   UNL d   1      -3.560  -0.404  -0.958  0.00  0.00     0.073 A 
ATOM      5 CL   UNL d   1      -4.954  -1.417  -1.087  0.00  0.00    -0.081 Cl
ATOM      6  C   UNL d   1      -3.661   0.921  -1.371  0.00  0.00     0.113 A 
ATOM      7  N   UNL d   1      -2.645   1.808  -1.312  0.00  0.00    -0.372 N 
ATOM      8  C   UNL d   1      -1.483   1.343  -0.798  0.00  0.00     0.113 A 
ATOM      9  HN  UNL d   1      -2.747   2.770  -1.635  1.00  0.00     0.164 HD
ATOM     10  C   UNL d   1      -1.282   0.037  -0.350  0.00  0.00     0.073 A 
ATOM     11 CL   UNL d   1       0.259  -0.316   0.355  0.00  0.00    -0.081 Cl
ENDBRANCH   1   3
BRANCH   1  12
ATOM     12  N   UNL d   1      -1.078  -2.909  -0.128  0.00  0.00    -0.172 NA
ATOM     13  C   UNL d   1      -1.164  -4.295  -0.201  0.00  0.00     0.308 C 
ATOM     14  N   UNL d   1       0.085  -4.867  -0.166  0.00  0.00    -0.343 N 
ATOM     15  O   UNL d   1      -2.225  -4.904  -0.289  0.00  0.00    -0.253 OA
ATOM     16  H   UNL d   1       0.843  -4.259  -0.443  0.00  0.00     0.164 HD
ATOM     17  H   UNL d   1      -0.334  -2.567   0.475  0.00  0.00     0.152 HD
BRANCH  14  18
ATOM     18  C   UNL d   1       0.346  -6.300  -0.215  0.00  0.00     0.077 C 
ATOM     19  C   UNL d   1      -0.192  -7.031   1.012  0.00  0.00     0.032 C 
ATOM     20  C   UNL d   1      -0.142  -6.949  -1.508  0.00  0.00     0.032 C 
ENDBRANCH  14  18
ENDBRANCH   1  12
TORSDOF 3
