REMARK  15 active torsions:
REMARK  status: ('A' for Active; 'I' for Inactive)
REMARK    1  A    between atoms: C_14  and  C_6 
REMARK    2  A    between atoms: N_7  and  C_9 
REMARK    3  A    between atoms: N_8  and  C_13 
REMARK    4  A    between atoms: O_24  and  C_14 
REMARK    5  A    between atoms: O_25  and  N_16 
REMARK    6  A    between atoms: C_26  and  O_24 
REMARK    7  A    between atoms: C_27  and  C_26 
REMARK    8  A    between atoms: C_33  and  C_27 
REMARK    9  A    between atoms: C_28  and  C_29 
REMARK   10  A    between atoms: C_29  and  C_32 
REMARK   11  A    between atoms: C_30  and  C_35 
REMARK   12  A    between atoms: C_31  and  C_30 
REMARK   13  A    between atoms: C_32  and  C_31 
REMARK   14  A    between atoms: C_34  and  C_33 
REMARK   15  A    between atoms: C_35  and  C_34 
ROOT
ATOM      1  C   UNL d   1       4.075  -1.787  -2.462  0.00  0.00     0.004 A 
ATOM      2  C   UNL d   1       4.451  -0.431  -2.535  0.00  0.00     0.008 A 
ATOM      3  C   UNL d   1       5.598  -1.606  -4.250  0.00  0.00     0.007 A 
ATOM      4  C   UNL d   1       4.802  -2.510  -3.509  0.00  0.00    -0.011 A 
ATOM      5  C   UNL d   1       5.404  -0.264  -3.653  0.00  0.00     0.076 A 
ATOM      6  C   UNL d   1       3.143  -2.150  -1.483  0.00  0.00     0.053 A 
ATOM      7  C   UNL d   1       3.066   0.179  -0.708  0.00  0.00     0.104 A 
ATOM      8  C   UNL d   1       3.973   0.565  -1.695  0.00  0.00     0.050 A 
ATOM      9  C   UNL d   1       2.654  -1.164  -0.595  0.00  0.00     0.054 A 
ATOM     10  C   UNL d   1       6.393  -2.002  -5.320  0.00  0.00     0.050 A 
ATOM     11  C   UNL d   1       6.390  -3.357  -5.665  0.00  0.00     0.103 A 
ATOM     12  C   UNL d   1       4.840  -3.858  -3.851  0.00  0.00     0.016 A 
ATOM     13  N   UNL d   1       5.901   0.895  -3.945  0.00  0.00    -0.268 N 
ATOM     14  HN  UNL d   1       5.672   1.751  -3.439  1.00  0.00     0.194 HD
ATOM     15  C   UNL d   1       5.620  -4.281  -4.937  0.00  0.00     0.037 A 
ENDROOT
BRANCH   6  16
ATOM     16  C   UNL d   1       2.543  -3.499  -1.415  0.00  0.00     0.294 C 
ATOM     17  O   UNL d   1       2.291  -4.167  -2.405  0.00  0.00    -0.259 OA
BRANCH  16  18
ATOM     18  O   UNL d   1       2.301  -3.863  -0.133  0.00  0.00    -0.317 OA
BRANCH  18  19
ATOM     19  C   UNL d   1       1.775  -5.197   0.012  0.00  0.00     0.179 C 
BRANCH  19  20
ATOM     20  C   UNL d   1       2.919  -6.206   0.030  0.00  0.00     0.027 C 
BRANCH  20  21
ATOM     21  C   UNL d   1       3.825  -5.994   1.242  0.00  0.00     0.002 C 
BRANCH  21  22
ATOM     22  C   UNL d   1       4.975  -6.992   1.231  0.00  0.00     0.000 C 
BRANCH  22  23
ATOM     23  C   UNL d   1       5.879  -6.799   2.443  0.00  0.00     0.000 C 
BRANCH  23  24
ATOM     24  C   UNL d   1       7.020  -7.809   2.413  0.00  0.00     0.000 C 
BRANCH  24  25
ATOM     25  C   UNL d   1       7.936  -7.636   3.618  0.00  0.00     0.000 C 
BRANCH  25  26
ATOM     26  C   UNL d   1       9.073  -8.652   3.579  0.00  0.00     0.000 C 
BRANCH  26  27
ATOM     27  C   UNL d   1       9.991  -8.484   4.786  0.00  0.00    -0.000 C 
BRANCH  27  28
ATOM     28  C   UNL d   1      11.132  -9.497   4.754  0.00  0.00    -0.005 C 
ATOM     29  C   UNL d   1      12.045  -9.329   5.956  0.00  0.00     0.005 C 
ENDBRANCH  27  28
ENDBRANCH  26  27
ENDBRANCH  25  26
ENDBRANCH  24  25
ENDBRANCH  23  24
ENDBRANCH  22  23
ENDBRANCH  21  22
ENDBRANCH  20  21
ENDBRANCH  19  20
ENDBRANCH  18  19
ENDBRANCH  16  18
ENDBRANCH   6  16
BRANCH   7  30
ATOM     30  N   UNL d   1       2.508   1.187   0.203  0.00  0.00    -0.116 N 
ATOM     31  O   UNL d   1       2.878   2.360   0.062  0.00  0.00    -0.532 OA
ATOM     32  O   UNL d   1       1.697   0.801   1.056  0.00  0.00    -0.532 OA
ENDBRANCH   7  30
BRANCH  13  33
ATOM     33  O   UNL d   1       6.782   0.851  -5.022  0.00  0.00    -0.289 OA
ATOM     34  H   UNL d   1       7.063   1.782  -5.108  0.00  0.00     0.244 HD
ENDBRANCH  13  33
BRANCH  11  35
ATOM     35  N   UNL d   1       7.205  -3.827  -6.794  0.00  0.00    -0.116 N 
ATOM     36  O   UNL d   1       7.886  -2.990  -7.403  0.00  0.00    -0.532 OA
ATOM     37  O   UNL d   1       7.174  -5.037  -7.061  0.00  0.00    -0.532 OA
ENDBRANCH  11  35
TORSDOF 15
