REMARK  9 active torsions:
REMARK  status: ('A' for Active; 'I' for Inactive)
REMARK    1  A    between atoms: C_14  and  C_5 
REMARK    2  A    between atoms: N_7  and  C_9 
REMARK    3  A    between atoms: N_8  and  C_13 
REMARK    4  A    between atoms: O_23  and  C_14 
REMARK    5  A    between atoms: C_24  and  O_23 
REMARK    6  A    between atoms: C_25  and  C_24 
REMARK    7  A    between atoms: C_28  and  C_25 
REMARK    8  A    between atoms: C_26  and  C_27 
REMARK    9  A    between atoms: C_27  and  C_28 
ROOT
ATOM      1  C   UNL d   1      -0.690   0.816  -0.000  0.00  0.00     0.006 A 
ATOM      2  C   UNL d   1      -1.159  -0.520  -0.034  0.00  0.00     0.029 A 
ATOM      3  C   UNL d   1       1.206  -0.563  -0.014  0.00  0.00     0.028 A 
ATOM      4  C   UNL d   1       0.771   0.778   0.009  0.00  0.00    -0.010 A 
ATOM      5  C   UNL d   1      -1.639   1.838  -0.001  0.00  0.00     0.053 A 
ATOM      6  C   UNL d   1       0.013  -1.423  -0.025  0.00  0.00     0.194 A 
ATOM      7  C   UNL d   1      -3.424   0.140  -0.099  0.00  0.00     0.104 A 
ATOM      8  C   UNL d   1      -2.492  -0.894  -0.075  0.00  0.00     0.052 A 
ATOM      9  C   UNL d   1      -3.010   1.486  -0.062  0.00  0.00     0.054 A 
ATOM     10  C   UNL d   1       2.534  -0.956  -0.067  0.00  0.00     0.052 A 
ATOM     11  C   UNL d   1       3.484   0.068  -0.091  0.00  0.00     0.103 A 
ATOM     12  C   UNL d   1       1.732   1.776  -0.008  0.00  0.00     0.016 A 
ATOM     13  O   UNL d   1      -0.016  -2.633  -0.031  0.00  0.00    -0.287 OA
ATOM     14  C   UNL d   1       3.090   1.423  -0.050  0.00  0.00     0.037 A 
ENDROOT
BRANCH   5  15
ATOM     15  C   UNL d   1      -1.307   3.270   0.231  0.00  0.00     0.294 C 
ATOM     16  O   UNL d   1      -0.413   3.650   0.964  0.00  0.00    -0.259 OA
BRANCH  15  17
ATOM     17  O   UNL d   1      -2.266   4.055  -0.320  0.00  0.00    -0.317 OA
BRANCH  17  18
ATOM     18  C   UNL d   1      -2.676   5.142   0.520  0.00  0.00     0.179 C 
BRANCH  18  19
ATOM     19  C   UNL d   1      -2.205   6.496   0.012  0.00  0.00     0.027 C 
BRANCH  19  20
ATOM     20  C   UNL d   1      -2.730   7.592   0.946  0.00  0.00     0.002 C 
BRANCH  20  21
ATOM     21  C   UNL d   1      -2.312   8.989   0.497  0.00  0.00    -0.000 C 
BRANCH  21  22
ATOM     22  C   UNL d   1      -2.852  10.057   1.450  0.00  0.00    -0.005 C 
ATOM     23  C   UNL d   1      -2.437  11.451   1.007  0.00  0.00     0.005 C 
ENDBRANCH  21  22
ENDBRANCH  20  21
ENDBRANCH  19  20
ENDBRANCH  18  19
ENDBRANCH  17  18
ENDBRANCH  15  17
ENDBRANCH   5  15
BRANCH   7  24
ATOM     24  N   UNL d   1      -4.862  -0.165  -0.139  0.00  0.00    -0.116 N 
ATOM     25  O   UNL d   1      -5.193  -1.359  -0.158  0.00  0.00    -0.532 OA
ATOM     26  O   UNL d   1      -5.651   0.788  -0.148  0.00  0.00    -0.532 OA
ENDBRANCH   7  24
BRANCH  11  27
ATOM     27  N   UNL d   1       4.912  -0.261  -0.195  0.00  0.00    -0.116 N 
ATOM     28  O   UNL d   1       5.223  -1.454  -0.267  0.00  0.00    -0.532 OA
ATOM     29  O   UNL d   1       5.718   0.683  -0.218  0.00  0.00    -0.532 OA
ENDBRANCH  11  27
TORSDOF 9
