REMARK  5 active torsions:
REMARK  status: ('A' for Active; 'I' for Inactive)
REMARK    1  A    between atoms: C_3  and  S_1 
REMARK    2  A    between atoms: C_8  and  S_1 
REMARK    3  A    between atoms: C_2  and  C_7 
REMARK    4  A    between atoms: C_9  and  C_3 
REMARK    5  A    between atoms: N_4  and  C_9 
ROOT
ATOM      1  C   UNL d   1       0.947  -0.088  -2.691  0.00  0.00     0.287 C 
ENDROOT
BRANCH   1   2
ATOM      2  N   UNL d   1       0.483  -0.758  -3.933  0.00  0.00     0.089 N 
ATOM      3  C   UNL d   1      -0.984  -0.725  -4.046  0.00  0.00     0.273 C 
ATOM      4  C   UNL d   1      -1.475  -1.361  -5.347  0.00  0.00     0.043 C 
ATOM      5  C   UNL d   1      -0.847  -0.708  -6.582  0.00  0.00     0.097 C 
ATOM      6  C   UNL d   1       0.677  -0.734  -6.422  0.00  0.00     0.043 C 
ATOM      7  C   UNL d   1       1.132  -0.121  -5.095  0.00  0.00     0.273 C 
BRANCH   5   8
ATOM      8  C   UNL d   1      -1.397   0.695  -6.851  0.00  0.00     0.391 C 
ATOM      9  F   UNL d   1      -2.319   1.077  -5.941  0.00  0.00    -0.171 F 
ATOM     10  F   UNL d   1      -0.434   1.640  -6.873  0.00  0.00    -0.171 F 
ATOM     11  F   UNL d   1      -2.007   0.727  -8.060  0.00  0.00    -0.171 F 
ENDBRANCH   5   8
ENDBRANCH   1   2
BRANCH   1  12
ATOM     12  C   UNL d   1       0.463  -0.761  -1.408  0.00  0.00     0.176 C 
BRANCH  12  13
ATOM     13  S   UNL d   1       1.059   0.122   0.018  0.00  0.00     0.177 S 
ATOM     14  O   UNL d   1       0.552   1.481  -0.040  0.00  0.00    -0.223 OA
ATOM     15  O   UNL d   1       2.478  -0.136   0.163  0.00  0.00    -0.223 OA
BRANCH  13  16
ATOM     16  C   UNL d   1       0.227  -0.687   1.369  0.00  0.00     0.059 A 
ATOM     17  C   UNL d   1       0.826  -1.788   1.988  0.00  0.00     0.023 A 
ATOM     18  C   UNL d   1       0.190  -2.393   3.072  0.00  0.00     0.002 A 
ATOM     19  C   UNL d   1      -1.030  -1.895   3.536  0.00  0.00     0.000 A 
ATOM     20  C   UNL d   1      -1.619  -0.791   2.919  0.00  0.00     0.002 A 
ATOM     21  C   UNL d   1      -0.990  -0.179   1.834  0.00  0.00     0.023 A 
ENDBRANCH  13  16
ENDBRANCH  12  13
ENDBRANCH   1  12
TORSDOF 5
