REMARK  4 active torsions:
REMARK  status: ('A' for Active; 'I' for Inactive)
REMARK    1  A    between atoms: C_3  and  C_1 
REMARK    2  A    between atoms: C_7  and  C_1 
REMARK    3  A    between atoms: C_8  and  C_2 
REMARK    4  A    between atoms: N_4  and  C_3 
ROOT
ATOM      1  C   UNL d   1       0.949   0.054   0.067  0.00  0.00     0.037 C 
ATOM      2  C   UNL d   1       0.297   1.237   0.088  0.00  0.00     0.033 C 
ENDROOT
BRANCH   1   3
ATOM      3  C   UNL d   1       2.469   0.054   0.067  0.00  0.00    -0.036 C 
BRANCH   3   4
ATOM      4  N   UNL d   1       3.729   0.054   0.067  0.00  0.00    -0.365 N 
ATOM      5  HN2 UNL d   1       2.709   0.054   0.067  1.00  0.00     0.165 HD
ATOM      6  HN1 UNL d   1       4.749   0.054   0.067  1.00  0.00     0.165 HD
ENDBRANCH   3   4
ENDBRANCH   1   3
BRANCH   1   7
ATOM      7  C   UNL d   1       0.206  -1.231   0.073  0.00  0.00    -0.015 A 
ATOM      8  C   UNL d   1      -1.030  -1.361  -0.587  0.00  0.00     0.036 A 
ATOM      9  C   UNL d   1      -1.726  -2.571  -0.569  0.00  0.00     0.034 A 
ATOM     10 CL   UNL d   1      -3.248  -2.689  -1.365  0.00  0.00    -0.084 Cl
ATOM     11  C   UNL d   1      -1.202  -3.679   0.087  0.00  0.00     0.024 A 
ATOM     12  C   UNL d   1       0.030  -3.575   0.728  0.00  0.00     0.003 A 
ATOM     13  C   UNL d   1       0.729  -2.362   0.721  0.00  0.00     0.013 A 
ENDBRANCH   1   7
BRANCH   2  14
ATOM     14  C   UNL d   1       0.955   2.549   0.040  0.00  0.00    -0.033 A 
ATOM     15  C   UNL d   1       1.261   3.230   1.222  0.00  0.00     0.035 A 
ATOM     16  C   UNL d   1       1.895   4.471   1.161  0.00  0.00     0.034 A 
ATOM     17 CL   UNL d   1       2.270   5.311   2.616  0.00  0.00    -0.084 Cl
ATOM     18  C   UNL d   1       2.225   5.041  -0.069  0.00  0.00     0.024 A 
ATOM     19  C   UNL d   1       1.921   4.363  -1.249  0.00  0.00     0.003 A 
ATOM     20  C   UNL d   1       1.287   3.120  -1.195  0.00  0.00     0.011 A 
ENDBRANCH   2  14
TORSDOF 4
