REMARK  2 active torsions:
REMARK  status: ('A' for Active; 'I' for Inactive)
REMARK    1  A    between atoms: O_5  and  C_1 
REMARK    2  A    between atoms: C_7  and  O_5 
REMARK       I    between atoms: N_11  and  C_7 
ROOT
ATOM      1  C   UNL d   1       1.669  -1.113  -0.038  0.00  0.00     0.186 A 
ATOM      2  C   UNL d   1       0.288  -0.819  -0.019  0.00  0.00     0.055 A 
ATOM      3  N   UNL d   1       2.426  -0.018   0.082  0.00  0.00    -0.237 N 
ATOM      4  HN  UNL d   1       3.441   0.026   0.165  1.00  0.00     0.197 HD
ATOM      5  O   UNL d   1       1.533   1.044   0.069  0.00  0.00    -0.235 OA
ATOM      6  C   UNL d   1       0.260   0.566   0.019  0.00  0.00     0.113 A 
ATOM      7  C   UNL d   1      -0.928  -1.524  -0.031  0.00  0.00     0.042 A 
ATOM      8  C   UNL d   1      -0.903   1.328   0.018  0.00  0.00     0.042 A 
ATOM      9  C   UNL d   1      -2.117  -0.781  -0.017  0.00  0.00     0.035 A 
ATOM     10  C   UNL d   1      -2.110   0.618   0.001  0.00  0.00     0.026 A 
ATOM     11 CL   UNL d   1      -3.626  -1.614  -0.016  0.00  0.00    -0.084 Cl
ENDROOT
BRANCH   1  12
ATOM     12  O   UNL d   1       2.216  -2.346  -0.033  0.00  0.00    -0.241 OA
BRANCH  12  13
ATOM     13  C   UNL d   1       3.412  -2.545  -0.654  0.00  0.00     0.366 C 
ATOM     14  O   UNL d   1       4.040  -1.740  -1.325  0.00  0.00    -0.238 OA
ATOM     15  N   UNL d   1       3.816  -3.840  -0.455  0.00  0.00    -0.341 N 
ATOM     16  C   UNL d   1       5.040  -4.367  -1.001  0.00  0.00     0.151 C 
ATOM     17  H   UNL d   1       3.199  -4.443   0.068  0.00  0.00     0.164 HD
ENDBRANCH  12  13
ENDBRANCH   1  12
TORSDOF 2
