REMARK  5 active torsions:
REMARK  status: ('A' for Active; 'I' for Inactive)
REMARK    1  A    between atoms: C_6  and  N_1 
REMARK    2  A    between atoms: S_7  and  C_2 
REMARK       I    between atoms: C_3  and  N_8 
REMARK       I    between atoms: N_5  and  C_3 
REMARK    3  A    between atoms: C_4  and  N_5 
REMARK    4  A    between atoms: C_17  and  S_7 
REMARK    5  A    between atoms: N_8  and  C_13 
ROOT
ATOM      1  C   UNL d   1       1.816  -1.515  -4.380  0.00  0.00     0.325 C 
ATOM      2  N   UNL d   1       1.929  -1.792  -3.045  0.00  0.00    -0.307 N 
ATOM      3  N   UNL d   1       1.472  -0.231  -4.734  0.00  0.00    -0.309 N 
ATOM      4  O   UNL d   1       2.049  -2.459  -5.131  0.00  0.00    -0.247 OA
ATOM      5  H   UNL d   1       1.778  -2.796  -2.940  0.00  0.00     0.170 HD
ATOM      6  H   UNL d   1       1.385   0.446  -3.987  0.00  0.00     0.170 HD
ENDROOT
BRANCH   3   7
ATOM      7  C   UNL d   1       1.629   0.287  -6.040  0.00  0.00     0.038 C 
ATOM      8  C   UNL d   1       1.853  -0.570  -7.114  0.00  0.00     0.065 C 
ATOM      9  C   UNL d   1       2.545  -0.098  -8.220  0.00  0.00     0.105 C 
ATOM     10  C   UNL d   1       2.768   1.271  -8.392  0.00  0.00     0.036 C 
ATOM     11  C   UNL d   1       2.309   2.163  -7.412  0.00  0.00     0.005 C 
ATOM     12  C   UNL d   1       1.769   1.669  -6.219  0.00  0.00     0.030 C 
BRANCH   9  13
ATOM     13  N   UNL d   1       3.202  -1.089  -9.076  0.00  0.00    -0.116 N 
ATOM     14  O   UNL d   1       2.942  -2.287  -8.912  0.00  0.00    -0.532 OA
ATOM     15  O   UNL d   1       4.023  -0.662  -9.905  0.00  0.00    -0.532 OA
ENDBRANCH   9  13
ENDBRANCH   3   7
BRANCH   2  16
ATOM     16  C   UNL d   1       1.435  -0.986  -2.019  0.00  0.00     0.054 A 
ATOM     17  C   UNL d   1       0.150  -1.194  -1.478  0.00  0.00     0.049 A 
ATOM     18  C   UNL d   1      -0.209  -0.394  -0.383  0.00  0.00     0.053 A 
ATOM     19 CL   UNL d   1      -1.720  -0.551   0.443  0.00  0.00    -0.083 Cl
ATOM     20  C   UNL d   1       0.685   0.559   0.136  0.00  0.00     0.025 A 
ATOM     21  C   UNL d   1       1.958   0.734  -0.416  0.00  0.00     0.004 A 
ATOM     22  C   UNL d   1       2.329  -0.040  -1.503  0.00  0.00     0.031 A 
BRANCH  17  23
ATOM     23  S   UNL d   1      -0.859  -2.525  -2.170  0.00  0.00    -0.122 SA
BRANCH  23  24
ATOM     24  C   UNL d   1      -2.374  -1.690  -2.811  0.00  0.00     0.044 C 
ATOM     25  C   UNL d   1      -2.079  -0.577  -3.812  0.00  0.00     0.021 C 
ATOM     26  C   UNL d   1      -3.245  -2.756  -3.487  0.00  0.00     0.021 C 
ENDBRANCH  23  24
ENDBRANCH  17  23
ENDBRANCH   2  16
TORSDOF 5
