REMARK  4 active torsions:
REMARK  status: ('A' for Active; 'I' for Inactive)
REMARK    1  A    between atoms: S_8  and  C_3 
REMARK    2  A    between atoms: C_9  and  C_5 
REMARK    3  A    between atoms: C_15  and  S_8 
REMARK    4  A    between atoms: C_14  and  C_15 
ROOT
ATOM      1  N   UNL d   1      -1.559  -1.127  -0.022  0.00  0.00    -0.347 N 
ATOM      2  HN  UNL d   1      -2.084  -2.001  -0.015  1.00  0.00     0.167 HD
ATOM      3  C   UNL d   1      -0.200  -1.126  -0.018  0.00  0.00     0.091 A 
ATOM      4  C   UNL d   1       0.550   0.054   0.005  0.00  0.00     0.078 A 
ATOM      5  C   UNL d   1      -2.194   0.071  -0.036  0.00  0.00     0.079 A 
ATOM      6  C   UNL d   1       1.982   0.075   0.022  0.00  0.00     0.102 C 
ATOM      7  N   UNL d   1       3.139   0.162   0.048  0.00  0.00    -0.191 NA
ATOM      8  C   UNL d   1      -0.136   1.276   0.013  0.00  0.00     0.028 A 
ATOM      9  C   UNL d   1      -1.527   1.288  -0.011  0.00  0.00     0.035 A 
ENDROOT
BRANCH   3  10
ATOM     10  S   UNL d   1       0.569  -2.743   0.033  0.00  0.00    -0.103 SA
BRANCH  10  11
ATOM     11  C   UNL d   1      -0.707  -3.769  -0.767  0.00  0.00     0.158 C 
BRANCH  11  12
ATOM     12  C   UNL d   1      -0.939  -3.416  -2.228  0.00  0.00     0.132 C 
ATOM     13  O   UNL d   1      -0.367  -2.498  -2.818  0.00  0.00    -0.298 OA
ATOM     14  C   UNL d   1      -1.940  -4.279  -2.957  0.00  0.00     0.091 C 
ENDBRANCH  11  12
ENDBRANCH  10  11
ENDBRANCH   3  10
BRANCH   5  15
ATOM     15  C   UNL d   1      -3.684   0.053  -0.090  0.00  0.00     0.172 C 
ATOM     16  O   UNL d   1      -4.313   1.111  -0.118  0.00  0.00    -0.291 OA
ATOM     17  C   UNL d   1      -4.399  -1.274  -0.118  0.00  0.00     0.098 C 
ENDBRANCH   5  15
TORSDOF 4
