REMARK  4 active torsions:
REMARK  status: ('A' for Active; 'I' for Inactive)
REMARK    1  A    between atoms: S_2  and  N_1 
REMARK    2  A    between atoms: C_10  and  S_2 
REMARK    3  A    between atoms: N_8  and  C_4 
REMARK    4  A    between atoms: C_18  and  N_11 
ROOT
ATOM      1  N   UNL d   1      -0.071  -1.176   0.053  0.00  0.00    -0.179 N 
ATOM      2  C   UNL d   1       1.254  -0.751   0.108  0.00  0.00     0.072 C 
ATOM      3  C   UNL d   1       1.170   0.628   0.100  0.00  0.00     0.096 C 
ATOM      4  N   UNL d   1      -0.957  -0.133   0.172  0.00  0.00    -0.286 N 
ATOM      5  HN  UNL d   1      -1.970  -0.184   0.282  1.00  0.00     0.188 HD
ATOM      6  C   UNL d   1      -0.194   0.964   0.112  0.00  0.00     0.053 C 
ATOM      7  C   UNL d   1       2.479  -1.588   0.099  0.00  0.00     0.074 C 
ATOM      8  C   UNL d   1      -0.791   2.320   0.055  0.00  0.00     0.072 C 
ENDROOT
BRANCH   3   9
ATOM      9  N   UNL d   1       2.218   1.563   0.114  0.00  0.00    -0.296 N 
ATOM     10  N   UNL d   1       3.182   1.205  -0.594  0.00  0.00    -0.300 N 
ATOM     11  HN  UNL d   1       3.158   0.380  -1.194  1.00  0.00     0.187 HD
ATOM     12  HN  UNL d   1       2.194   2.435   0.642  1.00  0.00     0.187 HD
BRANCH  10  13
ATOM     13  C   UNL d   1       4.301   2.047  -0.483  0.00  0.00     0.048 A 
ATOM     14  C   UNL d   1       5.569   1.451  -0.537  0.00  0.00     0.032 A 
ATOM     15  C   UNL d   1       6.731   2.226  -0.485  0.00  0.00     0.026 A 
ATOM     16  C   UNL d   1       6.630   3.610  -0.383  0.00  0.00     0.034 A 
ATOM     17  C   UNL d   1       5.379   4.222  -0.333  0.00  0.00     0.026 A 
ATOM     18 CL   UNL d   1       8.056   4.569  -0.322  0.00  0.00    -0.084 Cl
ATOM     19  C   UNL d   1       4.218   3.442  -0.385  0.00  0.00     0.032 A 
ENDBRANCH  10  13
ENDBRANCH   3   9
BRANCH   1  20
ATOM     20  S   UNL d   1      -0.589  -2.846  -0.073  0.00  0.00     0.282 S 
ATOM     21  O   UNL d   1      -1.962  -2.818  -0.516  0.00  0.00    -0.198 OA
ATOM     22  O   UNL d   1       0.441  -3.529  -0.849  0.00  0.00    -0.198 OA
BRANCH  20  23
ATOM     23  C   UNL d   1      -0.570  -3.458   1.593  0.00  0.00     0.081 A 
ATOM     24  C   UNL d   1      -1.471  -2.949   2.530  0.00  0.00     0.026 A 
ATOM     25  C   UNL d   1      -1.449  -3.433   3.842  0.00  0.00     0.008 A 
ATOM     26  C   UNL d   1      -0.538  -4.432   4.221  0.00  0.00    -0.062 A 
ATOM     27  C   UNL d   1       0.334  -4.959   3.259  0.00  0.00     0.008 A 
ATOM     28  C   UNL d   1      -0.502  -4.922   5.640  0.00  0.00     0.048 C 
ATOM     29  C   UNL d   1       0.314  -4.482   1.946  0.00  0.00     0.026 A 
ENDBRANCH  20  23
ENDBRANCH   1  20
TORSDOF 4
