REMARK  7 active torsions:
REMARK  status: ('A' for Active; 'I' for Inactive)
REMARK    1  A    between atoms: S_15  and  C_2 
REMARK    2  A    between atoms: S_18  and  C_3 
REMARK    3  A    between atoms: C_9  and  C_19 
REMARK    4  A    between atoms: C_19  and  S_15 
REMARK    5  A    between atoms: C_17  and  C_24 
REMARK    6  A    between atoms: C_24  and  S_18 
REMARK    7  A    between atoms: O_26  and  C_23 
ROOT
ATOM      1  C   UNL d   1       1.932   3.149  -0.020  0.00  0.00     0.121 C 
ENDROOT
BRANCH   1   2
ATOM      2  C   UNL d   1       2.134   4.641  -0.139  0.00  0.00    -0.030 A 
ATOM      3  C   UNL d   1       1.677   5.578   0.903  0.00  0.00     0.005 A 
ATOM      4  C   UNL d   1       1.918   6.947   0.727  0.00  0.00     0.092 A 
ATOM      5  C   UNL d   1       1.019   5.194   2.081  0.00  0.00     0.017 A 
ATOM      6  C   UNL d   1       1.526   7.907   1.661  0.00  0.00     0.074 A 
ATOM      7  O   UNL d   1       2.585   7.439  -0.411  0.00  0.00    -0.275 OA
ATOM      8  C   UNL d   1       0.880   7.494   2.813  0.00  0.00     0.068 A 
ATOM      9  C   UNL d   1       0.625   6.144   3.034  0.00  0.00     0.037 A 
ATOM     10  C   UNL d   1       3.054   6.583  -1.386  0.00  0.00     0.288 A 
ATOM     11  C   UNL d   1       2.796   5.150  -1.192  0.00  0.00     0.091 A 
ATOM     12  O   UNL d   1       3.662   6.980  -2.376  0.00  0.00    -0.260 OA
BRANCH   8  13
ATOM     13  O   UNL d   1       0.507   8.448   3.712  0.00  0.00    -0.361 OA
ATOM     14  H   UNL d   1       0.039   8.025   4.450  0.00  0.00     0.217 HD
ENDBRANCH   8  13
ENDBRANCH   1   2
BRANCH   1  15
ATOM     15  S   UNL d   1       0.350   2.668  -0.784  0.00  0.00    -0.099 SA
BRANCH  15  16
ATOM     16  C   UNL d   1       0.347   0.947  -0.466  0.00  0.00     0.129 A 
ATOM     17  S   UNL d   1      -0.919  -0.098  -0.970  0.00  0.00    -0.038 SA
ATOM     18  C   UNL d   1      -0.115  -1.349  -0.118  0.00  0.00     0.129 A 
ATOM     19  N   UNL d   1       1.030  -0.987   0.420  0.00  0.00    -0.287 N 
ATOM     20  N   UNL d   1       1.300   0.351   0.216  0.00  0.00    -0.287 N 
ATOM     21  HN  UNL d   1       1.647  -1.622   0.927  1.00  0.00     0.188 HD
ATOM     22  HN  UNL d   1       2.139   0.822   0.555  1.00  0.00     0.188 HD
BRANCH  18  23
ATOM     23  S   UNL d   1      -0.766  -2.963   0.085  0.00  0.00    -0.103 SA
BRANCH  23  24
ATOM     24  C   UNL d   1      -0.224  -3.264   1.786  0.00  0.00     0.086 C 
BRANCH  24  25
ATOM     25  C   UNL d   1      -0.646  -4.621   2.259  0.00  0.00    -0.005 A 
ATOM     26  C   UNL d   1      -2.066  -4.950   2.653  0.00  0.00     0.006 A 
ATOM     27  C   UNL d   1      -1.015  -4.790   3.714  0.00  0.00     0.006 A 
ENDBRANCH  24  25
ENDBRANCH  23  24
ENDBRANCH  18  23
ENDBRANCH  15  16
ENDBRANCH   1  15
TORSDOF 7
