REMARK  6 active torsions:
REMARK  status: ('A' for Active; 'I' for Inactive)
REMARK    1  A    between atoms: N_5  and  C_1 
REMARK    2  A    between atoms: C_4  and  C_7 
REMARK    3  A    between atoms: C_6  and  C_12 
REMARK       I    between atoms: N_8  and  C_6 
REMARK    4  A    between atoms: C_21  and  N_8 
REMARK    5  A    between atoms: C_22  and  N_9 
REMARK    6  A    between atoms: C_29  and  C_22 
ROOT
ATOM      1  N   UNL d   1       0.724   9.895  -0.405  0.00  0.00    -0.255 NA
ATOM      2  C   UNL d   1      -0.658   7.382  -0.891  0.00  0.00     0.080 C 
ATOM      3  C   UNL d   1      -0.724   9.832  -0.198  0.00  0.00     0.099 C 
ATOM      4  C   UNL d   1       1.460   8.635  -0.263  0.00  0.00     0.099 C 
ATOM      5  C   UNL d   1       0.842   7.556  -1.153  0.00  0.00     0.029 C 
ATOM      6  C   UNL d   1      -1.363   8.730  -1.040  0.00  0.00     0.029 C 
ENDROOT
BRANCH   2   7
ATOM      7  C   UNL d   1      -0.912   6.656   0.433  0.00  0.00     0.222 C 
ATOM      8  N   UNL d   1      -2.244   6.387   0.710  0.00  0.00    -0.356 N 
ATOM      9  H   UNL d   1      -2.926   6.684   0.025  0.00  0.00     0.162 HD
ATOM     10  O   UNL d   1      -0.002   6.230   1.135  0.00  0.00    -0.273 OA
BRANCH   8  11
ATOM     11  C   UNL d   1      -2.578   5.188   1.488  0.00  0.00     0.087 C 
ATOM     12  C   UNL d   1      -2.595   3.968   0.568  0.00  0.00     0.055 C 
ATOM     13  C   UNL d   1      -3.783   4.025  -0.392  0.00  0.00     0.275 C 
ATOM     14  N   UNL d   1      -5.065   4.075   0.323  0.00  0.00     0.092 N 
ATOM     15  C   UNL d   1      -5.124   5.191   1.283  0.00  0.00     0.275 C 
ATOM     16  C   UNL d   1      -3.917   5.279   2.219  0.00  0.00     0.055 C 
BRANCH  14  17
ATOM     17  C   UNL d   1      -6.227   4.171  -0.595  0.00  0.00     0.311 C 
BRANCH  17  18
ATOM     18  C   UNL d   1      -6.177   3.237  -1.785  0.00  0.00    -0.030 A 
ATOM     19  C   UNL d   1      -6.326   1.853  -1.621  0.00  0.00     0.009 A 
ATOM     20  C   UNL d   1      -6.175   0.995  -2.711  0.00  0.00     0.001 A 
ATOM     21  C   UNL d   1      -5.878   1.510  -3.973  0.00  0.00     0.000 A 
ATOM     22  C   UNL d   1      -5.746   2.885  -4.152  0.00  0.00     0.001 A 
ATOM     23  C   UNL d   1      -5.899   3.744  -3.066  0.00  0.00     0.009 A 
ENDBRANCH  17  18
ENDBRANCH  14  17
ENDBRANCH   8  11
ENDBRANCH   2   7
BRANCH   1  24
ATOM     24  C   UNL d   1       1.299  10.949   0.329  0.00  0.00     0.159 A 
ATOM     25  N   UNL d   1       2.527  10.804   0.852  0.00  0.00    -0.329 N 
ATOM     26  C   UNL d   1       3.046  11.809   1.605  0.00  0.00     0.120 A 
ATOM     27  HN  UNL d   1       3.062   9.951   0.687  1.00  0.00     0.168 HD
ATOM     28  C   UNL d   1       2.356  12.985   1.822  0.00  0.00     0.051 A 
ATOM     29  C   UNL d   1       1.125  13.068   1.231  0.00  0.00     0.093 A 
ATOM     30  N   UNL d   1       0.588  12.078   0.498  0.00  0.00    -0.343 N 
ATOM     31  HN  UNL d   1      -0.336  12.180   0.080  1.00  0.00     0.167 HD
BRANCH  26  32
ATOM     32  C   UNL d   1       4.408  11.633   2.253  0.00  0.00     0.432 C 
ATOM     33  F   UNL d   1       5.037  10.464   1.948  0.00  0.00    -0.165 F 
ATOM     34  F   UNL d   1       5.280  12.626   1.909  0.00  0.00    -0.165 F 
ATOM     35  F   UNL d   1       4.339  11.674   3.617  0.00  0.00    -0.165 F 
ENDBRANCH  26  32
ENDBRANCH   1  24
TORSDOF 6
