REMARK  7 active torsions:
REMARK  status: ('A' for Active; 'I' for Inactive)
REMARK    1  A    between atoms: C_2  and  N_1 
REMARK    2  A    between atoms: C_10  and  C_2 
REMARK    3  A    between atoms: C_11  and  C_2 
REMARK    4  A    between atoms: C_3  and  C_12 
REMARK       I    between atoms: N_9  and  C_3 
REMARK    5  A    between atoms: S_7  and  C_6 
REMARK    6  A    between atoms: C_12  and  S_7 
REMARK    7  A    between atoms: N_13  and  N_9 
ROOT
ATOM      1  N   UNL d   1       0.319   0.960  -0.275  0.00  0.00     0.104 N 
ATOM      2  C   UNL d   1      -1.132   0.626  -0.286  0.00  0.00     0.290 C 
ATOM      3  C   UNL d   1       0.557  -0.338   0.420  0.00  0.00     0.290 C 
ATOM      4  C   UNL d   1      -0.728  -0.874  -0.256  0.00  0.00     0.104 C 
ENDROOT
BRANCH   1   5
ATOM      5  C   UNL d   1       0.665   2.096   0.605  0.00  0.00     0.289 C 
BRANCH   5   6
ATOM      6  C   UNL d   1       2.182   2.331   0.583  0.00  0.00    -0.021 A 
ATOM      7  C   UNL d   1       2.850   2.614  -0.623  0.00  0.00     0.010 A 
ATOM      8  C   UNL d   1       4.217   2.894  -0.638  0.00  0.00     0.001 A 
ATOM      9  C   UNL d   1       4.941   2.880   0.551  0.00  0.00     0.000 A 
ATOM     10  C   UNL d   1       4.303   2.573   1.751  0.00  0.00     0.001 A 
ATOM     11  C   UNL d   1       2.932   2.299   1.769  0.00  0.00     0.010 A 
ENDBRANCH   5   6
BRANCH   5  12
ATOM     12  C   UNL d   1      -0.075   3.397   0.270  0.00  0.00    -0.021 A 
ATOM     13  C   UNL d   1      -0.355   4.312   1.302  0.00  0.00     0.010 A 
ATOM     14  C   UNL d   1      -1.012   5.513   1.032  0.00  0.00     0.001 A 
ATOM     15  C   UNL d   1      -1.394   5.822  -0.271  0.00  0.00     0.000 A 
ATOM     16  C   UNL d   1      -1.109   4.936  -1.308  0.00  0.00     0.001 A 
ATOM     17  C   UNL d   1      -0.447   3.736  -1.041  0.00  0.00     0.010 A 
ENDBRANCH   5  12
ENDBRANCH   1   5
BRANCH   4  18
ATOM     18  S   UNL d   1      -0.472  -1.567  -1.956  0.00  0.00    -0.151 SA
BRANCH  18  19
ATOM     19  C   UNL d   1       0.613  -2.955  -1.508  0.00  0.00     0.178 C 
BRANCH  19  20
ATOM     20  C   UNL d   1      -0.087  -3.944  -0.599  0.00  0.00     0.240 C 
ATOM     21  O   UNL d   1       0.308  -4.206   0.534  0.00  0.00    -0.271 OA
ATOM     22  N   UNL d   1      -1.192  -4.559  -1.183  0.00  0.00    -0.293 N 
ATOM     23  H   UNL d   1      -1.627  -4.095  -1.983  0.00  0.00     0.183 HD
BRANCH  22  24
ATOM     24  N   UNL d   1      -1.968  -5.451  -0.414  0.00  0.00    -0.247 NA
ATOM     25  H   UNL d   1      -1.616  -5.401   0.554  0.00  0.00     0.143 HD
ATOM     26  H   UNL d   1      -1.734  -6.403  -0.711  0.00  0.00     0.143 HD
ENDBRANCH  22  24
ENDBRANCH  19  20
ENDBRANCH  18  19
ENDBRANCH   4  18
TORSDOF 7
