REMARK  5 active torsions:
REMARK  status: ('A' for Active; 'I' for Inactive)
REMARK    1  A    between atoms: O_5  and  C_1 
REMARK       I    between atoms: C_3  and  N_8 
REMARK    2  A    between atoms: C_16  and  C_3 
REMARK    3  A    between atoms: C_11  and  O_5 
REMARK    4  A    between atoms: N_8  and  C_19 
REMARK    5  A    between atoms: O_31  and  C_26 
ROOT
ATOM      1  N   UNL d   1       3.287   3.034  -0.829  0.00  0.00    -0.344 N 
ATOM      2  HN  UNL d   1       2.989   2.403  -1.572  1.00  0.00     0.167 HD
ATOM      3  C   UNL d   1       2.495   3.315   0.229  0.00  0.00     0.149 A 
ATOM      4  C   UNL d   1       4.935   4.570   0.092  0.00  0.00     0.050 A 
ATOM      5  C   UNL d   1       4.497   3.636  -0.847  0.00  0.00     0.119 A 
ATOM      6  C   UNL d   1       2.821   4.248   1.201  0.00  0.00     0.059 A 
ATOM      7  C   UNL d   1       4.062   4.886   1.127  0.00  0.00     0.035 A 
ENDROOT
BRANCH   3   8
ATOM      8  O   UNL d   1       1.246   2.723   0.327  0.00  0.00    -0.276 OA
BRANCH   8   9
ATOM      9  C   UNL d   1       1.139   1.413  -0.121  0.00  0.00     0.163 A 
ATOM     10  C   UNL d   1      -0.112   1.003  -0.596  0.00  0.00     0.042 A 
ATOM     11  C   UNL d   1      -0.174  -0.344  -0.974  0.00  0.00     0.049 A 
ATOM     12  C   UNL d   1      -1.260   1.825  -0.702  0.00  0.00     0.020 A 
ATOM     13  C   UNL d   1      -1.384  -0.852  -1.429  0.00  0.00     0.054 A 
ATOM     14  N   UNL d   1       0.882  -1.166  -0.909  0.00  0.00    -0.351 N 
ATOM     15  C   UNL d   1      -2.520  -0.048  -1.516  0.00  0.00     0.036 A 
ATOM     16  C   UNL d   1      -2.464   1.293  -1.160  0.00  0.00     0.025 A 
ATOM     17 CL   UNL d   1      -4.004  -0.725  -2.061  0.00  0.00    -0.084 Cl
ATOM     18  C   UNL d   1       2.019  -0.654  -0.418  0.00  0.00     0.182 A 
ATOM     19  HN  UNL d   1       0.823  -2.136  -1.218  1.00  0.00     0.166 HD
ATOM     20  N   UNL d   1       2.193   0.588   0.026  0.00  0.00    -0.332 N 
ATOM     21  HN  UNL d   1       3.068   0.896   0.450  1.00  0.00     0.168 HD
ENDBRANCH   8   9
ENDBRANCH   3   8
BRANCH   4  22
ATOM     22  N   UNL d   1       6.226   5.114  -0.060  0.00  0.00    -0.322 N 
ATOM     23  C   UNL d   1       6.835   6.069   0.733  0.00  0.00     0.256 C 
ATOM     24  O   UNL d   1       6.348   6.646   1.697  0.00  0.00    -0.267 OA
ATOM     25  H   UNL d   1       6.785   4.700  -0.796  0.00  0.00     0.169 HD
BRANCH  23  26
ATOM     26  C   UNL d   1       8.256   6.336   0.378  0.00  0.00     0.032 A 
ATOM     27  C   UNL d   1       8.700   6.325  -0.950  0.00  0.00     0.020 A 
ATOM     28  C   UNL d   1      10.067   6.411  -1.220  0.00  0.00     0.038 A 
ATOM     29  C   UNL d   1      10.993   6.521  -0.180  0.00  0.00     0.068 A 
ATOM     30  C   UNL d   1      10.539   6.627   1.136  0.00  0.00     0.038 A 
ATOM     31  C   UNL d   1       9.173   6.535   1.414  0.00  0.00     0.020 A 
BRANCH  29  32
ATOM     32  O   UNL d   1      12.302   6.511  -0.577  0.00  0.00    -0.356 OA
ATOM     33  C   UNL d   1      13.276   6.366   0.451  0.00  0.00     0.210 C 
ENDBRANCH  29  32
ENDBRANCH  23  26
ENDBRANCH   4  22
TORSDOF 5
