REMARK  7 active torsions:
REMARK  status: ('A' for Active; 'I' for Inactive)
REMARK    1  A    between atoms: C_7  and  N_1 
REMARK    2  A    between atoms: C_13  and  N_5 
REMARK    3  A    between atoms: C_16  and  C_7 
REMARK    4  A    between atoms: O_19  and  C_9 
REMARK    5  A    between atoms: O_22  and  C_10 
REMARK    6  A    between atoms: C_15  and  C_16 
REMARK    7  A    between atoms: O_25  and  C_17 
ROOT
ATOM      1  N   UNL d   1      -0.477   0.920   0.092  0.00  0.00    -0.297 N 
ATOM      2  C   UNL d   1       0.664   0.487   0.724  0.00  0.00     0.150 C 
ATOM      3  C   UNL d   1      -1.173  -0.048  -0.606  0.00  0.00     0.235 C 
ATOM      4  S   UNL d   1       0.602  -1.250   0.921  0.00  0.00    -0.084 SA
ATOM      5  N   UNL d   1       1.606   1.296   1.088  0.00  0.00    -0.337 N 
ATOM      6  HN  UNL d   1       1.467   2.296   0.938  1.00  0.00     0.168 HD
ATOM      7  C   UNL d   1      -0.618  -1.429  -0.379  0.00  0.00     0.185 C 
ATOM      8  O   UNL d   1      -2.088   0.146  -1.398  0.00  0.00    -0.272 OA
ENDROOT
BRANCH   1   9
ATOM      9  C   UNL d   1      -0.761   2.350  -0.088  0.00  0.00     0.138 C 
BRANCH   9  10
ATOM     10  C   UNL d   1      -2.253   2.717  -0.071  0.00  0.00     0.059 C 
BRANCH  10  11
ATOM     11  C   UNL d   1      -2.496   4.204  -0.155  0.00  0.00    -0.054 A 
ATOM     12  C   UNL d   1      -2.594   4.833  -1.409  0.00  0.00     0.046 A 
ATOM     13  C   UNL d   1      -2.839   6.210  -1.522  0.00  0.00     0.102 A 
ATOM     14  C   UNL d   1      -3.009   6.962  -0.346  0.00  0.00     0.101 A 
ATOM     15  C   UNL d   1      -2.883   6.339   0.903  0.00  0.00     0.040 A 
ATOM     16  C   UNL d   1      -2.631   4.971   1.002  0.00  0.00     0.010 A 
BRANCH  13  17
ATOM     17  O   UNL d   1      -2.896   6.872  -2.719  0.00  0.00    -0.353 OA
ATOM     18  C   UNL d   1      -2.683   6.125  -3.910  0.00  0.00     0.210 C 
ENDBRANCH  13  17
BRANCH  14  19
ATOM     19  O   UNL d   1      -3.245   8.311  -0.257  0.00  0.00    -0.353 OA
ATOM     20  C   UNL d   1      -4.060   8.878  -1.276  0.00  0.00     0.210 C 
ENDBRANCH  14  19
ENDBRANCH  10  11
ENDBRANCH   9  10
ENDBRANCH   1   9
BRANCH   5  21
ATOM     21  C   UNL d   1       2.813   0.873   1.680  0.00  0.00     0.034 A 
ATOM     22  C   UNL d   1       3.605  -0.155   1.159  0.00  0.00     0.032 A 
ATOM     23  C   UNL d   1       4.793  -0.551   1.785  0.00  0.00     0.039 A 
ATOM     24  C   UNL d   1       5.255   0.133   2.904  0.00  0.00     0.068 A 
ATOM     25  C   UNL d   1       4.521   1.220   3.382  0.00  0.00     0.039 A 
ATOM     26  C   UNL d   1       3.307   1.581   2.777  0.00  0.00     0.032 A 
BRANCH  24  27
ATOM     27  O   UNL d   1       6.401  -0.153   3.596  0.00  0.00    -0.356 OA
ATOM     28  C   UNL d   1       7.111  -1.320   3.192  0.00  0.00     0.210 C 
ENDBRANCH  24  27
ENDBRANCH   5  21
TORSDOF 7
