REMARK  10 active torsions:
REMARK  status: ('A' for Active; 'I' for Inactive)
REMARK    1  A    between atoms: C_5  and  C_1 
REMARK    2  A    between atoms: C_6  and  C_2 
REMARK    3  A    between atoms: O_16  and  C_5 
REMARK    4  A    between atoms: O_15  and  C_6 
REMARK    5  A    between atoms: C_20  and  C_9 
REMARK    6  A    between atoms: C_10  and  C_21 
REMARK    7  A    between atoms: C_17  and  O_18 
REMARK    8  A    between atoms: O_19  and  C_17 
REMARK    9  A    between atoms: O_18  and  C_20 
REMARK   10  A    between atoms: C_21  and  O_19 
ROOT
ATOM      1  C   UNL d   1      -0.292  -4.711  -0.006  0.00  0.00     0.338 C 
ENDROOT
BRANCH   1   2
ATOM      2  O   UNL d   1       0.186  -3.378  -0.041  0.00  0.00    -0.361 OA
BRANCH   2   3
ATOM      3  C   UNL d   1      -0.861  -2.413  -0.016  0.00  0.00     0.235 C 
BRANCH   3   4
ATOM      4  C   UNL d   1      -0.197  -1.083  -0.026  0.00  0.00     0.077 A 
ATOM      5  O   UNL d   1      -0.857  -0.055   0.583  0.00  0.00    -0.307 OA
ATOM      6  C   UNL d   1      -0.066   1.064   0.474  0.00  0.00     0.150 A 
ATOM      7  C   UNL d   1       1.089   0.739  -0.215  0.00  0.00     0.046 A 
ATOM      8  C   UNL d   1       1.003  -0.634  -0.537  0.00  0.00     0.038 A 
BRANCH   6   9
ATOM      9  C   UNL d   1      -0.491   2.329   1.033  0.00  0.00     0.316 C 
ATOM     10  O   UNL d   1       0.147   3.374   0.982  0.00  0.00    -0.257 OA
BRANCH   9  11
ATOM     11  O   UNL d   1      -1.711   2.194   1.634  0.00  0.00    -0.321 OA
ATOM     12  C   UNL d   1      -2.209   3.399   2.215  0.00  0.00     0.213 C 
ENDBRANCH   9  11
ENDBRANCH   6   9
ENDBRANCH   3   4
ENDBRANCH   2   3
ENDBRANCH   1   2
BRANCH   1  13
ATOM     13  O   UNL d   1       0.800  -5.628   0.020  0.00  0.00    -0.361 OA
BRANCH  13  14
ATOM     14  C   UNL d   1       1.574  -5.461   1.208  0.00  0.00     0.235 C 
BRANCH  14  15
ATOM     15  C   UNL d   1       2.718  -6.406   1.154  0.00  0.00     0.077 A 
ATOM     16  O   UNL d   1       2.848  -7.273   2.201  0.00  0.00    -0.307 OA
ATOM     17  C   UNL d   1       3.998  -7.993   2.004  0.00  0.00     0.150 A 
ATOM     18  C   UNL d   1       4.596  -7.580   0.826  0.00  0.00     0.046 A 
ATOM     19  C   UNL d   1       3.772  -6.568   0.279  0.00  0.00     0.038 A 
BRANCH  17  20
ATOM     20  C   UNL d   1       4.414  -8.990   2.964  0.00  0.00     0.316 C 
ATOM     21  O   UNL d   1       5.429  -9.674   2.877  0.00  0.00    -0.257 OA
BRANCH  20  22
ATOM     22  O   UNL d   1       3.522  -9.068   3.995  0.00  0.00    -0.321 OA
ATOM     23  C   UNL d   1       3.860 -10.035   4.989  0.00  0.00     0.213 C 
ENDBRANCH  20  22
ENDBRANCH  17  20
ENDBRANCH  14  15
ENDBRANCH  13  14
ENDBRANCH   1  13
TORSDOF 10
