REMARK  7 active torsions:
REMARK  status: ('A' for Active; 'I' for Inactive)
REMARK    1  A    between atoms: C_2  and  N_1 
REMARK       I    between atoms: C_3  and  N_1 
REMARK    2  A    between atoms: N_7  and  C_2 
REMARK    3  A    between atoms: O_8  and  C_3 
REMARK    4  A    between atoms: C_9  and  N_7 
REMARK    5  A    between atoms: C_14  and  O_8 
REMARK    6  A    between atoms: C_13  and  C_9 
REMARK    7  A    between atoms: C_12  and  C_13 
ROOT
ATOM      1  N   UNL d   1      -1.161   0.424  -1.092  0.00  0.00    -0.367 N 
ATOM      2  H   UNL d   1      -0.798   0.914  -0.280  0.00  0.00     0.161 HD
ENDROOT
BRANCH   1   3
ATOM      3  C   UNL d   1      -1.216  -0.940  -0.946  0.00  0.00     0.176 C 
ATOM      4  S   UNL d   1      -0.707  -1.606   0.494  0.00  0.00    -0.041 SA
BRANCH   3   5
ATOM      5  N   UNL d   1      -1.706  -1.605  -2.048  0.00  0.00    -0.279 N 
ATOM      6  C   UNL d   1      -2.281  -2.845  -2.165  0.00  0.00     0.366 C 
ATOM      7  O   UNL d   1      -2.205  -3.489  -3.202  0.00  0.00    -0.238 OA
ATOM      8  H   UNL d   1      -1.320  -1.297  -2.925  0.00  0.00     0.173 HD
BRANCH   6   9
ATOM      9  O   UNL d   1      -2.991  -3.208  -1.066  0.00  0.00    -0.304 OA
BRANCH   9  10
ATOM     10  C   UNL d   1      -3.714  -4.441  -1.170  0.00  0.00     0.176 C 
ATOM     11  C   UNL d   1      -2.787  -5.613  -0.914  0.00  0.00     0.034 C 
ENDBRANCH   9  10
ENDBRANCH   6   9
ENDBRANCH   3   5
ENDBRANCH   1   3
BRANCH   1  12
ATOM     12  C   UNL d   1      -1.899   1.207  -2.074  0.00  0.00     0.122 C 
BRANCH  12  13
ATOM     13  C   UNL d   1      -3.425   1.113  -1.893  0.00  0.00     0.024 C 
BRANCH  13  14
ATOM     14  C   UNL d   1      -4.200   1.776  -3.054  0.00  0.00    -0.010 C 
ATOM     15  C   UNL d   1      -3.962   3.289  -3.165  0.00  0.00     0.034 C 
ATOM     16  C   UNL d   1      -4.707   4.089  -2.096  0.00  0.00     0.270 C 
ATOM     17  N   UNL d   1      -6.135   3.787  -2.096  0.00  0.00     0.083 N 
ATOM     18  C   UNL d   1      -6.392   2.364  -1.882  0.00  0.00     0.270 C 
ATOM     19  H   UNL d   1      -6.598   4.327  -1.365  0.00  0.00     0.315 HD
ATOM     20  C   UNL d   1      -5.714   1.515  -2.957  0.00  0.00     0.034 C 
ENDBRANCH  13  14
ENDBRANCH  12  13
ENDBRANCH   1  12
TORSDOF 7
