REMARK  7 active torsions:
REMARK  status: ('A' for Active; 'I' for Inactive)
REMARK    1  A    between atoms: C_2  and  S_1 
REMARK    2  A    between atoms: N_6  and  S_1 
REMARK    3  A    between atoms: C_10  and  C_3 
REMARK    4  A    between atoms: C_4  and  N_6 
REMARK    5  A    between atoms: C_15  and  C_7 
REMARK    6  A    between atoms: O_26  and  C_10 
REMARK    7  A    between atoms: S_23  and  C_12 
ROOT
ATOM      1  C   UNL d   1       0.189  -0.205  -1.790  0.00  0.00     0.116 A 
ATOM      2  S   UNL d   1      -0.294   1.113  -2.757  0.00  0.00    -0.075 SA
ATOM      3  C   UNL d   1      -0.509   0.134  -4.153  0.00  0.00     0.033 A 
ATOM      4  C   UNL d   1       0.157  -1.387  -2.503  0.00  0.00     0.034 A 
ATOM      5  C   UNL d   1      -0.264  -1.196  -3.854  0.00  0.00     0.023 A 
ENDROOT
BRANCH   1   6
ATOM      6  S   UNL d   1       0.637   0.170  -0.111  0.00  0.00     0.252 S 
ATOM      7  O   UNL d   1       1.181   1.512  -0.098  0.00  0.00    -0.205 OA
ATOM      8  O   UNL d   1       1.452  -0.955   0.308  0.00  0.00    -0.205 OA
BRANCH   6   9
ATOM      9  N   UNL d   1      -0.741   0.146   0.894  0.00  0.00    -0.179 NA
ATOM     10  H   UNL d   1      -0.352   0.156   1.841  0.00  0.00     0.146 HD
BRANCH   9  11
ATOM     11  C   UNL d   1      -1.758   1.110   0.704  0.00  0.00     0.046 A 
ATOM     12  C   UNL d   1      -2.947   0.947   0.007  0.00  0.00     0.102 A 
ATOM     13  S   UNL d   1      -3.909   2.377   0.083  0.00  0.00    -0.094 SA
ATOM     14  C   UNL d   1      -2.792   3.172   1.091  0.00  0.00     0.052 A 
ATOM     15  C   UNL d   1      -1.692   2.387   1.349  0.00  0.00     0.033 A 
BRANCH  12  16
ATOM     16  C   UNL d   1      -3.501  -0.188  -0.711  0.00  0.00     0.301 C 
ATOM     17  O   UNL d   1      -4.601  -0.227  -1.255  0.00  0.00    -0.259 OA
BRANCH  16  18
ATOM     18  O   UNL d   1      -2.636  -1.242  -0.689  0.00  0.00    -0.322 OA
ATOM     19  C   UNL d   1      -3.089  -2.420  -1.362  0.00  0.00     0.213 C 
ENDBRANCH  16  18
ENDBRANCH  12  16
ENDBRANCH   9  11
ENDBRANCH   6   9
ENDBRANCH   1   6
BRANCH   3  20
ATOM     20  C   UNL d   1      -0.941   0.738  -5.422  0.00  0.00     0.052 A 
ATOM     21  N   UNL d   1      -1.654  -0.082  -6.222  0.00  0.00    -0.336 N 
ATOM     22  C   UNL d   1      -2.123   0.451  -7.363  0.00  0.00     0.144 A 
ATOM     23  HN  UNL d   1      -1.828  -1.055  -5.974  1.00  0.00     0.168 HD
ATOM     24  N   UNL d   1      -1.917   1.718  -7.760  0.00  0.00    -0.347 N 
ATOM     25  C   UNL d   1      -1.181   2.490  -6.947  0.00  0.00     0.092 A 
ATOM     26  HN  UNL d   1      -2.300   2.074  -8.635  1.00  0.00     0.167 HD
ATOM     27  C   UNL d   1      -0.656   2.046  -5.761  0.00  0.00     0.048 A 
BRANCH  22  28
ATOM     28  S   UNL d   1      -3.093  -0.617  -8.401  0.00  0.00    -0.098 SA
ATOM     29  C   UNL d   1      -3.557   0.546  -9.710  0.00  0.00     0.099 C 
ENDBRANCH  22  28
ENDBRANCH   3  20
TORSDOF 7
