REMARK  0 active torsions:
REMARK  status: ('A' for Active; 'I' for Inactive)
ROOT
ATOM      1  C   UNL d   1      -0.166  -0.724   0.183  0.00  0.00     0.008 C 
ATOM      2  C   UNL d   1       0.183   0.767  -0.194  0.00  0.00     0.008 C 
ATOM      3  C   UNL d   1      -1.574  -0.522   0.654  0.00  0.00     0.028 C 
ATOM      4  C   UNL d   1       1.596   0.548  -0.656  0.00  0.00     0.028 C 
ATOM      5  C   UNL d   1       1.091  -1.122   0.963  0.00  0.00     0.044 C 
ATOM      6  C   UNL d   1      -1.087   1.160  -0.959  0.00  0.00     0.044 C 
ATOM      7  C   UNL d   1      -2.123   0.485  -0.060  0.00  0.00    -0.007 C 
ATOM      8  C   UNL d   1       2.135  -0.458   0.071  0.00  0.00    -0.007 C 
ATOM      9  N   UNL d   1      -2.842  -2.124   2.228  0.00  0.00    -0.192 NA
ATOM     10  N   UNL d   1       2.911   2.106  -2.229  0.00  0.00    -0.192 NA
ATOM     11  C   UNL d   1      -2.276  -1.393   1.531  0.00  0.00     0.095 C 
ATOM     12  C   UNL d   1       2.315   1.396  -1.533  0.00  0.00     0.095 C 
ATOM     13  C   UNL d   1      -0.292  -1.724  -1.031  0.00  0.00     0.022 C 
ATOM     14  C   UNL d   1       0.322   1.779   1.007  0.00  0.00     0.022 C 
ENDROOT
TORSDOF 0
