REMARK  4 active torsions:
REMARK  status: ('A' for Active; 'I' for Inactive)
REMARK    1  A    between atoms: N_10  and  C_3 
REMARK    2  A    between atoms: C_13  and  C_5 
REMARK    3  A    between atoms: C_16  and  C_13 
REMARK    4  A    between atoms: N_15  and  C_16 
ROOT
ATOM      1  N   UNL d   1       0.671   0.484   0.070  0.00  0.00    -0.279 N 
ATOM      2  C   UNL d   1       0.999  -0.867   0.227  0.00  0.00     0.136 A 
ATOM      3  C   UNL d   1       1.671   1.520   0.069  0.00  0.00     0.119 A 
ATOM      4  C   UNL d   1       2.365  -1.247   0.260  0.00  0.00     0.095 A 
ATOM      5  C   UNL d   1       2.989   1.148   0.189  0.00  0.00    -0.004 A 
ATOM      6  N   UNL d   1      -0.056  -1.645   0.313  0.00  0.00    -0.339 N 
ATOM      7  HN  UNL d   1      -0.070  -2.653   0.470  1.00  0.00     0.167 HD
ATOM      8  C   UNL d   1       3.339  -0.303   0.239  0.00  0.00    -0.027 A 
ATOM      9  C   UNL d   1      -0.725   0.494  -0.075  0.00  0.00     0.069 A 
ATOM     10  C   UNL d   1      -1.123  -0.826   0.148  0.00  0.00     0.061 A 
ATOM     11  C   UNL d   1       2.664  -2.655   0.252  0.00  0.00     0.104 C 
ATOM     12  N   UNL d   1       2.967  -3.774   0.228  0.00  0.00    -0.191 NA
ATOM     13  C   UNL d   1       4.784  -0.777   0.210  0.00  0.00     0.050 C 
ATOM     14  C   UNL d   1      -1.693   1.469  -0.373  0.00  0.00     0.032 A 
ATOM     15  C   UNL d   1      -2.482  -1.182   0.154  0.00  0.00     0.032 A 
ATOM     16  C   UNL d   1      -3.050   1.111  -0.317  0.00  0.00     0.002 A 
ATOM     17  C   UNL d   1      -3.442  -0.194  -0.051  0.00  0.00     0.002 A 
ENDROOT
BRANCH   5  18
ATOM     18  C   UNL d   1       4.118   2.184   0.216  0.00  0.00     0.073 C 
BRANCH  18  19
ATOM     19  C   UNL d   1       4.144   3.192   1.388  0.00  0.00     0.277 C 
BRANCH  19  20
ATOM     20  N   UNL d   1       4.155   2.638   2.750  0.00  0.00     0.092 N 
ATOM     21  C   UNL d   1       5.476   2.101   3.142  0.00  0.00     0.298 C 
ATOM     22  C   UNL d   1       6.537   3.176   3.440  0.00  0.00     0.198 C 
ATOM     23  O   UNL d   1       6.085   4.099   4.439  0.00  0.00    -0.388 OA
ATOM     24  C   UNL d   1       4.858   4.717   4.039  0.00  0.00     0.198 C 
ATOM     25  C   UNL d   1       3.771   3.665   3.754  0.00  0.00     0.298 C 
ENDBRANCH  19  20
ENDBRANCH  18  19
ENDBRANCH   5  18
BRANCH   3  26
ATOM     26  N   UNL d   1       1.303   2.874  -0.071  0.00  0.00    -0.362 N 
ATOM     27  C   UNL d   1       0.513   3.631   0.940  0.00  0.00     0.150 C 
ATOM     28  C   UNL d   1       0.924   5.116   1.008  0.00  0.00     0.187 C 
ATOM     29  O   UNL d   1       1.010   5.733  -0.286  0.00  0.00    -0.388 OA
ATOM     30  C   UNL d   1       1.919   5.016  -1.133  0.00  0.00     0.187 C 
ATOM     31  C   UNL d   1       1.433   3.579  -1.363  0.00  0.00     0.150 C 
ENDBRANCH   3  26
TORSDOF 4
