REMARK  5 active torsions:
REMARK  status: ('A' for Active; 'I' for Inactive)
REMARK    1  A    between atoms: C_8  and  C_1 
REMARK    2  A    between atoms: N_13  and  C_4 
REMARK    3  A    between atoms: O_16  and  C_8 
REMARK    4  A    between atoms: C_11  and  C_9 
REMARK    5  A    between atoms: C_18  and  O_16 
ROOT
ATOM      1  C   UNL d   1      -2.119  -0.143   0.054  0.00  0.00     0.109 A 
ATOM      2  C   UNL d   1       0.314  -0.566   0.075  0.00  0.00     0.088 A 
ATOM      3  S   UNL d   1      -1.091  -1.519   0.113  0.00  0.00    -0.063 SA
ATOM      4  C   UNL d   1      -1.375   1.026   0.035  0.00  0.00     0.062 A 
ATOM      5  C   UNL d   1       0.041   0.795   0.034  0.00  0.00     0.026 A 
ATOM      6  N   UNL d   1       1.531  -1.149   0.083  0.00  0.00    -0.347 N 
ATOM      7  HN  UNL d   1       1.662  -2.160   0.115  1.00  0.00     0.167 HD
ATOM      8  C   UNL d   1       2.562  -0.277   0.046  0.00  0.00     0.079 A 
ATOM      9  C   UNL d   1       1.154   1.662  -0.008  0.00  0.00     0.019 A 
ATOM     10  C   UNL d   1       2.432   1.106  -0.002  0.00  0.00     0.034 A 
ENDROOT
BRANCH   1  11
ATOM     11  C   UNL d   1      -3.550  -0.364  -0.022  0.00  0.00     0.302 C 
ATOM     12  O   UNL d   1      -4.117  -1.450  -0.093  0.00  0.00    -0.259 OA
BRANCH  11  13
ATOM     13  O   UNL d   1      -4.205   0.836  -0.099  0.00  0.00    -0.317 OA
BRANCH  13  14
ATOM     14  C   UNL d   1      -5.524   0.791  -0.657  0.00  0.00     0.174 C 
ATOM     15  C   UNL d   1      -5.395   0.890  -2.167  0.00  0.00     0.034 C 
ENDBRANCH  13  14
ENDBRANCH  11  13
ENDBRANCH   1  11
BRANCH   4  16
ATOM     16  N   UNL d   1      -1.905   2.269  -0.008  0.00  0.00    -0.397 N 
ATOM     17  H   UNL d   1      -2.913   2.423   0.019  0.00  0.00     0.156 HD
ATOM     18  H   UNL d   1      -1.353   3.122   0.009  0.00  0.00     0.156 HD
ENDBRANCH   4  16
BRANCH   8  19
ATOM     19  C   UNL d   1       3.937  -0.863   0.061  0.00  0.00     0.172 C 
ATOM     20  O   UNL d   1       4.921  -0.125   0.043  0.00  0.00    -0.291 OA
ATOM     21  C   UNL d   1       4.098  -2.361   0.102  0.00  0.00     0.098 C 
ENDBRANCH   8  19
TORSDOF 5
