REMARK  6 active torsions:
REMARK  status: ('A' for Active; 'I' for Inactive)
REMARK    1  A    between atoms: C_2  and  S_1 
REMARK    2  A    between atoms: C_4  and  S_1 
REMARK    3  A    between atoms: C_6  and  C_5 
REMARK    4  A    between atoms: O_11  and  C_6 
REMARK    5  A    between atoms: C_15  and  C_7 
REMARK    6  A    between atoms: O_16  and  C_15 
ROOT
ATOM      1  C   UNL d   1       0.396  -0.258  -1.716  0.00  0.00     0.048 A 
ATOM      2  C   UNL d   1       0.716  -1.478  -2.414  0.00  0.00     0.011 A 
ATOM      3  C   UNL d   1       1.423  -2.619  -1.914  0.00  0.00     0.050 A 
ATOM      4  C   UNL d   1       0.246  -1.594  -3.751  0.00  0.00    -0.024 A 
ATOM      5  C   UNL d   1      -0.233   0.807  -2.386  0.00  0.00     0.022 A 
ATOM      6  C   UNL d   1       1.518  -3.827  -2.622  0.00  0.00     0.019 A 
ATOM      7  C   UNL d   1      -0.581   0.696  -3.724  0.00  0.00     0.002 A 
ATOM      8  C   UNL d   1       0.963  -3.926  -3.886  0.00  0.00     0.002 A 
ATOM      9  C   UNL d   1       0.362  -2.807  -4.454  0.00  0.00     0.012 A 
ATOM     10  C   UNL d   1      -0.368  -0.506  -4.389  0.00  0.00     0.012 A 
ENDROOT
BRANCH   1  11
ATOM     11  S   UNL d   1       0.462  -0.175   0.104  0.00  0.00     0.086 S 
ATOM     12  O   UNL d   1      -0.880   0.378   0.493  0.00  0.00    -0.247 OA
BRANCH  11  13
ATOM     13  C   UNL d   1       1.611   1.219   0.383  0.00  0.00     0.045 A 
ATOM     14  C   UNL d   1       1.670   1.821   1.665  0.00  0.00    -0.015 A 
ATOM     15  C   UNL d   1       2.571   2.883   1.888  0.00  0.00     0.011 A 
ATOM     16  C   UNL d   1       3.419   3.336   0.882  0.00  0.00     0.001 A 
ATOM     17  C   UNL d   1       3.381   2.732  -0.367  0.00  0.00     0.001 A 
ATOM     18  C   UNL d   1       2.493   1.679  -0.613  0.00  0.00     0.022 A 
BRANCH  14  19
ATOM     19  C   UNL d   1       0.805   1.412   2.839  0.00  0.00     0.204 C 
BRANCH  19  20
ATOM     20  O   UNL d   1       1.631   1.133   3.969  0.00  0.00    -0.396 OA
ATOM     21  H   UNL d   1       2.244   0.431   3.691  0.00  0.00     0.209 HD
ENDBRANCH  19  20
ENDBRANCH  14  19
ENDBRANCH  11  13
ENDBRANCH   1  11
BRANCH   3  22
ATOM     22  C   UNL d   1       2.222  -2.578  -0.677  0.00  0.00     0.177 C 
ATOM     23  O   UNL d   1       2.015  -3.288   0.291  0.00  0.00    -0.646 OA
BRANCH  22  24
ATOM     24  O   UNL d   1       3.244  -1.703  -0.777  0.00  0.00    -0.773 OA
ATOM     25  H   UNL d   1       3.348  -1.295  -1.659  0.00  0.00     0.167 HD
ENDBRANCH  22  24
ENDBRANCH   3  22
TORSDOF 6
