REMARK  4 active torsions:
REMARK  status: ('A' for Active; 'I' for Inactive)
REMARK    1  A    between atoms: C_10  and  N_2 
REMARK    2  A    between atoms: O_7  and  C_3 
REMARK    3  A    between atoms: C_8  and  O_7 
REMARK    4  A    between atoms: C_12  and  C_8 
ROOT
ATOM      1  C   UNL d   1       2.476  -0.773   0.101  0.00  0.00     0.255 A 
ATOM      2  N   UNL d   1       1.242  -1.425   0.079  0.00  0.00    -0.278 N 
ATOM      3  C   UNL d   1       1.326   1.410   0.099  0.00  0.00     0.097 A 
ATOM      4  C   UNL d   1       2.462   0.707   0.116  0.00  0.00     0.113 A 
ATOM      5  C   UNL d   1       0.001  -0.702   0.044  0.00  0.00     0.056 A 
ATOM      6  C   UNL d   1       0.033   0.711   0.015  0.00  0.00     0.025 A 
ATOM      7  O   UNL d   1       3.577  -1.320   0.067  0.00  0.00    -0.268 OA
ATOM      8  C   UNL d   1      -1.254  -1.340   0.085  0.00  0.00     0.031 A 
ATOM      9  C   UNL d   1      -1.171   1.434  -0.056  0.00  0.00     0.016 A 
ATOM     10  C   UNL d   1      -2.442  -0.609   0.006  0.00  0.00     0.002 A 
ATOM     11  C   UNL d   1      -2.400   0.776  -0.079  0.00  0.00     0.001 A 
ENDROOT
BRANCH   3  12
ATOM     12  O   UNL d   1       1.299   2.825   0.080  0.00  0.00    -0.274 OA
BRANCH  12  13
ATOM     13  C   UNL d   1       1.906   3.458   1.132  0.00  0.00     0.298 C 
ATOM     14  O   UNL d   1       2.416   2.937   2.114  0.00  0.00    -0.259 OA
BRANCH  13  15
ATOM     15  C   UNL d   1       1.780   4.933   0.983  0.00  0.00     0.039 A 
ATOM     16  C   UNL d   1       1.801   5.561  -0.268  0.00  0.00     0.017 A 
ATOM     17  C   UNL d   1       1.683   6.953  -0.353  0.00  0.00     0.001 A 
ATOM     18  C   UNL d   1       1.544   7.721   0.805  0.00  0.00     0.000 A 
ATOM     19  C   UNL d   1       1.539   7.099   2.054  0.00  0.00     0.001 A 
ATOM     20  C   UNL d   1       1.665   5.712   2.144  0.00  0.00     0.017 A 
ENDBRANCH  13  15
ENDBRANCH  12  13
ENDBRANCH   3  12
BRANCH   2  21
ATOM     21  C   UNL d   1       1.243  -2.854   0.033  0.00  0.00     0.043 A 
ATOM     22  C   UNL d   1       1.912  -3.579   1.030  0.00  0.00     0.030 A 
ATOM     23  C   UNL d   1       1.994  -4.972   0.967  0.00  0.00     0.002 A 
ATOM     24  C   UNL d   1       1.425  -5.656  -0.105  0.00  0.00     0.000 A 
ATOM     25  C   UNL d   1       0.767  -4.947  -1.111  0.00  0.00     0.002 A 
ATOM     26  C   UNL d   1       0.675  -3.553  -1.043  0.00  0.00     0.030 A 
ENDBRANCH   2  21
TORSDOF 4
