REMARK  5 active torsions:
REMARK  status: ('A' for Active; 'I' for Inactive)
REMARK    1  A    between atoms: C_8  and  C_2 
REMARK    2  A    between atoms: S_10  and  C_3 
REMARK    3  A    between atoms: C_7  and  C_16 
REMARK       I    between atoms: N_9  and  C_7 
REMARK    4  A    between atoms: C_13  and  N_9 
REMARK    5  A    between atoms: C_16  and  S_10 
ROOT
ATOM      1  S   UNL d   1      -0.418  -3.241   4.331  0.00  0.00    -0.076 SA
ATOM      2  C   UNL d   1       0.603  -4.449   5.217  0.00  0.00     0.194 C 
ATOM      3  C   UNL d   1       0.800  -3.267   3.078  0.00  0.00     0.120 C 
ATOM      4  N   UNL d   1       1.947  -3.820   3.360  0.00  0.00    -0.308 N 
ATOM      5  HN  UNL d   1       2.728  -3.922   2.711  1.00  0.00     0.182 HD
ATOM      6  N   UNL d   1       1.939  -4.239   4.650  0.00  0.00    -0.219 NA
ATOM      7  H   UNL d   1       2.567  -5.011   4.872  0.00  0.00     0.148 HD
ENDROOT
BRANCH   3   8
ATOM      8  S   UNL d   1       0.424  -2.646   1.510  0.00  0.00    -0.095 SA
BRANCH   8   9
ATOM      9  C   UNL d   1       1.588  -3.619   0.504  0.00  0.00     0.184 C 
BRANCH   9  10
ATOM     10  C   UNL d   1       1.187  -5.090   0.473  0.00  0.00     0.231 C 
ATOM     11  N   UNL d   1       1.784  -5.857   1.464  0.00  0.00    -0.326 N 
ATOM     12  H   UNL d   1       2.252  -5.339   2.208  0.00  0.00     0.169 HD
ATOM     13  O   UNL d   1       0.375  -5.497  -0.355  0.00  0.00    -0.272 OA
BRANCH  11  14
ATOM     14  C   UNL d   1       1.574  -7.234   1.693  0.00  0.00     0.036 A 
ATOM     15  C   UNL d   1       1.025  -8.096   0.742  0.00  0.00     0.053 A 
ATOM     16  C   UNL d   1       0.792  -9.435   1.059  0.00  0.00     0.036 A 
ATOM     17 CL   UNL d   1       0.111 -10.487  -0.120  0.00  0.00    -0.084 Cl
ATOM     18  C   UNL d   1       1.105  -9.931   2.323  0.00  0.00     0.024 A 
ATOM     19  C   UNL d   1       1.684  -9.086   3.267  0.00  0.00     0.004 A 
ATOM     20  C   UNL d   1       1.933  -7.749   2.947  0.00  0.00     0.029 A 
ENDBRANCH  11  14
ENDBRANCH   9  10
ENDBRANCH   8   9
ENDBRANCH   3   8
BRANCH   2  21
ATOM     21  C   UNL d   1       0.636  -4.417   6.725  0.00  0.00     0.038 A 
ATOM     22  N   UNL d   1       0.816  -5.629   7.325  0.00  0.00    -0.367 N 
ATOM     23  C   UNL d   1       0.974  -5.655   8.665  0.00  0.00     0.088 A 
ATOM     24  HN  UNL d   1       0.830  -6.489   6.777  1.00  0.00     0.165 HD
ATOM     25  C   UNL d   1       0.978  -4.523   9.458  0.00  0.00     0.017 A 
ATOM     26  C   UNL d   1       0.803  -3.291   8.840  0.00  0.00     0.003 A 
ATOM     27  C   UNL d   1       0.635  -3.231   7.458  0.00  0.00     0.027 A 
ENDBRANCH   2  21
TORSDOF 5
