REMARK  11 active torsions:
REMARK  status: ('A' for Active; 'I' for Inactive)
REMARK    1  A    between atoms: C_2  and  C_1 
REMARK    2  A    between atoms: C_3  and  C_1 
REMARK    3  A    between atoms: C_4  and  C_1 
REMARK    4  A    between atoms: C_5  and  C_1 
REMARK    5  A    between atoms: O_14  and  C_2 
REMARK    6  A    between atoms: C_13  and  C_3 
REMARK    7  A    between atoms: C_12  and  C_4 
REMARK    8  A    between atoms: C_6  and  C_12 
REMARK    9  A    between atoms: O_16  and  C_6 
REMARK   10  A    between atoms: C_7  and  C_13 
REMARK   11  A    between atoms: O_15  and  C_7 
ROOT
ATOM      1  C   UNL d   1       0.993   0.079  -0.067  0.00  0.00     0.108 C 
ENDROOT
BRANCH   1   2
ATOM      2  C   UNL d   1       0.397  -0.341  -1.414  0.00  0.00     0.274 C 
ATOM      3  O   UNL d   1      -0.358  -1.295  -1.575  0.00  0.00    -0.264 OA
BRANCH   2   4
ATOM      4  O   UNL d   1       0.728   0.543  -2.398  0.00  0.00    -0.326 OA
ATOM      5  C   UNL d   1       0.144   0.241  -3.668  0.00  0.00     0.213 C 
ENDBRANCH   2   4
ENDBRANCH   1   2
BRANCH   1   6
ATOM      6  C   UNL d   1       0.599  -0.929   1.048  0.00  0.00     0.037 C 
BRANCH   6   7
ATOM      7  C   UNL d   1       1.090  -2.377   0.881  0.00  0.00     0.113 C 
BRANCH   7   8
ATOM      8  C   UNL d   1       0.586  -3.247   2.016  0.00  0.00     0.258 C 
ATOM      9  O   UNL d   1      -0.086  -2.854   2.958  0.00  0.00    -0.265 OA
BRANCH   8  10
ATOM     10  O   UNL d   1       1.011  -4.529   1.836  0.00  0.00    -0.326 OA
ATOM     11  C   UNL d   1       0.605  -5.426   2.871  0.00  0.00     0.213 C 
ENDBRANCH   8  10
ENDBRANCH   7   8
ENDBRANCH   6   7
ENDBRANCH   1   6
BRANCH   1  12
ATOM     12  C   UNL d   1       0.408   1.483   0.271  0.00  0.00     0.037 C 
BRANCH  12  13
ATOM     13  C   UNL d   1      -1.123   1.587   0.339  0.00  0.00     0.113 C 
BRANCH  13  14
ATOM     14  C   UNL d   1      -1.544   3.003   0.657  0.00  0.00     0.258 C 
ATOM     15  O   UNL d   1      -0.779   3.946   0.804  0.00  0.00    -0.265 OA
BRANCH  14  16
ATOM     16  O   UNL d   1      -2.899   3.070   0.762  0.00  0.00    -0.326 OA
ATOM     17  C   UNL d   1      -3.384   4.374   1.085  0.00  0.00     0.213 C 
ENDBRANCH  14  16
ENDBRANCH  13  14
ENDBRANCH  12  13
ENDBRANCH   1  12
BRANCH   1  18
ATOM     18  C   UNL d   1       2.529   0.121  -0.181  0.00  0.00     0.141 C 
ATOM     19  O   UNL d   1       3.124  -0.664  -0.928  0.00  0.00    -0.297 OA
ATOM     20  C   UNL d   1       3.353   1.035   0.700  0.00  0.00     0.092 C 
ENDBRANCH   1  18
TORSDOF 11
