REMARK  7 active torsions:
REMARK  status: ('A' for Active; 'I' for Inactive)
REMARK    1  A    between atoms: N_9  and  C_1 
REMARK    2  A    between atoms: N_14  and  C_1 
REMARK    3  A    between atoms: C_2  and  N_10 
REMARK    4  A    between atoms: C_3  and  C_4 
REMARK    5  A    between atoms: C_5  and  C_11 
REMARK    6  A    between atoms: C_6  and  C_12 
REMARK    7  A    between atoms: C_16  and  N_14 
ROOT
ATOM      1  N   UNL d   1       0.355  -0.345   1.122  0.00  0.00    -0.356 N 
ATOM      2  N   UNL d   1      -1.700  -1.030   3.087  0.00  0.00    -0.364 N 
ATOM      3  C   UNL d   1      -0.631  -1.417   0.877  0.00  0.00     0.145 C 
ATOM      4  C   UNL d   1      -1.962  -1.287   1.658  0.00  0.00     0.144 C 
ATOM      5  C   UNL d   1      -0.007   0.746   3.355  0.00  0.00     0.040 C 
ATOM      6  C   UNL d   1       0.840  -0.171   2.490  0.00  0.00     0.127 C 
ATOM      7  C   UNL d   1      -1.487   0.388   3.405  0.00  0.00     0.126 C 
ENDROOT
BRANCH   1   8
ATOM      8  C   UNL d   1       1.007   0.260   0.071  0.00  0.00     0.174 C 
ATOM      9  S   UNL d   1       0.973   1.912  -0.181  0.00  0.00    -0.041 SA
BRANCH   8  10
ATOM     10  N   UNL d   1       1.547  -0.556  -0.883  0.00  0.00    -0.333 N 
ATOM     11  H   UNL d   1       1.635  -0.123  -1.797  0.00  0.00     0.168 HD
BRANCH  10  12
ATOM     12  C   UNL d   1       2.415  -1.655  -0.672  0.00  0.00     0.035 A 
ATOM     13  C   UNL d   1       2.661  -2.495  -1.762  0.00  0.00     0.045 A 
ATOM     14  C   UNL d   1       3.583  -3.550  -1.665  0.00  0.00     0.050 A 
ATOM     15  C   UNL d   1       4.287  -3.739  -0.467  0.00  0.00     0.032 A 
ATOM     16  C   UNL d   1       4.091  -2.877   0.621  0.00  0.00     0.050 A 
ATOM     17  C   UNL d   1       3.131  -1.852   0.513  0.00  0.00     0.045 A 
BRANCH  14  18
ATOM     18  C   UNL d   1       3.827  -4.436  -2.862  0.00  0.00     0.417 C 
ATOM     19  F   UNL d   1       4.831  -5.335  -2.676  0.00  0.00    -0.166 F 
ATOM     20  F   UNL d   1       2.728  -5.162  -3.203  0.00  0.00    -0.166 F 
ATOM     21  F   UNL d   1       4.165  -3.721  -3.970  0.00  0.00    -0.166 F 
ENDBRANCH  14  18
BRANCH  16  22
ATOM     22  C   UNL d   1       4.941  -2.988   1.867  0.00  0.00     0.417 C 
ATOM     23  F   UNL d   1       5.907  -3.945   1.779  0.00  0.00    -0.166 F 
ATOM     24  F   UNL d   1       5.596  -1.828   2.148  0.00  0.00    -0.166 F 
ATOM     25  F   UNL d   1       4.215  -3.289   2.977  0.00  0.00    -0.166 F 
ENDBRANCH  16  22
ENDBRANCH  10  12
ENDBRANCH   8  10
ENDBRANCH   1   8
BRANCH   2  26
ATOM     26  C   UNL d   1      -2.451  -1.746   4.023  0.00  0.00     0.125 A 
ATOM     27  N   UNL d   1      -3.672  -2.217   3.656  0.00  0.00    -0.350 N 
ATOM     28  C   UNL d   1      -4.394  -2.932   4.556  0.00  0.00     0.106 A 
ATOM     29  HN  UNL d   1      -4.039  -2.036   2.721  1.00  0.00     0.166 HD
ATOM     30  C   UNL d   1      -3.970  -3.226   5.840  0.00  0.00     0.065 A 
ATOM     31  C   UNL d   1      -2.715  -2.754   6.217  0.00  0.00     0.045 A 
ATOM     32  C   UNL d   1      -1.948  -2.023   5.311  0.00  0.00     0.078 A 
ATOM     33 CL   UNL d   1      -0.361  -1.581   5.838  0.00  0.00    -0.080 Cl
BRANCH  30  34
ATOM     34  C   UNL d   1      -4.827  -4.032   6.762  0.00  0.00     0.418 C 
ATOM     35  F   UNL d   1      -4.269  -4.229   7.986  0.00  0.00    -0.166 F 
ATOM     36  F   UNL d   1      -6.033  -3.449   6.993  0.00  0.00    -0.166 F 
ATOM     37  F   UNL d   1      -5.096  -5.272   6.272  0.00  0.00    -0.166 F 
ENDBRANCH  30  34
ENDBRANCH   2  26
TORSDOF 7
