REMARK  6 active torsions:
REMARK  status: ('A' for Active; 'I' for Inactive)
REMARK    1  A    between atoms: C_6  and  C_3 
REMARK    2  A    between atoms: N_10  and  C_4 
REMARK    3  A    between atoms: C_9  and  C_5 
REMARK    4  A    between atoms: O_13  and  C_9 
REMARK    5  A    between atoms: C_12  and  C_21 
REMARK    6  A    between atoms: C_21  and  O_13 
ROOT
ATOM      1  N   UNL d   1       1.300   0.460   0.094  0.00  0.00    -0.185 N 
ATOM      2  HN  UNL d   1       2.227   0.887   0.095  1.00  0.00     0.184 HD
ATOM      3  C   UNL d   1       1.181  -0.905   0.089  0.00  0.00     0.150 A 
ATOM      4  C   UNL d   1       0.211   1.236   0.098  0.00  0.00     0.680 A 
ATOM      5  C   UNL d   1      -0.058  -1.519   0.089  0.00  0.00     0.087 A 
ATOM      6  N   UNL d   1      -1.016   0.701   0.099  0.00  0.00    -0.201 N 
ATOM      7  HN  UNL d   1      -1.846   1.294   0.103  1.00  0.00     0.183 HD
ATOM      8  C   UNL d   1      -1.127  -0.650   0.096  0.00  0.00     0.126 A 
ENDROOT
BRANCH   5   9
ATOM      9  C   UNL d   1      -0.237  -2.983   0.047  0.00  0.00     0.297 C 
ATOM     10  O   UNL d   1       0.694  -3.764   0.136  0.00  0.00    -0.259 OA
BRANCH   9  11
ATOM     11  O   UNL d   1      -1.529  -3.320  -0.183  0.00  0.00    -0.317 OA
BRANCH  11  12
ATOM     12  C   UNL d   1      -1.741  -4.688  -0.577  0.00  0.00     0.183 C 
BRANCH  12  13
ATOM     13  C   UNL d   1      -2.327  -5.491   0.541  0.00  0.00     0.010 A 
ATOM     14  C   UNL d   1      -1.538  -5.887   1.764  0.00  0.00     0.007 A 
ATOM     15  C   UNL d   1      -1.869  -6.919   0.723  0.00  0.00     0.007 A 
ENDBRANCH  12  13
ENDBRANCH  11  12
ENDBRANCH   9  11
ENDBRANCH   5   9
BRANCH   3  16
ATOM     16  C   UNL d   1       2.481  -1.689   0.068  0.00  0.00     0.434 C 
ATOM     17  F   UNL d   1       3.585  -0.878   0.030  0.00  0.00    -0.165 F 
ATOM     18  F   UNL d   1       2.666  -2.468   1.171  0.00  0.00    -0.165 F 
ATOM     19  F   UNL d   1       2.610  -2.490  -1.027  0.00  0.00    -0.165 F 
ENDBRANCH   3  16
BRANCH   4  20
ATOM     20  N   UNL d   1       0.375   2.617   0.170  0.00  0.00    -0.216 N 
ATOM     21  C   UNL d   1       1.682   3.112  -0.298  0.00  0.00     0.151 C 
ATOM     22  C   UNL d   1       1.993   4.504   0.261  0.00  0.00     0.094 C 
ATOM     23  S   UNL d   1       0.758   5.745  -0.239  0.00  0.00    -0.166 SA
ATOM     24  C   UNL d   1      -0.718   4.840   0.331  0.00  0.00     0.094 C 
ATOM     25  C   UNL d   1      -0.792   3.416  -0.233  0.00  0.00     0.151 C 
ENDBRANCH   4  20
TORSDOF 6
