REMARK  7 active torsions:
REMARK  status: ('A' for Active; 'I' for Inactive)
REMARK    1  A    between atoms: N_2  and  C_1 
REMARK    2  A    between atoms: S_9  and  C_3 
REMARK    3  A    between atoms: C_10  and  C_4 
REMARK       I    between atoms: C_6  and  N_11 
REMARK       I    between atoms: N_14  and  C_6 
REMARK    4  A    between atoms: C_12  and  S_9 
REMARK    5  A    between atoms: O_21  and  C_10 
REMARK    6  A    between atoms: N_11  and  C_13 
REMARK    7  A    between atoms: C_20  and  N_14 
ROOT
ATOM      1  C   UNL d   1      -0.815   4.138  -0.893  0.00  0.00     0.028 C 
ATOM      2  C   UNL d   1       0.352   4.109  -1.692  0.00  0.00     0.033 C 
ATOM      3  C   UNL d   1      -1.025   5.293  -0.145  0.00  0.00     0.021 C 
ATOM      4  C   UNL d   1       1.153   5.250  -1.869  0.00  0.00     0.025 C 
ATOM      5  C   UNL d   1      -0.126   6.370  -0.183  0.00  0.00     0.001 C 
ATOM      6  C   UNL d   1       0.925   6.373  -1.091  0.00  0.00     0.002 C 
ENDROOT
BRANCH   1   7
ATOM      7  S   UNL d   1      -2.175   3.000  -1.238  0.00  0.00    -0.068 SA
BRANCH   7   8
ATOM      8  C   UNL d   1      -2.432   1.926   0.156  0.00  0.00     0.108 A 
ATOM      9  C   UNL d   1      -2.932   2.294   1.397  0.00  0.00     0.137 A 
ATOM     10  C   UNL d   1      -3.169   1.354   2.407  0.00  0.00     0.058 A 
ATOM     11  C   UNL d   1      -2.993   0.006   2.133  0.00  0.00     0.057 A 
ATOM     12  C   UNL d   1      -2.589  -0.327   0.847  0.00  0.00     0.106 A 
ATOM     13  N   UNL d   1      -2.303   0.598  -0.128  0.00  0.00    -0.357 N 
ATOM     14  HN  UNL d   1      -1.998   0.295  -1.053  1.00  0.00     0.166 HD
BRANCH   9  15
ATOM     15  N   UNL d   1      -3.427   3.615   1.650  0.00  0.00    -0.113 N 
ATOM     16  O   UNL d   1      -2.800   4.299   2.475  0.00  0.00    -0.532 OA
ATOM     17  O   UNL d   1      -4.490   3.932   1.105  0.00  0.00    -0.532 OA
ENDBRANCH   9  15
BRANCH  11  18
ATOM     18  C   UNL d   1      -3.254  -0.964   3.213  0.00  0.00     0.294 C 
ATOM     19  O   UNL d   1      -3.555  -0.605   4.342  0.00  0.00    -0.259 OA
BRANCH  18  20
ATOM     20  O   UNL d   1      -3.104  -2.246   2.807  0.00  0.00    -0.322 OA
ATOM     21  C   UNL d   1      -3.259  -3.190   3.881  0.00  0.00     0.213 C 
ENDBRANCH  18  20
ENDBRANCH  11  18
ENDBRANCH   7   8
ENDBRANCH   1   7
BRANCH   2  22
ATOM     22  N   UNL d   1       0.885   2.900  -2.195  0.00  0.00    -0.214 NA
ATOM     23  C   UNL d   1       1.537   2.097  -1.241  0.00  0.00     0.281 C 
ATOM     24  N   UNL d   1       2.816   1.848  -1.699  0.00  0.00    -0.215 NA
ATOM     25  O   UNL d   1       1.084   1.762  -0.166  0.00  0.00    -0.260 OA
ATOM     26  H   UNL d   1       3.210   2.735  -1.991  0.00  0.00     0.138 HD
ATOM     27  H   UNL d   1       1.466   2.996  -3.016  0.00  0.00     0.138 HD
BRANCH  24  28
ATOM     28  C   UNL d   1       3.836   1.127  -1.061  0.00  0.00     0.016 A 
ATOM     29  C   UNL d   1       4.129   1.247   0.298  0.00  0.00     0.025 A 
ATOM     30  C   UNL d   1       5.422   0.940   0.736  0.00  0.00     0.025 A 
ATOM     31  C   UNL d   1       6.389   0.500  -0.176  0.00  0.00     0.034 A 
ATOM     32  C   UNL d   1       6.049   0.275  -1.504  0.00  0.00     0.025 A 
ATOM     33 CL   UNL d   1       8.029   0.336   0.315  0.00  0.00    -0.084 Cl
ATOM     34  C   UNL d   1       4.771   0.584  -1.944  0.00  0.00     0.025 A 
ENDBRANCH  24  28
ENDBRANCH   2  22
TORSDOF 7
