REMARK  1 active torsions:
REMARK  status: ('A' for Active; 'I' for Inactive)
REMARK    1  A    between atoms: C_11  and  C_5 
ROOT
ATOM      1  C   UNL d   1       1.877   0.496   0.075  0.00  0.00     0.074 C 
ATOM      2  C   UNL d   1       0.839   1.575  -0.001  0.00  0.00     0.263 C 
ATOM      3  S   UNL d   1       1.448  -1.175   0.157  0.00  0.00    -0.083 SA
ATOM      4  N   UNL d   1      -0.475   1.261  -0.185  0.00  0.00    -0.321 N 
ATOM      5  C   UNL d   1       3.164   0.903   0.083  0.00  0.00     0.036 C 
ATOM      6  C   UNL d   1      -1.045  -0.010  -0.289  0.00  0.00     0.052 A 
ATOM      7  C   UNL d   1      -0.289  -1.173  -0.159  0.00  0.00     0.032 A 
ATOM      8  O   UNL d   1       1.141   2.769   0.071  0.00  0.00    -0.267 OA
ATOM      9  C   UNL d   1      -2.424  -0.091  -0.521  0.00  0.00     0.031 A 
ATOM     10  C   UNL d   1      -0.930  -2.417  -0.261  0.00  0.00     0.021 A 
ATOM     11  C   UNL d   1      -3.051  -1.333  -0.622  0.00  0.00     0.002 A 
ATOM     12  C   UNL d   1      -2.303  -2.499  -0.491  0.00  0.00     0.002 A 
ATOM     13  H   UNL d   1      -1.075   2.072  -0.257  0.00  0.00     0.169 HD
ENDROOT
BRANCH   5  14
ATOM     14  C   UNL d   1       4.333   0.015   0.100  0.00  0.00    -0.032 A 
ATOM     15  C   UNL d   1       4.874  -0.425   1.315  0.00  0.00     0.051 A 
ATOM     16  C   UNL d   1       5.920  -1.324   1.262  0.00  0.00     0.105 A 
ATOM     17  O   UNL d   1       6.548  -1.877   2.334  0.00  0.00    -0.323 OA
ATOM     18  C   UNL d   1       6.432  -1.774   0.067  0.00  0.00     0.105 A 
ATOM     19  C   UNL d   1       7.484  -2.757   1.677  0.00  0.00     0.352 A 
ATOM     20  O   UNL d   1       7.442  -2.668   0.238  0.00  0.00    -0.323 OA
ATOM     21  C   UNL d   1       5.935  -1.346  -1.145  0.00  0.00     0.040 A 
ATOM     22  C   UNL d   1       4.871  -0.440  -1.124  0.00  0.00     0.014 A 
ENDBRANCH   5  14
TORSDOF 1
