REMARK  5 active torsions:
REMARK  status: ('A' for Active; 'I' for Inactive)
REMARK    1  A    between atoms: C_2  and  C_1 
REMARK       I    between atoms: N_6  and  C_1 
REMARK    2  A    between atoms: N_3  and  N_6 
REMARK    3  A    between atoms: C_5  and  C_9 
REMARK    4  A    between atoms: C_14  and  C_10 
REMARK    5  A    between atoms: O_12  and  C_14 
ROOT
ATOM      1  C   UNL d   1       0.904  -0.100  -0.265  0.00  0.00     0.270 C 
ATOM      2  N   UNL d   1       0.153   0.982  -0.692  0.00  0.00    -0.266 N 
ATOM      3  O   UNL d   1       2.079  -0.291  -0.576  0.00  0.00    -0.266 OA
ATOM      4  H   UNL d   1      -0.715   1.196  -0.221  0.00  0.00     0.190 HD
ENDROOT
BRANCH   2   5
ATOM      5  N   UNL d   1       0.746   1.971  -1.421  0.00  0.00    -0.308 N 
ATOM      6  C   UNL d   1       0.021   3.028  -1.614  0.00  0.00     0.120 C 
ATOM      7  HN  UNL d   1       1.694   1.885  -1.788  1.00  0.00     0.186 HD
BRANCH   6   8
ATOM      8  C   UNL d   1       0.565   4.190  -2.348  0.00  0.00     0.002 A 
ATOM      9  C   UNL d   1      -0.215   5.311  -2.654  0.00  0.00     0.045 A 
ATOM     10 CL   UNL d   1      -1.879   5.449  -2.212  0.00  0.00    -0.083 Cl
ATOM     11  C   UNL d   1       0.355   6.381  -3.354  0.00  0.00     0.024 A 
ATOM     12  C   UNL d   1       1.696   6.339  -3.740  0.00  0.00     0.002 A 
ATOM     13  C   UNL d   1       2.477   5.229  -3.427  0.00  0.00     0.001 A 
ATOM     14  C   UNL d   1       1.914   4.159  -2.734  0.00  0.00     0.014 A 
ENDBRANCH   6   8
ENDBRANCH   2   5
BRANCH   1  15
ATOM     15  C   UNL d   1       0.194  -1.135   0.565  0.00  0.00     0.042 A 
ATOM     16  C   UNL d   1      -0.876  -0.938   1.466  0.00  0.00    -0.019 A 
ATOM     17  C   UNL d   1      -1.444  -2.076   2.088  0.00  0.00     0.010 A 
ATOM     18  C   UNL d   1      -0.956  -3.362   1.865  0.00  0.00     0.001 A 
ATOM     19  C   UNL d   1       0.118  -3.549   1.009  0.00  0.00     0.001 A 
ATOM     20  C   UNL d   1       0.685  -2.449   0.369  0.00  0.00     0.018 A 
BRANCH  16  21
ATOM     21  C   UNL d   1      -1.528   0.374   1.825  0.00  0.00     0.203 C 
BRANCH  21  22
ATOM     22  O   UNL d   1      -0.632   1.466   1.777  0.00  0.00    -0.396 OA
ATOM     23  H   UNL d   1      -0.538   1.815   2.681  0.00  0.00     0.209 HD
ENDBRANCH  21  22
ENDBRANCH  16  21
ENDBRANCH   1  15
TORSDOF 5
