REMARK  3 active torsions:
REMARK  status: ('A' for Active; 'I' for Inactive)
REMARK    1  A    between atoms: C_2  and  S_1 
REMARK    2  A    between atoms: N_7  and  S_1 
REMARK    3  A    between atoms: C_14  and  N_7 
ROOT
ATOM      1  N   UNL d   1      -6.138  -1.866   1.698  0.00  0.00    -0.191 NA
ATOM      2  C   UNL d   1      -5.085  -1.378   1.667  0.00  0.00     0.099 C 
ATOM      3  C   UNL d   1      -1.228   0.329   1.405  0.00  0.00     0.022 A 
ATOM      4  C   UNL d   1      -3.785  -0.782   1.603  0.00  0.00     0.044 A 
ATOM      5  C   UNL d   1      -1.471  -0.704   2.311  0.00  0.00     0.026 A 
ATOM      6  C   UNL d   1      -2.262   0.822   0.611  0.00  0.00     0.026 A 
ATOM      7  C   UNL d   1      -2.751  -1.254   2.418  0.00  0.00     0.024 A 
ATOM      8  C   UNL d   1      -3.538   0.263   0.705  0.00  0.00     0.024 A 
ENDROOT
BRANCH   3   9
ATOM      9  N   UNL d   1       0.103   0.803   1.220  0.00  0.00    -0.181 NA
ATOM     10  H   UNL d   1       0.200   1.793   0.993  0.00  0.00     0.146 HD
BRANCH   9  11
ATOM     11  S   UNL d   1       1.098  -0.129   0.199  0.00  0.00     0.253 S 
ATOM     12  O   UNL d   1       2.383   0.536   0.150  0.00  0.00    -0.205 OA
ATOM     13  O   UNL d   1       0.980  -1.521   0.570  0.00  0.00    -0.205 OA
BRANCH  11  14
ATOM     14  C   UNL d   1       0.470  -0.012  -1.483  0.00  0.00     0.122 A 
ATOM     15  S   UNL d   1       0.304   1.591  -2.060  0.00  0.00    -0.076 SA
ATOM     16  C   UNL d   1      -0.263   1.084  -3.597  0.00  0.00     0.017 A 
ATOM     17  C   UNL d   1      -0.623   1.912  -4.681  0.00  0.00     0.021 A 
ATOM     18  C   UNL d   1      -0.331  -0.308  -3.678  0.00  0.00    -0.009 A 
ATOM     19  C   UNL d   1      -1.056   1.321  -5.870  0.00  0.00     0.025 A 
ATOM     20  C   UNL d   1      -1.137  -0.058  -5.974  0.00  0.00     0.035 A 
ATOM     21  C   UNL d   1      -0.785  -0.876  -4.898  0.00  0.00     0.037 A 
ATOM     22 CL   UNL d   1      -1.667  -0.775  -7.447  0.00  0.00    -0.084 Cl
ATOM     23  C   UNL d   1       0.115  -0.945  -2.450  0.00  0.00    -0.021 A 
ATOM     24  C   UNL d   1       0.180  -2.433  -2.293  0.00  0.00     0.051 C 
ENDBRANCH  11  14
ENDBRANCH   9  11
ENDBRANCH   3   9
TORSDOF 3
