REMARK  5 active torsions:
REMARK  status: ('A' for Active; 'I' for Inactive)
REMARK       I    between atoms: N_2  and  C_1 
REMARK       I    between atoms: N_4  and  C_1 
REMARK    1  A    between atoms: C_3  and  N_2 
REMARK    2  A    between atoms: C_10  and  N_4 
REMARK    3  A    between atoms: C_18  and  C_11 
REMARK    4  A    between atoms: C_19  and  C_18 
REMARK    5  A    between atoms: C_20  and  C_19 
ROOT
ATOM      1  C   UNL d   1       1.026   0.054  -0.140  0.00  0.00     0.321 C 
ATOM      2  N   UNL d   1       2.364  -0.115   0.159  0.00  0.00    -0.338 N 
ATOM      3  N   UNL d   1       0.249  -0.970   0.355  0.00  0.00    -0.309 N 
ATOM      4  O   UNL d   1       0.633   1.030  -0.771  0.00  0.00    -0.247 OA
ATOM      5  H   UNL d   1       2.674  -1.048   0.380  0.00  0.00     0.164 HD
ATOM      6  H   UNL d   1       0.723  -1.677   0.894  0.00  0.00     0.170 HD
ENDROOT
BRANCH   2   7
ATOM      7  C   UNL d   1       3.338   0.787  -0.445  0.00  0.00     0.094 C 
ATOM      8  C   UNL d   1       3.705   0.382  -1.892  0.00  0.00     0.064 C 
ATOM      9  C   UNL d   1       5.085   0.949  -2.015  0.00  0.00    -0.050 A 
ATOM     10  C   UNL d   1       5.813   1.171  -3.172  0.00  0.00     0.007 A 
ATOM     11  C   UNL d   1       5.628   1.225  -0.755  0.00  0.00    -0.050 A 
ATOM     12  C   UNL d   1       7.103   1.694  -3.052  0.00  0.00     0.001 A 
ATOM     13  C   UNL d   1       7.646   1.973  -1.789  0.00  0.00     0.001 A 
ATOM     14  C   UNL d   1       6.910   1.732  -0.627  0.00  0.00     0.007 A 
ATOM     15  C   UNL d   1       4.665   0.867   0.335  0.00  0.00     0.064 C 
ENDBRANCH   2   7
BRANCH   3  16
ATOM     16  C   UNL d   1      -1.154  -1.091   0.250  0.00  0.00     0.036 A 
ATOM     17  C   UNL d   1      -1.966  -0.152  -0.388  0.00  0.00     0.030 A 
ATOM     18  C   UNL d   1      -3.355  -0.297  -0.406  0.00  0.00     0.009 A 
ATOM     19  C   UNL d   1      -3.966  -1.391   0.211  0.00  0.00    -0.058 A 
ATOM     20  C   UNL d   1      -3.153  -2.363   0.807  0.00  0.00     0.009 A 
ATOM     21  C   UNL d   1      -1.761  -2.209   0.834  0.00  0.00     0.030 A 
BRANCH  19  22
ATOM     22  C   UNL d   1      -5.471  -1.490   0.246  0.00  0.00     0.038 C 
BRANCH  22  23
ATOM     23  C   UNL d   1      -6.057  -1.540   1.663  0.00  0.00     0.004 C 
BRANCH  23  24
ATOM     24  C   UNL d   1      -5.740  -0.296   2.498  0.00  0.00    -0.004 C 
ATOM     25  C   UNL d   1      -6.340  -0.406   3.892  0.00  0.00     0.005 C 
ENDBRANCH  23  24
ENDBRANCH  22  23
ENDBRANCH  19  22
ENDBRANCH   3  16
TORSDOF 5
