REMARK  2 active torsions:
REMARK  status: ('A' for Active; 'I' for Inactive)
REMARK    1  A    between atoms: C_6  and  N_1 
REMARK    2  A    between atoms: O_9  and  C_6 
ROOT
ATOM      1  N   UNL d   1       0.024  -1.662   0.034  0.00  0.00    -0.324 N 
ATOM      2  C   UNL d   1       1.161  -0.873   0.046  0.00  0.00     0.048 A 
ATOM      3  C   UNL d   1      -1.116  -0.878   0.020  0.00  0.00     0.048 A 
ATOM      4  C   UNL d   1      -0.699   0.453   0.016  0.00  0.00     0.003 A 
ATOM      5  C   UNL d   1       0.729   0.457   0.023  0.00  0.00     0.003 A 
ATOM      6  C   UNL d   1      -2.477  -1.229   0.005  0.00  0.00     0.030 A 
ATOM      7  C   UNL d   1       2.529  -1.200   0.064  0.00  0.00     0.030 A 
ATOM      8  C   UNL d   1       1.694   1.489   0.007  0.00  0.00     0.014 A 
ATOM      9  C   UNL d   1      -1.675   1.473  -0.002  0.00  0.00     0.014 A 
ATOM     10  C   UNL d   1      -3.031   1.134  -0.011  0.00  0.00     0.001 A 
ATOM     11  C   UNL d   1       3.053   1.170   0.015  0.00  0.00     0.001 A 
ATOM     12  C   UNL d   1       3.462  -0.159   0.046  0.00  0.00     0.002 A 
ATOM     13  C   UNL d   1      -3.424  -0.201  -0.008  0.00  0.00     0.002 A 
ENDROOT
BRANCH   1  14
ATOM     14  C   UNL d   1       0.012  -3.117  -0.027  0.00  0.00     0.296 C 
BRANCH  14  15
ATOM     15  O   UNL d   1      -0.642  -3.650   1.117  0.00  0.00    -0.382 OA
ATOM     16  H   UNL d   1      -0.248  -3.216   1.893  0.00  0.00     0.211 HD
ENDBRANCH  14  15
ENDBRANCH   1  14
TORSDOF 2
