REMARK  4 active torsions:
REMARK  status: ('A' for Active; 'I' for Inactive)
REMARK    1  A    between atoms: S_2  and  C_1 
REMARK    2  A    between atoms: N_11  and  S_2 
REMARK    3  A    between atoms: C_7  and  C_15 
REMARK    4  A    between atoms: C_15  and  N_11 
ROOT
ATOM      1  N   UNL d   1       1.250  -3.827   1.389  0.00  0.00    -0.311 N 
ATOM      2  H   UNL d   1       1.478  -4.818   1.305  0.00  0.00     0.172 HD
ENDROOT
BRANCH   1   3
ATOM      3  S   UNL d   1       1.561  -2.979  -0.027  0.00  0.00     0.261 S 
ATOM      4  O   UNL d   1       1.220  -1.591   0.189  0.00  0.00    -0.200 OA
ATOM      5  O   UNL d   1       1.048  -3.744  -1.136  0.00  0.00    -0.200 OA
BRANCH   3   6
ATOM      6  C   UNL d   1       3.269  -2.965  -0.282  0.00  0.00     0.110 A 
ATOM      7  C   UNL d   1       4.042  -4.086  -0.460  0.00  0.00     0.099 A 
ATOM      8  S   UNL d   1       5.692  -3.728  -0.661  0.00  0.00    -0.064 SA
ATOM      9 CL   UNL d   1       3.564  -5.739  -0.466  0.00  0.00    -0.075 Cl
ATOM     10  C   UNL d   1       5.388  -2.071  -0.500  0.00  0.00     0.077 A 
ATOM     11  C   UNL d   1       4.064  -1.773  -0.309  0.00  0.00     0.059 A 
ATOM     12 CL   UNL d   1       6.690  -0.954  -0.567  0.00  0.00    -0.076 Cl
ENDBRANCH   3   6
ENDBRANCH   1   3
BRANCH   1  13
ATOM     13  C   UNL d   1       1.663  -3.175   2.631  0.00  0.00     0.172 C 
BRANCH  13  14
ATOM     14  C   UNL d   1       1.357  -4.101   3.771  0.00  0.00    -0.022 A 
ATOM     15  C   UNL d   1       0.161  -4.059   4.595  0.00  0.00    -0.009 A 
ATOM     16  C   UNL d   1       0.179  -5.054   5.579  0.00  0.00     0.015 A 
ATOM     17  C   UNL d   1      -0.969  -3.197   4.555  0.00  0.00     0.037 A 
ATOM     18  C   UNL d   1      -0.877  -5.214   6.500  0.00  0.00     0.021 A 
ATOM     19  S   UNL d   1       1.613  -5.998   5.498  0.00  0.00    -0.101 SA
ATOM     20  C   UNL d   1      -1.970  -4.349   6.437  0.00  0.00     0.025 A 
ATOM     21  C   UNL d   1      -2.011  -3.350   5.476  0.00  0.00     0.035 A 
ATOM     22 CL   UNL d   1      -3.358  -2.280   5.420  0.00  0.00    -0.084 Cl
ATOM     23  C   UNL d   1       2.213  -5.106   4.182  0.00  0.00     0.060 A 
ENDBRANCH  13  14
ENDBRANCH   1  13
TORSDOF 4
