REMARK  7 active torsions:
REMARK  status: ('A' for Active; 'I' for Inactive)
REMARK    1  A    between atoms: N_2  and  C_1 
REMARK    2  A    between atoms: N_4  and  C_1 
REMARK    3  A    between atoms: C_3  and  N_2 
REMARK    4  A    between atoms: C_10  and  C_3 
REMARK    5  A    between atoms: C_8  and  N_4 
REMARK    6  A    between atoms: O_9  and  C_10 
REMARK    7  A    between atoms: C_12  and  O_9 
ROOT
ATOM      1  N   UNL d   1       0.614  -1.124   0.737  0.00  0.00    -0.321 N 
ATOM      2  H   UNL d   1      -0.390  -1.062   0.861  0.00  0.00     0.169 HD
ENDROOT
BRANCH   1   3
ATOM      3  C   UNL d   1       1.189  -0.045   0.109  0.00  0.00     0.177 C 
ATOM      4  S   UNL d   1       0.353   1.387  -0.047  0.00  0.00    -0.040 SA
BRANCH   3   5
ATOM      5  N   UNL d   1       2.470  -0.160  -0.359  0.00  0.00    -0.333 N 
ATOM      6  H   UNL d   1       2.975   0.707  -0.502  0.00  0.00     0.168 HD
BRANCH   5   7
ATOM      7  C   UNL d   1       3.035  -1.302  -0.982  0.00  0.00     0.034 A 
ATOM      8  C   UNL d   1       2.247  -2.309  -1.552  0.00  0.00     0.030 A 
ATOM      9  C   UNL d   1       2.843  -3.422  -2.151  0.00  0.00     0.009 A 
ATOM     10  C   UNL d   1       4.237  -3.543  -2.188  0.00  0.00    -0.062 A 
ATOM     11  C   UNL d   1       5.021  -2.525  -1.634  0.00  0.00     0.009 A 
ATOM     12  C   UNL d   1       4.861  -4.744  -2.833  0.00  0.00     0.048 C 
ATOM     13  C   UNL d   1       4.423  -1.401  -1.052  0.00  0.00     0.030 A 
ENDBRANCH   5   7
ENDBRANCH   3   5
ENDBRANCH   1   3
BRANCH   1  14
ATOM     14  C   UNL d   1       1.237  -2.120   1.472  0.00  0.00     0.101 C 
ATOM     15  N   UNL d   1       2.401  -1.970   2.006  0.00  0.00    -0.387 N 
ATOM     16  H   UNL d   1       2.749  -1.030   1.790  0.00  0.00     0.157 HD
ATOM     17  HN  UNL d   1       2.896  -2.674   2.555  1.00  0.00     0.157 HD
BRANCH  14  18
ATOM     18  C   UNL d   1       0.466  -3.417   1.616  0.00  0.00     0.251 C 
BRANCH  18  19
ATOM     19  O   UNL d   1      -0.421  -3.289   2.714  0.00  0.00    -0.344 OA
BRANCH  19  20
ATOM     20  C   UNL d   1      -1.116  -4.416   3.059  0.00  0.00     0.069 A 
ATOM     21  C   UNL d   1      -1.137  -5.620   2.352  0.00  0.00     0.037 A 
ATOM     22  C   UNL d   1      -1.920  -6.687   2.805  0.00  0.00     0.003 A 
ATOM     23  C   UNL d   1      -2.681  -6.556   3.965  0.00  0.00     0.000 A 
ATOM     24  C   UNL d   1      -2.654  -5.359   4.678  0.00  0.00     0.003 A 
ATOM     25  C   UNL d   1      -1.874  -4.296   4.225  0.00  0.00     0.037 A 
ENDBRANCH  19  20
ENDBRANCH  18  19
ENDBRANCH  14  18
ENDBRANCH   1  14
TORSDOF 7
