REMARK  4 active torsions:
REMARK  status: ('A' for Active; 'I' for Inactive)
REMARK    1  A    between atoms: C_6  and  C_2 
REMARK    2  A    between atoms: C_5  and  C_14 
REMARK    3  A    between atoms: O_15  and  C_6 
REMARK    4  A    between atoms: C_18  and  O_15 
ROOT
ATOM      1  C   UNL d   1      -3.448  -1.314  -0.092  0.00  0.00     0.298 C 
ATOM      2  O   UNL d   1      -2.365  -0.763   0.022  0.00  0.00    -0.259 OA
ENDROOT
BRANCH   1   3
ATOM      3  C   UNL d   1      -4.702  -0.577  -0.450  0.00  0.00     0.042 A 
ATOM      4  C   UNL d   1      -5.960  -1.219  -0.438  0.00  0.00     0.051 A 
ATOM      5  C   UNL d   1      -7.039  -0.407  -0.842  0.00  0.00     0.086 A 
ATOM      6  C   UNL d   1      -6.874   0.985  -1.234  0.00  0.00     0.085 A 
ATOM      7  N   UNL d   1      -8.337  -0.717  -0.949  0.00  0.00    -0.240 N 
ATOM      8  N   UNL d   1      -8.072   1.476  -1.568  0.00  0.00    -0.240 N 
ATOM      9  C   UNL d   1      -5.619   1.621  -1.232  0.00  0.00     0.035 A 
ATOM     10  O   UNL d   1      -8.966   0.432  -1.395  0.00  0.00    -0.156 OA
ATOM     11  HN  UNL d   1      -8.284   2.422  -1.884  1.00  0.00     0.197 HD
ATOM     12  C   UNL d   1      -4.550   0.795  -0.829  0.00  0.00     0.020 A 
ATOM     13  HN  UNL d   1      -8.773  -1.616  -0.743  1.00  0.00     0.197 HD
ENDBRANCH   1   3
BRANCH   1  14
ATOM     14  O   UNL d   1      -3.708  -2.670   0.029  0.00  0.00    -0.275 OA
BRANCH  14  15
ATOM     15  C   UNL d   1      -2.652  -3.608   0.083  0.00  0.00     0.080 A 
ATOM     16  C   UNL d   1      -1.494  -3.484  -0.687  0.00  0.00     0.053 A 
ATOM     17  C   UNL d   1      -0.549  -4.523  -0.706  0.00  0.00     0.050 A 
ATOM     18  C   UNL d   1      -0.786  -5.676   0.062  0.00  0.00     0.016 A 
ATOM     19  C   UNL d   1      -1.946  -5.791   0.831  0.00  0.00     0.004 A 
ATOM     20  C   UNL d   1      -2.885  -4.759   0.836  0.00  0.00     0.037 A 
BRANCH  17  21
ATOM     21  C   UNL d   1       0.684  -4.439  -1.571  0.00  0.00     0.417 C 
ATOM     22  F   UNL d   1       0.811  -3.258  -2.237  0.00  0.00    -0.166 F 
ATOM     23  F   UNL d   1       1.837  -4.596  -0.863  0.00  0.00    -0.166 F 
ATOM     24  F   UNL d   1       0.704  -5.408  -2.531  0.00  0.00    -0.166 F 
ENDBRANCH  17  21
ENDBRANCH  14  15
ENDBRANCH   1  14
TORSDOF 4
