REMARK  5 active torsions:
REMARK  status: ('A' for Active; 'I' for Inactive)
REMARK    1  A    between atoms: C_5  and  C_1 
REMARK    2  A    between atoms: N_8  and  C_2 
REMARK       I    between atoms: C_9  and  N_8 
REMARK    3  A    between atoms: O_18  and  C_9 
REMARK    4  A    between atoms: N_10  and  O_18 
REMARK    5  A    between atoms: C_19  and  C_14 
ROOT
ATOM      1  C   UNL d   1      -1.286  -0.893   0.140  0.00  0.00     0.098 A 
ATOM      2  C   UNL d   1       0.067  -1.316  -0.102  0.00  0.00     0.098 A 
ATOM      3  N   UNL d   1      -1.320   0.432   0.344  0.00  0.00    -0.258 N 
ATOM      4  HN  UNL d   1      -2.142   0.992   0.567  1.00  0.00     0.195 HD
ATOM      5  C   UNL d   1       0.812  -0.150  -0.039  0.00  0.00     0.101 A 
ATOM      6  O   UNL d   1      -0.035   0.887   0.193  0.00  0.00    -0.240 OA
ATOM      7  C   UNL d   1       2.234   0.241  -0.051  0.00  0.00     0.081 C 
ENDROOT
BRANCH   2   8
ATOM      8  N   UNL d   1       0.459  -2.631  -0.287  0.00  0.00    -0.297 N 
ATOM      9  C   UNL d   1       1.508  -3.162  -0.965  0.00  0.00     0.387 C 
ATOM     10  O   UNL d   1       1.737  -4.372  -0.904  0.00  0.00    -0.236 OA
ATOM     11  H   UNL d   1      -0.114  -3.345   0.143  0.00  0.00     0.171 HD
BRANCH   9  12
ATOM     12  O   UNL d   1       2.199  -2.276  -1.743  0.00  0.00    -0.181 OA
BRANCH  12  13
ATOM     13  N   UNL d   1       3.558  -2.567  -1.588  0.00  0.00    -0.265 N 
ATOM     14  C   UNL d   1       4.224  -2.272  -2.654  0.00  0.00     0.144 C 
ATOM     15  HN  UNL d   1       3.969  -2.962  -0.742  1.00  0.00     0.194 HD
BRANCH  14  16
ATOM     16  C   UNL d   1       5.686  -2.418  -2.634  0.00  0.00     0.049 A 
ATOM     17  N   UNL d   1       6.327  -2.056  -3.774  0.00  0.00    -0.365 N 
ATOM     18  C   UNL d   1       7.671  -2.129  -3.730  0.00  0.00     0.088 A 
ATOM     19  HN  UNL d   1       5.824  -1.749  -4.607  1.00  0.00     0.165 HD
ATOM     20  C   UNL d   1       8.403  -2.542  -2.617  0.00  0.00     0.017 A 
ATOM     21  C   UNL d   1       7.706  -2.901  -1.467  0.00  0.00     0.004 A 
ATOM     22  C   UNL d   1       6.326  -2.846  -1.477  0.00  0.00     0.031 A 
ENDBRANCH  14  16
ENDBRANCH  12  13
ENDBRANCH   9  12
ENDBRANCH   2   8
BRANCH   1  23
ATOM     23  C   UNL d   1      -2.531  -1.684   0.098  0.00  0.00     0.038 A 
ATOM     24  C   UNL d   1      -2.671  -2.919   0.768  0.00  0.00     0.048 A 
ATOM     25 CL   UNL d   1      -1.471  -3.585   1.829  0.00  0.00    -0.083 Cl
ATOM     26  C   UNL d   1      -3.843  -3.683   0.655  0.00  0.00     0.025 A 
ATOM     27  C   UNL d   1      -4.931  -3.205  -0.063  0.00  0.00     0.003 A 
ATOM     28  C   UNL d   1      -4.835  -1.974  -0.699  0.00  0.00     0.025 A 
ATOM     29  C   UNL d   1      -3.645  -1.232  -0.648  0.00  0.00     0.048 A 
ATOM     30 CL   UNL d   1      -3.647   0.221  -1.598  0.00  0.00    -0.083 Cl
ENDBRANCH   1  23
TORSDOF 5
