REMARK  5 active torsions:
REMARK  status: ('A' for Active; 'I' for Inactive)
REMARK    1  A    between atoms: N_4  and  C_1 
REMARK    2  A    between atoms: N_7  and  C_2 
REMARK    3  A    between atoms: C_8  and  C_6 
REMARK    4  A    between atoms: C_12  and  N_7 
REMARK    5  A    between atoms: O_18  and  C_13 
ROOT
ATOM      1  C   UNL d   1      -0.298   0.098  -0.211  0.00  0.00     0.138 C 
ATOM      2  C   UNL d   1       0.364   1.271   0.129  0.00  0.00     0.108 C 
ATOM      3  C   UNL d   1       0.510  -1.071   0.017  0.00  0.00     0.061 C 
ATOM      4  S   UNL d   1       1.871   0.882   0.892  0.00  0.00    -0.066 SA
ATOM      5  C   UNL d   1       1.758  -0.771   0.527  0.00  0.00     0.054 C 
ENDROOT
BRANCH   2   6
ATOM      6  N   UNL d   1      -0.053   2.567   0.006  0.00  0.00    -0.349 N 
ATOM      7  H   UNL d   1      -1.029   2.769  -0.232  0.00  0.00     0.166 HD
BRANCH   6   8
ATOM      8  C   UNL d   1       0.796   3.684  -0.150  0.00  0.00     0.033 A 
ATOM      9  C   UNL d   1       1.974   3.617  -0.909  0.00  0.00     0.032 A 
ATOM     10  C   UNL d   1       2.896   4.666  -0.909  0.00  0.00     0.039 A 
ATOM     11  C   UNL d   1       2.644   5.808  -0.155  0.00  0.00     0.068 A 
ATOM     12  C   UNL d   1       1.430   5.927   0.524  0.00  0.00     0.039 A 
ATOM     13  C   UNL d   1       0.509   4.873   0.525  0.00  0.00     0.032 A 
BRANCH  11  14
ATOM     14  O   UNL d   1       3.504   6.865  -0.040  0.00  0.00    -0.356 OA
ATOM     15  C   UNL d   1       4.887   6.518  -0.091  0.00  0.00     0.210 C 
ENDBRANCH  11  14
ENDBRANCH   6   8
ENDBRANCH   2   6
BRANCH   1  16
ATOM     16  N   UNL d   1      -1.625   0.053  -0.787  0.00  0.00    -0.113 N 
ATOM     17  O   UNL d   1      -2.238   1.123  -0.903  0.00  0.00    -0.532 OA
ATOM     18  O   UNL d   1      -2.048  -1.059  -1.121  0.00  0.00    -0.532 OA
ENDBRANCH   1  16
BRANCH   5  19
ATOM     19  C   UNL d   1       2.847  -1.701   0.792  0.00  0.00     0.162 C 
ATOM     20  O   UNL d   1       2.659  -2.919   0.824  0.00  0.00    -0.292 OA
ATOM     21  C   UNL d   1       4.250  -1.173   1.010  0.00  0.00     0.097 C 
ENDBRANCH   5  19
TORSDOF 5
