REMARK  5 active torsions:
REMARK  status: ('A' for Active; 'I' for Inactive)
REMARK    1  A    between atoms: C_6  and  C_1 
REMARK    2  A    between atoms: C_10  and  C_2 
REMARK    3  A    between atoms: C_13  and  N_3 
REMARK       I    between atoms: C_7  and  N_11 
REMARK    4  A    between atoms: C_8  and  C_7 
REMARK       I    between atoms: N_12  and  C_10 
REMARK    5  A    between atoms: N_11  and  N_12 
ROOT
ATOM      1  C   UNL d   1       1.153  -0.785  -0.283  0.00  0.00     0.157 A 
ATOM      2  C   UNL d   1      -0.128  -1.306  -0.089  0.00  0.00     0.084 A 
ATOM      3  N   UNL d   1       1.062   0.589  -0.097  0.00  0.00    -0.251 N 
ATOM      4  N   UNL d   1      -0.194   0.946   0.276  0.00  0.00    -0.303 N 
ATOM      5  HN  UNL d   1      -0.523   1.877   0.530  1.00  0.00     0.186 HD
ATOM      6  C   UNL d   1      -0.903  -0.175   0.238  0.00  0.00     0.127 A 
ENDROOT
BRANCH   2   7
ATOM      7  C   UNL d   1      -0.657  -2.666  -0.100  0.00  0.00     0.273 C 
ATOM      8  N   UNL d   1       0.131  -3.649  -0.652  0.00  0.00    -0.263 N 
ATOM      9  H   UNL d   1       1.072  -3.499  -1.010  0.00  0.00     0.190 HD
ATOM     10  O   UNL d   1      -1.767  -2.928   0.365  0.00  0.00    -0.266 OA
BRANCH   8  11
ATOM     11  N   UNL d   1      -0.286  -4.986  -0.597  0.00  0.00    -0.260 N 
ATOM     12  C   UNL d   1       0.415  -5.922  -1.347  0.00  0.00     0.343 C 
ATOM     13  O   UNL d   1       1.346  -5.580  -2.083  0.00  0.00    -0.262 OA
ATOM     14  H   UNL d   1      -1.050  -5.225   0.039  0.00  0.00     0.190 HD
BRANCH  12  15
ATOM     15  C   UNL d   1      -0.067  -7.369  -1.173  0.00  0.00     0.473 C 
ATOM     16  F   UNL d   1      -1.005  -7.481  -0.188  0.00  0.00    -0.162 F 
ATOM     17  F   UNL d   1      -0.639  -7.867  -2.303  0.00  0.00    -0.162 F 
ATOM     18  F   UNL d   1       0.942  -8.217  -0.836  0.00  0.00    -0.162 F 
ENDBRANCH  12  15
ENDBRANCH   8  11
ENDBRANCH   2   7
BRANCH   1  19
ATOM     19  C   UNL d   1       2.448  -1.446  -0.500  0.00  0.00     0.435 C 
ATOM     20  F   UNL d   1       2.397  -2.768  -0.193  0.00  0.00    -0.165 F 
ATOM     21  F   UNL d   1       2.825  -1.388  -1.799  0.00  0.00    -0.165 F 
ATOM     22  F   UNL d   1       3.452  -0.939   0.251  0.00  0.00    -0.165 F 
ENDBRANCH   1  19
BRANCH   3  23
ATOM     23  C   UNL d   1       2.060   1.609  -0.156  0.00  0.00     0.057 A 
ATOM     24  C   UNL d   1       3.172   1.533  -1.002  0.00  0.00     0.031 A 
ATOM     25  C   UNL d   1       4.172   2.509  -0.940  0.00  0.00     0.002 A 
ATOM     26  C   UNL d   1       4.061   3.575  -0.051  0.00  0.00     0.000 A 
ATOM     27  C   UNL d   1       2.930   3.691   0.752  0.00  0.00     0.002 A 
ATOM     28  C   UNL d   1       1.925   2.724   0.690  0.00  0.00     0.031 A 
ENDBRANCH   3  23
TORSDOF 5
