REMARK  0 active torsions:
REMARK  status: ('A' for Active; 'I' for Inactive)
ROOT
ATOM      1  C   UNL d   1      -0.008   0.991  -0.005  0.00  0.00     0.080 A 
ATOM      2  C   UNL d   1       1.213   0.288  -0.008  0.00  0.00     0.079 A 
ATOM      3  C   UNL d   1      -1.229   0.287  -0.011  0.00  0.00     0.079 A 
ATOM      4  C   UNL d   1       1.202  -1.115  -0.022  0.00  0.00     0.059 A 
ATOM      5  C   UNL d   1      -1.217  -1.116  -0.021  0.00  0.00     0.059 A 
ATOM      6  C   UNL d   1      -0.007  -1.811  -0.029  0.00  0.00     0.051 A 
ATOM      7 CL   UNL d   1      -0.009   2.733   0.006  0.00  0.00    -0.081 Cl
ATOM      8 CL   UNL d   1      -2.745   1.138  -0.004  0.00  0.00    -0.081 Cl
ATOM      9 CL   UNL d   1       2.729   1.140   0.005  0.00  0.00    -0.081 Cl
ATOM     10 CL   UNL d   1       2.651  -2.060  -0.030  0.00  0.00    -0.082 Cl
ATOM     11 CL   UNL d   1      -2.665  -2.063  -0.025  0.00  0.00    -0.082 Cl
ENDROOT
TORSDOF 0
