REMARK  5 active torsions:
REMARK  status: ('A' for Active; 'I' for Inactive)
REMARK    1  A    between atoms: C_2  and  S_1 
REMARK    2  A    between atoms: C_4  and  S_1 
REMARK    3  A    between atoms: C_3  and  N_11 
REMARK    4  A    between atoms: C_9  and  C_6 
REMARK    5  A    between atoms: N_15  and  C_12 
ROOT
ATOM      1  C   UNL d   1      -0.605   2.740   1.806  0.00  0.00     0.159 C 
ATOM      2  C   UNL d   1      -0.192   2.340   0.592  0.00  0.00     0.121 C 
ATOM      3  C   UNL d   1       0.033   2.286   2.990  0.00  0.00     0.113 C 
ATOM      4  N   UNL d   1       0.576   1.909   3.946  0.00  0.00    -0.191 NA
ENDROOT
BRANCH   1   5
ATOM      5  S   UNL d   1      -2.071   3.632   2.003  0.00  0.00     0.224 S 
ATOM      6  O   UNL d   1      -3.149   2.705   2.326  0.00  0.00    -0.216 OA
ATOM      7  O   UNL d   1      -2.258   4.641   0.981  0.00  0.00    -0.216 OA
BRANCH   5   8
ATOM      8  C   UNL d   1      -1.918   4.614   3.495  0.00  0.00     0.105 A 
ATOM      9  S   UNL d   1      -0.627   5.740   3.542  0.00  0.00    -0.090 SA
ATOM     10  C   UNL d   1      -1.118   6.335   5.070  0.00  0.00     0.051 A 
ATOM     11  C   UNL d   1      -2.245   5.696   5.536  0.00  0.00     0.009 A 
ATOM     12  C   UNL d   1      -2.706   4.700   4.628  0.00  0.00     0.032 A 
ENDBRANCH   5   8
ENDBRANCH   1   5
BRANCH   2  13
ATOM     13  N   UNL d   1      -0.629   2.574  -0.708  0.00  0.00    -0.385 N 
ATOM     14  C   UNL d   1      -0.582   3.904  -1.376  0.00  0.00     0.142 C 
ATOM     15  C   UNL d   1      -0.092   3.758  -2.846  0.00  0.00     0.143 C 
ATOM     16  N   UNL d   1      -0.976   2.804  -3.568  0.00  0.00    -0.377 N 
ATOM     17  C   UNL d   1      -1.014   1.474  -2.920  0.00  0.00     0.143 C 
ATOM     18  C   UNL d   1      -1.481   1.609  -1.449  0.00  0.00     0.142 C 
BRANCH  16  19
ATOM     19  C   UNL d   1      -1.037   2.888  -4.966  0.00  0.00     0.045 A 
ATOM     20  C   UNL d   1      -1.652   3.999  -5.611  0.00  0.00     0.018 A 
ATOM     21  C   UNL d   1      -1.750   3.990  -7.020  0.00  0.00     0.045 A 
ATOM     22  C   UNL d   1      -2.232   5.085  -4.912  0.00  0.00     0.022 A 
ATOM     23  C   UNL d   1      -2.368   5.056  -7.662  0.00  0.00     0.031 A 
ATOM     24  N   UNL d   1      -1.305   2.974  -7.775  0.00  0.00    -0.352 N 
ATOM     25  C   UNL d   1      -2.911   6.133  -6.956  0.00  0.00     0.009 A 
ATOM     26  C   UNL d   1      -2.855   6.151  -5.567  0.00  0.00    -0.061 A 
ATOM     27  C   UNL d   1      -3.442   7.284  -4.781  0.00  0.00     0.048 C 
ATOM     28  C   UNL d   1      -0.749   1.899  -7.161  0.00  0.00     0.119 A 
ATOM     29  HN  UNL d   1      -1.384   3.010  -8.791  1.00  0.00     0.166 HD
ATOM     30  C   UNL d   1      -0.588   1.840  -5.777  0.00  0.00     0.064 A 
BRANCH  28  31
ATOM     31  C   UNL d   1      -0.326   0.695  -7.992  0.00  0.00     0.432 C 
ATOM     32  F   UNL d   1      -0.557   0.815  -9.330  0.00  0.00    -0.165 F 
ATOM     33  F   UNL d   1       1.005   0.414  -7.868  0.00  0.00    -0.165 F 
ATOM     34  F   UNL d   1      -0.971  -0.449  -7.609  0.00  0.00    -0.165 F 
ENDBRANCH  28  31
ENDBRANCH  16  19
ENDBRANCH   2  13
TORSDOF 5
