REMARK  4 active torsions:
REMARK  status: ('A' for Active; 'I' for Inactive)
REMARK    1  A    between atoms: S_5  and  C_1 
REMARK    2  A    between atoms: S_6  and  C_2 
REMARK    3  A    between atoms: C_9  and  S_5 
REMARK    4  A    between atoms: C_10  and  S_6 
ROOT
ATOM      1  C   UNL d   1       0.711  -1.492   0.007  0.00  0.00     0.081 A 
ATOM      2  C   UNL d   1      -0.644  -1.453   0.076  0.00  0.00     0.081 A 
ATOM      3  C   UNL d   1       0.826  -0.033   0.106  0.00  0.00     0.241 A 
ATOM      4  C   UNL d   1      -0.667   0.010   0.160  0.00  0.00     0.241 A 
ATOM      5  O   UNL d   1       1.668   0.827   0.062  0.00  0.00    -0.283 OA
ATOM      6  O   UNL d   1      -1.462   0.914   0.196  0.00  0.00    -0.283 OA
ENDROOT
BRANCH   1   7
ATOM      7  S   UNL d   1       1.866  -2.775  -0.171  0.00  0.00    -0.085 SA
BRANCH   7   8
ATOM      8  C   UNL d   1       2.776  -2.471   1.332  0.00  0.00     0.005 A 
ATOM      9  C   UNL d   1       2.423  -3.164   2.493  0.00  0.00     0.019 A 
ATOM     10  C   UNL d   1       3.129  -2.964   3.680  0.00  0.00     0.008 A 
ATOM     11  C   UNL d   1       4.207  -2.074   3.721  0.00  0.00    -0.062 A 
ATOM     12  C   UNL d   1       4.568  -1.389   2.554  0.00  0.00     0.008 A 
ATOM     13  C   UNL d   1       4.957  -1.875   5.005  0.00  0.00     0.048 C 
ATOM     14  C   UNL d   1       3.858  -1.588   1.365  0.00  0.00     0.019 A 
ENDBRANCH   7   8
ENDBRANCH   1   7
BRANCH   2  15
ATOM     15  S   UNL d   1      -1.894  -2.653  -0.003  0.00  0.00    -0.085 SA
BRANCH  15  16
ATOM     16  C   UNL d   1      -2.135  -2.862   1.752  0.00  0.00     0.005 A 
ATOM     17  C   UNL d   1      -3.030  -2.053   2.457  0.00  0.00     0.019 A 
ATOM     18  C   UNL d   1      -3.265  -2.280   3.818  0.00  0.00     0.008 A 
ATOM     19  C   UNL d   1      -2.611  -3.320   4.490  0.00  0.00    -0.062 A 
ATOM     20  C   UNL d   1      -1.711  -4.123   3.783  0.00  0.00     0.008 A 
ATOM     21  C   UNL d   1      -2.894  -3.574   5.942  0.00  0.00     0.048 C 
ATOM     22  C   UNL d   1      -1.481  -3.900   2.421  0.00  0.00     0.019 A 
ENDBRANCH  15  16
ENDBRANCH   2  15
TORSDOF 4
