REMARK  3 active torsions:
REMARK  status: ('A' for Active; 'I' for Inactive)
REMARK    1  A    between atoms: C_9  and  C_1 
REMARK       I    between atoms: C_6  and  N_8 
REMARK    2  A    between atoms: C_10  and  C_6 
REMARK    3  A    between atoms: N_8  and  C_18 
ROOT
ATOM      1  C   UNL d   1      -3.871  -0.709   0.213  0.00  0.00    -0.002 A 
ATOM      2  C   UNL d   1      -4.627   0.056  -0.690  0.00  0.00     0.016 A 
ATOM      3  C   UNL d   1      -4.552  -1.632   1.016  0.00  0.00     0.016 A 
ATOM      4  C   UNL d   1      -6.666  -1.115  -0.050  0.00  0.00     0.035 A 
ATOM      5  C   UNL d   1      -5.928  -1.839   0.882  0.00  0.00     0.030 A 
ATOM      6  C   UNL d   1      -6.011  -0.147  -0.819  0.00  0.00     0.030 A 
ENDROOT
BRANCH   1   7
ATOM      7  C   UNL d   1      -2.413  -0.528   0.308  0.00  0.00     0.085 A 
ATOM      8  N   UNL d   1      -1.763   0.582   0.015  0.00  0.00    -0.349 N 
ATOM      9  C   UNL d   1      -0.407   0.426   0.270  0.00  0.00     0.050 A 
ATOM     10  HN  UNL d   1      -2.195   1.433  -0.347  1.00  0.00     0.166 HD
ATOM     11  C   UNL d   1       0.589   1.412   0.129  0.00  0.00     0.031 A 
ATOM     12  C   UNL d   1      -0.026  -0.839   0.715  0.00  0.00     0.034 A 
ATOM     13  C   UNL d   1       1.920   1.111   0.448  0.00  0.00     0.009 A 
ATOM     14  C   UNL d   1       2.282  -0.160   0.901  0.00  0.00    -0.061 A 
ATOM     15  C   UNL d   1       1.305  -1.156   1.033  0.00  0.00     0.028 A 
ATOM     16  C   UNL d   1       3.714  -0.458   1.243  0.00  0.00     0.048 C 
ATOM     17  S   UNL d   1      -1.408  -1.846   0.789  0.00  0.00    -0.070 SA
ENDBRANCH   1   7
BRANCH   4  18
ATOM     18  N   UNL d   1      -8.048  -1.312  -0.259  0.00  0.00    -0.323 N 
ATOM     19  C   UNL d   1      -8.850  -2.268   0.344  0.00  0.00     0.256 C 
ATOM     20  O   UNL d   1      -8.511  -3.109   1.167  0.00  0.00    -0.267 OA
ATOM     21  H   UNL d   1      -8.489  -0.663  -0.898  0.00  0.00     0.169 HD
BRANCH  19  22
ATOM     22  C   UNL d   1     -10.286  -2.217  -0.038  0.00  0.00     0.032 A 
ATOM     23  C   UNL d   1     -10.699  -1.910  -1.340  0.00  0.00     0.018 A 
ATOM     24  C   UNL d   1     -12.062  -1.800  -1.627  0.00  0.00     0.025 A 
ATOM     25  C   UNL d   1     -13.005  -2.013  -0.620  0.00  0.00     0.034 A 
ATOM     26  C   UNL d   1     -12.601  -2.371   0.665  0.00  0.00     0.025 A 
ATOM     27 CL   UNL d   1     -14.679  -1.819  -0.965  0.00  0.00    -0.084 Cl
ATOM     28  C   UNL d   1     -11.240  -2.481   0.954  0.00  0.00     0.018 A 
ENDBRANCH  19  22
ENDBRANCH   4  18
TORSDOF 3
