REMARK  5 active torsions:
REMARK  status: ('A' for Active; 'I' for Inactive)
REMARK    1  A    between atoms: N_2  and  C_1 
REMARK    2  A    between atoms: N_4  and  C_1 
REMARK       I    between atoms: C_3  and  N_2 
REMARK    3  A    between atoms: O_8  and  C_3 
REMARK    4  A    between atoms: N_7  and  N_4 
REMARK    5  A    between atoms: C_11  and  O_8 
ROOT
ATOM      1  C   UNL d   1       1.135  -0.053   0.030  0.00  0.00     0.190 C 
ATOM      2  S   UNL d   1       2.733   0.281   0.372  0.00  0.00    -0.039 SA
ENDROOT
BRANCH   1   3
ATOM      3  N   UNL d   1       0.542  -0.196  -1.207  0.00  0.00    -0.278 N 
ATOM      4  C   UNL d   1       1.130  -0.122  -2.444  0.00  0.00     0.366 C 
ATOM      5  O   UNL d   1       2.286  -0.418  -2.717  0.00  0.00    -0.238 OA
ATOM      6  H   UNL d   1      -0.464  -0.099  -1.186  0.00  0.00     0.173 HD
BRANCH   4   7
ATOM      7  O   UNL d   1       0.207   0.260  -3.370  0.00  0.00    -0.304 OA
BRANCH   7   8
ATOM      8  C   UNL d   1       0.726   0.438  -4.701  0.00  0.00     0.176 C 
ATOM      9  C   UNL d   1       1.335   1.823  -4.847  0.00  0.00     0.034 C 
ENDBRANCH   7   8
ENDBRANCH   4   7
ENDBRANCH   1   3
BRANCH   1  10
ATOM     10  N   UNL d   1       0.274  -0.209   1.099  0.00  0.00    -0.296 N 
ATOM     11  H   UNL d   1       0.705  -0.163   2.021  0.00  0.00     0.183 HD
BRANCH  10  12
ATOM     12  N   UNL d   1      -1.022  -0.757   0.961  0.00  0.00    -0.238 NA
ATOM     13  C   UNL d   1      -0.957  -2.219   1.123  0.00  0.00     0.135 C 
ATOM     14  C   UNL d   1      -1.909  -0.194   1.990  0.00  0.00     0.135 C 
ENDBRANCH  10  12
ENDBRANCH   1  10
TORSDOF 5
