REMARK  1 active torsions:
REMARK  status: ('A' for Active; 'I' for Inactive)
REMARK    1  A    between atoms: O_10  and  C_4 
ROOT
ATOM      1  C   UNL d   1       0.204   0.803   0.004  0.00  0.00     0.052 A 
ATOM      2  N   UNL d   1       2.394   0.121   0.005  0.00  0.00    -0.238 N 
ATOM      3  HN  UNL d   1       3.413   0.139   0.005  1.00  0.00     0.197 HD
ATOM      4  C   UNL d   1       1.558   1.155   0.004  0.00  0.00     0.173 A 
ATOM      5  C   UNL d   1       0.252  -0.582   0.005  0.00  0.00     0.115 A 
ATOM      6  O   UNL d   1       1.554  -0.995   0.005  0.00  0.00    -0.235 OA
ATOM      7  C   UNL d   1      -1.042   1.447   0.003  0.00  0.00     0.020 A 
ATOM      8  C   UNL d   1      -0.871  -1.405   0.005  0.00  0.00     0.064 A 
ATOM      9  C   UNL d   1      -2.104  -0.746   0.004  0.00  0.00     0.036 A 
ATOM     10  C   UNL d   1      -2.197   0.650   0.003  0.00  0.00     0.025 A 
ATOM     11 CL   UNL d   1      -3.551  -1.683   0.004  0.00  0.00    -0.084 Cl
ENDROOT
BRANCH   4  12
ATOM     12  O   UNL d   1       2.113   2.369   0.004  0.00  0.00    -0.344 OA
ATOM     13  H   UNL d   1       3.075   2.222   0.004  0.00  0.00     0.219 HD
ENDBRANCH   4  12
TORSDOF 1
