REMARK  1 active torsions:
REMARK  status: ('A' for Active; 'I' for Inactive)
REMARK    1  A    between atoms: O_8  and  C_3 
ROOT
ATOM      1  N   UNL d   1       1.183   1.345  -0.040  0.00  0.00    -0.359 N 
ATOM      2  HN  UNL d   1       1.173   2.365  -0.055  1.00  0.00     0.166 HD
ATOM      3  C   UNL d   1       1.230  -1.424   0.017  0.00  0.00     0.080 A 
ATOM      4  C   UNL d   1      -0.005  -0.757   0.007  0.00  0.00     0.024 A 
ATOM      5  C   UNL d   1       0.031   0.651  -0.023  0.00  0.00     0.045 A 
ATOM      6  C   UNL d   1       2.424  -0.715  -0.003  0.00  0.00     0.062 A 
ATOM      7  C   UNL d   1       2.357   0.669  -0.037  0.00  0.00     0.008 A 
ATOM      8  C   UNL d   1      -1.248  -1.426   0.015  0.00  0.00     0.016 A 
ATOM      9  C   UNL d   1      -1.175   1.341  -0.039  0.00  0.00     0.030 A 
ATOM     10  C   UNL d   1       3.603   1.501  -0.077  0.00  0.00     0.068 C 
ATOM     11  C   UNL d   1      -2.442  -0.710  -0.010  0.00  0.00     0.001 A 
ATOM     12  C   UNL d   1      -2.406   0.677  -0.037  0.00  0.00     0.002 A 
ENDROOT
BRANCH   3  13
ATOM     13  O   UNL d   1       1.252  -2.794   0.040  0.00  0.00    -0.360 OA
ATOM     14  H   UNL d   1       2.173  -3.100   0.005  0.00  0.00     0.217 HD
ENDBRANCH   3  13
TORSDOF 1
