REMARK  3 active torsions:
REMARK  status: ('A' for Active; 'I' for Inactive)
REMARK    1  A    between atoms: N_2  and  S_1 
REMARK    2  A    between atoms: C_4  and  S_1 
REMARK    3  A    between atoms: C_3  and  C_7 
ROOT
ATOM      1  N   UNL d   1       0.536   0.592  -1.372  0.00  0.00    -0.206 NA
ATOM      2  C   UNL d   1       0.996   1.646  -4.082  0.00  0.00     0.096 C 
ATOM      3  C   UNL d   1       0.903   2.023  -1.572  0.00  0.00     0.108 C 
ATOM      4  C   UNL d   1       1.026  -0.309  -2.455  0.00  0.00     0.108 C 
ATOM      5  C   UNL d   1       0.451   2.515  -2.944  0.00  0.00     0.029 C 
ATOM      6  C   UNL d   1       0.575   0.195  -3.826  0.00  0.00     0.029 C 
ENDROOT
BRANCH   1   7
ATOM      7  S   UNL d   1       0.992   0.003   0.195  0.00  0.00     0.243 S 
ATOM      8  O   UNL d   1       2.357   0.424   0.429  0.00  0.00    -0.206 OA
ATOM      9  O   UNL d   1       0.611  -1.392   0.283  0.00  0.00    -0.206 OA
BRANCH   7  10
ATOM     10  C   UNL d   1      -0.079   0.913   1.276  0.00  0.00     0.074 A 
ATOM     11  C   UNL d   1      -1.455   0.684   1.212  0.00  0.00     0.025 A 
ATOM     12  C   UNL d   1      -2.310   1.405   2.045  0.00  0.00     0.008 A 
ATOM     13  C   UNL d   1      -1.796   2.349   2.946  0.00  0.00    -0.062 A 
ATOM     14  C   UNL d   1      -0.411   2.555   3.010  0.00  0.00     0.008 A 
ATOM     15  C   UNL d   1      -2.730   3.121   3.832  0.00  0.00     0.048 C 
ATOM     16  C   UNL d   1       0.451   1.838   2.179  0.00  0.00     0.025 A 
ENDBRANCH   7  10
ENDBRANCH   1   7
BRANCH   2  17
ATOM     17  C   UNL d   1       2.506   1.798  -4.287  0.00  0.00     0.391 C 
ATOM     18  F   UNL d   1       3.057   2.684  -3.431  0.00  0.00    -0.171 F 
ATOM     19  F   UNL d   1       3.169   0.631  -4.152  0.00  0.00    -0.171 F 
ATOM     20  F   UNL d   1       2.758   2.251  -5.538  0.00  0.00    -0.171 F 
ENDBRANCH   2  17
TORSDOF 3
