REMARK  3 active torsions:
REMARK  status: ('A' for Active; 'I' for Inactive)
REMARK    1  A    between atoms: C_4  and  C_1 
REMARK       I    between atoms: N_7  and  C_4 
REMARK    2  A    between atoms: N_10  and  N_7 
REMARK    3  A    between atoms: C_8  and  N_10 
ROOT
ATOM      1  C   UNL d   1      -2.637  -1.406   0.184  0.00  0.00     0.284 C 
ATOM      2  N   UNL d   1      -3.891  -0.828   0.307  0.00  0.00    -0.281 N 
ATOM      3  O   UNL d   1      -1.681  -0.794  -0.295  0.00  0.00    -0.265 OA
ATOM      4  H   UNL d   1      -4.708  -1.396   0.531  0.00  0.00     0.184 HD
ENDROOT
BRANCH   2   5
ATOM      5  N   UNL d   1      -4.097   0.409  -0.338  0.00  0.00    -0.200 NA
ATOM      6  H   UNL d   1      -3.192   0.844  -0.561  0.00  0.00     0.153 HD
BRANCH   5   7
ATOM      7  C   UNL d   1      -4.951   1.301   0.362  0.00  0.00     0.066 A 
ATOM      8  C   UNL d   1      -6.087   0.885   1.081  0.00  0.00     0.142 A 
ATOM      9  C   UNL d   1      -6.970   1.799   1.651  0.00  0.00     0.086 A 
ATOM     10  F   UNL d   1      -6.360  -0.423   1.217  0.00  0.00    -0.204 F 
ATOM     11  C   UNL d   1      -6.734   3.155   1.487  0.00  0.00     0.119 A 
ATOM     12  C   UNL d   1      -5.638   3.608   0.763  0.00  0.00     0.044 A 
ATOM     13  F   UNL d   1      -7.585   4.043   2.018  0.00  0.00    -0.206 F 
ATOM     14  C   UNL d   1      -4.759   2.683   0.191  0.00  0.00     0.031 A 
ENDBRANCH   5   7
ENDBRANCH   2   5
BRANCH   1  15
ATOM     15  C   UNL d   1      -2.525  -2.782   0.659  0.00  0.00     0.126 A 
ATOM     16  N   UNL d   1      -3.546  -3.437   1.241  0.00  0.00    -0.256 N 
ATOM     17  O   UNL d   1      -3.051  -4.690   1.573  0.00  0.00    -0.242 OA
ATOM     18  HN  UNL d   1      -4.490  -3.086   1.403  1.00  0.00     0.195 HD
ATOM     19  C   UNL d   1      -1.752  -4.786   1.183  0.00  0.00     0.075 A 
ATOM     20  C   UNL d   1      -1.373  -3.608   0.593  0.00  0.00     0.071 A 
ATOM     21  C   UNL d   1      -1.065  -6.059   1.463  0.00  0.00     0.079 C 
ENDBRANCH   1  15
TORSDOF 3
