REMARK  2 active torsions:
REMARK  status: ('A' for Active; 'I' for Inactive)
REMARK       I    between atoms: N_2  and  C_1 
REMARK    1  A    between atoms: C_5  and  C_1 
REMARK    2  A    between atoms: C_9  and  N_2 
ROOT
ATOM      1  C   UNL d   1       1.085  -0.173   0.212  0.00  0.00     0.256 C 
ATOM      2  N   UNL d   1       0.541  -0.710  -0.936  0.00  0.00    -0.320 N 
ATOM      3  O   UNL d   1       2.216  -0.365   0.648  0.00  0.00    -0.267 OA
ATOM      4  H   UNL d   1      -0.272  -0.249  -1.337  0.00  0.00     0.169 HD
ENDROOT
BRANCH   1   5
ATOM      5  C   UNL d   1       0.211   0.776   0.934  0.00  0.00     0.033 A 
ATOM      6  C   UNL d   1      -1.093   0.397   1.283  0.00  0.00     0.038 A 
ATOM      7  C   UNL d   1      -1.846   1.294   2.058  0.00  0.00     0.033 A 
ATOM      8  S   UNL d   1      -3.441   1.106   2.686  0.00  0.00    -0.083 SA
ATOM      9  C   UNL d   1      -1.345   2.538   2.457  0.00  0.00     0.049 A 
ATOM     10  C   UNL d   1      -3.326   2.649   3.417  0.00  0.00     0.139 A 
ATOM     11  N   UNL d   1      -2.205   3.306   3.224  0.00  0.00    -0.359 N 
ATOM     12  HN  UNL d   1      -1.999   4.238   3.583  1.00  0.00     0.166 HD
ATOM     13  C   UNL d   1      -0.038   2.899   2.074  0.00  0.00     0.032 A 
ATOM     14  C   UNL d   1       0.738   2.008   1.324  0.00  0.00     0.019 A 
ENDBRANCH   1   5
BRANCH   2  15
ATOM     15  C   UNL d   1       1.172  -1.662  -1.767  0.00  0.00     0.073 A 
ATOM     16  C   UNL d   1       0.765  -1.748  -3.101  0.00  0.00     0.143 A 
ATOM     17  F   UNL d   1      -0.208  -0.939  -3.552  0.00  0.00    -0.204 F 
ATOM     18  C   UNL d   1       1.377  -2.628  -3.991  0.00  0.00     0.044 A 
ATOM     19  C   UNL d   1       2.389  -3.471  -3.535  0.00  0.00     0.003 A 
ATOM     20  C   UNL d   1       2.776  -3.429  -2.196  0.00  0.00     0.002 A 
ATOM     21  C   UNL d   1       2.173  -2.524  -1.315  0.00  0.00     0.033 A 
ENDBRANCH   2  15
TORSDOF 2
