REMARK  3 active torsions:
REMARK  status: ('A' for Active; 'I' for Inactive)
REMARK    1  A    between atoms: C_6  and  C_3 
REMARK    2  A    between atoms: C_8  and  C_6 
REMARK    3  A    between atoms: O_16  and  C_12 
ROOT
ATOM      1  C   UNL d   1      -1.825   1.634  -0.096  0.00  0.00     0.046 C 
ENDROOT
BRANCH   1   2
ATOM      2  C   UNL d   1      -0.803   1.013  -0.689  0.00  0.00     0.105 A 
ATOM      3  C   UNL d   1       0.610   1.499  -0.712  0.00  0.00     0.276 A 
ATOM      4  N   UNL d   1       1.290   0.539  -1.409  0.00  0.00    -0.274 N 
ATOM      5  O   UNL d   1       1.047   2.514  -0.211  0.00  0.00    -0.266 OA
ATOM      6  C   UNL d   1       0.457  -0.472  -1.815  0.00  0.00     0.327 A 
ATOM      7  H   UNL d   1       2.276   0.562  -1.597  0.00  0.00     0.173 HD
ATOM      8  N   UNL d   1      -0.818  -0.171  -1.368  0.00  0.00    -0.304 N 
ATOM      9  O   UNL d   1       0.778  -1.457  -2.453  0.00  0.00    -0.247 OA
ATOM     10  H   UNL d   1      -1.623  -0.756  -1.536  0.00  0.00     0.171 HD
ENDBRANCH   1   2
BRANCH   1  11
ATOM     11  C   UNL d   1      -3.178   1.082  -0.058  0.00  0.00    -0.032 A 
ATOM     12  C   UNL d   1      -3.555   0.243   0.995  0.00  0.00     0.033 A 
ATOM     13  C   UNL d   1      -4.828  -0.357   1.035  0.00  0.00     0.045 A 
ATOM     14 BR   UNL d   1      -5.099  -1.472   2.552  0.00  0.00    -0.048 Br
ATOM     15  C   UNL d   1      -5.746  -0.107   0.006  0.00  0.00     0.085 A 
ATOM     16  C   UNL d   1      -5.353   0.753  -1.038  0.00  0.00     0.039 A 
ATOM     17  C   UNL d   1      -4.086   1.341  -1.077  0.00  0.00     0.014 A 
BRANCH  15  18
ATOM     18  O   UNL d   1      -7.017  -0.560  -0.202  0.00  0.00    -0.355 OA
ATOM     19  C   UNL d   1      -7.636  -1.458   0.699  0.00  0.00     0.210 C 
ENDBRANCH  15  18
ENDBRANCH   1  11
TORSDOF 3
