REMARK  2 active torsions:
REMARK  status: ('A' for Active; 'I' for Inactive)
REMARK    1  A    between atoms: O_3  and  C_1 
REMARK       I    between atoms: N_6  and  C_1 
REMARK    2  A    between atoms: C_2  and  O_3 
ROOT
ATOM      1  C   UNL d   1       0.903   1.941  -1.742  0.00  0.00     0.092 A 
ATOM      2  C   UNL d   1       0.403   3.263  -1.622  0.00  0.00     0.008 A 
ATOM      3  C   UNL d   1       1.007   4.285  -2.401  0.00  0.00    -0.023 A 
ATOM      4  C   UNL d   1       1.909   1.638  -2.666  0.00  0.00     0.038 A 
ATOM      5  C   UNL d   1       2.498   2.654  -3.414  0.00  0.00     0.004 A 
ATOM      6  C   UNL d   1      -0.670   3.624  -0.779  0.00  0.00     0.015 A 
ATOM      7  C   UNL d   1       2.061   3.969  -3.271  0.00  0.00     0.012 A 
ATOM      8  C   UNL d   1       0.544   5.608  -2.311  0.00  0.00     0.012 A 
ATOM      9  C   UNL d   1      -1.133   4.943  -0.716  0.00  0.00     0.001 A 
ATOM     10  C   UNL d   1      -0.523   5.934  -1.479  0.00  0.00     0.001 A 
ENDROOT
BRANCH   1  11
ATOM     11  O   UNL d   1       0.313   0.923  -0.932  0.00  0.00    -0.261 OA
BRANCH  11  12
ATOM     12  C   UNL d   1       1.079  -0.139  -0.453  0.00  0.00     0.365 C 
ATOM     13  O   UNL d   1       2.280  -0.312  -0.649  0.00  0.00    -0.238 OA
ATOM     14  N   UNL d   1       0.397  -1.049   0.302  0.00  0.00    -0.341 N 
ATOM     15  C   UNL d   1      -0.937  -0.928   0.827  0.00  0.00     0.151 C 
ATOM     16  H   UNL d   1       0.999  -1.773   0.675  0.00  0.00     0.164 HD
ENDBRANCH  11  12
ENDBRANCH   1  11
TORSDOF 2
