REMARK  3 active torsions:
REMARK  status: ('A' for Active; 'I' for Inactive)
REMARK    1  A    between atoms: C_9  and  C_1 
REMARK    2  A    between atoms: C_8  and  C_3 
REMARK    3  A    between atoms: O_20  and  C_9 
ROOT
ATOM      1  C   UNL d   1       2.809  -0.853   0.122  0.00  0.00     0.054 C 
ATOM      2  C   UNL d   1       0.273  -0.712   0.103  0.00  0.00     0.025 C 
ATOM      3  C   UNL d   1       1.482  -1.563   0.439  0.00  0.00     0.116 C 
ATOM      4  C   UNL d   1       0.377   0.624  -0.019  0.00  0.00     0.021 C 
ATOM      5  C   UNL d   1       2.824   0.498  -0.034  0.00  0.00     0.018 C 
ATOM      6  N   UNL d   1       1.626   1.210   0.032  0.00  0.00    -0.362 N 
ATOM      7  C   UNL d   1      -1.023  -1.387  -0.164  0.00  0.00     0.159 C 
ATOM      8  C   UNL d   1      -0.807   1.531  -0.239  0.00  0.00     0.067 C 
ATOM      9  C   UNL d   1      -2.172   0.861   0.034  0.00  0.00    -0.036 C 
ATOM     10  C   UNL d   1      -2.192  -0.533  -0.611  0.00  0.00     0.092 C 
ATOM     11  O   UNL d   1      -1.117  -2.613  -0.123  0.00  0.00    -0.293 OA
ATOM     12  C   UNL d   1       4.027   1.370  -0.292  0.00  0.00     0.069 C 
ATOM     13  C   UNL d   1      -3.284   1.726  -0.584  0.00  0.00     0.015 C 
ATOM     14  C   UNL d   1      -2.440   0.744   1.549  0.00  0.00     0.015 C 
ATOM     15  H   UNL d   1       1.681   2.220  -0.074  0.00  0.00     0.165 HD
ENDROOT
BRANCH   3  16
ATOM     16  C   UNL d   1       1.427  -1.961   1.904  0.00  0.00     0.039 A 
ATOM     17  N   UNL d   1       1.984  -1.169   2.894  0.00  0.00    -0.354 N 
ATOM     18  C   UNL d   1       1.741  -1.785   4.026  0.00  0.00     0.180 A 
ATOM     19  HN  UNL d   1       2.481  -0.287   2.769  1.00  0.00     0.166 HD
ATOM     20  N   UNL d   1       1.046  -2.941   3.824  0.00  0.00    -0.360 N 
ATOM     21  C   UNL d   1       0.840  -3.072   2.478  0.00  0.00     0.115 A 
ATOM     22  H   UNL d   1       0.734  -3.577   4.543  0.00  0.00     0.166 HD
ENDBRANCH   3  16
BRANCH   1  23
ATOM     23  C   UNL d   1       4.013  -1.729   0.010  0.00  0.00     0.291 C 
ATOM     24  O   UNL d   1       5.143  -1.360  -0.266  0.00  0.00    -0.260 OA
BRANCH  23  25
ATOM     25  O   UNL d   1       3.670  -3.031   0.203  0.00  0.00    -0.323 OA
ATOM     26  C   UNL d   1       4.751  -3.960   0.117  0.00  0.00     0.213 C 
ENDBRANCH  23  25
ENDBRANCH   1  23
TORSDOF 3
