REMARK  2 active torsions:
REMARK  status: ('A' for Active; 'I' for Inactive)
REMARK    1  A    between atoms: C_2  and  S_1 
REMARK    2  A    between atoms: N_7  and  S_1 
ROOT
ATOM      1  C   UNL d   1       0.417   0.742   1.608  0.00  0.00     0.097 A 
ATOM      2  C   UNL d   1       0.053  -0.242   2.546  0.00  0.00     0.045 A 
ATOM      3  C   UNL d   1       0.385   2.095   1.973  0.00  0.00     0.029 A 
ATOM      4  C   UNL d   1      -0.003   2.442   3.279  0.00  0.00     0.021 A 
ATOM      5  C   UNL d   1      -0.332   0.121   3.833  0.00  0.00     0.012 A 
ATOM      6  I   UNL d   1       0.854   3.718   0.726  0.00  0.00    -0.043 I 
ATOM      7  C   UNL d   1      -0.357   1.459   4.207  0.00  0.00     0.020 A 
ATOM      8 BR   UNL d   1      -0.812  -1.211   5.084  0.00  0.00    -0.051 Br
ENDROOT
BRANCH   1   9
ATOM      9  S   UNL d   1       0.978   0.164   0.025  0.00  0.00     0.259 S 
ATOM     10  O   UNL d   1       0.792  -1.269  -0.034  0.00  0.00    -0.201 OA
ATOM     11  O   UNL d   1       2.276   0.750  -0.225  0.00  0.00    -0.201 OA
BRANCH   9  12
ATOM     12  N   UNL d   1      -0.096   0.848  -1.068  0.00  0.00    -0.320 N 
ATOM     13  C   UNL d   1      -1.355   0.166  -1.337  0.00  0.00     0.159 C 
ATOM     14  H   UNL d   1       0.389   1.292  -1.849  0.00  0.00     0.171 HD
ENDBRANCH   9  12
ENDBRANCH   1   9
TORSDOF 2
