REMARK  7 active torsions:
REMARK  status: ('A' for Active; 'I' for Inactive)
REMARK    1  A    between atoms: C_7  and  C_1 
REMARK    2  A    between atoms: C_13  and  N_4 
REMARK    3  A    between atoms: S_15  and  C_5 
REMARK    4  A    between atoms: N_8  and  C_7 
REMARK    5  A    between atoms: O_12  and  N_8 
REMARK    6  A    between atoms: C_10  and  O_12 
REMARK       I    between atoms: N_11  and  C_10 
REMARK    7  A    between atoms: C_17  and  N_11 
ROOT
ATOM      1  C   UNL d   1      -0.767   2.374  -0.145  0.00  0.00     0.134 C 
ATOM      2  N   UNL d   1       0.106   3.307  -0.623  0.00  0.00    -0.383 N 
ATOM      3  H   UNL d   1      -0.207   4.269  -0.707  0.00  0.00     0.157 HD
ATOM      4  H   UNL d   1       1.059   3.206  -0.296  0.00  0.00     0.157 HD
ENDROOT
BRANCH   1   5
ATOM      5  C   UNL d   1      -2.174   2.721  -0.290  0.00  0.00     0.061 A 
ATOM      6  C   UNL d   1      -2.818   3.878  -0.802  0.00  0.00     0.100 A 
ATOM      7  N   UNL d   1      -4.143   3.791  -0.782  0.00  0.00    -0.287 N 
ATOM      8  N   UNL d   1      -4.409   2.584  -0.244  0.00  0.00    -0.266 N 
ATOM      9  HN  UNL d   1      -4.815   4.488  -1.104  1.00  0.00     0.188 HD
ATOM     10  C   UNL d   1      -3.247   1.915   0.078  0.00  0.00     0.135 A 
BRANCH   6  11
ATOM     11  S   UNL d   1      -2.070   5.344  -1.410  0.00  0.00    -0.114 SA
ATOM     12  C   UNL d   1      -3.442   6.516  -1.275  0.00  0.00     0.097 C 
ENDBRANCH   6  11
BRANCH   8  13
ATOM     13  C   UNL d   1      -5.763   2.174  -0.074  0.00  0.00     0.056 A 
ATOM     14  C   UNL d   1      -6.095   0.942   0.498  0.00  0.00     0.031 A 
ATOM     15  C   UNL d   1      -7.441   0.586   0.646  0.00  0.00     0.002 A 
ATOM     16  C   UNL d   1      -8.453   1.451   0.228  0.00  0.00     0.000 A 
ATOM     17  C   UNL d   1      -8.130   2.678  -0.341  0.00  0.00     0.002 A 
ATOM     18  C   UNL d   1      -6.791   3.039  -0.493  0.00  0.00     0.031 A 
ENDBRANCH   8  13
ENDBRANCH   1   5
BRANCH   1  19
ATOM     19  N   UNL d   1      -0.429   1.243   0.402  0.00  0.00    -0.239 N 
ATOM     20  HN  UNL d   1      -1.065   0.550   0.796  1.00  0.00     0.196 HD
BRANCH  19  21
ATOM     21  O   UNL d   1       0.990   1.147   0.350  0.00  0.00    -0.179 OA
BRANCH  21  22
ATOM     22  C   UNL d   1       1.509  -0.017   0.879  0.00  0.00     0.387 C 
ATOM     23  N   UNL d   1       0.579  -0.814   1.500  0.00  0.00    -0.301 N 
ATOM     24  H   UNL d   1      -0.352  -0.416   1.456  0.00  0.00     0.171 HD
ATOM     25  O   UNL d   1       2.713  -0.231   0.788  0.00  0.00    -0.236 OA
BRANCH  23  26
ATOM     26  C   UNL d   1       0.796  -2.024   2.181  0.00  0.00     0.037 A 
ATOM     27  C   UNL d   1       2.047  -2.647   2.276  0.00  0.00     0.031 A 
ATOM     28  C   UNL d   1       2.199  -3.845   2.984  0.00  0.00     0.026 A 
ATOM     29  C   UNL d   1       1.099  -4.428   3.601  0.00  0.00     0.034 A 
ATOM     30  C   UNL d   1      -0.154  -3.825   3.513  0.00  0.00     0.026 A 
ATOM     31 CL   UNL d   1       1.286  -5.896   4.479  0.00  0.00    -0.084 Cl
ATOM     32  C   UNL d   1      -0.304  -2.628   2.803  0.00  0.00     0.031 A 
ENDBRANCH  23  26
ENDBRANCH  21  22
ENDBRANCH  19  21
ENDBRANCH   1  19
TORSDOF 7
