REMARK  9 active torsions:
REMARK  status: ('A' for Active; 'I' for Inactive)
REMARK    1  A    between atoms: C_4  and  N_1 
REMARK    2  A    between atoms: N_2  and  C_3 
REMARK    3  A    between atoms: O_20  and  C_13 
REMARK    4  A    between atoms: C_14  and  O_19 
REMARK    5  A    between atoms: O_19  and  C_22 
REMARK    6  A    between atoms: C_21  and  O_20 
REMARK    7  A    between atoms: C_24  and  C_21 
REMARK    8  A    between atoms: C_22  and  C_23 
REMARK    9  A    between atoms: C_23  and  C_24 
ROOT
ATOM      1  C   UNL d   1      -1.256  -6.719  -5.437  0.00  0.00     0.029 C 
ENDROOT
BRANCH   1   2
ATOM      2  C   UNL d   1      -2.000  -7.441  -6.561  0.00  0.00     0.175 C 
BRANCH   2   3
ATOM      3  O   UNL d   1      -1.395  -8.720  -6.751  0.00  0.00    -0.351 OA
BRANCH   3   4
ATOM      4  C   UNL d   1      -1.907  -9.473  -7.773  0.00  0.00     0.068 A 
ATOM      5  C   UNL d   1      -1.020 -10.410  -8.309  0.00  0.00     0.039 A 
ATOM      6  C   UNL d   1      -1.412 -11.243  -9.361  0.00  0.00     0.039 A 
ATOM      7  C   UNL d   1      -2.713 -11.143  -9.865  0.00  0.00     0.103 A 
ATOM      8  C   UNL d   1      -3.620 -10.229  -9.315  0.00  0.00     0.039 A 
ATOM      9  C   UNL d   1      -3.212  -9.395  -8.267  0.00  0.00     0.039 A 
BRANCH   7  10
ATOM     10  N   UNL d   1      -3.130 -12.003 -10.979  0.00  0.00    -0.116 N 
ATOM     11  O   UNL d   1      -2.289 -12.780 -11.454  0.00  0.00    -0.532 OA
ATOM     12  O   UNL d   1      -4.299 -11.901 -11.380  0.00  0.00    -0.532 OA
ENDBRANCH   7  10
ENDBRANCH   3   4
ENDBRANCH   2   3
ENDBRANCH   1   2
BRANCH   1  13
ATOM     13  C   UNL d   1      -1.792  -5.314  -5.156  0.00  0.00     0.029 C 
BRANCH  13  14
ATOM     14  C   UNL d   1      -3.272  -5.308  -4.778  0.00  0.00     0.175 C 
BRANCH  14  15
ATOM     15  O   UNL d   1      -3.674  -3.970  -4.483  0.00  0.00    -0.351 OA
BRANCH  15  16
ATOM     16  C   UNL d   1      -4.984  -3.825  -4.106  0.00  0.00     0.068 A 
ATOM     17  C   UNL d   1      -5.250  -2.721  -3.292  0.00  0.00     0.039 A 
ATOM     18  C   UNL d   1      -6.548  -2.467  -2.840  0.00  0.00     0.039 A 
ATOM     19  C   UNL d   1      -7.589  -3.320  -3.225  0.00  0.00     0.103 A 
ATOM     20  C   UNL d   1      -7.337  -4.413  -4.061  0.00  0.00     0.039 A 
ATOM     21  C   UNL d   1      -6.033  -4.661  -4.502  0.00  0.00     0.039 A 
BRANCH  19  22
ATOM     22  N   UNL d   1      -8.955  -3.067  -2.752  0.00  0.00    -0.116 N 
ATOM     23  O   UNL d   1      -9.847  -3.844  -3.125  0.00  0.00    -0.532 OA
ATOM     24  O   UNL d   1      -9.137  -2.094  -2.008  0.00  0.00    -0.532 OA
ENDBRANCH  19  22
ENDBRANCH  15  16
ENDBRANCH  14  15
ENDBRANCH  13  14
ENDBRANCH   1  13
TORSDOF 9
