REMARK  5 active torsions:
REMARK  status: ('A' for Active; 'I' for Inactive)
REMARK    1  A    between atoms: C_2  and  C_1 
REMARK       I    between atoms: N_4  and  C_1 
REMARK    2  A    between atoms: C_8  and  N_4 
REMARK    3  A    between atoms: C_10  and  C_8 
REMARK    4  A    between atoms: C_11  and  C_10 
REMARK    5  A    between atoms: O_12  and  C_10 
ROOT
ATOM      1  C   UNL d   1      -1.060  -1.074  -0.796  0.00  0.00     0.159 C 
ENDROOT
BRANCH   1   2
ATOM      2  N   UNL d   1      -1.423   0.016  -1.688  0.00  0.00    -0.354 N 
ATOM      3  C   UNL d   1      -0.715   1.195  -1.737  0.00  0.00     0.258 C 
ATOM      4  O   UNL d   1       0.283   1.365  -1.036  0.00  0.00    -0.267 OA
ATOM      5  H   UNL d   1      -2.333  -0.026  -2.136  0.00  0.00     0.162 HD
BRANCH   3   6
ATOM      6  C   UNL d   1      -1.204   2.207  -2.663  0.00  0.00     0.072 A 
ATOM      7  S   UNL d   1      -2.530   1.938  -3.716  0.00  0.00    -0.097 SA
ATOM      8  C   UNL d   1      -2.358   3.477  -4.442  0.00  0.00     0.050 A 
ATOM      9  C   UNL d   1      -1.334   4.202  -3.878  0.00  0.00     0.009 A 
ATOM     10  C   UNL d   1      -0.676   3.473  -2.847  0.00  0.00     0.025 A 
ENDBRANCH   3   6
ENDBRANCH   1   2
BRANCH   1  11
ATOM     11  C   UNL d   1      -1.590  -2.427  -1.308  0.00  0.00     0.169 C 
BRANCH  11  12
ATOM     12  C   UNL d   1      -1.254  -3.647  -0.469  0.00  0.00    -0.028 A 
ATOM     13  C   UNL d   1      -0.526  -3.587   0.728  0.00  0.00     0.010 A 
ATOM     14  C   UNL d   1      -0.267  -4.745   1.467  0.00  0.00     0.001 A 
ATOM     15  C   UNL d   1      -0.729  -5.981   1.022  0.00  0.00     0.000 A 
ATOM     16  C   UNL d   1      -1.443  -6.064  -0.170  0.00  0.00     0.001 A 
ATOM     17  C   UNL d   1      -1.700  -4.908  -0.910  0.00  0.00     0.010 A 
ENDBRANCH  11  12
BRANCH  11  18
ATOM     18  O   UNL d   1      -3.020  -2.314  -1.417  0.00  0.00    -0.389 OA
ATOM     19  H   UNL d   1      -3.398  -2.703  -0.609  0.00  0.00     0.210 HD
ENDBRANCH  11  18
ENDBRANCH   1  11
TORSDOF 5
