REMARK  2 active torsions:
REMARK  status: ('A' for Active; 'I' for Inactive)
REMARK    1  A    between atoms: C_8  and  C_4 
REMARK       I    between atoms: C_9  and  N_10 
REMARK    2  A    between atoms: N_10  and  C_14 
ROOT
ATOM      1  C   UNL d   1       3.717  -0.792  -0.111  0.00  0.00    -0.008 A 
ATOM      2  C   UNL d   1       4.566  -0.366   0.919  0.00  0.00     0.016 A 
ATOM      3  C   UNL d   1       4.242  -1.638  -1.090  0.00  0.00     0.016 A 
ATOM      4  C   UNL d   1       6.430  -1.610  -0.041  0.00  0.00     0.034 A 
ATOM      5  C   UNL d   1       5.579  -2.040  -1.055  0.00  0.00     0.030 A 
ATOM      6  C   UNL d   1       5.911  -0.773   0.955  0.00  0.00     0.030 A 
ENDROOT
BRANCH   1   7
ATOM      7  C   UNL d   1       2.330  -0.352  -0.166  0.00  0.00     0.060 A 
ATOM      8  N   UNL d   1       1.748   0.478   0.785  0.00  0.00    -0.335 N 
ATOM      9  C   UNL d   1       0.532   0.649   0.346  0.00  0.00     0.147 A 
ATOM     10  HN  UNL d   1       2.172   0.863   1.629  1.00  0.00     0.168 HD
ATOM     11  N   UNL d   1       0.297  -0.015  -0.809  0.00  0.00    -0.335 N 
ATOM     12  S   UNL d   1      -0.836   1.522   0.904  0.00  0.00    -0.092 SA
ATOM     13  C   UNL d   1       1.421  -0.668  -1.170  0.00  0.00     0.123 A 
ATOM     14  C   UNL d   1      -0.992   0.153  -1.433  0.00  0.00     0.141 C 
ATOM     15  C   UNL d   1      -1.918   0.731  -0.360  0.00  0.00     0.102 C 
ENDBRANCH   1   7
BRANCH   4  16
ATOM     16  N   UNL d   1       7.794  -1.981   0.026  0.00  0.00    -0.328 N 
ATOM     17  C   UNL d   1       8.471  -2.783  -0.879  0.00  0.00     0.218 C 
ATOM     18  O   UNL d   1       8.015  -3.304  -1.893  0.00  0.00    -0.274 OA
ATOM     19  C   UNL d   1       9.924  -2.991  -0.537  0.00  0.00     0.117 C 
ATOM     20  H   UNL d   1       8.316  -1.611   0.810  0.00  0.00     0.169 HD
ENDBRANCH   4  16
TORSDOF 2
