REMARK  2 active torsions:
REMARK  status: ('A' for Active; 'I' for Inactive)
REMARK    1  A    between atoms: C_5  and  C_1 
REMARK    2  A    between atoms: C_7  and  C_2 
REMARK       I    between atoms: N_6  and  C_5 
ROOT
ATOM      1  C   UNL d   1      -0.365  -1.276  -0.044  0.00  0.00     0.092 C 
ATOM      2  C   UNL d   1       0.291  -0.146  -0.638  0.00  0.00     0.085 C 
ATOM      3  N   UNL d   1      -0.569   0.875  -0.743  0.00  0.00    -0.259 N 
ATOM      4  HN  UNL d   1      -0.402   1.764  -1.214  1.00  0.00     0.195 HD
ATOM      5  O   UNL d   1      -1.718   0.498  -0.096  0.00  0.00    -0.241 OA
ATOM      6  C   UNL d   1      -1.590  -0.772   0.351  0.00  0.00     0.090 C 
ATOM      7  C   UNL d   1      -2.736  -1.288   1.127  0.00  0.00     0.080 C 
ENDROOT
BRANCH   1   8
ATOM      8  C   UNL d   1       0.144  -2.608   0.219  0.00  0.00     0.259 C 
ATOM      9  N   UNL d   1      -0.633  -3.707  -0.167  0.00  0.00    -0.343 N 
ATOM     10  C   UNL d   1      -0.091  -5.036   0.143  0.00  0.00     0.165 C 
ATOM     11  C   UNL d   1      -1.722  -3.664  -1.150  0.00  0.00     0.131 C 
ATOM     12  C   UNL d   1      -0.916  -6.206  -0.361  0.00  0.00    -0.034 A 
ATOM     13  C   UNL d   1      -0.354  -7.487  -0.428  0.00  0.00     0.009 A 
ATOM     14  C   UNL d   1      -2.254  -6.029  -0.762  0.00  0.00    -0.049 A 
ATOM     15  C   UNL d   1      -1.107  -8.569  -0.890  0.00  0.00     0.001 A 
ATOM     16  C   UNL d   1      -2.439  -8.389  -1.259  0.00  0.00     0.001 A 
ATOM     17  C   UNL d   1      -3.017  -7.124  -1.185  0.00  0.00     0.008 A 
ATOM     18  C   UNL d   1      -2.832  -4.640  -0.757  0.00  0.00     0.059 C 
ATOM     19  O   UNL d   1       1.236  -2.755   0.766  0.00  0.00    -0.267 OA
ENDBRANCH   1   8
BRANCH   2  20
ATOM     20  C   UNL d   1       1.651  -0.009  -1.187  0.00  0.00     0.015 A 
ATOM     21  C   UNL d   1       2.429   1.154  -1.001  0.00  0.00     0.046 A 
ATOM     22 CL   UNL d   1       1.957   2.466   0.031  0.00  0.00    -0.083 Cl
ATOM     23  C   UNL d   1       3.673   1.289  -1.633  0.00  0.00     0.025 A 
ATOM     24  C   UNL d   1       4.173   0.265  -2.433  0.00  0.00     0.002 A 
ATOM     25  C   UNL d   1       3.436  -0.904  -2.592  0.00  0.00     0.001 A 
ATOM     26  C   UNL d   1       2.185  -1.040  -1.979  0.00  0.00     0.015 A 
ENDBRANCH   2  20
TORSDOF 2
