REMARK  3 active torsions:
REMARK  status: ('A' for Active; 'I' for Inactive)
REMARK       I    between atoms: C_3  and  N_1 
REMARK    1  A    between atoms: C_5  and  C_2 
REMARK       I    between atoms: N_11  and  C_3 
REMARK    2  A    between atoms: N_4  and  C_9 
REMARK    3  A    between atoms: C_20  and  N_11 
ROOT
ATOM      1  N   UNL d   1       0.917  -0.697  -0.046  0.00  0.00    -0.205 N 
ATOM      2  C   UNL d   1      -0.396  -1.183  -0.020  0.00  0.00     0.074 A 
ATOM      3  C   UNL d   1       2.138  -1.399  -0.105  0.00  0.00     0.346 C 
ATOM      4  N   UNL d   1       0.968   0.665   0.019  0.00  0.00    -0.301 N 
ATOM      5  HN  UNL d   1       1.793   1.257   0.119  1.00  0.00     0.186 HD
ATOM      6  N   UNL d   1       2.679  -1.518   1.159  0.00  0.00    -0.307 N 
ATOM      7  C   UNL d   1      -1.184  -0.042  -0.065  0.00  0.00     0.051 A 
ATOM      8  C   UNL d   1      -0.302   1.046  -0.079  0.00  0.00     0.110 A 
ATOM      9  O   UNL d   1       2.520  -1.827  -1.184  0.00  0.00    -0.245 OA
ATOM     10  H   UNL d   1       2.176  -1.079   1.923  0.00  0.00     0.170 HD
ENDROOT
BRANCH   2  11
ATOM     11  C   UNL d   1      -0.808  -2.605   0.017  0.00  0.00     0.015 A 
ATOM     12  C   UNL d   1      -1.917  -3.074   0.762  0.00  0.00     0.049 A 
ATOM     13  C   UNL d   1      -2.317  -4.418   0.714  0.00  0.00     0.060 A 
ATOM     14 CL   UNL d   1      -2.851  -2.057   1.813  0.00  0.00    -0.083 Cl
ATOM     15  C   UNL d   1      -1.590  -5.323  -0.057  0.00  0.00     0.104 A 
ATOM     16  C   UNL d   1      -0.485  -4.899  -0.790  0.00  0.00     0.037 A 
ATOM     17  C   UNL d   1      -0.118  -3.550  -0.764  0.00  0.00     0.018 A 
BRANCH  15  18
ATOM     18  N   UNL d   1      -1.997  -6.739  -0.108  0.00  0.00    -0.116 N 
ATOM     19  O   UNL d   1      -3.005  -7.066   0.526  0.00  0.00    -0.532 OA
ATOM     20  O   UNL d   1      -1.303  -7.509  -0.781  0.00  0.00    -0.532 OA
ENDBRANCH  15  18
ENDBRANCH   2  11
BRANCH   6  21
ATOM     21  C   UNL d   1       3.867  -2.205   1.493  0.00  0.00     0.036 A 
ATOM     22  C   UNL d   1       4.711  -2.796   0.549  0.00  0.00     0.029 A 
ATOM     23  C   UNL d   1       5.861  -3.483   0.953  0.00  0.00     0.002 A 
ATOM     24  C   UNL d   1       6.177  -3.588   2.304  0.00  0.00     0.000 A 
ATOM     25  C   UNL d   1       5.349  -2.994   3.253  0.00  0.00     0.002 A 
ATOM     26  C   UNL d   1       4.202  -2.302   2.849  0.00  0.00     0.029 A 
ENDBRANCH   6  21
TORSDOF 3
