REMARK  6 active torsions:
REMARK  status: ('A' for Active; 'I' for Inactive)
REMARK    1  A    between atoms: C_9  and  C_1 
REMARK    2  A    between atoms: N_20  and  C_3 
REMARK    3  A    between atoms: C_19  and  C_6 
REMARK       I    between atoms: N_18  and  C_9 
REMARK    4  A    between atoms: C_22  and  C_12 
REMARK    5  A    between atoms: C_14  and  C_23 
REMARK    6  A    between atoms: N_15  and  N_18 
ROOT
ATOM      1  C   UNL d   1      -2.579  -0.747   0.028  0.00  0.00     0.103 A 
ATOM      2  C   UNL d   1      -0.210  -0.996   0.003  0.00  0.00     0.040 A 
ATOM      3  C   UNL d   1      -1.510  -1.622  -0.090  0.00  0.00     0.062 A 
ATOM      4  C   UNL d   1      -0.393   0.377   0.090  0.00  0.00     0.103 A 
ATOM      5  S   UNL d   1      -2.029   0.865   0.127  0.00  0.00    -0.062 SA
ATOM      6  C   UNL d   1       1.145  -1.460   0.025  0.00  0.00     0.018 A 
ATOM      7  N   UNL d   1       1.838   0.864   0.161  0.00  0.00    -0.298 N 
ATOM      8  HN  UNL d   1       2.595   1.546   0.198  1.00  0.00     0.187 HD
ATOM      9  N   UNL d   1       0.588   1.294   0.153  0.00  0.00    -0.292 N 
ATOM     10  HN  UNL d   1       0.374   2.290   0.193  1.00  0.00     0.187 HD
ATOM     11  C   UNL d   1       2.144  -0.461   0.120  0.00  0.00     0.070 A 
ENDROOT
BRANCH   1  12
ATOM     12  C   UNL d   1      -3.989  -1.123   0.053  0.00  0.00     0.279 C 
ATOM     13  N   UNL d   1      -4.945  -0.108   0.052  0.00  0.00    -0.266 N 
ATOM     14  H   UNL d   1      -4.686   0.870   0.017  0.00  0.00     0.190 HD
ATOM     15  O   UNL d   1      -4.332  -2.313   0.062  0.00  0.00    -0.265 OA
BRANCH  13  16
ATOM     16  N   UNL d   1      -6.251  -0.493   0.091  0.00  0.00    -0.308 N 
ATOM     17  C   UNL d   1      -7.179   0.402   0.025  0.00  0.00     0.120 C 
ATOM     18  HN  UNL d   1      -6.493  -1.481   0.171  1.00  0.00     0.186 HD
BRANCH  17  19
ATOM     19  C   UNL d   1      -8.600  -0.035   0.085  0.00  0.00     0.003 A 
ATOM     20  C   UNL d   1      -9.665   0.871   0.011  0.00  0.00     0.047 A 
ATOM     21  C   UNL d   1     -10.985   0.406   0.095  0.00  0.00     0.048 A 
ATOM     22 CL   UNL d   1      -9.434   2.571  -0.181  0.00  0.00    -0.083 Cl
ATOM     23  C   UNL d   1     -11.240  -0.956   0.249  0.00  0.00     0.035 A 
ATOM     24  C   UNL d   1     -10.191  -1.867   0.315  0.00  0.00     0.025 A 
ATOM     25 CL   UNL d   1     -12.862  -1.516   0.365  0.00  0.00    -0.084 Cl
ATOM     26  C   UNL d   1      -8.876  -1.405   0.233  0.00  0.00     0.016 A 
ENDBRANCH  17  19
ENDBRANCH  13  16
ENDBRANCH   1  12
BRANCH   3  27
ATOM     27  N   UNL d   1      -1.719  -2.948  -0.253  0.00  0.00    -0.397 N 
ATOM     28  H   UNL d   1      -1.027  -3.582  -0.643  0.00  0.00     0.156 HD
ATOM     29  H   UNL d   1      -2.675  -3.318  -0.297  0.00  0.00     0.156 HD
ENDBRANCH   3  27
BRANCH   6  30
ATOM     30  C   UNL d   1       1.431  -2.909  -0.049  0.00  0.00    -0.023 A 
ATOM     31  C   UNL d   1       2.268  -3.442  -1.046  0.00  0.00     0.012 A 
ATOM     32  C   UNL d   1       2.559  -4.809  -1.092  0.00  0.00     0.001 A 
ATOM     33  C   UNL d   1       1.980  -5.679  -0.172  0.00  0.00     0.000 A 
ATOM     34  C   UNL d   1       1.143  -5.178   0.819  0.00  0.00     0.001 A 
ATOM     35  C   UNL d   1       0.901  -3.804   0.899  0.00  0.00     0.012 A 
ENDBRANCH   6  30
BRANCH  11  36
ATOM     36  C   UNL d   1       3.608  -0.725   0.169  0.00  0.00    -0.007 A 
ATOM     37  C   UNL d   1       4.502   0.056  -0.590  0.00  0.00     0.014 A 
ATOM     38  C   UNL d   1       5.875  -0.219  -0.617  0.00  0.00     0.001 A 
ATOM     39  C   UNL d   1       6.387  -1.285   0.115  0.00  0.00     0.000 A 
ATOM     40  C   UNL d   1       5.535  -2.050   0.904  0.00  0.00     0.001 A 
ATOM     41  C   UNL d   1       4.168  -1.755   0.949  0.00  0.00     0.014 A 
ENDBRANCH  11  36
TORSDOF 6
