REMARK  2 active torsions:
REMARK  status: ('A' for Active; 'I' for Inactive)
REMARK    1  A    between atoms: S_6  and  C_4 
REMARK    2  A    between atoms: C_9  and  S_6 
ROOT
ATOM      1  S   UNL d   1      -1.436  -1.779  -0.037  0.00  0.00     0.177 S 
ATOM      2  C   UNL d   1      -2.684  -0.513   0.120  0.00  0.00     0.166 A 
ATOM      3  C   UNL d   1      -0.071  -0.703   0.039  0.00  0.00     0.066 A 
ATOM      4  C   UNL d   1      -1.970   0.850   0.156  0.00  0.00     0.101 A 
ATOM      5  C   UNL d   1      -0.473   0.626   0.132  0.00  0.00    -0.022 A 
ATOM      6  O   UNL d   1      -1.482  -2.333  -1.374  0.00  0.00    -0.223 OA
ATOM      7  O   UNL d   1      -1.424  -2.600   1.156  0.00  0.00    -0.223 OA
ATOM      8  C   UNL d   1       0.513   1.610   0.138  0.00  0.00     0.010 A 
ATOM      9  C   UNL d   1       1.254  -1.108  -0.015  0.00  0.00     0.024 A 
ATOM     10  C   UNL d   1       1.863   1.234   0.080  0.00  0.00     0.001 A 
ATOM     11  C   UNL d   1       2.231  -0.118   0.009  0.00  0.00     0.002 A 
ENDROOT
BRANCH   4  12
ATOM     12  S   UNL d   1      -2.473   1.825   1.638  0.00  0.00    -0.119 SA
BRANCH  12  13
ATOM     13  C   UNL d   1      -4.226   2.011   1.355  0.00  0.00     0.001 A 
ATOM     14  C   UNL d   1      -5.126   1.470   2.279  0.00  0.00     0.019 A 
ATOM     15  C   UNL d   1      -6.505   1.607   2.091  0.00  0.00     0.008 A 
ATOM     16  C   UNL d   1      -7.005   2.301   0.984  0.00  0.00    -0.062 A 
ATOM     17  C   UNL d   1      -6.103   2.860   0.072  0.00  0.00     0.008 A 
ATOM     18  C   UNL d   1      -8.488   2.425   0.785  0.00  0.00     0.048 C 
ATOM     19  C   UNL d   1      -4.723   2.719   0.258  0.00  0.00     0.019 A 
ENDBRANCH  12  13
ENDBRANCH   4  12
TORSDOF 2
