REMARK  5 active torsions:
REMARK  status: ('A' for Active; 'I' for Inactive)
REMARK    1  A    between atoms: N_13  and  C_3 
REMARK    2  A    between atoms: C_12  and  C_10 
REMARK    3  A    between atoms: C_16  and  C_11 
REMARK    4  A    between atoms: N_15  and  N_13 
REMARK       I    between atoms: C_14  and  N_15 
REMARK    5  A    between atoms: C_17  and  C_14 
ROOT
ATOM      1  N   UNL d   1       0.236   0.667   0.040  0.00  0.00    -0.222 N 
ATOM      2  C   UNL d   1       0.115  -0.727  -0.012  0.00  0.00     0.131 A 
ATOM      3  C   UNL d   1      -0.923   1.486   0.105  0.00  0.00     0.145 A 
ATOM      4  N   UNL d   1       1.547   1.048   0.032  0.00  0.00    -0.294 N 
ATOM      5  HN  UNL d   1       1.915   1.999   0.051  1.00  0.00     0.187 HD
ATOM      6  N   UNL d   1      -1.087  -1.371  -0.009  0.00  0.00    -0.337 N 
ATOM      7  HN  UNL d   1      -1.147  -2.389  -0.045  1.00  0.00     0.167 HD
ATOM      8  C   UNL d   1       1.394  -1.222  -0.039  0.00  0.00     0.077 A 
ATOM      9  C   UNL d   1      -2.123   0.875   0.089  0.00  0.00     0.086 A 
ATOM     10  C   UNL d   1      -2.157  -0.624   0.043  0.00  0.00     0.121 A 
ATOM     11  C   UNL d   1       2.249  -0.097  -0.008  0.00  0.00     0.037 A 
ENDROOT
BRANCH   3  12
ATOM     12  N   UNL d   1      -0.761   2.867   0.208  0.00  0.00    -0.281 N 
ATOM     13  H   UNL d   1       0.135   3.222  -0.162  0.00  0.00     0.188 HD
BRANCH  12  14
ATOM     14  N   UNL d   1      -1.841   3.763   0.146  0.00  0.00    -0.264 N 
ATOM     15  C   UNL d   1      -1.630   5.005  -0.432  0.00  0.00     0.270 C 
ATOM     16  O   UNL d   1      -0.586   5.342  -0.975  0.00  0.00    -0.266 OA
ATOM     17  H   UNL d   1      -2.502   3.690   0.914  0.00  0.00     0.190 HD
BRANCH  15  18
ATOM     18  C   UNL d   1      -2.784   5.953  -0.336  0.00  0.00     0.033 A 
ATOM     19  C   UNL d   1      -2.533   7.331  -0.310  0.00  0.00     0.019 A 
ATOM     20  C   UNL d   1      -3.596   8.241  -0.259  0.00  0.00     0.025 A 
ATOM     21  C   UNL d   1      -4.910   7.775  -0.245  0.00  0.00     0.034 A 
ATOM     22  C   UNL d   1      -5.171   6.406  -0.275  0.00  0.00     0.025 A 
ATOM     23 CL   UNL d   1      -6.217   8.893  -0.210  0.00  0.00    -0.084 Cl
ATOM     24  C   UNL d   1      -4.111   5.494  -0.321  0.00  0.00     0.019 A 
ENDBRANCH  15  18
ENDBRANCH  12  14
ENDBRANCH   3  12
BRANCH  10  25
ATOM     25  C   UNL d   1      -3.541  -1.277   0.091  0.00  0.00     0.432 C 
ATOM     26  F   UNL d   1      -4.552  -0.361   0.109  0.00  0.00    -0.165 F 
ATOM     27  F   UNL d   1      -3.778  -2.081  -0.979  0.00  0.00    -0.165 F 
ATOM     28  F   UNL d   1      -3.709  -2.041   1.205  0.00  0.00    -0.165 F 
ENDBRANCH  10  25
BRANCH  11  29
ATOM     29  C   UNL d   1       3.772  -0.123  -0.011  0.00  0.00    -0.007 C 
ATOM     30  C   UNL d   1       4.382   1.292   0.034  0.00  0.00     0.021 C 
ATOM     31  C   UNL d   1       4.289  -0.904   1.217  0.00  0.00     0.021 C 
ATOM     32  C   UNL d   1       4.288  -0.826  -1.286  0.00  0.00     0.021 C 
ENDBRANCH  11  29
TORSDOF 5
