REMARK  3 active torsions:
REMARK  status: ('A' for Active; 'I' for Inactive)
REMARK    1  A    between atoms: N_2  and  C_1 
REMARK    2  A    between atoms: N_3  and  C_1 
REMARK    3  A    between atoms: C_4  and  N_3 
ROOT
ATOM      1  C   UNL d   1       1.093  -0.017   0.029  0.00  0.00     0.174 C 
ATOM      2  S   UNL d   1       2.696   0.453   0.268  0.00  0.00    -0.041 SA
ENDROOT
BRANCH   1   3
ATOM      3  N   UNL d   1       0.439  -0.988   0.808  0.00  0.00    -0.353 N 
ATOM      4  C   UNL d   1       1.130  -1.806   1.829  0.00  0.00     0.157 C 
ATOM      5  C   UNL d   1       0.742  -3.292   1.700  0.00  0.00     0.136 C 
ATOM      6  C   UNL d   1       1.360  -4.117   2.820  0.00  0.00     0.041 C 
ATOM      7  O   UNL d   1      -0.686  -3.456   1.773  0.00  0.00    -0.378 OA
ATOM      8  C   UNL d   1      -1.333  -2.741   0.708  0.00  0.00     0.136 C 
ATOM      9  C   UNL d   1      -1.016  -1.238   0.789  0.00  0.00     0.157 C 
ATOM     10  C   UNL d   1      -2.832  -2.981   0.834  0.00  0.00     0.041 C 
ENDBRANCH   1   3
BRANCH   1  11
ATOM     11  N   UNL d   1       0.261   0.572  -0.920  0.00  0.00    -0.332 N 
ATOM     12  H   UNL d   1      -0.564   0.944  -0.483  0.00  0.00     0.168 HD
BRANCH  11  13
ATOM     13  C   UNL d   1       0.651   1.226  -2.121  0.00  0.00     0.046 C 
ATOM     14  C   UNL d   1       1.580   0.643  -3.016  0.00  0.00    -0.035 C 
ATOM     15  C   UNL d   1       2.030   1.381  -4.126  0.00  0.00     0.009 C 
ATOM     16  C   UNL d   1       2.086  -0.774  -2.915  0.00  0.00     0.050 C 
ATOM     17  C   UNL d   1       1.514   2.639  -4.404  0.00  0.00     0.001 C 
ATOM     18  C   UNL d   1       0.511   3.159  -3.596  0.00  0.00     0.009 C 
ATOM     19  C   UNL d   1       0.048   2.460  -2.464  0.00  0.00    -0.035 C 
ATOM     20  C   UNL d   1      -1.042   3.143  -1.679  0.00  0.00     0.050 C 
ENDBRANCH  11  13
ENDBRANCH   1  11
TORSDOF 3
