REMARK  2 active torsions:
REMARK  status: ('A' for Active; 'I' for Inactive)
REMARK    1  A    between atoms: O_10  and  C_3 
REMARK    2  A    between atoms: O_11  and  C_8 
ROOT
ATOM      1  C   UNL d   1      -0.685  -1.255  -0.037  0.00  0.00     0.080 A 
ATOM      2  C   UNL d   1      -0.759   1.155  -0.012  0.00  0.00     0.065 A 
ATOM      3  C   UNL d   1      -1.433  -0.067  -0.036  0.00  0.00     0.090 A 
ATOM      4  N   UNL d   1      -1.801  -3.601  -0.098  0.00  0.00    -0.191 NA
ATOM      5  C   UNL d   1      -1.330  -2.539  -0.067  0.00  0.00     0.102 C 
ATOM      6  C   UNL d   1       0.640   1.192  -0.021  0.00  0.00     0.070 A 
ATOM      7  C   UNL d   1       0.720  -1.214  -0.021  0.00  0.00     0.064 A 
ATOM      8  C   UNL d   1       1.395   0.009  -0.030  0.00  0.00     0.091 A 
ATOM      9 CL   UNL d   1       1.402   2.746  -0.032  0.00  0.00    -0.081 Cl
ENDROOT
BRANCH   3  10
ATOM     10  O   UNL d   1      -2.796  -0.201  -0.068  0.00  0.00    -0.354 OA
ATOM     11  C   UNL d   1      -3.576   0.990  -0.072  0.00  0.00     0.210 C 
ENDBRANCH   3  10
BRANCH   8  12
ATOM     12  O   UNL d   1       2.757   0.147  -0.058  0.00  0.00    -0.354 OA
ATOM     13  C   UNL d   1       3.548  -1.033  -0.073  0.00  0.00     0.210 C 
ENDBRANCH   8  12
TORSDOF 2
