REMARK  3 active torsions:
REMARK  status: ('A' for Active; 'I' for Inactive)
REMARK    1  A    between atoms: C_7  and  N_1 
REMARK    2  A    between atoms: C_2  and  C_6 
REMARK       I    between atoms: N_4  and  C_2 
REMARK    3  A    between atoms: C_3  and  N_5 
ROOT
ATOM      1  C   UNL d   1       0.176  -4.816  -0.312  0.00  0.00     0.254 C 
ATOM      2  N   UNL d   1      -0.420  -5.920  -0.906  0.00  0.00    -0.345 N 
ATOM      3  N   UNL d   1      -2.319  -7.750  -1.955  0.00  0.00    -0.214 N 
ATOM      4  C   UNL d   1      -0.380  -6.305  -2.327  0.00  0.00     0.146 C 
ATOM      5  C   UNL d   1      -0.975  -6.971  -0.041  0.00  0.00     0.146 C 
ATOM      6  C   UNL d   1      -2.366  -7.428  -0.522  0.00  0.00     0.161 C 
ATOM      7  C   UNL d   1      -1.786  -6.697  -2.824  0.00  0.00     0.161 C 
ATOM      8  O   UNL d   1       0.294  -4.698   0.909  0.00  0.00    -0.267 OA
ENDROOT
BRANCH   1   9
ATOM      9  C   UNL d   1       0.699  -3.696  -1.137  0.00  0.00     0.034 A 
ATOM     10  C   UNL d   1       1.902  -3.093  -0.744  0.00  0.00     0.053 A 
ATOM     11  C   UNL d   1       2.401  -2.008  -1.475  0.00  0.00     0.103 A 
ATOM     12  C   UNL d   1       1.716  -1.532  -2.603  0.00  0.00     0.036 A 
ATOM     13  C   UNL d   1       0.501  -2.112  -2.967  0.00  0.00     0.003 A 
ATOM     14  C   UNL d   1      -0.022  -3.167  -2.216  0.00  0.00     0.017 A 
BRANCH  11  15
ATOM     15  N   UNL d   1       3.639  -1.347  -1.047  0.00  0.00    -0.116 N 
ATOM     16  O   UNL d   1       4.202  -1.776  -0.031  0.00  0.00    -0.532 OA
ATOM     17  O   UNL d   1       4.046  -0.394  -1.727  0.00  0.00    -0.532 OA
ENDBRANCH  11  15
ENDBRANCH   1   9
BRANCH   3  18
ATOM     18  C   UNL d   1      -3.289  -8.581  -2.474  0.00  0.00     0.679 A 
ATOM     19  N   UNL d   1      -4.066  -9.284  -1.634  0.00  0.00    -0.202 N 
ATOM     20  C   UNL d   1      -4.917 -10.183  -2.165  0.00  0.00     0.107 A 
ATOM     21  HN  UNL d   1      -4.012  -9.143  -0.625  1.00  0.00     0.183 HD
ATOM     22  C   UNL d   1      -5.031 -10.414  -3.510  0.00  0.00     0.035 A 
ATOM     23  C   UNL d   1      -4.221  -9.640  -4.298  0.00  0.00     0.107 A 
ATOM     24  N   UNL d   1      -3.362  -8.727  -3.808  0.00  0.00    -0.202 N 
ATOM     25  HN  UNL d   1      -2.784  -8.162  -4.431  1.00  0.00     0.183 HD
ENDBRANCH   3  18
TORSDOF 3
