REMARK  2 active torsions:
REMARK  status: ('A' for Active; 'I' for Inactive)
REMARK    1  A    between atoms: C_2  and  C_1 
REMARK       I    between atoms: N_3  and  C_1 
REMARK    2  A    between atoms: C_6  and  N_3 
ROOT
ATOM      1  C   UNL d   1       1.093  -0.012  -0.025  0.00  0.00     0.259 C 
ATOM      2  N   UNL d   1       0.278  -1.064  -0.395  0.00  0.00    -0.320 N 
ATOM      3  O   UNL d   1       2.311   0.029  -0.152  0.00  0.00    -0.267 OA
ATOM      4  H   UNL d   1      -0.700  -0.846  -0.548  0.00  0.00     0.169 HD
ENDROOT
BRANCH   1   5
ATOM      5  C   UNL d   1       0.424   1.180   0.550  0.00  0.00     0.070 A 
ATOM      6  C   UNL d   1      -0.801   1.690   0.141  0.00  0.00     0.119 A 
ATOM      7  N   UNL d   1      -1.398   2.776   0.691  0.00  0.00    -0.356 N 
ATOM      8 CL   UNL d   1      -1.737   1.039  -1.152  0.00  0.00    -0.063 Cl
ATOM      9  C   UNL d   1      -0.732   3.402   1.684  0.00  0.00     0.089 A 
ATOM     10  HN  UNL d   1      -2.309   3.105   0.370  1.00  0.00     0.166 HD
ATOM     11  C   UNL d   1       0.504   2.993   2.152  0.00  0.00     0.018 A 
ATOM     12  C   UNL d   1       1.089   1.868   1.574  0.00  0.00     0.022 A 
ENDBRANCH   1   5
BRANCH   2  13
ATOM     13  C   UNL d   1       0.710  -2.314  -0.904  0.00  0.00     0.074 A 
ATOM     14  C   UNL d   1       1.868  -3.026  -0.562  0.00  0.00     0.130 A 
ATOM     15  N   UNL d   1       2.209  -4.224  -1.107  0.00  0.00    -0.355 N 
ATOM     16 CL   UNL d   1       2.873  -2.662   0.789  0.00  0.00    -0.062 Cl
ATOM     17  C   UNL d   1       1.370  -4.749  -2.020  0.00  0.00     0.089 A 
ATOM     18  HN  UNL d   1       3.067  -4.706  -0.836  1.00  0.00     0.166 HD
ATOM     19  C   UNL d   1       0.180  -4.154  -2.395  0.00  0.00     0.019 A 
ATOM     20  C   UNL d   1      -0.154  -2.929  -1.820  0.00  0.00     0.034 A 
ENDBRANCH   2  13
TORSDOF 2
