REMARK  8 active torsions:
REMARK  status: ('A' for Active; 'I' for Inactive)
REMARK    1  A    between atoms: N_3  and  C_1 
REMARK    2  A    between atoms: N_6  and  C_1 
REMARK    3  A    between atoms: C_2  and  C_5 
REMARK    4  A    between atoms: O_15  and  C_2 
REMARK    5  A    between atoms: C_13  and  N_3 
REMARK    6  A    between atoms: C_14  and  N_6 
REMARK    7  A    between atoms: C_12  and  C_14 
REMARK    8  A    between atoms: C_21  and  O_15 
ROOT
ATOM      1  N   UNL d   1       0.387  -0.010  -1.260  0.00  0.00    -0.333 N 
ATOM      2  H   UNL d   1       0.912  -0.427  -0.500  0.00  0.00     0.168 HD
ENDROOT
BRANCH   1   3
ATOM      3  C   UNL d   1      -0.786   0.589  -0.878  0.00  0.00     0.172 C 
ATOM      4  S   UNL d   1      -2.281   0.427  -1.605  0.00  0.00    -0.041 SA
BRANCH   3   5
ATOM      5  N   UNL d   1      -0.709   1.355   0.253  0.00  0.00    -0.363 N 
ATOM      6  H   UNL d   1      -1.607   1.754   0.503  0.00  0.00     0.162 HD
BRANCH   5   7
ATOM      7  C   UNL d   1       0.443   2.170   0.607  0.00  0.00     0.162 C 
BRANCH   7   8
ATOM      8  C   UNL d   1       1.295   1.607   1.705  0.00  0.00    -0.025 A 
ATOM      9  C   UNL d   1       2.632   1.987   1.796  0.00  0.00     0.096 A 
ATOM     10  N   UNL d   1       3.469   1.609   2.788  0.00  0.00    -0.375 N 
ATOM     11  C   UNL d   1       2.948   0.821   3.752  0.00  0.00     0.087 A 
ATOM     12  HN  UNL d   1       4.445   1.903   2.806  1.00  0.00     0.164 HD
ATOM     13  C   UNL d   1       1.632   0.394   3.764  0.00  0.00     0.018 A 
ATOM     14  C   UNL d   1       0.794   0.797   2.727  0.00  0.00     0.011 A 
ENDBRANCH   7   8
ENDBRANCH   5   7
ENDBRANCH   3   5
ENDBRANCH   1   3
BRANCH   1  15
ATOM     15  C   UNL d   1       0.837  -0.277  -2.568  0.00  0.00     0.034 A 
ATOM     16  C   UNL d   1       0.480   0.539  -3.644  0.00  0.00     0.030 A 
ATOM     17  C   UNL d   1       1.080   0.369  -4.893  0.00  0.00     0.020 A 
ATOM     18  C   UNL d   1       2.050  -0.622  -5.080  0.00  0.00     0.039 A 
ATOM     19  C   UNL d   1       2.366  -1.482  -4.021  0.00  0.00     0.020 A 
ATOM     20  C   UNL d   1       1.773  -1.298  -2.765  0.00  0.00     0.030 A 
BRANCH  18  21
ATOM     21  C   UNL d   1       2.857  -0.702  -6.330  0.00  0.00     0.293 C 
ATOM     22  O   UNL d   1       3.763  -1.496  -6.505  0.00  0.00    -0.259 OA
BRANCH  21  23
ATOM     23  O   UNL d   1       2.529   0.339  -7.136  0.00  0.00    -0.318 OA
BRANCH  23  24
ATOM     24  C   UNL d   1       3.517   0.733  -8.096  0.00  0.00     0.174 C 
ATOM     25  C   UNL d   1       4.417   1.769  -7.445  0.00  0.00     0.034 C 
ENDBRANCH  23  24
ENDBRANCH  21  23
ENDBRANCH  18  21
ENDBRANCH   1  15
TORSDOF 8
