REMARK  10 active torsions:
REMARK  status: ('A' for Active; 'I' for Inactive)
REMARK    1  A    between atoms: N_6  and  C_1 
REMARK    2  A    between atoms: N_10  and  C_1 
REMARK    3  A    between atoms: C_2  and  C_12 
REMARK    4  A    between atoms: C_3  and  C_8 
REMARK    5  A    between atoms: O_19  and  C_3 
REMARK    6  A    between atoms: N_4  and  N_10 
REMARK    7  A    between atoms: C_17  and  N_6 
REMARK    8  A    between atoms: O_23  and  C_9 
REMARK    9  A    between atoms: O_24  and  C_18 
REMARK   10  A    between atoms: C_25  and  O_19 
ROOT
ATOM      1  C   UNL d   1       1.212  -0.115  -0.459  0.00  0.00     0.191 C 
ATOM      2  S   UNL d   1       0.657  -1.276   0.605  0.00  0.00    -0.039 SA
ENDROOT
BRANCH   1   3
ATOM      3  N   UNL d   1       0.494   0.889  -1.065  0.00  0.00    -0.332 N 
ATOM      4  H   UNL d   1       0.922   1.199  -1.930  0.00  0.00     0.168 HD
BRANCH   3   5
ATOM      5  C   UNL d   1      -0.601   1.637  -0.606  0.00  0.00     0.034 A 
ATOM      6  C   UNL d   1      -0.846   1.850   0.750  0.00  0.00     0.030 A 
ATOM      7  C   UNL d   1      -1.808   2.782   1.154  0.00  0.00     0.020 A 
ATOM      8  C   UNL d   1      -2.546   3.494   0.200  0.00  0.00     0.039 A 
ATOM      9  C   UNL d   1      -2.349   3.227  -1.160  0.00  0.00     0.020 A 
ATOM     10  C   UNL d   1      -1.366   2.320  -1.559  0.00  0.00     0.030 A 
BRANCH   8  11
ATOM     11  C   UNL d   1      -3.445   4.622   0.572  0.00  0.00     0.293 C 
ATOM     12  O   UNL d   1      -4.096   5.261  -0.235  0.00  0.00    -0.259 OA
BRANCH  11  13
ATOM     13  O   UNL d   1      -3.288   4.909   1.887  0.00  0.00    -0.318 OA
BRANCH  13  14
ATOM     14  C   UNL d   1      -3.702   6.217   2.300  0.00  0.00     0.174 C 
ATOM     15  C   UNL d   1      -2.507   7.148   2.188  0.00  0.00     0.034 C 
ENDBRANCH  13  14
ENDBRANCH  11  13
ENDBRANCH   8  11
ENDBRANCH   3   5
ENDBRANCH   1   3
BRANCH   1  16
ATOM     16  N   UNL d   1       2.537  -0.154  -0.870  0.00  0.00    -0.276 N 
ATOM     17  H   UNL d   1       3.111  -0.883  -0.451  0.00  0.00     0.189 HD
BRANCH  16  18
ATOM     18  N   UNL d   1       3.142   1.033  -1.188  0.00  0.00    -0.309 N 
ATOM     19  C   UNL d   1       4.414   0.962  -1.425  0.00  0.00     0.121 C 
ATOM     20  HN  UNL d   1       2.628   1.913  -1.235  1.00  0.00     0.186 HD
BRANCH  19  21
ATOM     21  C   UNL d   1       5.202   2.195  -1.542  0.00  0.00     0.017 A 
ATOM     22  C   UNL d   1       6.148   2.396  -2.546  0.00  0.00     0.080 A 
ATOM     23  C   UNL d   1       6.953   3.538  -2.500  0.00  0.00     0.040 A 
ATOM     24  C   UNL d   1       6.802   4.482  -1.474  0.00  0.00     0.039 A 
ATOM     25  C   UNL d   1       5.844   4.285  -0.480  0.00  0.00     0.069 A 
ATOM     26  C   UNL d   1       5.051   3.139  -0.514  0.00  0.00     0.052 A 
BRANCH  22  27
ATOM     27  O   UNL d   1       6.403   1.525  -3.568  0.00  0.00    -0.355 OA
ATOM     28  C   UNL d   1       5.253   1.218  -4.360  0.00  0.00     0.210 C 
ENDBRANCH  22  27
BRANCH  25  29
ATOM     29  O   UNL d   1       5.631   5.097   0.598  0.00  0.00    -0.356 OA
ATOM     30  C   UNL d   1       6.016   6.457   0.448  0.00  0.00     0.210 C 
ENDBRANCH  25  29
ENDBRANCH  19  21
ENDBRANCH  16  18
ENDBRANCH   1  16
TORSDOF 10
