REMARK  5 active torsions:
REMARK  status: ('A' for Active; 'I' for Inactive)
REMARK    1  A    between atoms: N_2  and  C_1 
REMARK    2  A    between atoms: N_3  and  C_1 
REMARK    3  A    between atoms: C_6  and  N_2 
REMARK    4  A    between atoms: N_5  and  N_3 
REMARK    5  A    between atoms: C_9  and  N_5 
ROOT
ATOM      1  C   UNL d   1       0.880   0.052  -0.217  0.00  0.00     0.187 C 
ATOM      2  S   UNL d   1       0.766  -1.565   0.194  0.00  0.00    -0.040 SA
ENDROOT
BRANCH   1   3
ATOM      3  N   UNL d   1       1.788   0.423  -1.181  0.00  0.00    -0.332 N 
ATOM      4  H   UNL d   1       2.474  -0.293  -1.391  0.00  0.00     0.168 HD
BRANCH   3   5
ATOM      5  C   UNL d   1       1.739   1.518  -2.075  0.00  0.00     0.037 A 
ATOM      6  C   UNL d   1       0.626   2.350  -2.232  0.00  0.00     0.071 A 
ATOM      7  C   UNL d   1       0.635   3.358  -3.190  0.00  0.00     0.118 A 
ATOM      8  F   UNL d   1      -0.444   4.138  -3.333  0.00  0.00    -0.206 F 
ATOM      9  C   UNL d   1       1.735   3.554  -4.017  0.00  0.00     0.042 A 
ATOM     10  C   UNL d   1       2.843   2.727  -3.879  0.00  0.00     0.005 A 
ATOM     11  C   UNL d   1       2.845   1.711  -2.916  0.00  0.00     0.029 A 
ENDBRANCH   3   5
ENDBRANCH   1   3
BRANCH   1  12
ATOM     12  N   UNL d   1       0.159   1.079   0.346  0.00  0.00    -0.293 N 
ATOM     13  H   UNL d   1       0.714   1.904   0.548  0.00  0.00     0.183 HD
BRANCH  12  14
ATOM     14  N   UNL d   1      -0.870   0.819   1.267  0.00  0.00    -0.204 NA
ATOM     15  H   UNL d   1      -1.382  -0.031   1.017  0.00  0.00     0.153 HD
BRANCH  14  16
ATOM     16  C   UNL d   1      -1.754   1.912   1.475  0.00  0.00     0.027 A 
ATOM     17  C   UNL d   1      -1.334   3.252   1.461  0.00  0.00     0.025 A 
ATOM     18  C   UNL d   1      -2.205   4.292   1.802  0.00  0.00     0.002 A 
ATOM     19  C   UNL d   1      -3.510   4.007   2.189  0.00  0.00     0.000 A 
ATOM     20  C   UNL d   1      -3.944   2.684   2.228  0.00  0.00     0.002 A 
ATOM     21  C   UNL d   1      -3.071   1.647   1.885  0.00  0.00     0.025 A 
ENDBRANCH  14  16
ENDBRANCH  12  14
ENDBRANCH   1  12
TORSDOF 5
