REMARK  3 active torsions:
REMARK  status: ('A' for Active; 'I' for Inactive)
REMARK    1  A    between atoms: C_16  and  N_2 
REMARK    2  A    between atoms: C_18  and  N_5 
REMARK    3  A    between atoms: O_26  and  C_24 
ROOT
ATOM      1  C   UNL d   1       2.686  -0.715  -0.018  0.00  0.00     0.139 C 
ATOM      2  N   UNL d   1       4.057  -0.362  -0.005  0.00  0.00    -0.248 N 
ATOM      3  C   UNL d   1       1.752   0.269  -0.084  0.00  0.00     0.105 C 
ATOM      4  C   UNL d   1       4.497   0.984   0.045  0.00  0.00     0.342 C 
ATOM      5  N   UNL d   1       3.520   1.969   0.032  0.00  0.00    -0.229 N 
ATOM      6  N   UNL d   1       2.237  -2.066   0.082  0.00  0.00    -0.302 N 
ATOM      7  C   UNL d   1       2.174   1.705  -0.143  0.00  0.00     0.272 C 
ATOM      8  C   UNL d   1      -0.110  -1.378  -0.103  0.00  0.00     0.061 A 
ATOM      9  C   UNL d   1       0.307  -0.069  -0.083  0.00  0.00     0.068 A 
ATOM     10  C   UNL d   1       0.888  -2.439  -0.067  0.00  0.00     0.261 C 
ATOM     11  N   UNL d   1      -0.603   0.932  -0.049  0.00  0.00    -0.354 N 
ATOM     12  HN  UNL d   1      -0.283   1.900  -0.029  1.00  0.00     0.166 HD
ATOM     13  C   UNL d   1      -1.477  -1.678  -0.090  0.00  0.00     0.033 A 
ATOM     14  C   UNL d   1      -2.413  -0.643  -0.060  0.00  0.00    -0.006 A 
ATOM     15  C   UNL d   1      -1.921   0.671  -0.041  0.00  0.00     0.043 A 
ATOM     16  O   UNL d   1       5.700   1.276   0.011  0.00  0.00    -0.245 OA
ATOM     17  O   UNL d   1       1.345   2.600  -0.302  0.00  0.00    -0.266 OA
ATOM     18  O   UNL d   1       0.499  -3.603  -0.127  0.00  0.00    -0.267 OA
ATOM     19  C   UNL d   1      -3.800  -0.880  -0.039  0.00  0.00     0.050 A 
ATOM     20  C   UNL d   1       3.091  -3.200   0.400  0.00  0.00     0.161 C 
ATOM     21  C   UNL d   1      -2.838   1.713  -0.013  0.00  0.00     0.033 A 
ATOM     22  C   UNL d   1      -4.708   0.180  -0.009  0.00  0.00     0.069 A 
ATOM     23  C   UNL d   1      -4.221   1.483   0.001  0.00  0.00     0.039 A 
ENDROOT
BRANCH   2  24
ATOM     24  C   UNL d   1       5.152  -1.272  -0.220  0.00  0.00     0.045 A 
ATOM     25  C   UNL d   1       6.191  -1.346   0.726  0.00  0.00     0.030 A 
ATOM     26  C   UNL d   1       7.327  -2.117   0.482  0.00  0.00     0.002 A 
ATOM     27  C   UNL d   1       7.438  -2.824  -0.711  0.00  0.00     0.000 A 
ATOM     28  C   UNL d   1       6.411  -2.764  -1.657  0.00  0.00     0.002 A 
ATOM     29  C   UNL d   1       5.275  -1.985  -1.419  0.00  0.00     0.030 A 
ENDBRANCH   2  24
BRANCH   5  30
ATOM     30  C   UNL d   1       3.973   3.338  -0.002  0.00  0.00     0.047 A 
ATOM     31  C   UNL d   1       3.532   4.226  -0.996  0.00  0.00     0.030 A 
ATOM     32  C   UNL d   1       4.031   5.529  -1.060  0.00  0.00     0.002 A 
ATOM     33  C   UNL d   1       4.960   5.970  -0.121  0.00  0.00     0.000 A 
ATOM     34  C   UNL d   1       5.395   5.107   0.882  0.00  0.00     0.002 A 
ATOM     35  C   UNL d   1       4.912   3.798   0.935  0.00  0.00     0.030 A 
ENDBRANCH   5  30
BRANCH  22  36
ATOM     36  O   UNL d   1      -6.023  -0.191   0.008  0.00  0.00    -0.356 OA
ATOM     37  C   UNL d   1      -6.989   0.853   0.010  0.00  0.00     0.210 C 
ENDBRANCH  22  36
TORSDOF 3
