REMARK  8 active torsions:
REMARK  status: ('A' for Active; 'I' for Inactive)
REMARK    1  A    between atoms: C_7  and  C_1 
REMARK    2  A    between atoms: C_12  and  C_2 
REMARK    3  A    between atoms: C_5  and  C_11 
REMARK    4  A    between atoms: S_13  and  C_6 
REMARK    5  A    between atoms: O_17  and  C_7 
REMARK    6  A    between atoms: C_11  and  S_13 
REMARK    7  A    between atoms: O_20  and  C_12 
REMARK    8  A    between atoms: O_21  and  C_12 
ROOT
ATOM      1  C   UNL d   1      -0.166  -1.416  -0.019  0.00  0.00     0.080 A 
ATOM      2  C   UNL d   1       1.053  -0.773  -0.102  0.00  0.00     0.085 A 
ATOM      3  N   UNL d   1       1.127   0.560  -0.369  0.00  0.00    -0.335 N 
ATOM      4  HN  UNL d   1       2.032   1.018  -0.477  1.00  0.00     0.168 HD
ATOM      5  C   UNL d   1      -0.009   1.258  -0.487  0.00  0.00     0.144 A 
ATOM      6  N   UNL d   1      -1.232   0.724  -0.351  0.00  0.00    -0.346 N 
ATOM      7  HN  UNL d   1      -2.077   1.291  -0.419  1.00  0.00     0.167 HD
ATOM      8  C   UNL d   1      -1.281  -0.609  -0.117  0.00  0.00     0.110 A 
ENDROOT
BRANCH   5   9
ATOM      9  S   UNL d   1       0.189   2.987  -0.811  0.00  0.00    -0.089 SA
BRANCH   9  10
ATOM     10  C   UNL d   1      -1.547   3.511  -0.890  0.00  0.00     0.124 C 
BRANCH  10  11
ATOM     11  C   UNL d   1      -1.665   4.989  -1.192  0.00  0.00    -0.005 A 
ATOM     12  C   UNL d   1      -1.778   5.460  -2.516  0.00  0.00     0.042 A 
ATOM     13 CL   UNL d   1      -1.753   4.396  -3.880  0.00  0.00    -0.084 Cl
ATOM     14  C   UNL d   1      -1.914   6.827  -2.790  0.00  0.00     0.024 A 
ATOM     15  C   UNL d   1      -1.923   7.755  -1.754  0.00  0.00     0.003 A 
ATOM     16  C   UNL d   1      -1.778   7.317  -0.442  0.00  0.00     0.024 A 
ATOM     17  C   UNL d   1      -1.645   5.951  -0.162  0.00  0.00     0.042 A 
ATOM     18 CL   UNL d   1      -1.455   5.515   1.502  0.00  0.00    -0.084 Cl
ENDBRANCH  10  11
ENDBRANCH   9  10
ENDBRANCH   5   9
BRANCH   2  19
ATOM     19  C   UNL d   1       2.374  -1.509   0.095  0.00  0.00     0.310 C 
BRANCH  19  20
ATOM     20  O   UNL d   1       2.675  -2.071  -1.195  0.00  0.00    -0.360 OA
ATOM     21  C   UNL d   1       3.990  -2.612  -1.271  0.00  0.00     0.205 C 
ENDBRANCH  19  20
BRANCH  19  22
ATOM     22  O   UNL d   1       3.410  -0.634   0.552  0.00  0.00    -0.360 OA
ATOM     23  C   UNL d   1       3.212  -0.191   1.889  0.00  0.00     0.205 C 
ENDBRANCH  19  22
ENDBRANCH   2  19
BRANCH   1  24
ATOM     24  C   UNL d   1      -0.347  -2.849   0.228  0.00  0.00     0.179 C 
ATOM     25  O   UNL d   1      -1.172  -3.266   1.025  0.00  0.00    -0.646 OA
BRANCH  24  26
ATOM     26  O   UNL d   1       0.437  -3.647  -0.521  0.00  0.00    -0.773 OA
ATOM     27  H   UNL d   1       1.000  -3.218  -1.205  0.00  0.00     0.167 HD
ENDBRANCH  24  26
ENDBRANCH   1  24
TORSDOF 8
