REMARK  4 active torsions:
REMARK  status: ('A' for Active; 'I' for Inactive)
REMARK    1  A    between atoms: C_7  and  C_1 
REMARK    2  A    between atoms: C_9  and  N_4 
REMARK    3  A    between atoms: S_11  and  C_5 
REMARK       I    between atoms: N_8  and  C_7 
REMARK    4  A    between atoms: C_12  and  N_8 
ROOT
ATOM      1  C   UNL d   1      -0.250   1.041   0.280  0.00  0.00     0.084 A 
ATOM      2  N   UNL d   1       0.930  -0.892   0.616  0.00  0.00    -0.287 N 
ATOM      3  HN  UNL d   1       1.680  -1.543   0.847  1.00  0.00     0.188 HD
ATOM      4  N   UNL d   1      -0.316  -1.190   0.168  0.00  0.00    -0.266 N 
ATOM      5  C   UNL d   1       0.958   0.439   0.686  0.00  0.00     0.102 A 
ATOM      6  C   UNL d   1      -1.030  -0.046  -0.083  0.00  0.00     0.136 A 
ENDROOT
BRANCH   1   7
ATOM      7  C   UNL d   1      -0.724   2.417   0.177  0.00  0.00     0.260 C 
ATOM      8  N   UNL d   1       0.118   3.395   0.676  0.00  0.00    -0.323 N 
ATOM      9  H   UNL d   1       1.013   3.085   1.042  0.00  0.00     0.169 HD
ATOM     10  O   UNL d   1      -1.822   2.629  -0.333  0.00  0.00    -0.267 OA
BRANCH   8  11
ATOM     11  C   UNL d   1      -0.120   4.789   0.690  0.00  0.00     0.035 A 
ATOM     12  C   UNL d   1      -1.312   5.379   0.254  0.00  0.00     0.031 A 
ATOM     13  C   UNL d   1      -1.467   6.769   0.248  0.00  0.00     0.026 A 
ATOM     14  C   UNL d   1      -0.431   7.583   0.687  0.00  0.00     0.034 A 
ATOM     15  C   UNL d   1       0.752   7.016   1.154  0.00  0.00     0.026 A 
ATOM     16 CL   UNL d   1      -0.610   9.293   0.643  0.00  0.00    -0.084 Cl
ATOM     17  C   UNL d   1       0.904   5.623   1.159  0.00  0.00     0.031 A 
ENDBRANCH   8  11
ENDBRANCH   1   7
BRANCH   5  18
ATOM     18  S   UNL d   1       2.406   1.258   1.228  0.00  0.00    -0.114 SA
ATOM     19  C   UNL d   1       3.668   0.284   0.370  0.00  0.00     0.097 C 
ENDBRANCH   5  18
BRANCH   4  20
ATOM     20  C   UNL d   1      -0.741  -2.539   0.009  0.00  0.00     0.056 A 
ATOM     21  C   UNL d   1      -2.037  -2.852  -0.426  0.00  0.00     0.031 A 
ATOM     22  C   UNL d   1      -2.426  -4.190  -0.563  0.00  0.00     0.002 A 
ATOM     23  C   UNL d   1      -1.529  -5.214  -0.267  0.00  0.00     0.000 A 
ATOM     24  C   UNL d   1      -0.241  -4.910   0.168  0.00  0.00     0.002 A 
ATOM     25  C   UNL d   1       0.154  -3.578   0.307  0.00  0.00     0.031 A 
ENDBRANCH   4  20
TORSDOF 4
