REMARK  6 active torsions:
REMARK  status: ('A' for Active; 'I' for Inactive)
REMARK    1  A    between atoms: C_6  and  C_1 
REMARK    2  A    between atoms: C_5  and  C_4 
REMARK       I    between atoms: N_13  and  C_6 
REMARK    3  A    between atoms: C_7  and  C_9 
REMARK    4  A    between atoms: C_10  and  C_15 
REMARK       I    between atoms: C_12  and  N_14 
REMARK    5  A    between atoms: C_16  and  C_12 
REMARK    6  A    between atoms: N_14  and  N_13 
ROOT
ATOM      1  C   UNL d   1       2.433   1.724  -0.114  0.00  0.00     0.287 C 
ATOM      2  N   UNL d   1       2.213   3.067   0.095  0.00  0.00    -0.262 N 
ATOM      3  O   UNL d   1       3.565   1.243  -0.215  0.00  0.00    -0.264 OA
ATOM      4  H   UNL d   1       1.281   3.438   0.270  0.00  0.00     0.190 HD
ENDROOT
BRANCH   1   5
ATOM      5  C   UNL d   1       1.217   0.907  -0.183  0.00  0.00     0.110 A 
ATOM      6  N   UNL d   1      -0.061   1.470  -0.246  0.00  0.00    -0.345 N 
ATOM      7  C   UNL d   1      -0.987   0.530  -0.266  0.00  0.00     0.087 A 
ATOM      8  HN  UNL d   1      -0.253   2.471  -0.273  1.00  0.00     0.167 HD
ATOM      9  S   UNL d   1      -0.366  -1.083  -0.226  0.00  0.00    -0.081 SA
ATOM     10  C   UNL d   1       1.229  -0.475  -0.212  0.00  0.00     0.087 A 
BRANCH   7  11
ATOM     11  C   UNL d   1      -2.437   0.775  -0.334  0.00  0.00     0.028 A 
ATOM     12  C   UNL d   1      -3.090   1.831   0.326  0.00  0.00     0.063 A 
ATOM     13  C   UNL d   1      -4.480   1.997   0.125  0.00  0.00     0.034 A 
ATOM     14  C   UNL d   1      -5.171   1.119  -0.688  0.00  0.00     0.088 A 
ATOM     15  N   UNL d   1      -4.579   0.092  -1.317  0.00  0.00    -0.374 N 
ATOM     16  C   UNL d   1      -3.244  -0.049  -1.133  0.00  0.00     0.102 A 
ATOM     17  HN  UNL d   1      -5.109  -0.551  -1.905  1.00  0.00     0.164 HD
BRANCH  12  18
ATOM     18  C   UNL d   1      -2.439   2.830   1.253  0.00  0.00     0.418 C 
ATOM     19  F   UNL d   1      -1.165   2.583   1.643  0.00  0.00    -0.166 F 
ATOM     20  F   UNL d   1      -2.444   4.086   0.723  0.00  0.00    -0.166 F 
ATOM     21  F   UNL d   1      -3.141   2.935   2.423  0.00  0.00    -0.166 F 
ENDBRANCH  12  18
ENDBRANCH   7  11
ENDBRANCH   1   5
BRANCH   2  22
ATOM     22  N   UNL d   1       3.315   3.927   0.221  0.00  0.00    -0.263 N 
ATOM     23  C   UNL d   1       3.084   5.272   0.420  0.00  0.00     0.270 C 
ATOM     24  O   UNL d   1       1.954   5.749   0.539  0.00  0.00    -0.266 OA
ATOM     25  H   UNL d   1       4.212   3.555  -0.085  0.00  0.00     0.190 HD
BRANCH  23  26
ATOM     26  C   UNL d   1       4.281   6.156   0.457  0.00  0.00     0.033 A 
ATOM     27  C   UNL d   1       4.148   7.481   0.022  0.00  0.00     0.018 A 
ATOM     28  C   UNL d   1       5.234   8.361   0.083  0.00  0.00     0.017 A 
ATOM     29  C   UNL d   1       6.469   7.936   0.596  0.00  0.00     0.048 A 
ATOM     30  C   UNL d   1       6.594   6.608   1.034  0.00  0.00     0.017 A 
ATOM     31  C   UNL d   1       5.513   5.721   0.966  0.00  0.00     0.018 A 
BRANCH  29  32
ATOM     32  C   UNL d   1       7.640   8.886   0.702  0.00  0.00     0.417 C 
ATOM     33  F   UNL d   1       7.380  10.130   0.211  0.00  0.00    -0.166 F 
ATOM     34  F   UNL d   1       8.044   9.071   1.989  0.00  0.00    -0.166 F 
ATOM     35  F   UNL d   1       8.735   8.441   0.027  0.00  0.00    -0.166 F 
ENDBRANCH  29  32
ENDBRANCH  23  26
ENDBRANCH   2  22
TORSDOF 6
