REMARK  3 active torsions:
REMARK  status: ('A' for Active; 'I' for Inactive)
REMARK    1  A    between atoms: C_8  and  C_1 
REMARK    2  A    between atoms: O_20  and  C_5 
REMARK    3  A    between atoms: C_17  and  N_10 
ROOT
ATOM      1  C   UNL d   1      -0.272   3.473  -0.080  0.00  0.00     0.102 C 
ATOM      2  N   UNL d   1       0.692   4.309   0.146  0.00  0.00    -0.365 N 
ATOM      3  HN  UNL d   1       1.633   3.975   0.351  1.00  0.00     0.165 HD
ENDROOT
BRANCH   2   4
ATOM      4  C   UNL d   1       0.413   5.689   0.104  0.00  0.00     0.034 A 
ATOM      5  C   UNL d   1       1.343   6.528  -0.525  0.00  0.00     0.061 A 
ATOM      6  C   UNL d   1       1.121   7.914  -0.542  0.00  0.00     0.062 A 
ATOM      7  N   UNL d   1       1.882   8.925  -1.081  0.00  0.00    -0.350 N 
ATOM      8  C   UNL d   1      -0.019   8.427   0.066  0.00  0.00     0.060 A 
ATOM      9  C   UNL d   1       1.231  10.032  -0.807  0.00  0.00     0.181 A 
ATOM     10  HN  UNL d   1       2.764   8.834  -1.585  1.00  0.00     0.166 HD
ATOM     11  N   UNL d   1       0.075   9.782  -0.124  0.00  0.00    -0.351 N 
ATOM     12  H   UNL d   1      -0.586  10.474   0.196  0.00  0.00     0.166 HD
ATOM     13  C   UNL d   1      -0.967   7.631   0.708  0.00  0.00     0.034 A 
ATOM     14  C   UNL d   1      -0.714   6.252   0.725  0.00  0.00     0.032 A 
ENDBRANCH   2   4
BRANCH   1  15
ATOM     15  C   UNL d   1      -0.052   2.012  -0.041  0.00  0.00     0.016 A 
ATOM     16  C   UNL d   1      -1.141   1.137  -0.095  0.00  0.00     0.099 A 
ATOM     17  C   UNL d   1      -0.922  -0.245  -0.066  0.00  0.00     0.069 A 
ATOM     18 CL   UNL d   1      -2.256  -1.339  -0.128  0.00  0.00    -0.081 Cl
ATOM     19  C   UNL d   1       0.372  -0.757   0.016  0.00  0.00     0.050 A 
ATOM     20  C   UNL d   1       1.451   0.123   0.073  0.00  0.00     0.036 A 
ATOM     21  C   UNL d   1       1.249   1.502   0.049  0.00  0.00     0.039 A 
ATOM     22 CL   UNL d   1       3.050  -0.505   0.170  0.00  0.00    -0.084 Cl
BRANCH  16  23
ATOM     23  O   UNL d   1      -2.416   1.638  -0.165  0.00  0.00    -0.358 OA
ATOM     24  H   UNL d   1      -3.033   0.881  -0.183  0.00  0.00     0.217 HD
ENDBRANCH  16  23
ENDBRANCH   1  15
TORSDOF 3
