REMARK  3 active torsions:
REMARK  status: ('A' for Active; 'I' for Inactive)
REMARK    1  A    between atoms: C_12  and  C_2 
REMARK    2  A    between atoms: O_18  and  C_12 
REMARK    3  A    between atoms: C_22  and  O_18 
ROOT
ATOM      1  C   UNL d   1      -0.172  -1.191  -0.001  0.00  0.00     0.065 A 
ATOM      2  C   UNL d   1      -1.404  -1.914  -0.021  0.00  0.00     0.083 A 
ATOM      3  C   UNL d   1      -0.463   0.168  -0.012  0.00  0.00     0.106 A 
ATOM      4  N   UNL d   1      -1.840   0.316  -0.007  0.00  0.00    -0.316 N 
ATOM      5  C   UNL d   1      -2.408  -0.958  -0.002  0.00  0.00     0.056 A 
ATOM      6  C   UNL d   1       1.198  -1.671   0.066  0.00  0.00     0.196 A 
ATOM      7  C   UNL d   1       0.547   1.205  -0.007  0.00  0.00     0.211 A 
ATOM      8  C   UNL d   1       2.267  -0.641   0.011  0.00  0.00     0.029 A 
ATOM      9  C   UNL d   1       1.965   0.729  -0.007  0.00  0.00     0.030 A 
ATOM     10  C   UNL d   1      -3.832  -1.046   0.004  0.00  0.00     0.031 A 
ATOM     11  C   UNL d   1      -2.622   1.481  -0.004  0.00  0.00     0.104 A 
ATOM     12  C   UNL d   1      -4.578   0.073   0.004  0.00  0.00     0.010 A 
ATOM     13  C   UNL d   1      -3.967   1.398   0.001  0.00  0.00    -0.046 A 
ATOM     14  O   UNL d   1       1.502  -2.849   0.208  0.00  0.00    -0.286 OA
ATOM     15  O   UNL d   1       0.315   2.409  -0.007  0.00  0.00    -0.285 OA
ATOM     16  C   UNL d   1       3.014   1.661  -0.018  0.00  0.00     0.016 A 
ATOM     17  C   UNL d   1       3.605  -1.068   0.003  0.00  0.00     0.016 A 
ATOM     18  C   UNL d   1      -4.896   2.571   0.007  0.00  0.00     0.049 C 
ATOM     19  C   UNL d   1       4.639  -0.135  -0.011  0.00  0.00     0.001 A 
ATOM     20  C   UNL d   1       4.344   1.228  -0.017  0.00  0.00     0.001 A 
ENDROOT
BRANCH   2  21
ATOM     21  C   UNL d   1      -1.636  -3.356  -0.036  0.00  0.00     0.296 C 
ATOM     22  O   UNL d   1      -2.625  -3.883   0.464  0.00  0.00    -0.259 OA
BRANCH  21  23
ATOM     23  O   UNL d   1      -0.668  -4.036  -0.705  0.00  0.00    -0.318 OA
BRANCH  23  24
ATOM     24  C   UNL d   1      -0.774  -5.464  -0.692  0.00  0.00     0.174 C 
ATOM     25  C   UNL d   1      -0.273  -6.030   0.625  0.00  0.00     0.034 C 
ENDBRANCH  23  24
ENDBRANCH  21  23
ENDBRANCH   2  21
TORSDOF 3
