REMARK  6 active torsions:
REMARK  status: ('A' for Active; 'I' for Inactive)
REMARK       I    between atoms: N_4  and  C_1 
REMARK       I    between atoms: N_6  and  C_1 
REMARK    1  A    between atoms: C_2  and  O_7 
REMARK    2  A    between atoms: C_3  and  C_5 
REMARK    3  A    between atoms: O_17  and  C_3 
REMARK    4  A    between atoms: C_10  and  N_4 
REMARK    5  A    between atoms: C_15  and  N_6 
REMARK    6  A    between atoms: O_7  and  C_16 
ROOT
ATOM      1  C   UNL d   1       1.165   0.114  -0.009  0.00  0.00     0.325 C 
ATOM      2  N   UNL d   1       0.517  -0.428  -1.108  0.00  0.00    -0.309 N 
ATOM      3  N   UNL d   1       0.295   0.786   0.835  0.00  0.00    -0.309 N 
ATOM      4  O   UNL d   1       2.378   0.027   0.169  0.00  0.00    -0.247 OA
ATOM      5  H   UNL d   1      -0.396  -0.058  -1.326  0.00  0.00     0.170 HD
ATOM      6  H   UNL d   1      -0.691   0.711   0.635  0.00  0.00     0.170 HD
ENDROOT
BRANCH   2   7
ATOM      7  C   UNL d   1       1.174  -1.143  -2.139  0.00  0.00     0.037 A 
ATOM      8  C   UNL d   1       2.428  -1.737  -1.962  0.00  0.00     0.048 A 
ATOM      9  C   UNL d   1       3.116  -2.292  -3.044  0.00  0.00     0.039 A 
ATOM     10  C   UNL d   1       2.503  -2.348  -4.298  0.00  0.00     0.018 A 
ATOM     11  C   UNL d   1       1.217  -1.833  -4.465  0.00  0.00     0.003 A 
ATOM     12  C   UNL d   1       0.555  -1.229  -3.390  0.00  0.00     0.029 A 
BRANCH   9  13
ATOM     13  C   UNL d   1       4.488  -2.835  -2.890  0.00  0.00     0.176 C 
ATOM     14  O   UNL d   1       4.908  -3.753  -3.573  0.00  0.00    -0.646 OA
BRANCH  13  15
ATOM     15  O   UNL d   1       5.240  -2.187  -1.980  0.00  0.00    -0.773 OA
ATOM     16  H   UNL d   1       4.842  -1.386  -1.584  0.00  0.00     0.167 HD
ENDBRANCH  13  15
ENDBRANCH   9  13
ENDBRANCH   2   7
BRANCH   3  17
ATOM     17  C   UNL d   1       0.650   1.486   2.012  0.00  0.00     0.036 A 
ATOM     18  C   UNL d   1       1.966   1.624   2.466  0.00  0.00     0.032 A 
ATOM     19  C   UNL d   1       2.259   2.297   3.659  0.00  0.00     0.039 A 
ATOM     20  C   UNL d   1       1.232   2.816   4.434  0.00  0.00     0.078 A 
ATOM     21  C   UNL d   1      -0.079   2.742   3.958  0.00  0.00     0.039 A 
ATOM     22  C   UNL d   1      -0.371   2.076   2.760  0.00  0.00     0.032 A 
BRANCH  20  23
ATOM     23  O   UNL d   1       1.386   3.447   5.630  0.00  0.00    -0.255 OA
BRANCH  23  24
ATOM     24  C   UNL d   1       2.440   3.033   6.491  0.00  0.00     0.530 C 
ATOM     25  F   UNL d   1       3.035   1.877   6.128  0.00  0.00    -0.144 F 
ATOM     26  F   UNL d   1       3.376   4.004   6.556  0.00  0.00    -0.144 F 
ATOM     27  F   UNL d   1       1.930   2.856   7.731  0.00  0.00    -0.144 F 
ENDBRANCH  23  24
ENDBRANCH  20  23
ENDBRANCH   3  17
TORSDOF 6
