REMARK  5 active torsions:
REMARK  status: ('A' for Active; 'I' for Inactive)
REMARK    1  A    between atoms: S_15  and  C_2 
REMARK    2  A    between atoms: S_19  and  C_3 
REMARK    3  A    between atoms: C_9  and  C_17 
REMARK    4  A    between atoms: C_17  and  S_15 
REMARK    5  A    between atoms: O_22  and  C_20 
ROOT
ATOM      1  C   UNL d   1       1.505   7.049  -0.083  0.00  0.00     0.092 A 
ATOM      2  C   UNL d   1       2.188   4.672  -0.131  0.00  0.00    -0.030 A 
ATOM      3  O   UNL d   1       2.846   7.444  -0.246  0.00  0.00    -0.275 OA
ATOM      4  C   UNL d   1       3.860   6.508  -0.305  0.00  0.00     0.288 A 
ATOM      5  C   UNL d   1       1.138   5.701   0.005  0.00  0.00     0.005 A 
ATOM      6  C   UNL d   1       3.457   5.093  -0.268  0.00  0.00     0.091 A 
ATOM      7  C   UNL d   1       0.575   8.087  -0.006  0.00  0.00     0.074 A 
ATOM      8  C   UNL d   1      -0.220   5.420   0.209  0.00  0.00     0.017 A 
ATOM      9  O   UNL d   1       5.040   6.818  -0.385  0.00  0.00    -0.260 OA
ATOM     10  C   UNL d   1      -0.763   7.776   0.167  0.00  0.00     0.068 A 
ATOM     11  C   UNL d   1      -1.170   6.452   0.284  0.00  0.00     0.037 A 
ENDROOT
BRANCH   2  12
ATOM     12  C   UNL d   1       1.889   3.194  -0.046  0.00  0.00     0.121 C 
BRANCH  12  13
ATOM     13  S   UNL d   1       1.027   2.584  -1.525  0.00  0.00    -0.099 SA
BRANCH  13  14
ATOM     14  C   UNL d   1       0.777   0.910  -1.071  0.00  0.00     0.129 A 
ATOM     15  S   UNL d   1      -0.186  -0.172  -1.987  0.00  0.00    -0.038 SA
ATOM     16  C   UNL d   1       0.147  -1.357  -0.792  0.00  0.00     0.128 A 
ATOM     17  N   UNL d   1       0.939  -0.943   0.174  0.00  0.00    -0.287 N 
ATOM     18  N   UNL d   1       1.304   0.381   0.012  0.00  0.00    -0.287 N 
ATOM     19  HN  UNL d   1       1.246  -1.529   0.951  1.00  0.00     0.188 HD
ATOM     20  HN  UNL d   1       1.912   0.887   0.657  1.00  0.00     0.188 HD
BRANCH  16  21
ATOM     21  S   UNL d   1      -0.528  -2.970  -0.848  0.00  0.00    -0.108 SA
ATOM     22  C   UNL d   1       0.008  -3.627   0.748  0.00  0.00     0.097 C 
ENDBRANCH  16  21
ENDBRANCH  13  14
ENDBRANCH  12  13
ENDBRANCH   2  12
BRANCH  10  23
ATOM     23  O   UNL d   1      -1.654   8.805   0.218  0.00  0.00    -0.361 OA
ATOM     24  H   UNL d   1      -2.554   8.445   0.276  0.00  0.00     0.217 HD
ENDBRANCH  10  23
TORSDOF 5
