REMARK  5 active torsions:
REMARK  status: ('A' for Active; 'I' for Inactive)
REMARK    1  A    between atoms: N_3  and  S_1 
REMARK    2  A    between atoms: C_7  and  S_1 
REMARK    3  A    between atoms: C_2  and  S_4 
REMARK    4  A    between atoms: C_5  and  N_3 
REMARK    5  A    between atoms: S_4  and  C_6 
ROOT
ATOM      1  C   UNL d   1       0.887  -2.344   0.852  0.00  0.00     0.059 A 
ATOM      2  C   UNL d   1       2.229  -2.728   0.653  0.00  0.00     0.033 A 
ATOM      3  C   UNL d   1      -0.107  -3.321   1.008  0.00  0.00     0.031 A 
ATOM      4  C   UNL d   1       2.524  -4.098   0.570  0.00  0.00     0.021 A 
ATOM      5  C   UNL d   1       0.213  -4.676   0.948  0.00  0.00     0.002 A 
ATOM      6  C   UNL d   1       1.529  -5.064   0.726  0.00  0.00     0.002 A 
ENDROOT
BRANCH   1   7
ATOM      7  N   UNL d   1       0.468  -0.981   0.874  0.00  0.00    -0.279 N 
ATOM      8  H   UNL d   1      -0.136  -0.685   1.638  0.00  0.00     0.179 HD
BRANCH   7   9
ATOM      9  S   UNL d   1       0.094  -0.184  -0.568  0.00  0.00     0.263 S 
ATOM     10  O   UNL d   1       1.195  -0.284  -1.496  0.00  0.00    -0.200 OA
ATOM     11  O   UNL d   1      -0.458   1.099  -0.183  0.00  0.00    -0.200 OA
BRANCH   9  12
ATOM     12  C   UNL d   1      -1.259  -1.134  -1.249  0.00  0.00     0.080 A 
ATOM     13  C   UNL d   1      -2.576  -0.829  -0.883  0.00  0.00     0.027 A 
ATOM     14  C   UNL d   1      -3.635  -1.525  -1.474  0.00  0.00     0.025 A 
ATOM     15  C   UNL d   1      -3.374  -2.506  -2.431  0.00  0.00     0.034 A 
ATOM     16  C   UNL d   1      -2.062  -2.800  -2.807  0.00  0.00     0.025 A 
ATOM     17 CL   UNL d   1      -4.680  -3.350  -3.166  0.00  0.00    -0.084 Cl
ATOM     18  C   UNL d   1      -0.999  -2.107  -2.221  0.00  0.00     0.027 A 
ENDBRANCH   9  12
ENDBRANCH   7   9
ENDBRANCH   1   7
BRANCH   2  19
ATOM     19  S   UNL d   1       3.591  -1.578   0.455  0.00  0.00    -0.085 SA
BRANCH  19  20
ATOM     20  C   UNL d   1       4.228  -1.405   2.133  0.00  0.00     0.051 A 
ATOM     21  C   UNL d   1       5.173  -2.305   2.667  0.00  0.00     0.068 A 
ATOM     22 CL   UNL d   1       5.829  -3.650   1.805  0.00  0.00    -0.081 Cl
ATOM     23  C   UNL d   1       5.662  -2.086   3.954  0.00  0.00     0.113 A 
ATOM     24  N   UNL d   1       5.307  -1.044   4.735  0.00  0.00    -0.372 N 
ATOM     25  C   UNL d   1       4.433  -0.168   4.192  0.00  0.00     0.113 A 
ATOM     26  HN  UNL d   1       5.676  -0.925   5.678  1.00  0.00     0.164 HD
ATOM     27  C   UNL d   1       3.876  -0.298   2.923  0.00  0.00     0.068 A 
ATOM     28 CL   UNL d   1       2.809   0.956   2.400  0.00  0.00    -0.081 Cl
ENDBRANCH  19  20
ENDBRANCH   2  19
TORSDOF 5
