REMARK  4 active torsions:
REMARK  status: ('A' for Active; 'I' for Inactive)
REMARK       I    between atoms: N_4  and  C_1 
REMARK    1  A    between atoms: O_6  and  C_1 
REMARK       I    between atoms: C_2  and  N_3 
REMARK    2  A    between atoms: C_5  and  C_2 
REMARK    3  A    between atoms: N_3  and  N_4 
REMARK    4  A    between atoms: C_14  and  O_6 
ROOT
ATOM      1  C   UNL d   1       0.191   2.471  -2.813  0.00  0.00     0.270 C 
ATOM      2  N   UNL d   1       0.965   1.736  -1.939  0.00  0.00    -0.261 N 
ATOM      3  O   UNL d   1      -1.036   2.410  -2.834  0.00  0.00    -0.266 OA
ATOM      4  H   UNL d   1       1.974   1.635  -2.019  0.00  0.00     0.190 HD
ENDROOT
BRANCH   2   5
ATOM      5  N   UNL d   1       0.325   0.902  -1.009  0.00  0.00    -0.242 N 
ATOM      6  C   UNL d   1       1.087   0.162  -0.134  0.00  0.00     0.384 C 
ATOM      7  O   UNL d   1       2.315   0.138  -0.179  0.00  0.00    -0.236 OA
ATOM      8  H   UNL d   1      -0.689   0.937  -0.954  0.00  0.00     0.192 HD
BRANCH   6   9
ATOM      9  O   UNL d   1       0.279  -0.529   0.767  0.00  0.00    -0.260 OA
BRANCH   9  10
ATOM     10  C   UNL d   1       0.826  -1.355   1.778  0.00  0.00     0.081 A 
ATOM     11  C   UNL d   1       2.017  -1.068   2.445  0.00  0.00     0.037 A 
ATOM     12  C   UNL d   1       2.473  -1.931   3.445  0.00  0.00     0.003 A 
ATOM     13  C   UNL d   1       1.729  -3.059   3.793  0.00  0.00     0.000 A 
ATOM     14  C   UNL d   1       0.522  -3.325   3.147  0.00  0.00     0.003 A 
ATOM     15  C   UNL d   1       0.065  -2.469   2.142  0.00  0.00     0.037 A 
ENDBRANCH   9  10
ENDBRANCH   6   9
ENDBRANCH   2   5
BRANCH   1  16
ATOM     16  C   UNL d   1       0.919   3.363  -3.760  0.00  0.00     0.033 A 
ATOM     17  C   UNL d   1       0.335   3.645  -5.004  0.00  0.00     0.019 A 
ATOM     18  C   UNL d   1       0.956   4.529  -5.892  0.00  0.00     0.025 A 
ATOM     19  C   UNL d   1       2.153   5.144  -5.533  0.00  0.00     0.034 A 
ATOM     20  C   UNL d   1       2.742   4.873  -4.298  0.00  0.00     0.025 A 
ATOM     21 CL   UNL d   1       2.896   6.264  -6.607  0.00  0.00    -0.084 Cl
ATOM     22  C   UNL d   1       2.129   3.981  -3.410  0.00  0.00     0.019 A 
ENDBRANCH   1  16
TORSDOF 4
