REMARK  4 active torsions:
REMARK  status: ('A' for Active; 'I' for Inactive)
REMARK    1  A    between atoms: C_11  and  C_4 
REMARK    2  A    between atoms: C_12  and  C_5 
REMARK    3  A    between atoms: C_17  and  C_9 
REMARK    4  A    between atoms: C_18  and  C_10 
ROOT
ATOM      1  C   UNL d   1       0.782  -0.203   0.200  0.00  0.00    -0.006 A 
ATOM      2  C   UNL d   1       0.302   2.107  -0.105  0.00  0.00    -0.006 A 
ATOM      3  C   UNL d   1       1.395   1.114  -0.064  0.00  0.00     0.184 A 
ATOM      4  C   UNL d   1       1.552  -1.292   0.329  0.00  0.00     0.022 C 
ATOM      5  C   UNL d   1       0.577   3.410  -0.250  0.00  0.00     0.022 C 
ATOM      6  C   UNL d   1      -1.015   1.420   0.073  0.00  0.00     0.047 A 
ATOM      7  C   UNL d   1      -0.703  -0.063   0.296  0.00  0.00     0.047 A 
ATOM      8  O   UNL d   1       2.584   1.343  -0.212  0.00  0.00    -0.287 OA
ENDROOT
BRANCH   4   9
ATOM      9  C   UNL d   1       1.023  -2.628   0.580  0.00  0.00    -0.036 A 
ATOM     10  C   UNL d   1       0.724  -3.467  -0.494  0.00  0.00     0.012 A 
ATOM     11  C   UNL d   1       0.262  -4.764  -0.264  0.00  0.00     0.008 A 
ATOM     12  C   UNL d   1       0.090  -5.247   1.042  0.00  0.00    -0.055 A 
ATOM     13  C   UNL d   1       0.370  -4.387   2.115  0.00  0.00     0.008 A 
ATOM     14  C   UNL d   1       0.832  -3.086   1.886  0.00  0.00     0.012 A 
BRANCH  12  15
ATOM     15  C   UNL d   1      -0.381  -6.670   1.300  0.00  0.00     0.010 C 
ATOM     16  C   UNL d   1      -1.767  -6.917   0.701  0.00  0.00     0.015 C 
ATOM     17  C   UNL d   1       0.620  -7.702   0.769  0.00  0.00     0.015 C 
ENDBRANCH  12  15
ENDBRANCH   4   9
BRANCH   5  18
ATOM     18  C   UNL d   1      -0.442   4.456  -0.232  0.00  0.00    -0.036 A 
ATOM     19  C   UNL d   1      -0.769   5.078   0.975  0.00  0.00     0.012 A 
ATOM     20  C   UNL d   1      -1.711   6.107   1.002  0.00  0.00     0.008 A 
ATOM     21  C   UNL d   1      -2.345   6.536  -0.175  0.00  0.00    -0.055 A 
ATOM     22  C   UNL d   1      -2.023   5.891  -1.379  0.00  0.00     0.008 A 
ATOM     23  C   UNL d   1      -1.080   4.857  -1.407  0.00  0.00     0.012 A 
BRANCH  21  24
ATOM     24  C   UNL d   1      -3.353   7.673  -0.155  0.00  0.00     0.010 C 
ATOM     25  C   UNL d   1      -4.553   7.340   0.736  0.00  0.00     0.015 C 
ATOM     26  C   UNL d   1      -2.714   8.993   0.287  0.00  0.00     0.015 C 
ENDBRANCH  21  24
ENDBRANCH   5  18
TORSDOF 4
