REMARK  6 active torsions:
REMARK  status: ('A' for Active; 'I' for Inactive)
REMARK       I    between atoms: N_2  and  C_1 
REMARK       I    between atoms: N_3  and  C_1 
REMARK    1  A    between atoms: N_4  and  N_2 
REMARK    2  A    between atoms: N_6  and  N_3 
REMARK    3  A    between atoms: C_9  and  C_13 
REMARK    4  A    between atoms: C_10  and  C_14 
REMARK    5  A    between atoms: C_15  and  C_11 
REMARK    6  A    between atoms: C_16  and  C_12 
ROOT
ATOM      1  C   UNL d   1       1.009  -0.043  -0.038  0.00  0.00     0.353 C 
ATOM      2  N   UNL d   1       0.349   0.831   0.831  0.00  0.00    -0.251 N 
ATOM      3  N   UNL d   1       0.105  -0.813  -0.775  0.00  0.00    -0.251 N 
ATOM      4  O   UNL d   1       2.230  -0.124  -0.141  0.00  0.00    -0.244 OA
ATOM      5  H   UNL d   1      -0.658   0.870   0.860  0.00  0.00     0.191 HD
ATOM      6  H   UNL d   1      -0.889  -0.709  -0.643  0.00  0.00     0.191 HD
ENDROOT
BRANCH   2   7
ATOM      7  N   UNL d   1       1.078   1.689   1.604  0.00  0.00    -0.308 N 
ATOM      8  C   UNL d   1       0.420   2.486   2.379  0.00  0.00     0.107 C 
ATOM      9  HN  UNL d   1       2.097   1.700   1.570  1.00  0.00     0.186 HD
BRANCH   8  10
ATOM     10  C   UNL d   1       1.145   3.473   3.207  0.00  0.00     0.019 C 
ATOM     11  C   UNL d   1       0.499   4.349   3.990  0.00  0.00     0.013 C 
BRANCH  11  12
ATOM     12  C   UNL d   1       1.184   5.404   4.761  0.00  0.00    -0.036 A 
ATOM     13  C   UNL d   1       2.371   6.002   4.313  0.00  0.00     0.011 A 
ATOM     14  C   UNL d   1       2.967   7.043   5.030  0.00  0.00     0.001 A 
ATOM     15  C   UNL d   1       2.377   7.509   6.202  0.00  0.00     0.000 A 
ATOM     16  C   UNL d   1       1.194   6.932   6.657  0.00  0.00     0.001 A 
ATOM     17  C   UNL d   1       0.599   5.889   5.939  0.00  0.00     0.011 A 
ENDBRANCH  11  12
ENDBRANCH   8  10
ENDBRANCH   2   7
BRANCH   3  18
ATOM     18  N   UNL d   1       0.572  -1.748  -1.654  0.00  0.00    -0.308 N 
ATOM     19  C   UNL d   1      -0.313  -2.436  -2.297  0.00  0.00     0.107 C 
ATOM     20  HN  UNL d   1       1.571  -1.896  -1.797  1.00  0.00     0.186 HD
BRANCH  19  21
ATOM     21  C   UNL d   1       0.106  -3.495  -3.240  0.00  0.00     0.019 C 
ATOM     22  C   UNL d   1      -0.792  -4.252  -3.886  0.00  0.00     0.013 C 
BRANCH  22  23
ATOM     23  C   UNL d   1      -0.419  -5.353  -4.792  0.00  0.00    -0.036 A 
ATOM     24  C   UNL d   1       0.735  -6.125  -4.589  0.00  0.00     0.011 A 
ATOM     25  C   UNL d   1       1.049  -7.184  -5.444  0.00  0.00     0.001 A 
ATOM     26  C   UNL d   1       0.207  -7.496  -6.508  0.00  0.00     0.000 A 
ATOM     27  C   UNL d   1      -0.953  -6.752  -6.712  0.00  0.00     0.001 A 
ATOM     28  C   UNL d   1      -1.267  -5.691  -5.856  0.00  0.00     0.011 A 
ENDBRANCH  22  23
ENDBRANCH  19  21
ENDBRANCH   3  18
TORSDOF 6
