REMARK  3 active torsions:
REMARK  status: ('A' for Active; 'I' for Inactive)
REMARK    1  A    between atoms: N_4  and  C_1 
REMARK       I    between atoms: C_2  and  N_4 
REMARK    2  A    between atoms: C_5  and  C_2 
REMARK    3  A    between atoms: N_16  and  C_11 
ROOT
ATOM      1  C   UNL d   1       3.939  -0.272  -0.225  0.00  0.00     0.260 C 
ATOM      2  N   UNL d   1       2.831   0.412  -0.679  0.00  0.00    -0.302 N 
ATOM      3  O   UNL d   1       4.983   0.242   0.168  0.00  0.00    -0.267 OA
ATOM      4  H   UNL d   1       1.935  -0.043  -0.765  0.00  0.00     0.171 HD
ENDROOT
BRANCH   1   5
ATOM      5  C   UNL d   1       3.774  -1.763  -0.144  0.00  0.00     0.060 A 
ATOM      6  C   UNL d   1       4.401  -2.521   0.881  0.00  0.00     0.043 A 
ATOM      7  C   UNL d   1       4.182  -3.911   0.887  0.00  0.00     0.032 A 
ATOM      8  C   UNL d   1       3.365  -4.533  -0.060  0.00  0.00     0.026 A 
ATOM      9  C   UNL d   1       2.765  -3.774  -1.054  0.00  0.00     0.035 A 
ATOM     10  C   UNL d   1       2.973  -2.400  -1.111  0.00  0.00     0.043 A 
ATOM     11 CL   UNL d   1       1.764  -4.537  -2.226  0.00  0.00    -0.084 Cl
BRANCH   6  12
ATOM     12  N   UNL d   1       5.276  -1.940   1.800  0.00  0.00    -0.393 N 
ATOM     13  C   UNL d   1       5.460  -2.481   3.131  0.00  0.00     0.146 C 
ATOM     14  H   UNL d   1       5.320  -0.916   1.737  0.00  0.00     0.159 HD
ENDBRANCH   6  12
ENDBRANCH   1   5
BRANCH   2  15
ATOM     15  C   UNL d   1       2.838   1.769  -0.857  0.00  0.00     0.168 A 
ATOM     16  S   UNL d   1       1.293   2.455  -1.109  0.00  0.00    -0.038 SA
ATOM     17  C   UNL d   1       2.068   3.990  -1.113  0.00  0.00     0.066 A 
ATOM     18  C   UNL d   1       1.289   5.253  -1.170  0.00  0.00     0.078 C 
ATOM     19  N   UNL d   1       3.380   3.926  -1.022  0.00  0.00    -0.296 N 
ATOM     20  N   UNL d   1       3.828   2.627  -0.861  0.00  0.00    -0.279 N 
ATOM     21  HN  UNL d   1       3.994   4.740  -1.066  1.00  0.00     0.187 HD
ATOM     22  HN  UNL d   1       4.809   2.368  -0.758  1.00  0.00     0.189 HD
ENDBRANCH   2  15
TORSDOF 3
