REMARK  4 active torsions:
REMARK  status: ('A' for Active; 'I' for Inactive)
REMARK    1  A    between atoms: C_4  and  C_7 
REMARK    2  A    between atoms: C_5  and  C_6 
REMARK    3  A    between atoms: C_11  and  C_9 
REMARK    4  A    between atoms: C_12  and  C_10 
ROOT
ATOM      1  C   UNL d   1       0.033  -0.769  -0.008  0.00  0.00     0.184 C 
ATOM      2  C   UNL d   1       1.283   0.051   0.144  0.00  0.00    -0.007 C 
ATOM      3  C   UNL d   1      -1.273  -0.050   0.165  0.00  0.00    -0.007 C 
ATOM      4  C   UNL d   1      -2.354  -0.813   0.425  0.00  0.00     0.011 C 
ATOM      5  C   UNL d   1       2.448  -0.623   0.215  0.00  0.00     0.011 C 
ATOM      6  O   UNL d   1       0.075  -1.972  -0.252  0.00  0.00    -0.287 OA
ATOM      7  C   UNL d   1       1.156   1.548   0.217  0.00  0.00     0.043 C 
ATOM      8  C   UNL d   1      -1.317   1.449   0.040  0.00  0.00     0.043 C 
ATOM      9  C   UNL d   1      -0.054   2.045  -0.552  0.00  0.00     0.009 C 
ENDROOT
BRANCH   5  10
ATOM     10  C   UNL d   1       3.737  -0.009   0.453  0.00  0.00     0.002 C 
ATOM     11  C   UNL d   1       4.890  -0.690   0.548  0.00  0.00     0.011 C 
BRANCH  11  12
ATOM     12  C   UNL d   1       6.174  -0.043   0.866  0.00  0.00    -0.036 A 
ATOM     13  C   UNL d   1       6.254   1.092   1.690  0.00  0.00     0.011 A 
ATOM     14  C   UNL d   1       7.486   1.669   1.999  0.00  0.00     0.001 A 
ATOM     15  C   UNL d   1       8.659   1.107   1.505  0.00  0.00     0.000 A 
ATOM     16  C   UNL d   1       8.599  -0.031   0.703  0.00  0.00     0.001 A 
ATOM     17  C   UNL d   1       7.364  -0.605   0.388  0.00  0.00     0.011 A 
ENDBRANCH  11  12
ENDBRANCH   5  10
BRANCH   4  18
ATOM     18  C   UNL d   1      -3.686  -0.288   0.646  0.00  0.00     0.002 C 
ATOM     19  C   UNL d   1      -4.765  -1.049   0.882  0.00  0.00     0.011 C 
BRANCH  19  20
ATOM     20  C   UNL d   1      -6.117  -0.489   1.049  0.00  0.00    -0.036 A 
ATOM     21  C   UNL d   1      -6.526   0.677   0.382  0.00  0.00     0.011 A 
ATOM     22  C   UNL d   1      -7.824   1.170   0.528  0.00  0.00     0.001 A 
ATOM     23  C   UNL d   1      -8.736   0.494   1.329  0.00  0.00     0.000 A 
ATOM     24  C   UNL d   1      -8.353  -0.675   1.985  0.00  0.00     0.001 A 
ATOM     25  C   UNL d   1      -7.050  -1.165   1.844  0.00  0.00     0.011 A 
ENDBRANCH  19  20
ENDBRANCH   4  18
TORSDOF 4
