REMARK  5 active torsions:
REMARK  status: ('A' for Active; 'I' for Inactive)
REMARK    1  A    between atoms: C_3  and  N_1 
REMARK    2  A    between atoms: N_7  and  C_2 
REMARK    3  A    between atoms: S_4  and  C_6 
REMARK    4  A    between atoms: C_8  and  S_4 
REMARK       I    between atoms: C_9  and  N_7 
REMARK    5  A    between atoms: N_16  and  C_12 
ROOT
ATOM      1  C   UNL d   1       0.096  -2.789  -2.144  0.00  0.00     0.054 A 
ATOM      2  C   UNL d   1       0.208  -0.704  -0.901  0.00  0.00     0.105 A 
ATOM      3  C   UNL d   1       0.752  -1.953  -1.232  0.00  0.00     0.067 A 
ATOM      4  C   UNL d   1      -1.126  -2.360  -2.720  0.00  0.00     0.032 A 
ATOM      5  C   UNL d   1      -0.986  -0.268  -1.486  0.00  0.00     0.037 A 
ATOM      6  C   UNL d   1      -1.651  -1.099  -2.391  0.00  0.00     0.024 A 
ENDROOT
BRANCH   4   7
ATOM      7  S   UNL d   1      -2.114  -3.430  -3.770  0.00  0.00    -0.086 SA
BRANCH   7   8
ATOM      8  C   UNL d   1      -1.667  -2.952  -5.445  0.00  0.00     0.026 A 
ATOM      9  C   UNL d   1      -2.660  -2.922  -6.455  0.00  0.00     0.023 A 
ATOM     10  C   UNL d   1      -2.284  -2.625  -7.773  0.00  0.00     0.024 A 
ATOM     11  C   UNL d   1      -0.943  -2.446  -8.112  0.00  0.00     0.002 A 
ATOM     12  C   UNL d   1       0.035  -2.506  -7.125  0.00  0.00     0.001 A 
ATOM     13  C   UNL d   1      -0.325  -2.753  -5.799  0.00  0.00     0.021 A 
BRANCH   9  14
ATOM     14  N   UNL d   1      -4.036  -2.965  -6.148  0.00  0.00    -0.302 NA
ATOM     15  H   UNL d   1      -4.226  -3.438  -5.268  0.00  0.00     0.124 HD
ATOM     16  H   UNL d   1      -4.620  -3.296  -6.909  0.00  0.00     0.124 HD
ENDBRANCH   9  14
ENDBRANCH   7   8
ENDBRANCH   4   7
BRANCH   1  17
ATOM     17  N   UNL d   1       0.613  -4.055  -2.524  0.00  0.00    -0.326 N 
ATOM     18  C   UNL d   1       1.835  -4.604  -2.183  0.00  0.00     0.218 C 
ATOM     19  O   UNL d   1       2.683  -4.100  -1.455  0.00  0.00    -0.274 OA
ATOM     20  C   UNL d   1       2.099  -5.939  -2.833  0.00  0.00     0.117 C 
ATOM     21  H   UNL d   1       0.022  -4.579  -3.162  0.00  0.00     0.169 HD
ENDBRANCH   1  17
BRANCH   2  22
ATOM     22  N   UNL d   1       0.890   0.147   0.083  0.00  0.00    -0.116 N 
ATOM     23  O   UNL d   1       1.921  -0.284   0.614  0.00  0.00    -0.532 OA
ATOM     24  O   UNL d   1       0.385   1.254   0.330  0.00  0.00    -0.532 OA
ENDBRANCH   2  22
TORSDOF 5
