REMARK  3 active torsions:
REMARK  status: ('A' for Active; 'I' for Inactive)
REMARK    1  A    between atoms: C_14  and  N_1 
REMARK    2  A    between atoms: C_4  and  N_10 
REMARK    3  A    between atoms: C_5  and  C_7 
ROOT
ATOM      1  N   UNL d   1       1.466  -4.212  -0.166  0.00  0.00    -0.366 N 
ATOM      2  C   UNL d   1       2.718  -1.599  -0.015  0.00  0.00     0.099 C 
ATOM      3  C   UNL d   1       2.454  -2.319  -1.351  0.00  0.00     0.045 C 
ATOM      4  C   UNL d   1       2.987  -2.695   1.029  0.00  0.00     0.045 C 
ATOM      5  C   UNL d   1       1.250  -3.244  -1.241  0.00  0.00     0.126 C 
ATOM      6  C   UNL d   1       1.838  -3.697   1.149  0.00  0.00     0.126 C 
ENDROOT
BRANCH   1   7
ATOM      7  C   UNL d   1       1.134  -5.530  -0.415  0.00  0.00     0.125 A 
ATOM      8  N   UNL d   1       1.408  -5.964  -1.676  0.00  0.00    -0.350 N 
ATOM      9  C   UNL d   1       1.200  -7.258  -2.013  0.00  0.00     0.106 A 
ATOM     10  HN  UNL d   1       1.772  -5.311  -2.369  1.00  0.00     0.166 HD
ATOM     11  C   UNL d   1       0.715  -8.209  -1.141  0.00  0.00     0.065 A 
ATOM     12  C   UNL d   1       0.391  -7.777   0.143  0.00  0.00     0.045 A 
ATOM     13  C   UNL d   1       0.585  -6.437   0.511  0.00  0.00     0.078 A 
ATOM     14 CL   UNL d   1       0.003  -6.009   2.085  0.00  0.00    -0.080 Cl
BRANCH  11  15
ATOM     15  C   UNL d   1       0.547  -9.622  -1.596  0.00  0.00     0.418 C 
ATOM     16  F   UNL d   1       0.127 -10.463  -0.611  0.00  0.00    -0.166 F 
ATOM     17  F   UNL d   1      -0.360  -9.742  -2.603  0.00  0.00    -0.166 F 
ATOM     18  F   UNL d   1       1.706 -10.157  -2.071  0.00  0.00    -0.166 F 
ENDBRANCH  11  15
ENDBRANCH   1   7
BRANCH   2  19
ATOM     19  N   UNL d   1       1.698  -0.579   0.335  0.00  0.00    -0.283 N 
ATOM     20  C   UNL d   1       1.279  -0.265   1.600  0.00  0.00     0.228 C 
ATOM     21  C   UNL d   1       0.357   0.921   1.554  0.00  0.00     0.122 C 
ATOM     22  O   UNL d   1       1.559  -0.829   2.646  0.00  0.00    -0.273 OA
ATOM     23  C   UNL d   1       0.579   1.495   0.166  0.00  0.00     0.050 C 
ATOM     24  C   UNL d   1       1.359   0.421  -0.547  0.00  0.00     0.236 C 
ATOM     25  C   UNL d   1       1.397   2.791   0.162  0.00  0.00     0.020 C 
ATOM     26  C   UNL d   1      -0.706   1.883  -0.563  0.00  0.00     0.020 C 
ATOM     27  O   UNL d   1       1.705   0.509  -1.718  0.00  0.00    -0.272 OA
ATOM     28  C   UNL d   1       0.377   3.909   0.295  0.00  0.00     0.001 C 
ATOM     29  C   UNL d   1      -0.943   3.353  -0.227  0.00  0.00     0.001 C 
ENDBRANCH   2  19
TORSDOF 3
