REMARK  5 active torsions:
REMARK  status: ('A' for Active; 'I' for Inactive)
REMARK    1  A    between atoms: C_12  and  C_1 
REMARK    2  A    between atoms: O_15  and  C_3 
REMARK    3  A    between atoms: C_4  and  N_11 
REMARK    4  A    between atoms: N_13  and  C_4 
REMARK    5  A    between atoms: N_11  and  N_6 
ROOT
ATOM      1  C   UNL d   1      -0.074   2.069   0.005  0.00  0.00     0.017 A 
ATOM      2  C   UNL d   1      -0.972  -0.174  -0.001  0.00  0.00     0.069 A 
ATOM      3  C   UNL d   1      -1.177   1.213  -0.002  0.00  0.00     0.099 A 
ATOM      4  C   UNL d   1       0.317  -0.707   0.005  0.00  0.00     0.050 A 
ATOM      5  C   UNL d   1       1.223   1.532   0.011  0.00  0.00     0.039 A 
ATOM      6  C   UNL d   1       1.411   0.154   0.011  0.00  0.00     0.036 A 
ATOM      7 CL   UNL d   1      -2.320  -1.251  -0.008  0.00  0.00    -0.081 Cl
ATOM      8 CL   UNL d   1       3.005  -0.491   0.019  0.00  0.00    -0.084 Cl
ENDROOT
BRANCH   1   9
ATOM      9  C   UNL d   1      -0.239   3.541   0.007  0.00  0.00     0.121 C 
ATOM     10  N   UNL d   1       0.819   4.284   0.016  0.00  0.00    -0.309 N 
ATOM     11  HN  UNL d   1       1.748   3.863   0.020  1.00  0.00     0.186 HD
BRANCH  10  12
ATOM     12  N   UNL d   1       0.674   5.633   0.019  0.00  0.00    -0.277 N 
ATOM     13  H   UNL d   1      -0.257   6.026   0.016  0.00  0.00     0.189 HD
BRANCH  12  14
ATOM     14  C   UNL d   1       1.806   6.450   0.030  0.00  0.00     0.186 C 
ATOM     15  S   UNL d   1       3.383   5.869   0.037  0.00  0.00    -0.040 SA
BRANCH  14  16
ATOM     16  N   UNL d   1       1.468   7.793   0.034  0.00  0.00    -0.370 N 
ATOM     17  C   UNL d   1       2.385   8.921   0.045  0.00  0.00     0.148 C 
ATOM     18  H   UNL d   1       0.487   8.027   0.030  0.00  0.00     0.161 HD
ENDBRANCH  14  16
ENDBRANCH  12  14
ENDBRANCH  10  12
ENDBRANCH   1   9
BRANCH   3  19
ATOM     19  O   UNL d   1      -2.444   1.733  -0.011  0.00  0.00    -0.358 OA
ATOM     20  H   UNL d   1      -3.070   0.981  -0.018  0.00  0.00     0.217 HD
ENDBRANCH   3  19
TORSDOF 5
