REMARK  7 active torsions:
REMARK  status: ('A' for Active; 'I' for Inactive)
REMARK    1  A    between atoms: N_2  and  S_1 
REMARK    2  A    between atoms: C_3  and  S_1 
REMARK    3  A    between atoms: C_4  and  N_2 
REMARK    4  A    between atoms: C_19  and  N_2 
REMARK    5  A    between atoms: O_20  and  C_10 
REMARK    6  A    between atoms: O_21  and  C_14 
REMARK    7  A    between atoms: C_18  and  C_19 
ROOT
ATOM      1  N   UNL d   1       1.808   4.565  -3.258  0.00  0.00    -0.197 NA
ATOM      2  C   UNL d   1       1.787   3.480  -2.841  0.00  0.00     0.060 C 
ATOM      3  C   UNL d   1       1.758   2.091  -2.317  0.00  0.00     0.139 C 
ENDROOT
BRANCH   3   4
ATOM      4  C   UNL d   1       0.409   1.815  -1.631  0.00  0.00     0.122 C 
BRANCH   4   5
ATOM      5  N   UNL d   1       0.157   0.340  -1.243  0.00  0.00    -0.197 NA
BRANCH   5   6
ATOM      6  S   UNL d   1       0.857  -0.011   0.282  0.00  0.00     0.244 S 
ATOM      7  O   UNL d   1      -0.122   0.367   1.292  0.00  0.00    -0.206 OA
ATOM      8  O   UNL d   1       2.185   0.557   0.299  0.00  0.00    -0.206 OA
BRANCH   6   9
ATOM      9  C   UNL d   1       1.081  -1.766   0.328  0.00  0.00     0.077 A 
ATOM     10  C   UNL d   1       0.688  -2.481   1.463  0.00  0.00     0.064 A 
ATOM     11  C   UNL d   1       0.852  -3.871   1.528  0.00  0.00     0.102 A 
ATOM     12  C   UNL d   1       1.468  -4.530   0.446  0.00  0.00     0.101 A 
ATOM     13  C   UNL d   1       1.879  -3.788  -0.677  0.00  0.00     0.041 A 
ATOM     14  C   UNL d   1       1.689  -2.408  -0.745  0.00  0.00     0.028 A 
BRANCH  11  15
ATOM     15  O   UNL d   1       0.430  -4.620   2.594  0.00  0.00    -0.353 OA
ATOM     16  C   UNL d   1      -0.204  -3.959   3.681  0.00  0.00     0.210 C 
ENDBRANCH  11  15
BRANCH  12  17
ATOM     17  O   UNL d   1       1.754  -5.864   0.304  0.00  0.00    -0.353 OA
ATOM     18  C   UNL d   1       1.461  -6.751   1.371  0.00  0.00     0.210 C 
ENDBRANCH  12  17
ENDBRANCH   6   9
ENDBRANCH   5   6
BRANCH   5  19
ATOM     19  C   UNL d   1      -1.319  -0.034  -1.445  0.00  0.00     0.108 C 
ATOM     20  C   UNL d   1      -1.919  -1.414  -1.137  0.00  0.00    -0.033 C 
ATOM     21  C   UNL d   1      -2.538  -1.956  -2.279  0.00  0.00    -0.050 C 
ATOM     22  C   UNL d   1      -2.179  -2.071   0.061  0.00  0.00     0.009 C 
ATOM     23  C   UNL d   1      -3.130  -3.214  -2.324  0.00  0.00     0.007 C 
ATOM     24  C   UNL d   1      -2.693  -0.914  -3.329  0.00  0.00     0.041 C 
ATOM     25  C   UNL d   1      -3.234  -3.929  -1.143  0.00  0.00     0.001 C 
ATOM     26  C   UNL d   1      -2.819  -3.333   0.053  0.00  0.00     0.001 C 
ATOM     27  C   UNL d   1      -1.500  -0.044  -3.000  0.00  0.00     0.030 C 
ENDBRANCH   5  19
ENDBRANCH   4   5
ENDBRANCH   3   4
TORSDOF 7
