REMARK  4 active torsions:
REMARK  status: ('A' for Active; 'I' for Inactive)
REMARK    1  A    between atoms: C_11  and  C_3 
REMARK    2  A    between atoms: C_10  and  C_4 
REMARK    3  A    between atoms: C_9  and  N_6 
REMARK    4  A    between atoms: N_8  and  C_10 
ROOT
ATOM      1  C   UNL d   1      -0.781  -2.284   0.032  0.00  0.00     0.330 C 
ENDROOT
BRANCH   1   2
ATOM      2  N   UNL d   1      -2.236  -2.509   0.057  0.00  0.00     0.097 N 
ATOM      3  C   UNL d   1      -2.896  -1.894   1.236  0.00  0.00     0.292 C 
ATOM      4  C   UNL d   1      -3.085  -0.351   1.213  0.00  0.00     0.153 C 
ATOM      5  N   UNL d   1      -3.700   0.081  -0.062  0.00  0.00    -0.378 N 
ATOM      6  C   UNL d   1      -2.995  -0.432  -1.247  0.00  0.00     0.153 C 
ATOM      7  C   UNL d   1      -2.870  -1.973  -1.170  0.00  0.00     0.292 C 
BRANCH   5   8
ATOM      8  C   UNL d   1      -4.221   1.379  -0.101  0.00  0.00     0.030 A 
ATOM      9  C   UNL d   1      -5.254   1.746   0.781  0.00  0.00     0.032 A 
ATOM     10  C   UNL d   1      -5.874   2.999   0.709  0.00  0.00     0.044 A 
ATOM     11  C   UNL d   1      -5.457   3.912  -0.247  0.00  0.00     0.116 A 
ATOM     12  C   UNL d   1      -4.431   3.597  -1.123  0.00  0.00     0.044 A 
ATOM     13  F   UNL d   1      -6.063   5.104  -0.337  0.00  0.00    -0.206 F 
ATOM     14  C   UNL d   1      -3.822   2.338  -1.049  0.00  0.00     0.032 A 
ENDBRANCH   5   8
ENDBRANCH   1   2
BRANCH   1  15
ATOM     15  C   UNL d   1      -0.072  -3.059   1.103  0.00  0.00     0.054 A 
ATOM     16  N   UNL d   1       0.814  -2.421   1.945  0.00  0.00    -0.343 N 
ATOM     17  C   UNL d   1       1.358  -3.354   2.712  0.00  0.00     0.115 A 
ATOM     18  HN  UNL d   1       1.014  -1.421   1.972  1.00  0.00     0.167 HD
ATOM     19  N   UNL d   1       0.798  -4.575   2.415  0.00  0.00    -0.350 N 
ATOM     20  C   UNL d   1      -0.091  -4.406   1.388  0.00  0.00     0.116 A 
ATOM     21  H   UNL d   1       1.029  -5.451   2.857  0.00  0.00     0.166 HD
BRANCH  17  22
ATOM     22  C   UNL d   1       2.417  -3.124   3.707  0.00  0.00     0.008 A 
ATOM     23  C   UNL d   1       2.842  -1.807   3.943  0.00  0.00     0.015 A 
ATOM     24  C   UNL d   1       3.871  -1.528   4.846  0.00  0.00     0.001 A 
ATOM     25  C   UNL d   1       4.492  -2.567   5.532  0.00  0.00     0.000 A 
ATOM     26  C   UNL d   1       4.080  -3.881   5.317  0.00  0.00     0.001 A 
ATOM     27  C   UNL d   1       3.049  -4.160   4.411  0.00  0.00     0.015 A 
ENDBRANCH  17  22
ENDBRANCH   1  15
TORSDOF 4
