REMARK  4 active torsions:
REMARK  status: ('A' for Active; 'I' for Inactive)
REMARK    1  A    between atoms: C_8  and  N_1 
REMARK    2  A    between atoms: S_3  and  C_7 
REMARK    3  A    between atoms: C_9  and  S_3 
REMARK    4  A    between atoms: C_7  and  C_8 
ROOT
ATOM      1  C   UNL d   1       2.068  -2.418  -0.020  0.00  0.00     0.151 C 
ENDROOT
BRANCH   1   2
ATOM      2  C   UNL d   1       3.582  -2.494  -0.070  0.00  0.00     0.166 C 
BRANCH   2   3
ATOM      3  S   UNL d   1       4.175  -4.167  -0.051  0.00  0.00     0.177 S 
ATOM      4  O   UNL d   1       5.612  -4.137  -0.247  0.00  0.00    -0.223 OA
ATOM      5  O   UNL d   1       3.602  -4.830   1.104  0.00  0.00    -0.223 OA
BRANCH   3   6
ATOM      6  C   UNL d   1       3.493  -4.940  -1.502  0.00  0.00     0.059 A 
ATOM      7  C   UNL d   1       3.852  -4.465  -2.769  0.00  0.00     0.026 A 
ATOM      8  C   UNL d   1       3.307  -5.068  -3.904  0.00  0.00     0.044 A 
ATOM      9  C   UNL d   1       2.428  -6.138  -3.763  0.00  0.00     0.116 A 
ATOM     10  C   UNL d   1       2.088  -6.628  -2.505  0.00  0.00     0.044 A 
ATOM     11  F   UNL d   1       1.904  -6.710  -4.854  0.00  0.00    -0.206 F 
ATOM     12  C   UNL d   1       2.626  -6.031  -1.364  0.00  0.00     0.026 A 
ENDBRANCH   3   6
ENDBRANCH   2   3
ENDBRANCH   1   2
BRANCH   1  13
ATOM     13  N   UNL d   1       1.593  -1.056   0.020  0.00  0.00    -0.276 N 
ATOM     14  C   UNL d   1       1.357  -0.221  -1.045  0.00  0.00     0.374 A 
ATOM     15  O   UNL d   1       0.906   1.037  -0.619  0.00  0.00    -0.257 OA
ATOM     16  O   UNL d   1       1.525  -0.510  -2.222  0.00  0.00    -0.237 OA
ATOM     17  C   UNL d   1       0.921   0.893   0.753  0.00  0.00     0.125 A 
ATOM     18  C   UNL d   1       1.342  -0.349   1.166  0.00  0.00     0.146 A 
ATOM     19  C   UNL d   1       0.570   1.843   1.684  0.00  0.00     0.043 A 
ATOM     20  N   UNL d   1       1.468  -0.753   2.433  0.00  0.00    -0.350 N 
ATOM     21  C   UNL d   1       1.123   0.187   3.347  0.00  0.00     0.090 A 
ATOM     22  HN  UNL d   1       1.794  -1.685   2.689  1.00  0.00     0.166 HD
ATOM     23  C   UNL d   1       0.674   1.474   3.026  0.00  0.00     0.020 A 
ENDBRANCH   1  13
TORSDOF 4
