REMARK  3 active torsions:
REMARK  status: ('A' for Active; 'I' for Inactive)
REMARK    1  A    between atoms: C_4  and  C_1 
REMARK    2  A    between atoms: C_8  and  C_4 
REMARK    3  A    between atoms: C_9  and  C_8 
ROOT
ATOM      1  C   UNL d   1      -2.502  -1.333   0.140  0.00  0.00     0.027 C 
ATOM      2  C   UNL d   1      -2.591  -2.714  -0.177  0.00  0.00    -0.041 C 
ATOM      3  C   UNL d   1      -1.224  -0.740   0.331  0.00  0.00    -0.041 C 
ATOM      4  C   UNL d   1      -1.413  -3.507  -0.154  0.00  0.00    -0.049 C 
ATOM      5  C   UNL d   1      -0.049  -1.486   0.054  0.00  0.00    -0.049 C 
ATOM      6  C   UNL d   1      -0.138  -2.886  -0.102  0.00  0.00    -0.049 C 
ATOM      7  C   UNL d   1      -1.081   0.682   0.828  0.00  0.00     0.050 C 
ATOM      8  C   UNL d   1      -3.894  -3.382  -0.549  0.00  0.00     0.050 C 
ATOM      9  C   UNL d   1      -1.480  -5.020  -0.198  0.00  0.00     0.049 C 
ATOM     10  C   UNL d   1       1.290  -0.793  -0.072  0.00  0.00     0.049 C 
ATOM     11  C   UNL d   1       1.105  -3.746  -0.195  0.00  0.00     0.049 C 
ENDROOT
BRANCH   1  12
ATOM     12  C   UNL d   1      -3.704  -0.426   0.160  0.00  0.00     0.189 C 
ATOM     13  O   UNL d   1      -3.637   0.641  -0.452  0.00  0.00    -0.287 OA
BRANCH  12  14
ATOM     14  C   UNL d   1      -4.986  -0.774   0.882  0.00  0.00    -0.010 C 
ATOM     15  C   UNL d   1      -6.191   0.009   0.434  0.00  0.00     0.052 C 
BRANCH  14  16
ATOM     16  C   UNL d   1      -4.996  -1.712   1.852  0.00  0.00     0.029 C 
ATOM     17  C   UNL d   1      -6.178  -2.199   2.474  0.00  0.00     0.005 A 
ATOM     18  S   UNL d   1      -7.201  -3.330   1.664  0.00  0.00    -0.102 SA
ATOM     19  C   UNL d   1      -6.622  -1.990   3.766  0.00  0.00     0.019 A 
ATOM     20  C   UNL d   1      -8.195  -3.534   3.042  0.00  0.00     0.050 A 
ATOM     21  C   UNL d   1      -7.775  -2.762   4.096  0.00  0.00     0.008 A 
ENDBRANCH  14  16
ENDBRANCH  12  14
ENDBRANCH   1  12
TORSDOF 3
