REMARK  5 active torsions:
REMARK  status: ('A' for Active; 'I' for Inactive)
REMARK       I    between atoms: N_2  and  C_1 
REMARK       I    between atoms: N_3  and  C_1 
REMARK    1  A    between atoms: C_11  and  N_2 
REMARK    2  A    between atoms: C_18  and  N_2 
REMARK    3  A    between atoms: C_9  and  N_3 
REMARK    4  A    between atoms: C_16  and  C_11 
REMARK    5  A    between atoms: C_14  and  C_18 
ROOT
ATOM      1  N   UNL d   1       2.375  -0.355  -5.700  0.00  0.00    -0.197 NA
ATOM      2  C   UNL d   1       1.875  -0.537  -4.666  0.00  0.00     0.060 C 
ATOM      3  C   UNL d   1       1.252  -0.754  -3.354  0.00  0.00     0.144 C 
ENDROOT
BRANCH   3   4
ATOM      4  C   UNL d   1       1.298   0.535  -2.525  0.00  0.00     0.142 C 
BRANCH   4   5
ATOM      5  N   UNL d   1       0.695   0.387  -1.188  0.00  0.00    -0.329 N 
ATOM      6  C   UNL d   1       1.343  -0.067  -0.022  0.00  0.00     0.323 C 
ATOM      7  N   UNL d   1       2.667  -0.421  -0.194  0.00  0.00    -0.309 N 
ATOM      8  O   UNL d   1       0.744  -0.159   1.046  0.00  0.00    -0.247 OA
ATOM      9  H   UNL d   1       3.048  -0.321  -1.114  0.00  0.00     0.170 HD
BRANCH   7  10
ATOM     10  C   UNL d   1       3.591  -0.931   0.757  0.00  0.00     0.037 A 
ATOM     11  C   UNL d   1       3.329  -1.130   2.122  0.00  0.00     0.039 A 
ATOM     12  C   UNL d   1       4.340  -1.653   2.930  0.00  0.00    -0.021 A 
ATOM     13  C   UNL d   1       4.324  -2.026   4.367  0.00  0.00     0.068 C 
ATOM     14  C   UNL d   1       5.577  -1.986   2.402  0.00  0.00     0.075 A 
ATOM     15  C   UNL d   1       5.819  -2.288   4.585  0.00  0.00     0.180 C 
ATOM     16  O   UNL d   1       6.453  -2.524   3.308  0.00  0.00    -0.350 OA
ATOM     17  C   UNL d   1       5.866  -1.808   1.070  0.00  0.00     0.039 A 
ATOM     18  C   UNL d   1       4.868  -1.270   0.251  0.00  0.00     0.032 A 
ENDBRANCH   7  10
BRANCH   5  19
ATOM     19  C   UNL d   1      -0.740   0.701  -1.097  0.00  0.00     0.166 C 
BRANCH  19  20
ATOM     20  C   UNL d   1      -1.045   2.177  -0.939  0.00  0.00    -0.040 A 
ATOM     21  C   UNL d   1      -1.523   2.949  -2.011  0.00  0.00     0.009 A 
ATOM     22  C   UNL d   1      -1.864   4.295  -1.827  0.00  0.00     0.001 A 
ATOM     23  C   UNL d   1      -1.732   4.885  -0.572  0.00  0.00     0.000 A 
ATOM     24  C   UNL d   1      -1.252   4.133   0.498  0.00  0.00     0.001 A 
ATOM     25  C   UNL d   1      -0.907   2.792   0.315  0.00  0.00     0.009 A 
ENDBRANCH  19  20
ENDBRANCH   5  19
ENDBRANCH   4   5
ENDBRANCH   3   4
TORSDOF 5
