REMARK  5 active torsions:
REMARK  status: ('A' for Active; 'I' for Inactive)
REMARK    1  A    between atoms: C_3  and  C_1 
REMARK    2  A    between atoms: C_6  and  C_2 
REMARK       I    between atoms: N_7  and  C_3 
REMARK    3  A    between atoms: C_13  and  N_7 
REMARK    4  A    between atoms: C_14  and  N_7 
REMARK    5  A    between atoms: C_17  and  C_13 
ROOT
ATOM      1  C   UNL d   1      -0.488  -1.179   0.185  0.00  0.00     0.093 C 
ATOM      2  C   UNL d   1      -0.709  -0.049   1.059  0.00  0.00     0.088 C 
ATOM      3  N   UNL d   1      -1.277   0.949   0.356  0.00  0.00    -0.259 N 
ATOM      4  HN  UNL d   1      -1.632   1.827   0.734  1.00  0.00     0.195 HD
ATOM      5  O   UNL d   1      -1.291   0.570  -0.953  0.00  0.00    -0.241 OA
ATOM      6  C   UNL d   1      -0.799  -0.682  -1.071  0.00  0.00     0.090 C 
ATOM      7  C   UNL d   1      -0.731  -1.182  -2.459  0.00  0.00     0.080 C 
ENDROOT
BRANCH   1   8
ATOM      8  C   UNL d   1       0.062  -2.497   0.478  0.00  0.00     0.259 C 
ATOM      9  N   UNL d   1      -0.535  -3.644  -0.108  0.00  0.00    -0.340 N 
ATOM     10  O   UNL d   1       1.056  -2.581   1.196  0.00  0.00    -0.267 OA
BRANCH   9  11
ATOM     11  C   UNL d   1       0.100  -4.939   0.194  0.00  0.00     0.165 C 
BRANCH  11  12
ATOM     12  C   UNL d   1       1.170  -5.419  -0.773  0.00  0.00    -0.040 A 
ATOM     13  C   UNL d   1       2.140  -4.565  -1.308  0.00  0.00     0.009 A 
ATOM     14  C   UNL d   1       3.213  -5.077  -2.054  0.00  0.00     0.001 A 
ATOM     15  C   UNL d   1       3.330  -6.444  -2.266  0.00  0.00     0.000 A 
ATOM     16  C   UNL d   1       2.369  -7.310  -1.758  0.00  0.00     0.001 A 
ATOM     17  C   UNL d   1       1.296  -6.801  -1.019  0.00  0.00     0.009 A 
ENDBRANCH  11  12
ENDBRANCH   9  11
BRANCH   9  18
ATOM     18  C   UNL d   1      -1.956  -3.676  -0.541  0.00  0.00     0.079 C 
ATOM     19  C   UNL d   1      -2.168  -4.504  -1.811  0.00  0.00     0.032 C 
ATOM     20  C   UNL d   1      -2.891  -4.140   0.582  0.00  0.00     0.032 C 
ENDBRANCH   9  18
ENDBRANCH   1   8
BRANCH   2  21
ATOM     21  C   UNL d   1      -0.528   0.145   2.507  0.00  0.00     0.054 A 
ATOM     22  C   UNL d   1      -0.841  -0.879   3.408  0.00  0.00     0.130 A 
ATOM     23  F   UNL d   1      -1.200  -2.095   2.966  0.00  0.00    -0.205 F 
ATOM     24  C   UNL d   1      -0.856  -0.672   4.792  0.00  0.00     0.043 A 
ATOM     25  C   UNL d   1      -0.577   0.584   5.317  0.00  0.00     0.005 A 
ATOM     26  C   UNL d   1      -0.224   1.616   4.454  0.00  0.00     0.025 A 
ATOM     27  C   UNL d   1      -0.172   1.398   3.065  0.00  0.00     0.049 A 
ATOM     28 CL   UNL d   1       0.382   2.748   2.127  0.00  0.00    -0.083 Cl
ENDBRANCH   2  21
TORSDOF 5
