REMARK  3 active torsions:
REMARK  status: ('A' for Active; 'I' for Inactive)
REMARK    1  A    between atoms: C_5  and  C_8 
REMARK       I    between atoms: N_10  and  C_5 
REMARK    2  A    between atoms: C_19  and  N_10 
REMARK    3  A    between atoms: C_11  and  C_19 
ROOT
ATOM      1  N   UNL d   1       2.163   0.470   0.001  0.00  0.00    -0.061 NA
ATOM      2  N   UNL d   1       1.155   1.325   0.016  0.00  0.00    -0.292 N 
ATOM      3  HN  UNL d   1       1.268   2.339   0.032  1.00  0.00     0.183 HD
ATOM      4  C   UNL d   1      -0.078   0.680   0.008  0.00  0.00     0.064 A 
ATOM      5  S   UNL d   1       1.665  -1.125  -0.023  0.00  0.00     0.002 SA
ATOM      6  C   UNL d   1      -0.009  -0.715  -0.014  0.00  0.00     0.047 A 
ATOM      7  C   UNL d   1      -2.511   0.517   0.012  0.00  0.00     0.034 A 
ATOM      8  C   UNL d   1      -1.347   1.303   0.021  0.00  0.00     0.049 A 
ATOM      9  C   UNL d   1      -1.150  -1.523  -0.025  0.00  0.00     0.023 A 
ATOM     10  C   UNL d   1      -2.396  -0.881  -0.012  0.00  0.00     0.018 A 
ENDROOT
BRANCH   7  11
ATOM     11  C   UNL d   1      -3.894   1.095   0.028  0.00  0.00     0.252 C 
ATOM     12  N   UNL d   1      -4.029   2.462   0.053  0.00  0.00    -0.351 N 
ATOM     13  H   UNL d   1      -3.242   3.096   0.062  0.00  0.00     0.163 HD
ATOM     14  O   UNL d   1      -4.868   0.347   0.019  0.00  0.00    -0.268 OA
BRANCH  12  15
ATOM     15  C   UNL d   1      -5.336   3.082   0.075  0.00  0.00     0.187 C 
BRANCH  15  16
ATOM     16  C   UNL d   1      -5.206   4.566   0.098  0.00  0.00     0.070 A 
ATOM     17  O   UNL d   1      -3.943   5.095   0.095  0.00  0.00    -0.325 OA
ATOM     18  C   UNL d   1      -4.077   6.446   0.118  0.00  0.00     0.142 A 
ATOM     19  C   UNL d   1      -5.404   6.799   0.136  0.00  0.00     0.027 A 
ATOM     20  C   UNL d   1      -6.136   5.587   0.124  0.00  0.00     0.036 A 
ENDBRANCH  15  16
ENDBRANCH  12  15
ENDBRANCH   7  11
TORSDOF 3
