REMARK  4 active torsions:
REMARK  status: ('A' for Active; 'I' for Inactive)
REMARK    1  A    between atoms: C_2  and  C_1 
REMARK       I    between atoms: N_14  and  C_2 
REMARK    2  A    between atoms: C_18  and  C_5 
REMARK    3  A    between atoms: S_19  and  C_6 
REMARK    4  A    between atoms: C_16  and  N_14 
ROOT
ATOM      1  C   UNL d   1       0.420  -2.144   0.088  0.00  0.00     0.261 C 
ATOM      2  N   UNL d   1      -0.236  -3.318   0.434  0.00  0.00    -0.323 N 
ATOM      3  O   UNL d   1       1.623  -2.028  -0.110  0.00  0.00    -0.267 OA
ATOM      4  H   UNL d   1      -1.217  -3.232   0.668  0.00  0.00     0.169 HD
ENDROOT
BRANCH   1   5
ATOM      5  C   UNL d   1      -0.446  -0.984   0.070  0.00  0.00     0.093 A 
ATOM      6  C   UNL d   1      -0.239   0.320   0.634  0.00  0.00     0.083 A 
ATOM      7  N   UNL d   1      -1.295   1.105   0.352  0.00  0.00    -0.259 N 
ATOM      8  O   UNL d   1      -2.179   0.351  -0.375  0.00  0.00    -0.241 OA
ATOM      9  HN  UNL d   1      -1.416   2.079   0.628  1.00  0.00     0.195 HD
ATOM     10  C   UNL d   1      -1.681  -0.896  -0.549  0.00  0.00     0.090 A 
ATOM     11  C   UNL d   1      -2.520  -1.816  -1.337  0.00  0.00     0.080 C 
BRANCH   6  12
ATOM     12  C   UNL d   1       0.857   0.860   1.459  0.00  0.00    -0.006 A 
ATOM     13  C   UNL d   1       1.662   0.048   2.270  0.00  0.00     0.014 A 
ATOM     14  C   UNL d   1       2.652   0.607   3.091  0.00  0.00     0.001 A 
ATOM     15  C   UNL d   1       2.848   1.985   3.119  0.00  0.00     0.000 A 
ATOM     16  C   UNL d   1       2.062   2.808   2.321  0.00  0.00     0.001 A 
ATOM     17  C   UNL d   1       1.079   2.249   1.498  0.00  0.00     0.014 A 
ENDBRANCH   6  12
ENDBRANCH   1   5
BRANCH   2  18
ATOM     18  C   UNL d   1       0.383  -4.523   0.840  0.00  0.00     0.036 C 
ATOM     19  C   UNL d   1       1.745  -4.782   0.650  0.00  0.00     0.051 C 
ATOM     20  C   UNL d   1       2.322  -5.857   1.347  0.00  0.00     0.036 A 
ATOM     21  S   UNL d   1       3.976  -6.330   1.427  0.00  0.00    -0.063 SA
ATOM     22  C   UNL d   1       1.568  -6.709   2.152  0.00  0.00     0.050 A 
ATOM     23  C   UNL d   1       3.574  -7.483   2.623  0.00  0.00     0.112 A 
ATOM     24  N   UNL d   1       2.295  -7.641   2.871  0.00  0.00    -0.344 N 
ATOM     25  HN  UNL d   1       1.898  -8.342   3.496  1.00  0.00     0.167 HD
ATOM     26  C   UNL d   1       0.173  -6.530   2.202  0.00  0.00     0.033 C 
ATOM     27  C   UNL d   1      -0.406  -5.434   1.549  0.00  0.00     0.032 C 
BRANCH  23  28
ATOM     28  S   UNL d   1       4.793  -8.381   3.500  0.00  0.00    -0.109 SA
ATOM     29  C   UNL d   1       4.075  -8.316   5.159  0.00  0.00     0.097 C 
ENDBRANCH  23  28
ENDBRANCH   2  18
TORSDOF 4
