REMARK  4 active torsions:
REMARK  status: ('A' for Active; 'I' for Inactive)
REMARK    1  A    between atoms: N_2  and  C_1 
REMARK    2  A    between atoms: N_6  and  C_1 
REMARK    3  A    between atoms: C_3  and  N_2 
REMARK    4  A    between atoms: C_12  and  N_6 
ROOT
ATOM      1  C   UNL d   1       1.091  -0.157   0.048  0.00  0.00     0.172 C 
ATOM      2  S   UNL d   1       2.306   0.823  -0.555  0.00  0.00    -0.041 SA
ENDROOT
BRANCH   1   3
ATOM      3  N   UNL d   1       0.614  -1.283  -0.554  0.00  0.00    -0.362 N 
ATOM      4  H   UNL d   1      -0.370  -1.457  -0.383  0.00  0.00     0.162 HD
BRANCH   3   5
ATOM      5  C   UNL d   1       1.189  -1.980  -1.693  0.00  0.00     0.092 C 
ATOM      6  C   UNL d   1       0.823  -3.490  -1.740  0.00  0.00     0.031 C 
ATOM      7  C   UNL d   1      -0.678  -3.663  -1.866  0.00  0.00    -0.024 C 
ATOM      8  C   UNL d   1       1.215  -3.804  -3.189  0.00  0.00     0.019 C 
ATOM      9  C   UNL d   1      -1.024  -3.237  -3.091  0.00  0.00    -0.026 C 
ATOM     10  C   UNL d   1       0.242  -2.774  -3.775  0.00  0.00     0.010 C 
ATOM     11  C   UNL d   1       0.696  -1.469  -3.079  0.00  0.00     0.034 C 
ENDBRANCH   3   5
ENDBRANCH   1   3
BRANCH   1  12
ATOM     12  N   UNL d   1       0.515   0.214   1.231  0.00  0.00    -0.333 N 
ATOM     13  H   UNL d   1       0.787   1.149   1.515  0.00  0.00     0.168 HD
BRANCH  12  14
ATOM     14  C   UNL d   1      -0.275  -0.498   2.159  0.00  0.00     0.034 A 
ATOM     15  C   UNL d   1      -0.467  -1.883   2.135  0.00  0.00     0.036 A 
ATOM     16  C   UNL d   1      -1.289  -2.518   3.078  0.00  0.00    -0.060 A 
ATOM     17  C   UNL d   1      -1.532  -3.997   3.009  0.00  0.00     0.048 C 
ATOM     18  C   UNL d   1      -1.895  -1.754   4.080  0.00  0.00     0.007 A 
ATOM     19  C   UNL d   1      -1.669  -0.381   4.146  0.00  0.00     0.003 A 
ATOM     20  C   UNL d   1      -0.860   0.242   3.193  0.00  0.00     0.029 A 
ENDBRANCH  12  14
ENDBRANCH   1  12
TORSDOF 4
