REMARK  6 active torsions:
REMARK  status: ('A' for Active; 'I' for Inactive)
REMARK    1  A    between atoms: C_7  and  N_1 
REMARK    2  A    between atoms: S_12  and  C_2 
REMARK    3  A    between atoms: C_9  and  C_13 
REMARK    4  A    between atoms: C_27  and  S_12 
REMARK    5  A    between atoms: C_14  and  C_27 
REMARK       I    between atoms: N_16  and  C_14 
REMARK    6  A    between atoms: C_20  and  N_16 
ROOT
ATOM      1  N   UNL d   1      -0.443  -1.437  -0.176  0.00  0.00    -0.279 N 
ATOM      2  C   UNL d   1       0.815  -0.972  -0.521  0.00  0.00     0.168 C 
ATOM      3  N   UNL d   1       0.849   0.336  -0.462  0.00  0.00    -0.278 N 
ATOM      4  HN  UNL d   1       1.680   0.919  -0.559  1.00  0.00     0.189 HD
ATOM      5  N   UNL d   1      -0.417   0.779  -0.247  0.00  0.00    -0.287 N 
ATOM      6  HN  UNL d   1      -0.706   1.755  -0.188  1.00  0.00     0.188 HD
ATOM      7  C   UNL d   1      -1.212  -0.271  -0.128  0.00  0.00     0.101 C 
ATOM      8  C   UNL d   1      -2.670  -0.159   0.104  0.00  0.00     0.091 C 
ENDROOT
BRANCH   2   9
ATOM      9  S   UNL d   1       2.000  -1.902  -1.389  0.00  0.00    -0.083 SA
BRANCH   9  10
ATOM     10  C   UNL d   1       3.375  -0.736  -1.548  0.00  0.00     0.185 C 
BRANCH  10  11
ATOM     11  C   UNL d   1       3.208   0.454  -2.489  0.00  0.00     0.231 C 
ATOM     12  N   UNL d   1       1.950   0.688  -3.011  0.00  0.00    -0.327 N 
ATOM     13  H   UNL d   1       1.197   0.170  -2.576  0.00  0.00     0.169 HD
ATOM     14  O   UNL d   1       4.192   1.162  -2.695  0.00  0.00    -0.272 OA
BRANCH  12  15
ATOM     15  C   UNL d   1       1.544   1.822  -3.739  0.00  0.00     0.035 A 
ATOM     16  C   UNL d   1       2.442   2.683  -4.369  0.00  0.00     0.045 A 
ATOM     17  C   UNL d   1       2.004   3.878  -4.958  0.00  0.00     0.050 A 
ATOM     18  C   UNL d   1       0.633   4.175  -4.957  0.00  0.00     0.016 A 
ATOM     19  C   UNL d   1      -0.280   3.290  -4.384  0.00  0.00     0.003 A 
ATOM     20  C   UNL d   1       0.176   2.116  -3.779  0.00  0.00     0.029 A 
BRANCH  17  21
ATOM     21  C   UNL d   1       3.002   4.847  -5.536  0.00  0.00     0.417 C 
ATOM     22  F   UNL d   1       4.290   4.406  -5.497  0.00  0.00    -0.166 F 
ATOM     23  F   UNL d   1       2.750   5.136  -6.843  0.00  0.00    -0.166 F 
ATOM     24  F   UNL d   1       2.998   6.043  -4.883  0.00  0.00    -0.166 F 
ENDBRANCH  17  21
ENDBRANCH  12  15
ENDBRANCH  10  11
ENDBRANCH   9  10
ENDBRANCH   2   9
BRANCH   1  25
ATOM     25  C   UNL d   1      -0.841  -2.774   0.121  0.00  0.00     0.045 A 
ATOM     26  C   UNL d   1      -2.159  -3.187  -0.080  0.00  0.00     0.069 A 
ATOM     27  C   UNL d   1      -2.583  -4.431   0.377  0.00  0.00     0.104 A 
ATOM     28  O   UNL d   1      -3.920  -4.702   0.237  0.00  0.00    -0.346 OA
ATOM     29  C   UNL d   1      -1.676  -5.317   0.961  0.00  0.00     0.102 A 
ATOM     30  C   UNL d   1      -4.312  -5.759   1.119  0.00  0.00     0.202 C 
ATOM     31  C   UNL d   1      -3.349  -6.927   0.986  0.00  0.00     0.202 C 
ATOM     32  O   UNL d   1      -2.034  -6.557   1.422  0.00  0.00    -0.346 OA
ATOM     33  C   UNL d   1      -0.348  -4.937   1.117  0.00  0.00     0.042 A 
ATOM     34  C   UNL d   1       0.073  -3.667   0.708  0.00  0.00     0.033 A 
ENDBRANCH   1  25
TORSDOF 6
