REMARK  4 active torsions:
REMARK  status: ('A' for Active; 'I' for Inactive)
REMARK    1  A    between atoms: C_2  and  C_1 
REMARK    2  A    between atoms: O_6  and  C_1 
REMARK    3  A    between atoms: C_4  and  C_2 
REMARK    4  A    between atoms: C_5  and  C_2 
ROOT
ATOM      1  C   UNL d   1       0.300  -1.326   0.041  0.00  0.00     0.120 C 
ENDROOT
BRANCH   1   2
ATOM      2  C   UNL d   1       0.871   0.094   0.240  0.00  0.00     0.148 C 
ATOM      3  O   UNL d   1       1.993   0.344   0.649  0.00  0.00    -0.649 OA
BRANCH   2   4
ATOM      4  O   UNL d   1      -0.005   1.098  -0.015  0.00  0.00    -0.776 OA
ATOM      5  H   UNL d   1      -0.866   0.804  -0.372  0.00  0.00     0.167 HD
ENDBRANCH   2   4
ENDBRANCH   1   2
BRANCH   1   6
ATOM      6  C   UNL d   1      -0.655  -1.391  -1.151  0.00  0.00    -0.043 A 
ATOM      7  C   UNL d   1      -0.267  -0.936  -2.422  0.00  0.00     0.008 A 
ATOM      8  C   UNL d   1      -1.185  -0.905  -3.474  0.00  0.00     0.001 A 
ATOM      9  C   UNL d   1      -2.490  -1.350  -3.278  0.00  0.00     0.000 A 
ATOM     10  C   UNL d   1      -2.877  -1.839  -2.032  0.00  0.00     0.001 A 
ATOM     11  C   UNL d   1      -1.967  -1.860  -0.974  0.00  0.00     0.008 A 
ENDBRANCH   1   6
BRANCH   1  12
ATOM     12  C   UNL d   1       1.423  -2.388  -0.055  0.00  0.00     0.004 C 
ATOM     13  C   UNL d   1       0.924  -3.821  -0.294  0.00  0.00     0.006 C 
ATOM     14  C   UNL d   1       2.084  -4.724   0.123  0.00  0.00     0.000 C 
ATOM     15  C   UNL d   1       2.973  -3.880   1.030  0.00  0.00     0.000 C 
ATOM     16  C   UNL d   1       2.215  -2.577   1.247  0.00  0.00     0.006 C 
ENDBRANCH   1  12
TORSDOF 4
