REMARK  7 active torsions:
REMARK  status: ('A' for Active; 'I' for Inactive)
REMARK    1  A    between atoms: C_2  and  C_1 
REMARK    2  A    between atoms: O_3  and  C_2 
REMARK    3  A    between atoms: C_9  and  O_3 
REMARK    4  A    between atoms: C_4  and  C_9 
REMARK    5  A    between atoms: C_7  and  C_4 
REMARK    6  A    between atoms: O_18  and  C_5 
REMARK    7  A    between atoms: O_17  and  C_6 
ROOT
ATOM      1  C   UNL d   1       3.095  -0.017   0.396  0.00  0.00     0.299 C 
ATOM      2  O   UNL d   1       3.951  -0.816   0.068  0.00  0.00    -0.259 OA
ENDROOT
BRANCH   1   3
ATOM      3  C   UNL d   1       1.668  -0.081   0.033  0.00  0.00     0.106 A 
ATOM      4  C   UNL d   1       0.911  -1.212   0.370  0.00  0.00     0.087 A 
ATOM      5  C   UNL d   1      -0.478  -1.197   0.214  0.00  0.00     0.038 A 
ATOM      6  C   UNL d   1      -1.112  -0.070  -0.310  0.00  0.00     0.006 A 
ATOM      7  C   UNL d   1      -0.357   1.035  -0.702  0.00  0.00     0.038 A 
ATOM      8  C   UNL d   1       1.033   1.020  -0.562  0.00  0.00     0.087 A 
BRANCH   4   9
ATOM      9  O   UNL d   1       1.456  -2.318   0.963  0.00  0.00    -0.355 OA
ATOM     10  C   UNL d   1       2.107  -3.158   0.004  0.00  0.00     0.210 C 
ENDBRANCH   4   9
BRANCH   8  11
ATOM     11  O   UNL d   1       1.686   2.154  -0.975  0.00  0.00    -0.355 OA
ATOM     12  C   UNL d   1       2.587   1.888  -2.053  0.00  0.00     0.210 C 
ENDBRANCH   8  11
ENDBRANCH   1   3
BRANCH   1  13
ATOM     13  O   UNL d   1       3.264   1.088   1.160  0.00  0.00    -0.309 OA
BRANCH  13  14
ATOM     14  C   UNL d   1       4.583   1.363   1.597  0.00  0.00     0.263 C 
BRANCH  14  15
ATOM     15  C   UNL d   1       5.085   0.687   2.872  0.00  0.00     0.183 C 
ATOM     16  O   UNL d   1       6.299   0.585   3.076  0.00  0.00    -0.290 OA
BRANCH  15  17
ATOM     17  C   UNL d   1       4.140   0.204   3.927  0.00  0.00     0.012 A 
ATOM     18  C   UNL d   1       2.784   0.552   3.979  0.00  0.00     0.017 A 
ATOM     19  C   UNL d   1       1.958   0.036   4.986  0.00  0.00     0.025 A 
ATOM     20  C   UNL d   1       2.490  -0.799   5.966  0.00  0.00     0.034 A 
ATOM     21  C   UNL d   1       3.843  -1.122   5.951  0.00  0.00     0.025 A 
ATOM     22 CL   UNL d   1       1.472  -1.423   7.204  0.00  0.00    -0.084 Cl
ATOM     23  C   UNL d   1       4.663  -0.624   4.934  0.00  0.00     0.017 A 
ENDBRANCH  15  17
ENDBRANCH  14  15
ENDBRANCH  13  14
ENDBRANCH   1  13
TORSDOF 7
