REMARK  7 active torsions:
REMARK  status: ('A' for Active; 'I' for Inactive)
REMARK    1  A    between atoms: C_2  and  C_1 
REMARK       I    between atoms: N_11  and  C_2 
REMARK    2  A    between atoms: C_6  and  C_4 
REMARK    3  A    between atoms: C_15  and  C_7 
REMARK    4  A    between atoms: N_9  and  N_11 
REMARK    5  A    between atoms: C_14  and  C_13 
REMARK    6  A    between atoms: C_18  and  C_15 
REMARK    7  A    between atoms: C_19  and  C_18 
ROOT
ATOM      1  C   UNL d   1      -0.660  -2.522   0.028  0.00  0.00     0.293 C 
ATOM      2  N   UNL d   1       0.389  -3.442   0.042  0.00  0.00    -0.265 N 
ATOM      3  O   UNL d   1      -1.843  -2.862   0.029  0.00  0.00    -0.264 OA
ATOM      4  H   UNL d   1       1.351  -3.123   0.028  0.00  0.00     0.190 HD
ENDROOT
BRANCH   1   5
ATOM      5  C   UNL d   1      -0.285  -1.119   0.011  0.00  0.00     0.146 A 
ATOM      6  O   UNL d   1       1.028  -0.705   0.004  0.00  0.00    -0.296 OA
ATOM      7  C   UNL d   1       0.999   0.661  -0.011  0.00  0.00     0.129 A 
ATOM      8  C   UNL d   1      -0.292   1.131  -0.009  0.00  0.00     0.050 A 
ATOM      9  C   UNL d   1      -1.117  -0.012   0.001  0.00  0.00     0.046 A 
BRANCH   7  10
ATOM     10  C   UNL d   1       2.221   1.381  -0.024  0.00  0.00    -0.041 C 
ATOM     11  C   UNL d   1       3.191   2.093  -0.027  0.00  0.00    -0.099 C 
BRANCH  11  12
ATOM     12  C   UNL d   1       4.335   3.021   0.002  0.00  0.00     0.094 C 
BRANCH  12  13
ATOM     13  C   UNL d   1       4.327   4.027  -1.155  0.00  0.00     0.012 C 
BRANCH  13  14
ATOM     14  C   UNL d   1       3.126   4.978  -1.131  0.00  0.00    -0.004 C 
ATOM     15  C   UNL d   1       3.172   5.968  -2.287  0.00  0.00     0.005 C 
ENDBRANCH  13  14
ENDBRANCH  12  13
ENDBRANCH  11  12
ENDBRANCH   7  10
ENDBRANCH   1   5
BRANCH   2  16
ATOM     16  N   UNL d   1       0.078  -4.774   0.033  0.00  0.00    -0.308 N 
ATOM     17  C   UNL d   1       1.044  -5.634   0.033  0.00  0.00     0.118 C 
ATOM     18  HN  UNL d   1      -0.894  -5.082   0.025  1.00  0.00     0.186 HD
BRANCH  17  19
ATOM     19  C   UNL d   1       0.751  -7.089  -0.010  0.00  0.00    -0.019 A 
ATOM     20  C   UNL d   1      -0.574  -7.543  -0.035  0.00  0.00     0.013 A 
ATOM     21  C   UNL d   1      -0.850  -8.910  -0.122  0.00  0.00     0.001 A 
ATOM     22  C   UNL d   1       0.198  -9.827  -0.185  0.00  0.00     0.000 A 
ATOM     23  C   UNL d   1       1.522  -9.380  -0.149  0.00  0.00     0.001 A 
ATOM     24  C   UNL d   1       1.802  -8.011  -0.056  0.00  0.00     0.013 A 
ENDBRANCH  17  19
ENDBRANCH   2  16
TORSDOF 7
