REMARK  5 active torsions:
REMARK  status: ('A' for Active; 'I' for Inactive)
REMARK    1  A    between atoms: O_11  and  C_3 
REMARK    2  A    between atoms: S_10  and  C_4 
REMARK    3  A    between atoms: O_8  and  C_5 
REMARK    4  A    between atoms: C_12  and  O_8 
REMARK    5  A    between atoms: C_13  and  C_12 
ROOT
ATOM      1  N   UNL d   1       1.371  -0.532  -0.477  0.00  0.00    -0.315 N 
ATOM      2  HN  UNL d   1       2.268  -0.769  -0.900  1.00  0.00     0.170 HD
ATOM      3  C   UNL d   1       0.858   0.707  -0.531  0.00  0.00     0.177 A 
ATOM      4  C   UNL d   1       0.623  -1.437   0.173  0.00  0.00     0.145 A 
ATOM      5  C   UNL d   1      -0.348   1.103   0.002  0.00  0.00     0.135 A 
ATOM      6  N   UNL d   1      -0.543  -1.168   0.782  0.00  0.00    -0.344 N 
ATOM      7  HN  UNL d   1      -1.062  -1.886   1.288  1.00  0.00     0.167 HD
ATOM      8  C   UNL d   1      -0.995   0.102   0.690  0.00  0.00     0.131 A 
ENDROOT
BRANCH   5   9
ATOM      9  O   UNL d   1      -0.792   2.378  -0.179  0.00  0.00    -0.341 OA
BRANCH   9  10
ATOM     10  C   UNL d   1      -2.206   2.549  -0.041  0.00  0.00     0.214 C 
BRANCH  10  11
ATOM     11  C   UNL d   1      -2.692   3.793  -0.745  0.00  0.00    -0.034 A 
ATOM     12  C   UNL d   1      -3.966   3.792  -1.338  0.00  0.00     0.009 A 
ATOM     13  C   UNL d   1      -4.461   4.933  -1.967  0.00  0.00     0.001 A 
ATOM     14  C   UNL d   1      -3.695   6.094  -2.001  0.00  0.00     0.000 A 
ATOM     15  C   UNL d   1      -2.435   6.115  -1.403  0.00  0.00     0.001 A 
ATOM     16  C   UNL d   1      -1.937   4.973  -0.773  0.00  0.00     0.009 A 
ENDBRANCH  10  11
ENDBRANCH   9  10
ENDBRANCH   5   9
BRANCH   3  17
ATOM     17  O   UNL d   1       1.653   1.579  -1.208  0.00  0.00    -0.344 OA
ATOM     18  H   UNL d   1       2.397   1.000  -1.445  0.00  0.00     0.219 HD
ENDBRANCH   3  17
BRANCH   4  19
ATOM     19  S   UNL d   1       1.232  -3.106   0.191  0.00  0.00    -0.098 SA
ATOM     20  C   UNL d   1      -0.114  -3.928   1.082  0.00  0.00     0.099 C 
ENDBRANCH   4  19
TORSDOF 5
