REMARK  7 active torsions:
REMARK  status: ('A' for Active; 'I' for Inactive)
REMARK    1  A    between atoms: C_2  and  C_1 
REMARK    2  A    between atoms: O_11  and  C_2 
REMARK    3  A    between atoms: C_4  and  C_8 
REMARK    4  A    between atoms: N_5  and  O_11 
REMARK    5  A    between atoms: C_18  and  C_7 
REMARK    6  A    between atoms: C_13  and  C_9 
REMARK    7  A    between atoms: N_17  and  C_9 
ROOT
ATOM      1  C   UNL d   1       0.912  -1.069  -0.112  0.00  0.00     0.339 C 
ATOM      2  O   UNL d   1       1.394   0.061  -0.160  0.00  0.00    -0.255 OA
ENDROOT
BRANCH   1   3
ATOM      3  C   UNL d   1      -0.508  -1.338  -0.011  0.00  0.00     0.153 A 
ATOM      4  O   UNL d   1      -1.010  -2.621  -0.012  0.00  0.00    -0.295 OA
ATOM      5  C   UNL d   1      -2.367  -2.510   0.003  0.00  0.00     0.130 A 
ATOM      6  C   UNL d   1      -2.755  -1.193   0.033  0.00  0.00     0.050 A 
ATOM      7  C   UNL d   1      -1.560  -0.438   0.034  0.00  0.00     0.047 A 
BRANCH   5   8
ATOM      8  C   UNL d   1      -3.156  -3.690  -0.018  0.00  0.00    -0.036 C 
ATOM      9  C   UNL d   1      -3.910  -4.625  -0.018  0.00  0.00    -0.059 C 
BRANCH   9  10
ATOM     10  C   UNL d   1      -4.854  -5.704   0.021  0.00  0.00     0.018 A 
ATOM     11  C   UNL d   1      -6.225  -5.444  -0.048  0.00  0.00     0.020 A 
ATOM     12  C   UNL d   1      -7.144  -6.494   0.036  0.00  0.00     0.001 A 
ATOM     13  C   UNL d   1      -6.692  -7.805   0.185  0.00  0.00     0.000 A 
ATOM     14  C   UNL d   1      -5.324  -8.068   0.242  0.00  0.00     0.001 A 
ATOM     15  C   UNL d   1      -4.405  -7.019   0.159  0.00  0.00     0.020 A 
ENDBRANCH   9  10
ENDBRANCH   5   8
ENDBRANCH   1   3
BRANCH   1  16
ATOM     16  O   UNL d   1       1.636  -2.235  -0.175  0.00  0.00    -0.192 OA
BRANCH  16  17
ATOM     17  N   UNL d   1       2.682  -2.063  -1.113  0.00  0.00    -0.246 N 
ATOM     18  C   UNL d   1       3.564  -3.013  -1.046  0.00  0.00     0.109 C 
ATOM     19  HN  UNL d   1       2.737  -1.282  -1.766  1.00  0.00     0.196 HD
BRANCH  18  20
ATOM     20  C   UNL d   1       4.556  -3.099  -2.165  0.00  0.00     0.004 A 
ATOM     21  C   UNL d   1       4.908  -1.956  -2.890  0.00  0.00     0.015 A 
ATOM     22  C   UNL d   1       5.683  -2.074  -4.048  0.00  0.00     0.007 A 
ATOM     23  C   UNL d   1       6.102  -3.333  -4.497  0.00  0.00    -0.062 A 
ATOM     24  C   UNL d   1       5.782  -4.468  -3.743  0.00  0.00     0.007 A 
ATOM     25  C   UNL d   1       6.827  -3.459  -5.805  0.00  0.00     0.048 C 
ATOM     26  C   UNL d   1       5.015  -4.354  -2.581  0.00  0.00     0.015 A 
ENDBRANCH  18  20
BRANCH  18  27
ATOM     27  N   UNL d   1       3.615  -3.951  -0.040  0.00  0.00    -0.286 NA
ATOM     28  H   UNL d   1       3.096  -3.662   0.783  0.00  0.00     0.125 HD
ATOM     29  H   UNL d   1       4.544  -4.285   0.192  0.00  0.00     0.125 HD
ENDBRANCH  18  27
ENDBRANCH  16  17
ENDBRANCH   1  16
TORSDOF 7
