REMARK  7 active torsions:
REMARK  status: ('A' for Active; 'I' for Inactive)
REMARK    1  A    between atoms: C_9  and  N_1 
REMARK    2  A    between atoms: C_15  and  N_2 
REMARK    3  A    between atoms: C_18  and  N_5 
REMARK    4  A    between atoms: N_7  and  C_21 
REMARK    5  A    between atoms: C_10  and  C_15 
REMARK    6  A    between atoms: C_11  and  C_10 
REMARK    7  A    between atoms: O_25  and  C_11 
ROOT
ATOM      1  N   UNL d   1      -2.772  -8.625  -7.486  0.00  0.00    -0.380 N 
ATOM      2  C   UNL d   1      -2.401  -7.665  -6.552  0.00  0.00     0.036 A 
ATOM      3  C   UNL d   1      -2.094  -8.033  -5.227  0.00  0.00    -0.029 A 
ATOM      4  C   UNL d   1      -2.293  -6.305  -6.883  0.00  0.00     0.032 A 
ATOM      5  C   UNL d   1      -1.672  -7.066  -4.294  0.00  0.00     0.040 A 
ATOM      6  C   UNL d   1      -1.537  -5.722  -4.649  0.00  0.00     0.048 A 
ATOM      7  C   UNL d   1      -1.862  -5.350  -5.953  0.00  0.00     0.033 A 
ATOM      8  C   UNL d   1      -3.210  -9.931  -6.995  0.00  0.00     0.123 C 
ATOM      9  C   UNL d   1      -2.205  -9.467  -4.770  0.00  0.00     0.042 C 
ATOM     10  C   UNL d   1      -2.248 -10.443  -5.938  0.00  0.00     0.024 C 
ENDROOT
BRANCH   6  11
ATOM     11  N   UNL d   1      -0.979  -4.838  -3.707  0.00  0.00    -0.300 N 
ATOM     12  N   UNL d   1      -1.511  -3.708  -3.715  0.00  0.00    -0.300 N 
ATOM     13  HN  UNL d   1      -2.314  -3.452  -4.290  1.00  0.00     0.187 HD
ATOM     14  HN  UNL d   1      -0.216  -5.094  -3.080  1.00  0.00     0.187 HD
BRANCH  12  15
ATOM     15  C   UNL d   1      -0.856  -2.831  -2.823  0.00  0.00     0.048 A 
ATOM     16  C   UNL d   1      -0.733  -1.480  -3.182  0.00  0.00     0.033 A 
ATOM     17  C   UNL d   1      -0.077  -0.567  -2.347  0.00  0.00     0.038 A 
ATOM     18  C   UNL d   1       0.456  -1.006  -1.130  0.00  0.00     0.103 A 
ATOM     19  C   UNL d   1       0.326  -2.344  -0.744  0.00  0.00     0.038 A 
ATOM     20  C   UNL d   1      -0.335  -3.244  -1.585  0.00  0.00     0.033 A 
BRANCH  18  21
ATOM     21  N   UNL d   1       1.161  -0.060  -0.255  0.00  0.00    -0.116 N 
ATOM     22  O   UNL d   1       1.624  -0.494   0.810  0.00  0.00    -0.532 OA
ATOM     23  O   UNL d   1       1.251   1.116  -0.633  0.00  0.00    -0.532 OA
ENDBRANCH  18  21
ENDBRANCH  12  15
ENDBRANCH   6  11
BRANCH   1  24
ATOM     24  C   UNL d   1      -2.551  -8.449  -8.928  0.00  0.00     0.133 C 
BRANCH  24  25
ATOM     25  C   UNL d   1      -1.061  -8.404  -9.262  0.00  0.00     0.131 C 
BRANCH  25  26
ATOM     26  C   UNL d   1      -0.854  -8.211 -10.740  0.00  0.00     0.259 C 
ATOM     27  O   UNL d   1      -1.740  -8.179 -11.582  0.00  0.00    -0.265 OA
BRANCH  26  28
ATOM     28  O   UNL d   1       0.478  -8.076 -11.001  0.00  0.00    -0.326 OA
ATOM     29  C   UNL d   1       0.786  -7.867 -12.380  0.00  0.00     0.213 C 
ENDBRANCH  26  28
ENDBRANCH  25  26
ENDBRANCH  24  25
ENDBRANCH   1  24
TORSDOF 7
