REMARK  8 active torsions:
REMARK  status: ('A' for Active; 'I' for Inactive)
REMARK    1  A    between atoms: C_2  and  N_1 
REMARK       I    between atoms: C_4  and  N_1 
REMARK    2  A    between atoms: O_5  and  C_3 
REMARK    3  A    between atoms: C_12  and  C_4 
REMARK    4  A    between atoms: C_10  and  O_5 
REMARK    5  A    between atoms: C_6  and  C_13 
REMARK    6  A    between atoms: O_11  and  C_6 
REMARK    7  A    between atoms: S_9  and  C_12 
REMARK    8  A    between atoms: C_13  and  S_9 
ROOT
ATOM      1  C   UNL d   1       0.434   0.076  -1.250  0.00  0.00     0.069 A 
ATOM      2  C   UNL d   1       0.761  -0.969  -2.136  0.00  0.00     0.102 A 
ATOM      3  C   UNL d   1      -0.751   0.797  -1.456  0.00  0.00     0.032 A 
ATOM      4  C   UNL d   1      -0.033  -1.182  -3.274  0.00  0.00     0.039 A 
ATOM      5  C   UNL d   1      -1.548   0.556  -2.577  0.00  0.00     0.002 A 
ATOM      6  C   UNL d   1      -1.175  -0.414  -3.500  0.00  0.00     0.003 A 
ENDROOT
BRANCH   1   7
ATOM      7  N   UNL d   1       1.307   0.503  -0.219  0.00  0.00    -0.324 N 
ATOM      8  C   UNL d   1       0.882   0.688   1.086  0.00  0.00     0.231 C 
ATOM      9  O   UNL d   1      -0.243   0.414   1.516  0.00  0.00    -0.272 OA
ATOM     10  H   UNL d   1       2.292   0.313  -0.361  0.00  0.00     0.169 HD
BRANCH   8  11
ATOM     11  C   UNL d   1       1.919   1.289   2.021  0.00  0.00     0.177 C 
BRANCH  11  12
ATOM     12  S   UNL d   1       1.588   3.071   2.256  0.00  0.00    -0.149 SA
BRANCH  12  13
ATOM     13  C   UNL d   1      -0.128   3.046   2.886  0.00  0.00     0.184 C 
BRANCH  13  14
ATOM     14  C   UNL d   1      -0.250   2.309   4.207  0.00  0.00     0.149 C 
ATOM     15  O   UNL d   1      -0.023   2.812   5.292  0.00  0.00    -0.649 OA
BRANCH  14  16
ATOM     16  O   UNL d   1      -0.617   1.011   4.070  0.00  0.00    -0.776 OA
ATOM     17  H   UNL d   1      -0.744   0.712   3.139  0.00  0.00     0.167 HD
ENDBRANCH  14  16
ENDBRANCH  13  14
ENDBRANCH  12  13
ENDBRANCH  11  12
ENDBRANCH   8  11
ENDBRANCH   1   7
BRANCH   2  18
ATOM     18  O   UNL d   1       1.815  -1.854  -2.035  0.00  0.00    -0.309 OA
BRANCH  18  19
ATOM     19  C   UNL d   1       2.254  -2.301  -0.811  0.00  0.00     0.076 C 
ATOM     20  C   UNL d   1       1.474  -2.406   0.342  0.00  0.00     0.037 C 
ATOM     21  C   UNL d   1       2.090  -2.628   1.576  0.00  0.00     0.003 C 
ATOM     22  C   UNL d   1       3.467  -2.837   1.641  0.00  0.00     0.000 C 
ATOM     23  C   UNL d   1       4.216  -2.894   0.468  0.00  0.00     0.003 C 
ATOM     24  C   UNL d   1       3.606  -2.638  -0.759  0.00  0.00     0.037 C 
ENDBRANCH  18  19
ENDBRANCH   2  18
TORSDOF 8
