REMARK  4 active torsions:
REMARK  status: ('A' for Active; 'I' for Inactive)
REMARK    1  A    between atoms: N_2  and  S_1 
REMARK    2  A    between atoms: C_6  and  S_1 
REMARK       I    between atoms: C_3  and  N_2 
REMARK       I    between atoms: N_4  and  C_3 
REMARK    3  A    between atoms: C_5  and  N_4 
REMARK    4  A    between atoms: C_21  and  C_19 
ROOT
ATOM      1  N   UNL d   1       0.221   0.279  -1.521  0.00  0.00    -0.232 N 
ATOM      2  C   UNL d   1       0.593   1.300  -2.378  0.00  0.00     0.335 C 
ATOM      3  N   UNL d   1       1.476   2.248  -1.950  0.00  0.00    -0.294 N 
ATOM      4  O   UNL d   1       0.171   1.386  -3.525  0.00  0.00    -0.246 OA
ATOM      5  H   UNL d   1       0.627   0.249  -0.587  0.00  0.00     0.183 HD
ATOM      6  H   UNL d   1       1.617   2.961  -2.651  0.00  0.00     0.172 HD
ENDROOT
BRANCH   1   7
ATOM      7  S   UNL d   1      -1.034  -0.775  -1.804  0.00  0.00     0.266 S 
ATOM      8  O   UNL d   1      -2.189  -0.010  -2.240  0.00  0.00    -0.200 OA
ATOM      9  O   UNL d   1      -1.113  -1.639  -0.641  0.00  0.00    -0.200 OA
BRANCH   7  10
ATOM     10  C   UNL d   1      -0.520  -1.811  -3.159  0.00  0.00     0.080 A 
ATOM     11  C   UNL d   1       0.831  -2.026  -3.431  0.00  0.00     0.026 A 
ATOM     12  C   UNL d   1       1.200  -2.771  -4.556  0.00  0.00     0.008 A 
ATOM     13  C   UNL d   1       0.227  -3.310  -5.410  0.00  0.00    -0.062 A 
ATOM     14  C   UNL d   1      -1.126  -3.136  -5.098  0.00  0.00     0.008 A 
ATOM     15  C   UNL d   1       0.643  -4.043  -6.654  0.00  0.00     0.048 C 
ATOM     16  C   UNL d   1      -1.502  -2.382  -3.981  0.00  0.00     0.026 A 
ENDBRANCH   7  10
ENDBRANCH   1   7
BRANCH   3  17
ATOM     17  C   UNL d   1       2.244   2.321  -0.789  0.00  0.00     0.109 A 
ATOM     18  N   UNL d   1       2.188   1.334   0.125  0.00  0.00    -0.352 N 
ATOM     19  C   UNL d   1       3.060   1.424   1.163  0.00  0.00     0.090 A 
ATOM     20  HN  UNL d   1       1.526   0.562   0.044  1.00  0.00     0.166 HD
ATOM     21  C   UNL d   1       3.981   2.446   1.323  0.00  0.00     0.024 A 
ATOM     22  C   UNL d   1       4.019   3.484   0.387  0.00  0.00    -0.054 A 
ATOM     23  C   UNL d   1       3.116   3.411  -0.680  0.00  0.00     0.055 A 
BRANCH  22  24
ATOM     24  C   UNL d   1       5.091   4.544   0.504  0.00  0.00     0.034 C 
ATOM     25  C   UNL d   1       4.791   5.910  -0.102  0.00  0.00     0.010 C 
ENDBRANCH  22  24
ENDBRANCH   3  17
TORSDOF 4
