REMARK  2 active torsions:
REMARK  status: ('A' for Active; 'I' for Inactive)
REMARK    1  A    between atoms: C_4  and  C_2 
REMARK    2  A    between atoms: O_17  and  C_7 
ROOT
ATOM      1  N   UNL d   1       0.938   0.524  -0.002  0.00  0.00    -0.322 N 
ATOM      2  C   UNL d   1       1.070  -1.922  -0.253  0.00  0.00     0.146 C 
ATOM      3  C   UNL d   1       1.740  -0.597  -0.090  0.00  0.00     0.039 A 
ATOM      4  N   UNL d   1      -0.249  -1.971   0.388  0.00  0.00    -0.277 NA
ATOM      5  C   UNL d   1      -0.474   0.449   0.009  0.00  0.00     0.060 A 
ATOM      6  C   UNL d   1      -1.044  -0.833   0.140  0.00  0.00     0.036 A 
ATOM      7  C   UNL d   1       1.747   1.634   0.061  0.00  0.00     0.097 A 
ATOM      8  C   UNL d   1       3.060  -0.193  -0.046  0.00  0.00     0.029 A 
ATOM      9  C   UNL d   1       3.063   1.218   0.059  0.00  0.00     0.020 A 
ATOM     10  C   UNL d   1      -1.277   1.589  -0.102  0.00  0.00     0.032 A 
ATOM     11  C   UNL d   1      -2.438  -0.940   0.199  0.00  0.00     0.026 A 
ATOM     12  C   UNL d   1      -2.665   1.453  -0.084  0.00  0.00     0.002 A 
ATOM     13  C   UNL d   1      -3.244   0.193   0.065  0.00  0.00     0.002 A 
ATOM     14  H   UNL d   1      -0.744  -2.833   0.173  0.00  0.00     0.129 HD
ENDROOT
BRANCH   2  15
ATOM     15  C   UNL d   1       1.874  -3.098   0.282  0.00  0.00     0.002 A 
ATOM     16  C   UNL d   1       2.177  -3.263   1.647  0.00  0.00     0.095 A 
ATOM     17  C   UNL d   1       2.912  -4.374   2.086  0.00  0.00     0.069 A 
ATOM     18 CL   UNL d   1       3.299  -4.596   3.755  0.00  0.00    -0.081 Cl
ATOM     19  C   UNL d   1       3.331  -5.346   1.179  0.00  0.00     0.050 A 
ATOM     20  C   UNL d   1       3.023  -5.200  -0.169  0.00  0.00     0.036 A 
ATOM     21  C   UNL d   1       2.309  -4.089  -0.619  0.00  0.00     0.036 A 
ATOM     22 CL   UNL d   1       3.515  -6.406  -1.293  0.00  0.00    -0.084 Cl
BRANCH  16  23
ATOM     23  O   UNL d   1       1.743  -2.356   2.579  0.00  0.00    -0.358 OA
ATOM     24  H   UNL d   1       1.052  -1.792   2.177  0.00  0.00     0.217 HD
ENDBRANCH  16  23
ENDBRANCH   2  15
TORSDOF 2
