REMARK  4 active torsions:
REMARK  status: ('A' for Active; 'I' for Inactive)
REMARK    1  A    between atoms: O_3  and  C_1 
REMARK    2  A    between atoms: C_5  and  O_3 
REMARK       I    between atoms: C_4  and  N_6 
REMARK    3  A    between atoms: C_7  and  C_4 
REMARK    4  A    between atoms: N_6  and  C_11 
ROOT
ATOM      1  C   UNL d   1       2.196   3.251   0.541  0.00  0.00     0.176 A 
ATOM      2  C   UNL d   1       2.817   3.132  -0.710  0.00  0.00     0.087 A 
ATOM      3  N   UNL d   1       2.579   4.152   1.486  0.00  0.00    -0.345 N 
ATOM      4  HN  UNL d   1       2.058   4.264   2.356  1.00  0.00     0.167 HD
ATOM      5  C   UNL d   1       3.970   3.896  -0.922  0.00  0.00     0.035 A 
ATOM      6  C   UNL d   1       3.675   4.890   1.224  0.00  0.00     0.090 A 
ATOM      7  C   UNL d   1       4.405   4.789   0.054  0.00  0.00     0.019 A 
ENDROOT
BRANCH   1   8
ATOM      8  O   UNL d   1       1.147   2.412   0.852  0.00  0.00    -0.274 OA
BRANCH   8   9
ATOM      9  C   UNL d   1       1.123   1.849   2.121  0.00  0.00     0.163 A 
ATOM     10  C   UNL d   1      -0.133   1.530   2.647  0.00  0.00     0.042 A 
ATOM     11  C   UNL d   1      -0.102   0.914   3.904  0.00  0.00     0.049 A 
ATOM     12  C   UNL d   1      -1.373   1.771   2.004  0.00  0.00     0.020 A 
ATOM     13  C   UNL d   1      -1.305   0.557   4.499  0.00  0.00     0.054 A 
ATOM     14  N   UNL d   1       1.042   0.648   4.547  0.00  0.00    -0.351 N 
ATOM     15  C   UNL d   1      -2.526   0.790   3.865  0.00  0.00     0.036 A 
ATOM     16  C   UNL d   1      -2.566   1.397   2.615  0.00  0.00     0.025 A 
ATOM     17 CL   UNL d   1      -3.991   0.312   4.631  0.00  0.00    -0.084 Cl
ATOM     18  C   UNL d   1       2.182   0.974   3.922  0.00  0.00     0.182 A 
ATOM     19  HN  UNL d   1       1.045   0.216   5.471  1.00  0.00     0.166 HD
ATOM     20  N   UNL d   1       2.293   1.535   2.716  0.00  0.00    -0.332 N 
ATOM     21  HN  UNL d   1       3.196   1.712   2.276  1.00  0.00     0.168 HD
ENDBRANCH   8   9
ENDBRANCH   1   8
BRANCH   2  22
ATOM     22  N   UNL d   1       2.419   2.288  -1.772  0.00  0.00    -0.319 N 
ATOM     23  C   UNL d   1       1.138   1.835  -2.045  0.00  0.00     0.263 C 
ATOM     24  O   UNL d   1       0.129   2.244  -1.479  0.00  0.00    -0.267 OA
ATOM     25  H   UNL d   1       3.102   2.105  -2.496  0.00  0.00     0.169 HD
BRANCH  23  26
ATOM     26  C   UNL d   1       1.052   0.859  -3.131  0.00  0.00     0.072 A 
ATOM     27  S   UNL d   1       2.432   0.278  -3.970  0.00  0.00    -0.097 SA
ATOM     28  C   UNL d   1       1.494  -0.792  -4.918  0.00  0.00     0.050 A 
ATOM     29  C   UNL d   1       0.152  -0.695  -4.630  0.00  0.00     0.009 A 
ATOM     30  C   UNL d   1      -0.103   0.267  -3.611  0.00  0.00     0.025 A 
ENDBRANCH  23  26
ENDBRANCH   2  22
TORSDOF 4
