REMARK  6 active torsions:
REMARK  status: ('A' for Active; 'I' for Inactive)
REMARK    1  A    between atoms: C_2  and  S_1 
REMARK    2  A    between atoms: N_3  and  S_1 
REMARK    3  A    between atoms: C_10  and  N_3 
REMARK    4  A    between atoms: O_17  and  C_5 
REMARK    5  A    between atoms: C_6  and  C_10 
REMARK    6  A    between atoms: O_18  and  C_11 
ROOT
ATOM      1  S   UNL d   1       0.924   0.182  -0.119  0.00  0.00     0.241 S 
ATOM      2  O   UNL d   1       1.955  -0.313   0.764  0.00  0.00    -0.206 OA
ATOM      3  O   UNL d   1      -0.312   0.738   0.387  0.00  0.00    -0.206 OA
ENDROOT
BRANCH   1   4
ATOM      4  C   UNL d   1       0.489  -1.109  -1.257  0.00  0.00     0.077 A 
ATOM      5  C   UNL d   1       1.058  -2.381  -1.110  0.00  0.00     0.064 A 
ATOM      6  C   UNL d   1       0.669  -3.435  -1.948  0.00  0.00     0.102 A 
ATOM      7  C   UNL d   1      -0.277  -3.186  -2.961  0.00  0.00     0.101 A 
ATOM      8  C   UNL d   1      -0.847  -1.908  -3.086  0.00  0.00     0.041 A 
ATOM      9  C   UNL d   1      -0.469  -0.867  -2.239  0.00  0.00     0.028 A 
BRANCH   6  10
ATOM     10  O   UNL d   1       1.136  -4.715  -1.806  0.00  0.00    -0.353 OA
ATOM     11  C   UNL d   1       2.016  -4.992  -0.723  0.00  0.00     0.210 C 
ENDBRANCH   6  10
BRANCH   7  12
ATOM     12  O   UNL d   1      -0.794  -4.094  -3.851  0.00  0.00    -0.353 OA
ATOM     13  C   UNL d   1       0.074  -5.133  -4.286  0.00  0.00     0.210 C 
ENDBRANCH   7  12
ENDBRANCH   1   4
BRANCH   1  14
ATOM     14  N   UNL d   1       1.607   1.347  -1.116  0.00  0.00    -0.209 NA
ATOM     15  H   UNL d   1       1.244   2.280  -0.917  0.00  0.00     0.140 HD
BRANCH  14  16
ATOM     16  C   UNL d   1       3.053   1.258  -1.311  0.00  0.00     0.169 C 
BRANCH  16  17
ATOM     17  C   UNL d   1       3.490   2.320  -2.255  0.00  0.00     0.066 A 
ATOM     18  O   UNL d   1       3.387   3.613  -1.824  0.00  0.00    -0.326 OA
ATOM     19  C   UNL d   1       3.913   4.399  -2.800  0.00  0.00     0.142 A 
ATOM     20  C   UNL d   1       4.344   3.632  -3.857  0.00  0.00     0.027 A 
ATOM     21  C   UNL d   1       4.060   2.289  -3.512  0.00  0.00     0.036 A 
ENDBRANCH  16  17
ENDBRANCH  14  16
ENDBRANCH   1  14
TORSDOF 6
