REMARK  1 active torsions:
REMARK  status: ('A' for Active; 'I' for Inactive)
REMARK    1  A    between atoms: C_8  and  C_7 
ROOT
ATOM      1  C   UNL d   1       0.644  -0.863   0.009  0.00  0.00     0.111 A 
ATOM      2  N   UNL d   1      -0.679  -1.216  -0.011  0.00  0.00    -0.335 N 
ATOM      3  HN  UNL d   1      -1.091  -2.149  -0.031  1.00  0.00     0.168 HD
ATOM      4  C   UNL d   1       0.785   0.617   0.026  0.00  0.00     0.316 A 
ATOM      5  O   UNL d   1      -0.507   1.044   0.024  0.00  0.00    -0.261 OA
ATOM      6  C   UNL d   1      -1.273  -0.068   0.003  0.00  0.00     0.124 A 
ATOM      7  C   UNL d   1       1.704  -1.680   0.022  0.00  0.00     0.047 C 
ATOM      8  O   UNL d   1       1.792   1.296   0.041  0.00  0.00    -0.257 OA
ATOM      9  C   UNL d   1      -2.739   0.155   0.004  0.00  0.00     0.098 C 
ENDROOT
BRANCH   7  10
ATOM     10  C   UNL d   1       1.576  -3.137   0.009  0.00  0.00    -0.028 A 
ATOM     11  C   UNL d   1       1.542  -3.832  -1.204  0.00  0.00     0.053 A 
ATOM     12  C   UNL d   1       1.387  -5.216  -1.203  0.00  0.00     0.120 A 
ATOM     13  F   UNL d   1       1.351  -5.874  -2.370  0.00  0.00    -0.206 F 
ATOM     14  C   UNL d   1       1.264  -5.926  -0.017  0.00  0.00     0.084 A 
ATOM     15  C   UNL d   1       1.303  -5.229   1.183  0.00  0.00     0.120 A 
ATOM     16  C   UNL d   1       1.459  -3.845   1.210  0.00  0.00     0.053 A 
ATOM     17  F   UNL d   1       1.186  -5.899   2.337  0.00  0.00    -0.206 F 
ENDBRANCH   7  10
TORSDOF 1
