REMARK  4 active torsions:
REMARK  status: ('A' for Active; 'I' for Inactive)
REMARK    1  A    between atoms: C_9  and  N_1 
REMARK    2  A    between atoms: N_7  and  C_2 
REMARK    3  A    between atoms: C_10  and  N_6 
REMARK    4  A    between atoms: C_11  and  N_7 
ROOT
ATOM      1  N   UNL d   1      -0.609   1.002  -0.197  0.00  0.00    -0.140 N 
ATOM      2  C   UNL d   1       0.794   0.869   0.105  0.00  0.00     0.705 A 
ATOM      3  N   UNL d   1       1.111  -0.449   0.155  0.00  0.00    -0.123 N 
ATOM      4  HN  UNL d   1       2.020  -0.884   0.319  1.00  0.00     0.206 HD
ATOM      5  C   UNL d   1      -1.115  -0.201  -0.280  0.00  0.00     0.233 A 
ATOM      6  N   UNL d   1      -0.165  -1.080  -0.084  0.00  0.00    -0.237 N 
ENDROOT
BRANCH   2   7
ATOM      7  N   UNL d   1       1.729   1.718   0.376  0.00  0.00    -0.190 N 
ATOM      8  HN  UNL d   1       2.662   1.341   0.546  1.00  0.00     0.184 HD
BRANCH   7   9
ATOM      9  C   UNL d   1       1.579   3.100   0.456  0.00  0.00     0.049 A 
ATOM     10  C   UNL d   1       0.712   3.715   1.362  0.00  0.00     0.030 A 
ATOM     11  C   UNL d   1       0.559   5.105   1.366  0.00  0.00     0.002 A 
ATOM     12  C   UNL d   1       1.332   5.896   0.517  0.00  0.00     0.000 A 
ATOM     13  C   UNL d   1       2.273   5.298  -0.319  0.00  0.00     0.002 A 
ATOM     14  C   UNL d   1       2.394   3.907  -0.346  0.00  0.00     0.030 A 
ENDBRANCH   7   9
ENDBRANCH   2   7
BRANCH   1  15
ATOM     15  C   UNL d   1      -1.386   2.105  -0.325  0.00  0.00     0.058 A 
ATOM     16  C   UNL d   1      -1.053   3.151  -1.189  0.00  0.00     0.030 A 
ATOM     17  C   UNL d   1      -1.827   4.317  -1.236  0.00  0.00     0.002 A 
ATOM     18  C   UNL d   1      -2.970   4.431  -0.449  0.00  0.00     0.000 A 
ATOM     19  C   UNL d   1      -3.358   3.372   0.366  0.00  0.00     0.002 A 
ATOM     20  C   UNL d   1      -2.575   2.216   0.418  0.00  0.00     0.030 A 
ENDBRANCH   1  15
BRANCH   6  21
ATOM     21  C   UNL d   1      -0.370  -2.439  -0.069  0.00  0.00     0.058 A 
ATOM     22  C   UNL d   1      -1.502  -3.036  -0.647  0.00  0.00     0.031 A 
ATOM     23  C   UNL d   1      -1.706  -4.421  -0.597  0.00  0.00     0.002 A 
ATOM     24  C   UNL d   1      -0.780  -5.240   0.039  0.00  0.00     0.000 A 
ATOM     25  C   UNL d   1       0.356  -4.677   0.611  0.00  0.00     0.002 A 
ATOM     26  C   UNL d   1       0.559  -3.293   0.546  0.00  0.00     0.031 A 
ENDBRANCH   6  21
TORSDOF 4
