REMARK  4 active torsions:
REMARK  status: ('A' for Active; 'I' for Inactive)
REMARK    1  A    between atoms: C_2  and  S_1 
REMARK    2  A    between atoms: N_4  and  S_1 
REMARK    3  A    between atoms: C_9  and  N_4 
REMARK    4  A    between atoms: N_12  and  C_13 
ROOT
ATOM      1  S   UNL d   1      -0.440   0.260  -0.321  0.00  0.00     0.265 S 
ATOM      2  O   UNL d   1      -0.303   0.320   1.119  0.00  0.00    -0.200 OA
ATOM      3  O   UNL d   1       0.174   1.262  -1.168  0.00  0.00    -0.200 OA
ENDROOT
BRANCH   1   4
ATOM      4  C   UNL d   1      -2.165   0.292  -0.650  0.00  0.00     0.110 A 
ATOM      5  C   UNL d   1      -3.054  -0.692  -0.182  0.00  0.00     0.108 A 
ATOM      6  C   UNL d   1      -4.495  -0.578  -0.406  0.00  0.00     0.086 A 
ATOM      7  N   UNL d   1      -2.839  -1.828   0.495  0.00  0.00    -0.238 N 
ATOM      8  N   UNL d   1      -5.095  -1.639   0.143  0.00  0.00    -0.239 N 
ATOM      9  C   UNL d   1      -5.078   0.506  -1.089  0.00  0.00     0.034 A 
ATOM     10  O   UNL d   1      -4.082  -2.400   0.697  0.00  0.00    -0.156 OA
ATOM     11  HN  UNL d   1      -6.094  -1.845   0.152  1.00  0.00     0.197 HD
ATOM     12  C   UNL d   1      -4.164   1.471  -1.553  0.00  0.00     0.004 A 
ATOM     13  C   UNL d   1      -2.762   1.367  -1.343  0.00  0.00     0.028 A 
ATOM     14  HN  UNL d   1      -1.939  -2.197   0.801  1.00  0.00     0.197 HD
ENDBRANCH   1   4
BRANCH   1  15
ATOM     15  N   UNL d   1       0.025  -1.281  -0.782  0.00  0.00    -0.278 N 
ATOM     16  H   UNL d   1       0.384  -1.821  -0.002  0.00  0.00     0.179 HD
BRANCH  15  17
ATOM     17  C   UNL d   1       0.617  -1.518  -2.058  0.00  0.00     0.069 A 
ATOM     18  C   UNL d   1       1.994  -1.295  -2.329  0.00  0.00     0.058 A 
ATOM     19  C   UNL d   1       2.439  -1.635  -3.622  0.00  0.00     0.031 A 
ATOM     20  C   UNL d   1       1.576  -2.149  -4.596  0.00  0.00     0.002 A 
ATOM     21  C   UNL d   1       0.230  -2.332  -4.309  0.00  0.00     0.002 A 
ATOM     22  C   UNL d   1      -0.247  -2.020  -3.040  0.00  0.00     0.032 A 
BRANCH  18  23
ATOM     23  N   UNL d   1       2.862  -0.707  -1.399  0.00  0.00    -0.375 N 
ATOM     24  C   UNL d   1       4.055   0.014  -1.904  0.00  0.00     0.149 C 
ATOM     25  C   UNL d   1       4.537   0.986  -0.818  0.00  0.00     0.187 C 
ATOM     26  O   UNL d   1       4.878   0.277   0.386  0.00  0.00    -0.388 OA
ATOM     27  C   UNL d   1       3.734  -0.444   0.881  0.00  0.00     0.187 C 
ATOM     28  C   UNL d   1       3.187  -1.442  -0.161  0.00  0.00     0.149 C 
ENDBRANCH  18  23
ENDBRANCH  15  17
ENDBRANCH   1  15
TORSDOF 4
