REMARK  2 active torsions:
REMARK  status: ('A' for Active; 'I' for Inactive)
REMARK    1  A    between atoms: C_11  and  C_4 
REMARK    2  A    between atoms: O_19  and  C_8 
ROOT
ATOM      1  C   UNL d   1      -1.224   1.000   0.006  0.00  0.00     0.056 A 
ATOM      2  C   UNL d   1      -0.803  -0.334  -0.003  0.00  0.00     0.060 A 
ATOM      3  C   UNL d   1       0.027   1.809  -0.058  0.00  0.00     0.196 A 
ATOM      4  C   UNL d   1      -2.583   1.313   0.043  0.00  0.00     0.022 A 
ATOM      5  N   UNL d   1      -1.614  -1.396  -0.006  0.00  0.00    -0.334 N 
ATOM      6  HN  UNL d   1      -1.263  -2.354  -0.015  1.00  0.00     0.168 HD
ATOM      7  C   UNL d   1      -3.464   0.203   0.034  0.00  0.00     0.108 A 
ATOM      8  C   UNL d   1      -2.936  -1.105   0.004  0.00  0.00     0.164 A 
ATOM      9  C   UNL d   1       1.164   0.868  -0.019  0.00  0.00     0.027 A 
ATOM     10  C   UNL d   1       0.636  -0.425  -0.009  0.00  0.00     0.006 A 
ATOM     11  C   UNL d   1      -4.893   0.358   0.062  0.00  0.00     0.104 C 
ATOM     12  N   UNL d   1      -6.044   0.496   0.065  0.00  0.00    -0.191 NA
ATOM     13  O   UNL d   1       0.152   3.008  -0.175  0.00  0.00    -0.286 OA
ATOM     14  C   UNL d   1       2.519   1.133  -0.009  0.00  0.00     0.016 A 
ATOM     15  C   UNL d   1       1.488  -1.516  -0.003  0.00  0.00     0.014 A 
ATOM     16  C   UNL d   1       3.380   0.035   0.003  0.00  0.00     0.001 A 
ATOM     17  C   UNL d   1       2.869  -1.278   0.001  0.00  0.00     0.001 A 
ENDROOT
BRANCH   4  18
ATOM     18  C   UNL d   1      -3.077   2.705   0.076  0.00  0.00     0.017 C 
ATOM     19  S   UNL d   1      -2.448   3.823   1.227  0.00  0.00    -0.101 SA
ATOM     20  C   UNL d   1      -3.329   5.125   0.562  0.00  0.00     0.050 C 
ATOM     21  C   UNL d   1      -4.224   4.698  -0.390  0.00  0.00     0.008 C 
ATOM     22  C   UNL d   1      -4.080   3.306  -0.669  0.00  0.00     0.020 C 
ENDBRANCH   4  18
BRANCH   8  23
ATOM     23  O   UNL d   1      -3.833  -2.157  -0.033  0.00  0.00    -0.340 OA
ATOM     24  C   UNL d   1      -3.215  -3.442  -0.016  0.00  0.00     0.211 C 
ENDBRANCH   8  23
TORSDOF 2
