REMARK  8 active torsions:
REMARK  status: ('A' for Active; 'I' for Inactive)
REMARK    1  A    between atoms: C_2  and  S_1 
REMARK    2  A    between atoms: N_5  and  S_1 
REMARK    3  A    between atoms: S_4  and  C_17 
REMARK    4  A    between atoms: C_16  and  S_4 
REMARK    5  A    between atoms: C_12  and  N_5 
REMARK    6  A    between atoms: C_17  and  C_26 
REMARK    7  A    between atoms: S_25  and  C_22 
REMARK    8  A    between atoms: C_26  and  S_25 
ROOT
ATOM      1  C   UNL d   1       0.754  -2.753  -0.199  0.00  0.00     0.059 A 
ATOM      2  C   UNL d   1       2.121  -2.947  -0.485  0.00  0.00     0.027 A 
ATOM      3  C   UNL d   1      -0.164  -3.783  -0.451  0.00  0.00     0.031 A 
ATOM      4  C   UNL d   1       2.521  -4.182  -1.029  0.00  0.00     0.021 A 
ATOM      5  C   UNL d   1       0.253  -4.995  -1.001  0.00  0.00     0.002 A 
ATOM      6  C   UNL d   1       1.597  -5.196  -1.287  0.00  0.00     0.002 A 
ENDROOT
BRANCH   1   7
ATOM      7  N   UNL d   1       0.232  -1.545   0.352  0.00  0.00    -0.279 N 
ATOM      8  H   UNL d   1      -0.417  -1.632   1.135  0.00  0.00     0.179 HD
BRANCH   7   9
ATOM      9  S   UNL d   1      -0.128  -0.220  -0.618  0.00  0.00     0.265 S 
ATOM     10  O   UNL d   1      -0.705   0.777   0.258  0.00  0.00    -0.200 OA
ATOM     11  O   UNL d   1       1.028   0.105  -1.425  0.00  0.00    -0.200 OA
BRANCH   9  12
ATOM     12  C   UNL d   1      -1.402  -0.693  -1.726  0.00  0.00     0.110 A 
ATOM     13  C   UNL d   1      -2.643  -1.209  -1.308  0.00  0.00     0.108 A 
ATOM     14  C   UNL d   1      -3.733  -1.433  -2.258  0.00  0.00     0.086 A 
ATOM     15  N   UNL d   1      -3.079  -1.571  -0.093  0.00  0.00    -0.238 N 
ATOM     16  N   UNL d   1      -4.783  -1.919  -1.589  0.00  0.00    -0.239 N 
ATOM     17  C   UNL d   1      -3.617  -1.149  -3.632  0.00  0.00     0.034 A 
ATOM     18  O   UNL d   1      -4.388  -1.993  -0.267  0.00  0.00    -0.156 OA
ATOM     19  HN  UNL d   1      -5.689  -2.183  -1.975  1.00  0.00     0.197 HD
ATOM     20  C   UNL d   1      -2.365  -0.642  -4.024  0.00  0.00     0.004 A 
ATOM     21  C   UNL d   1      -1.300  -0.426  -3.111  0.00  0.00     0.028 A 
ATOM     22  HN  UNL d   1      -2.555  -1.541   0.781  1.00  0.00     0.197 HD
ENDBRANCH   9  12
ENDBRANCH   7   9
ENDBRANCH   1   7
BRANCH   2  23
ATOM     23  S   UNL d   1       3.448  -1.754  -0.304  0.00  0.00    -0.127 SA
BRANCH  23  24
ATOM     24  C   UNL d   1       3.324  -1.224   1.439  0.00  0.00     0.095 C 
BRANCH  24  25
ATOM     25  C   UNL d   1       4.446  -0.252   1.788  0.00  0.00     0.156 C 
BRANCH  25  26
ATOM     26  S   UNL d   1       5.953  -0.998   2.349  0.00  0.00     0.176 S 
ATOM     27  O   UNL d   1       6.872   0.070   2.698  0.00  0.00    -0.223 OA
ATOM     28  O   UNL d   1       5.601  -2.008   3.332  0.00  0.00    -0.223 OA
BRANCH  26  29
ATOM     29  C   UNL d   1       6.696  -1.835   0.966  0.00  0.00     0.059 A 
ATOM     30  C   UNL d   1       6.932  -1.136  -0.223  0.00  0.00     0.025 A 
ATOM     31  C   UNL d   1       7.495  -1.806  -1.313  0.00  0.00     0.025 A 
ATOM     32  C   UNL d   1       7.842  -3.152  -1.198  0.00  0.00     0.034 A 
ATOM     33  C   UNL d   1       7.644  -3.837   0.001  0.00  0.00     0.025 A 
ATOM     34 CL   UNL d   1       8.522  -3.976  -2.547  0.00  0.00    -0.084 Cl
ATOM     35  C   UNL d   1       7.068  -3.178   1.089  0.00  0.00     0.025 A 
ENDBRANCH  26  29
ENDBRANCH  25  26
ENDBRANCH  24  25
ENDBRANCH  23  24
ENDBRANCH   2  23
TORSDOF 8
