REMARK  4 active torsions:
REMARK  status: ('A' for Active; 'I' for Inactive)
REMARK    1  A    between atoms: S_8  and  C_1 
REMARK    2  A    between atoms: C_3  and  C_2 
REMARK    3  A    between atoms: C_7  and  C_3 
REMARK    4  A    between atoms: C_5  and  S_8 
ROOT
ATOM      1  C   UNL d   1       4.265  -3.468   0.280  0.00  0.00     0.062 C 
ATOM      2  C   UNL d   1       3.334  -2.531   0.054  0.00  0.00     0.054 C 
ENDROOT
BRANCH   1   3
ATOM      3  C   UNL d   1       5.709  -3.140   0.164  0.00  0.00     0.182 C 
ATOM      4  O   UNL d   1       6.106  -2.211  -0.527  0.00  0.00    -0.288 OA
BRANCH   3   5
ATOM      5  C   UNL d   1       6.669  -4.016   0.889  0.00  0.00     0.014 A 
ATOM      6  C   UNL d   1       7.957  -4.181   0.358  0.00  0.00     0.018 A 
ATOM      7  C   UNL d   1       8.901  -4.960   1.033  0.00  0.00     0.043 A 
ATOM      8  C   UNL d   1       8.558  -5.562   2.238  0.00  0.00     0.116 A 
ATOM      9  C   UNL d   1       7.286  -5.405   2.781  0.00  0.00     0.043 A 
ATOM     10  F   UNL d   1       9.467  -6.296   2.893  0.00  0.00    -0.206 F 
ATOM     11  C   UNL d   1       6.339  -4.629   2.109  0.00  0.00     0.018 A 
ENDBRANCH   3   5
ENDBRANCH   1   3
BRANCH   2  12
ATOM     12  S   UNL d   1       1.662  -2.940   0.215  0.00  0.00    -0.100 SA
BRANCH  12  13
ATOM     13  C   UNL d   1       0.978  -1.609   1.207  0.00  0.00     0.028 A 
ATOM     14  C   UNL d   1      -0.313  -1.197   0.819  0.00  0.00     0.044 A 
ATOM     15  C   UNL d   1      -1.039  -0.284   1.585  0.00  0.00     0.035 A 
ATOM     16 CL   UNL d   1      -2.637   0.148   1.116  0.00  0.00    -0.084 Cl
ATOM     17  C   UNL d   1      -0.494   0.252   2.745  0.00  0.00     0.025 A 
ATOM     18  C   UNL d   1       0.788  -0.129   3.138  0.00  0.00     0.027 A 
ATOM     19  C   UNL d   1       1.519  -1.064   2.387  0.00  0.00     0.051 A 
ATOM     20 CL   UNL d   1       3.049  -1.530   3.047  0.00  0.00    -0.083 Cl
ENDBRANCH  12  13
ENDBRANCH   2  12
TORSDOF 4
