REMARK  2 active torsions:
REMARK  status: ('A' for Active; 'I' for Inactive)
REMARK       I    between atoms: N_3  and  C_1 
REMARK    1  A    between atoms: C_12  and  C_1 
REMARK    2  A    between atoms: C_2  and  N_4 
ROOT
ATOM      1  C   UNL d   1       0.967  -0.073   0.058  0.00  0.00     0.253 C 
ATOM      2  N   UNL d   1       0.311  -1.296  -0.154  0.00  0.00    -0.346 N 
ATOM      3  N   UNL d   1      -1.643  -3.451  -1.002  0.00  0.00    -0.376 N 
ATOM      4  C   UNL d   1      -0.040  -1.595  -1.551  0.00  0.00     0.146 C 
ATOM      5  C   UNL d   1      -1.411  -2.233  -1.806  0.00  0.00     0.143 C 
ATOM      6  O   UNL d   1       1.059   0.778  -0.827  0.00  0.00    -0.267 OA
ATOM      7  C   UNL d   1      -1.014  -2.812   1.335  0.00  0.00     0.040 C 
ATOM      8  C   UNL d   1       0.348  -2.468   0.727  0.00  0.00     0.127 C 
ATOM      9  C   UNL d   1      -2.134  -3.197   0.361  0.00  0.00     0.125 C 
ENDROOT
BRANCH   3  10
ATOM     10  C   UNL d   1      -1.993  -4.670  -1.612  0.00  0.00     0.077 A 
ATOM     11  C   UNL d   1      -1.528  -5.904  -1.082  0.00  0.00     0.077 A 
ATOM     12 CL   UNL d   1      -0.575  -6.037   0.358  0.00  0.00    -0.080 Cl
ATOM     13  C   UNL d   1      -1.786  -7.102  -1.750  0.00  0.00     0.113 A 
ATOM     14  N   UNL d   1      -2.456  -7.197  -2.914  0.00  0.00    -0.372 N 
ATOM     15  C   UNL d   1      -2.932  -6.034  -3.403  0.00  0.00     0.113 A 
ATOM     16  HN  UNL d   1      -2.594  -8.087  -3.393  1.00  0.00     0.164 HD
ATOM     17  C   UNL d   1      -2.768  -4.786  -2.794  0.00  0.00     0.077 A 
ATOM     18 CL   UNL d   1      -3.668  -3.488  -3.512  0.00  0.00    -0.080 Cl
ENDBRANCH   3  10
BRANCH   1  19
ATOM     19  C   UNL d   1       1.643   0.254   1.343  0.00  0.00     0.032 A 
ATOM     20  C   UNL d   1       2.850   0.974   1.274  0.00  0.00     0.017 A 
ATOM     21  C   UNL d   1       3.538   1.324   2.436  0.00  0.00     0.001 A 
ATOM     22  C   UNL d   1       3.028   0.958   3.680  0.00  0.00     0.000 A 
ATOM     23  C   UNL d   1       1.815   0.273   3.761  0.00  0.00     0.001 A 
ATOM     24  C   UNL d   1       1.111  -0.048   2.598  0.00  0.00     0.017 A 
ENDBRANCH   1  19
TORSDOF 2
