REMARK  3 active torsions:
REMARK  status: ('A' for Active; 'I' for Inactive)
REMARK    1  A    between atoms: S_8  and  C_2 
REMARK    2  A    between atoms: C_13  and  S_8 
REMARK    3  A    between atoms: C_12  and  C_13 
ROOT
ATOM      1  C   UNL d   1       0.852   0.315  -0.015  0.00  0.00     0.084 A 
ATOM      2  C   UNL d   1       0.025   1.445  -0.023  0.00  0.00     0.091 A 
ATOM      3  N   UNL d   1      -1.333   1.367   0.001  0.00  0.00    -0.353 N 
ATOM      4  HN  UNL d   1      -1.909   2.209   0.003  1.00  0.00     0.166 HD
ATOM      5  C   UNL d   1       0.253  -0.958   0.011  0.00  0.00    -0.037 A 
ATOM      6  C   UNL d   1       2.278   0.450  -0.041  0.00  0.00     0.103 C 
ATOM      7  N   UNL d   1       3.439   0.513  -0.072  0.00  0.00    -0.191 NA
ATOM      8  C   UNL d   1      -1.897   0.134   0.023  0.00  0.00     0.006 A 
ATOM      9  C   UNL d   1      -1.144  -1.035   0.026  0.00  0.00     0.033 A 
ATOM     10  C   UNL d   1       1.032  -2.246   0.003  0.00  0.00     0.050 C 
ATOM     11  C   UNL d   1      -3.397   0.066   0.022  0.00  0.00     0.068 C 
ENDROOT
BRANCH   2  12
ATOM     12  S   UNL d   1       0.713   3.097  -0.180  0.00  0.00    -0.103 SA
BRANCH  12  13
ATOM     13  C   UNL d   1      -0.474   4.062   0.791  0.00  0.00     0.158 C 
BRANCH  13  14
ATOM     14  C   UNL d   1      -0.610   3.576   2.221  0.00  0.00     0.132 C 
ATOM     15  O   UNL d   1       0.289   3.003   2.839  0.00  0.00    -0.298 OA
ATOM     16  C   UNL d   1      -1.912   3.912   2.902  0.00  0.00     0.091 C 
ENDBRANCH  13  14
ENDBRANCH  12  13
ENDBRANCH   2  12
TORSDOF 3
