REMARK  5 active torsions:
REMARK  status: ('A' for Active; 'I' for Inactive)
REMARK       I    between atoms: N_2  and  C_1 
REMARK    1  A    between atoms: C_3  and  C_1 
REMARK    2  A    between atoms: C_9  and  N_2 
REMARK    3  A    between atoms: C_18  and  N_2 
REMARK    4  A    between atoms: C_6  and  C_9 
REMARK    5  A    between atoms: C_17  and  C_18 
ROOT
ATOM      1  N   UNL d   1       2.315   3.934  -4.017  0.00  0.00    -0.197 NA
ATOM      2  C   UNL d   1       1.781   3.026  -3.524  0.00  0.00     0.060 C 
ATOM      3  C   UNL d   1       1.120   1.877  -2.899  0.00  0.00     0.143 C 
ENDROOT
BRANCH   3   4
ATOM      4  C   UNL d   1       0.965   2.108  -1.396  0.00  0.00     0.140 C 
BRANCH   4   5
ATOM      5  N   UNL d   1       0.343   0.980  -0.679  0.00  0.00    -0.342 N 
ATOM      6  C   UNL d   1       1.063   0.018   0.056  0.00  0.00     0.261 C 
ATOM      7  O   UNL d   1       0.485  -0.751   0.824  0.00  0.00    -0.267 OA
BRANCH   6   8
ATOM      8  C   UNL d   1       2.502  -0.050  -0.146  0.00  0.00     0.072 A 
ATOM      9  S   UNL d   1       3.547   0.161   1.195  0.00  0.00    -0.097 SA
ATOM     10  C   UNL d   1       4.942   0.010   0.215  0.00  0.00     0.050 A 
ATOM     11  C   UNL d   1       4.624  -0.237  -1.102  0.00  0.00     0.009 A 
ATOM     12  C   UNL d   1       3.217  -0.342  -1.293  0.00  0.00     0.025 A 
ENDBRANCH   6   8
BRANCH   5  13
ATOM     13  C   UNL d   1      -1.121   0.955  -0.586  0.00  0.00     0.172 C 
BRANCH  13  14
ATOM     14  C   UNL d   1      -1.629   2.018   0.347  0.00  0.00     0.000 A 
ATOM     15  S   UNL d   1      -2.550   3.333  -0.265  0.00  0.00    -0.105 SA
ATOM     16  C   UNL d   1      -2.745   4.013   1.291  0.00  0.00     0.050 A 
ATOM     17  C   UNL d   1      -2.141   3.250   2.265  0.00  0.00     0.008 A 
ATOM     18  C   UNL d   1      -1.502   2.096   1.722  0.00  0.00     0.017 A 
ENDBRANCH  13  14
ENDBRANCH   5  13
ENDBRANCH   4   5
ENDBRANCH   3   4
TORSDOF 5
