REMARK  6 active torsions:
REMARK  status: ('A' for Active; 'I' for Inactive)
REMARK    1  A    between atoms: N_2  and  C_1 
REMARK    2  A    between atoms: S_7  and  C_3 
REMARK    3  A    between atoms: C_4  and  C_10 
REMARK    4  A    between atoms: C_11  and  C_5 
REMARK    5  A    between atoms: C_14  and  S_7 
REMARK    6  A    between atoms: O_25  and  C_11 
ROOT
ATOM      1  C   UNL d   1       0.870   1.233   0.145  0.00  0.00     0.137 A 
ATOM      2  C   UNL d   1      -0.516   1.270   0.043  0.00  0.00     0.109 A 
ATOM      3  C   UNL d   1       0.837  -1.167  -0.053  0.00  0.00     0.057 A 
ATOM      4  C   UNL d   1       1.563   0.015   0.087  0.00  0.00     0.058 A 
ATOM      5  N   UNL d   1      -1.226   0.112  -0.089  0.00  0.00    -0.357 N 
ATOM      6  HN  UNL d   1      -2.244   0.129  -0.152  1.00  0.00     0.166 HD
ATOM      7  C   UNL d   1      -0.545  -1.066  -0.136  0.00  0.00     0.106 A 
ENDROOT
BRANCH   2   8
ATOM      8  S   UNL d   1      -1.531   2.730   0.124  0.00  0.00    -0.052 SA
BRANCH   8   9
ATOM      9  C   UNL d   1      -1.193   3.531  -1.431  0.00  0.00     0.075 A 
ATOM     10  N   UNL d   1      -0.171   3.076  -2.190  0.00  0.00    -0.359 N 
ATOM     11  C   UNL d   1       0.050   3.690  -3.379  0.00  0.00     0.105 A 
ATOM     12  HN  UNL d   1       0.413   2.299  -1.880  1.00  0.00     0.166 HD
ATOM     13  C   UNL d   1      -0.707   4.746  -3.863  0.00  0.00     0.063 A 
ATOM     14  C   UNL d   1      -1.740   5.218  -3.049  0.00  0.00     0.020 A 
ATOM     15  C   UNL d   1      -1.985   4.607  -1.819  0.00  0.00     0.038 A 
BRANCH  13  16
ATOM     16  C   UNL d   1      -0.437   5.336  -5.213  0.00  0.00     0.418 C 
ATOM     17  F   UNL d   1       0.595   4.740  -5.873  0.00  0.00    -0.166 F 
ATOM     18  F   UNL d   1      -1.513   5.239  -6.043  0.00  0.00    -0.166 F 
ATOM     19  F   UNL d   1      -0.130   6.660  -5.156  0.00  0.00    -0.166 F 
ENDBRANCH  13  16
ENDBRANCH   8   9
ENDBRANCH   2   8
BRANCH   1  20
ATOM     20  N   UNL d   1       1.641   2.430   0.369  0.00  0.00    -0.113 N 
ATOM     21  O   UNL d   1       1.375   3.102   1.375  0.00  0.00    -0.532 OA
ATOM     22  O   UNL d   1       2.587   2.645  -0.404  0.00  0.00    -0.532 OA
ENDBRANCH   1  20
BRANCH   3  23
ATOM     23  C   UNL d   1       1.460  -2.509  -0.093  0.00  0.00     0.294 C 
ATOM     24  O   UNL d   1       0.826  -3.544  -0.206  0.00  0.00    -0.259 OA
BRANCH  23  25
ATOM     25  O   UNL d   1       2.805  -2.399   0.026  0.00  0.00    -0.322 OA
ATOM     26  C   UNL d   1       3.506  -3.644   0.012  0.00  0.00     0.213 C 
ENDBRANCH  23  25
ENDBRANCH   3  23
TORSDOF 6
