REMARK  6 active torsions:
REMARK  status: ('A' for Active; 'I' for Inactive)
REMARK       I    between atoms: C_2  and  N_3 
REMARK    1  A    between atoms: C_10  and  C_2 
REMARK    2  A    between atoms: N_3  and  C_4 
REMARK    3  A    between atoms: C_6  and  C_12 
REMARK    4  A    between atoms: O_13  and  C_6 
REMARK    5  A    between atoms: C_7  and  C_10 
REMARK    6  A    between atoms: C_12  and  C_7 
ROOT
ATOM      1  C   UNL d   1       2.377   2.091   1.776  0.00  0.00     0.219 C 
ATOM      2  N   UNL d   1       1.373   2.269   0.854  0.00  0.00    -0.348 N 
ATOM      3  O   UNL d   1       2.399   1.109   2.511  0.00  0.00    -0.274 OA
ATOM      4  H   UNL d   1       1.457   2.956   0.108  0.00  0.00     0.163 HD
ENDROOT
BRANCH   1   5
ATOM      5  C   UNL d   1       3.420   3.201   1.820  0.00  0.00     0.112 C 
BRANCH   5   6
ATOM      6  C   UNL d   1       4.555   2.989   2.866  0.00  0.00    -0.030 C 
ATOM      7  C   UNL d   1       5.498   4.213   2.851  0.00  0.00     0.016 C 
ATOM      8  C   UNL d   1       3.966   2.929   4.299  0.00  0.00     0.016 C 
BRANCH   6   9
ATOM      9  C   UNL d   1       5.371   1.689   2.606  0.00  0.00     0.119 C 
BRANCH   9  10
ATOM     10  C   UNL d   1       6.081   1.603   1.266  0.00  0.00     0.140 C 
ATOM     11  O   UNL d   1       6.061   2.441   0.384  0.00  0.00    -0.650 OA
BRANCH  10  12
ATOM     12  O   UNL d   1       6.779   0.452   1.135  0.00  0.00    -0.776 OA
ATOM     13  H   UNL d   1       6.700  -0.143   1.905  0.00  0.00     0.167 HD
ENDBRANCH  10  12
ENDBRANCH   9  10
ENDBRANCH   6   9
ENDBRANCH   5   6
ENDBRANCH   1   5
BRANCH   2  14
ATOM     14  C   UNL d   1       0.322   1.259   0.743  0.00  0.00     0.176 C 
ATOM     15  C   UNL d   1      -0.207   1.191  -0.692  0.00  0.00     0.240 C 
ATOM     16  N   UNL d   1      -0.983   0.116  -1.025  0.00  0.00    -0.359 N 
ATOM     17  O   UNL d   1       0.016   2.072  -1.526  0.00  0.00    -0.271 OA
ATOM     18  C   UNL d   1      -1.417  -0.933  -0.127  0.00  0.00     0.122 C 
ATOM     19  H   UNL d   1      -1.308   0.112  -1.984  0.00  0.00     0.162 HD
ATOM     20  C   UNL d   1      -2.345  -0.401   0.961  0.00  0.00     0.020 C 
ATOM     21  C   UNL d   1      -1.615   0.296   2.110  0.00  0.00     0.004 C 
ATOM     22  C   UNL d   1      -0.823   1.546   1.722  0.00  0.00     0.035 C 
ENDBRANCH   2  14
TORSDOF 6
