REMARK  8 active torsions:
REMARK  status: ('A' for Active; 'I' for Inactive)
REMARK       I    between atoms: N_2  and  C_1 
REMARK    1  A    between atoms: C_5  and  C_1 
REMARK    2  A    between atoms: C_4  and  N_2 
REMARK    3  A    between atoms: C_3  and  O_10 
REMARK    4  A    between atoms: C_20  and  C_4 
REMARK    5  A    between atoms: C_6  and  C_9 
REMARK    6  A    between atoms: O_10  and  C_21 
REMARK    7  A    between atoms: O_19  and  C_20 
REMARK    8  A    between atoms: C_22  and  O_19 
ROOT
ATOM      1  C   UNL d   1       1.093  -1.400  -2.145  0.00  0.00     0.102 C 
ATOM      2  N   UNL d   1       1.151  -1.946  -0.978  0.00  0.00    -0.387 N 
ATOM      3  HN  UNL d   1       0.752  -2.850  -0.725  1.00  0.00     0.157 HD
ATOM      4  H   UNL d   1       1.668  -1.316  -0.340  0.00  0.00     0.157 HD
ENDROOT
BRANCH   1   5
ATOM      5  N   UNL d   1       1.658  -0.174  -2.425  0.00  0.00    -0.311 N 
ATOM      6  C   UNL d   1       2.162   0.701  -1.473  0.00  0.00     0.257 C 
ATOM      7  O   UNL d   1       2.117   0.502  -0.264  0.00  0.00    -0.267 OA
ATOM      8  H   UNL d   1       1.648   0.122  -3.391  0.00  0.00     0.170 HD
BRANCH   6   9
ATOM      9  C   UNL d   1       2.733   1.982  -1.964  0.00  0.00     0.032 A 
ATOM     10  C   UNL d   1       2.531   3.141  -1.204  0.00  0.00     0.020 A 
ATOM     11  C   UNL d   1       3.090   4.365  -1.603  0.00  0.00     0.038 A 
ATOM     12  C   UNL d   1       3.835   4.438  -2.774  0.00  0.00     0.078 A 
ATOM     13  C   UNL d   1       4.071   3.270  -3.510  0.00  0.00     0.038 A 
ATOM     14  C   UNL d   1       3.520   2.044  -3.117  0.00  0.00     0.020 A 
BRANCH  12  15
ATOM     15  O   UNL d   1       4.440   5.548  -3.277  0.00  0.00    -0.255 OA
BRANCH  15  16
ATOM     16  C   UNL d   1       3.873   6.831  -3.045  0.00  0.00     0.530 C 
ATOM     17  F   UNL d   1       2.614   6.795  -2.564  0.00  0.00    -0.144 F 
ATOM     18  F   UNL d   1       4.653   7.522  -2.187  0.00  0.00    -0.144 F 
ATOM     19  F   UNL d   1       3.845   7.499  -4.221  0.00  0.00    -0.144 F 
ENDBRANCH  15  16
ENDBRANCH  12  15
ENDBRANCH   6   9
ENDBRANCH   1   5
BRANCH   1  20
ATOM     20  C   UNL d   1       0.344  -2.089  -3.281  0.00  0.00     0.251 C 
BRANCH  20  21
ATOM     21  O   UNL d   1       1.275  -2.691  -4.167  0.00  0.00    -0.344 OA
BRANCH  21  22
ATOM     22  C   UNL d   1       0.750  -3.439  -5.188  0.00  0.00     0.069 A 
ATOM     23  C   UNL d   1       1.653  -3.755  -6.200  0.00  0.00     0.037 A 
ATOM     24  C   UNL d   1       1.250  -4.501  -7.314  0.00  0.00     0.011 A 
ATOM     25  C   UNL d   1      -0.070  -4.972  -7.447  0.00  0.00    -0.050 A 
ATOM     26  C   UNL d   1      -0.961  -4.666  -6.408  0.00  0.00     0.011 A 
ATOM     27  C   UNL d   1      -0.557  -3.909  -5.290  0.00  0.00     0.037 A 
BRANCH  25  28
ATOM     28  C   UNL d   1      -0.478  -5.777  -8.695  0.00  0.00    -0.024 C 
ATOM     29  C   UNL d   1      -1.940  -6.276  -8.674  0.00  0.00     0.019 C 
ATOM     30  C   UNL d   1      -0.315  -4.893  -9.952  0.00  0.00     0.019 C 
ATOM     31  C   UNL d   1       0.422  -7.025  -8.839  0.00  0.00     0.019 C 
ENDBRANCH  25  28
ENDBRANCH  21  22
ENDBRANCH  20  21
ENDBRANCH   1  20
TORSDOF 8
