REMARK  1 active torsions:
REMARK  status: ('A' for Active; 'I' for Inactive)
REMARK    1  A    between atoms: C_4  and  C_1 
ROOT
ATOM      1  C   UNL d   1       2.336   0.101   0.066  0.00  0.00     0.246 C 
ATOM      2  N   UNL d   1       1.493   1.304   0.220  0.00  0.00    -0.259 NA
ATOM      3  O   UNL d   1       1.529  -1.114   0.052  0.00  0.00    -0.324 OA
ATOM      4  C   UNL d   1       0.210   0.742   0.104  0.00  0.00     0.044 A 
ATOM      5  C   UNL d   1       0.248  -0.639   0.054  0.00  0.00     0.092 A 
ATOM      6  C   UNL d   1      -0.995   1.413   0.078  0.00  0.00     0.026 A 
ATOM      7  C   UNL d   1      -0.892  -1.410  -0.018  0.00  0.00     0.039 A 
ATOM      8  C   UNL d   1      -2.172   0.659   0.001  0.00  0.00     0.002 A 
ATOM      9  C   UNL d   1      -2.120  -0.746  -0.043  0.00  0.00     0.003 A 
ATOM     10  H   UNL d   1       1.657   1.990  -0.510  0.00  0.00     0.130 HD
ENDROOT
BRANCH   1  11
ATOM     11  C   UNL d   1       3.177   0.096  -1.192  0.00  0.00     0.026 A 
ATOM     12  S   UNL d   1       4.754   0.776  -1.165  0.00  0.00    -0.102 SA
ATOM     13  C   UNL d   1       5.006   0.425  -2.821  0.00  0.00     0.050 A 
ATOM     14  C   UNL d   1       3.913  -0.186  -3.392  0.00  0.00     0.008 A 
ATOM     15  C   UNL d   1       2.856  -0.369  -2.456  0.00  0.00     0.019 A 
ENDBRANCH   1  11
TORSDOF 1
