REMARK  6 active torsions:
REMARK  status: ('A' for Active; 'I' for Inactive)
REMARK    1  A    between atoms: C_8  and  C_2 
REMARK    2  A    between atoms: S_9  and  C_3 
REMARK    3  A    between atoms: C_7  and  C_17 
REMARK       I    between atoms: N_10  and  C_7 
REMARK    4  A    between atoms: C_17  and  S_9 
REMARK    5  A    between atoms: C_18  and  N_10 
REMARK    6  A    between atoms: C_19  and  C_13 
ROOT
ATOM      1  S   UNL d   1       0.066  -2.574   0.852  0.00  0.00    -0.095 SA
ENDROOT
BRANCH   1   2
ATOM      2  C   UNL d   1       0.823  -1.009   0.709  0.00  0.00     0.120 C 
ATOM      3  S   UNL d   1      -0.074   0.430   1.152  0.00  0.00    -0.076 SA
ATOM      4  C   UNL d   1       1.521   1.308   1.184  0.00  0.00     0.194 C 
ATOM      5  N   UNL d   1       2.377   0.480   0.326  0.00  0.00    -0.219 NA
ATOM      6  N   UNL d   1       2.054  -0.846   0.323  0.00  0.00    -0.308 N 
ATOM      7  H   UNL d   1       3.365   0.654   0.514  0.00  0.00     0.148 HD
ATOM      8  HN  UNL d   1       2.687  -1.600   0.057  1.00  0.00     0.182 HD
BRANCH   4   9
ATOM      9  C   UNL d   1       1.516   2.770   0.788  0.00  0.00     0.038 A 
ATOM     10  N   UNL d   1       1.948   3.652   1.733  0.00  0.00    -0.367 N 
ATOM     11  C   UNL d   1       2.069   4.951   1.379  0.00  0.00     0.088 A 
ATOM     12  HN  UNL d   1       2.173   3.341   2.678  1.00  0.00     0.165 HD
ATOM     13  C   UNL d   1       1.789   5.433   0.114  0.00  0.00     0.017 A 
ATOM     14  C   UNL d   1       1.341   4.531  -0.843  0.00  0.00     0.003 A 
ATOM     15  C   UNL d   1       1.198   3.185  -0.507  0.00  0.00     0.027 A 
ENDBRANCH   4   9
ENDBRANCH   1   2
BRANCH   1  16
ATOM     16  C   UNL d   1       1.495  -3.601   0.415  0.00  0.00     0.184 C 
BRANCH  16  17
ATOM     17  C   UNL d   1       1.348  -5.090   0.679  0.00  0.00     0.231 C 
ATOM     18  N   UNL d   1       0.092  -5.642   0.501  0.00  0.00    -0.327 N 
ATOM     19  H   UNL d   1      -0.638  -5.017   0.167  0.00  0.00     0.169 HD
ATOM     20  O   UNL d   1       2.367  -5.729   0.945  0.00  0.00    -0.272 OA
BRANCH  18  21
ATOM     21  C   UNL d   1      -0.280  -6.981   0.775  0.00  0.00     0.034 A 
ATOM     22  C   UNL d   1       0.565  -7.898   1.407  0.00  0.00     0.030 A 
ATOM     23  C   UNL d   1       0.127  -9.186   1.732  0.00  0.00     0.010 A 
ATOM     24  C   UNL d   1      -1.173  -9.602   1.429  0.00  0.00    -0.055 A 
ATOM     25  C   UNL d   1      -2.010  -8.701   0.754  0.00  0.00     0.010 A 
ATOM     26  C   UNL d   1      -1.570  -7.404   0.436  0.00  0.00     0.030 A 
BRANCH  24  27
ATOM     27  C   UNL d   1      -1.683 -10.963   1.872  0.00  0.00     0.010 C 
ATOM     28  C   UNL d   1      -0.858 -12.116   1.291  0.00  0.00     0.015 C 
ATOM     29  C   UNL d   1      -1.718 -11.053   3.402  0.00  0.00     0.015 C 
ENDBRANCH  24  27
ENDBRANCH  18  21
ENDBRANCH  16  17
ENDBRANCH   1  16
TORSDOF 6
