REMARK  5 active torsions:
REMARK  status: ('A' for Active; 'I' for Inactive)
REMARK    1  A    between atoms: C_8  and  C_2 
REMARK    2  A    between atoms: S_9  and  C_5 
REMARK    3  A    between atoms: C_14  and  S_9 
REMARK    4  A    between atoms: C_11  and  C_14 
REMARK    5  A    between atoms: C_13  and  C_11 
ROOT
ATOM      1  N   UNL d   1       0.861   0.024   0.120  0.00  0.00    -0.315 N 
ATOM      2  C   UNL d   1       0.018   1.105  -0.066  0.00  0.00     0.134 A 
ATOM      3  N   UNL d   1      -1.225   0.644  -0.086  0.00  0.00    -0.283 N 
ATOM      4  HN  UNL d   1      -2.065   1.214  -0.184  1.00  0.00     0.188 HD
ATOM      5  C   UNL d   1       0.052  -1.083   0.172  0.00  0.00     0.163 A 
ATOM      6  N   UNL d   1      -1.201  -0.725   0.048  0.00  0.00    -0.278 N 
ATOM      7  HN  UNL d   1      -2.010  -1.346   0.050  1.00  0.00     0.189 HD
ATOM      8  C   UNL d   1       2.293   0.021   0.284  0.00  0.00     0.160 C 
ENDROOT
BRANCH   5   9
ATOM      9  S   UNL d   1       0.652  -2.690   0.386  0.00  0.00    -0.085 SA
BRANCH   9  10
ATOM     10  C   UNL d   1      -0.890  -3.650   0.395  0.00  0.00     0.166 C 
BRANCH  10  11
ATOM     11  C   UNL d   1      -0.635  -5.119   0.717  0.00  0.00     0.169 C 
ATOM     12  O   UNL d   1       0.458  -5.568   1.052  0.00  0.00    -0.291 OA
BRANCH  11  13
ATOM     13  C   UNL d   1      -1.790  -6.069   0.630  0.00  0.00     0.011 A 
ATOM     14  C   UNL d   1      -3.099  -5.641   0.360  0.00  0.00     0.018 A 
ATOM     15  C   UNL d   1      -4.139  -6.572   0.277  0.00  0.00     0.043 A 
ATOM     16  C   UNL d   1      -3.875  -7.924   0.467  0.00  0.00     0.116 A 
ATOM     17  C   UNL d   1      -2.588  -8.367   0.746  0.00  0.00     0.043 A 
ATOM     18  F   UNL d   1      -4.876  -8.811   0.384  0.00  0.00    -0.206 F 
ATOM     19  C   UNL d   1      -1.546  -7.439   0.828  0.00  0.00     0.018 A 
ENDBRANCH  11  13
ENDBRANCH  10  11
ENDBRANCH   9  10
ENDBRANCH   5   9
BRANCH   2  20
ATOM     20  C   UNL d   1       0.385   2.526  -0.157  0.00  0.00     0.010 A 
ATOM     21  C   UNL d   1      -0.467   3.495   0.402  0.00  0.00     0.027 A 
ATOM     22  C   UNL d   1      -0.144   4.867   0.384  0.00  0.00    -0.025 A 
ATOM     23  C   UNL d   1      -0.996   5.839   0.937  0.00  0.00     0.012 A 
ATOM     24  C   UNL d   1       1.072   5.280  -0.203  0.00  0.00    -0.026 A 
ATOM     25  C   UNL d   1      -0.645   7.192   0.923  0.00  0.00     0.001 A 
ATOM     26  C   UNL d   1       0.566   7.591   0.366  0.00  0.00     0.001 A 
ATOM     27  C   UNL d   1       1.419   6.641  -0.195  0.00  0.00     0.012 A 
ATOM     28  C   UNL d   1       1.903   4.320  -0.796  0.00  0.00     0.013 A 
ATOM     29  C   UNL d   1       1.549   2.966  -0.796  0.00  0.00     0.016 A 
ENDBRANCH   2  20
TORSDOF 5
