REMARK  6 active torsions:
REMARK  status: ('A' for Active; 'I' for Inactive)
REMARK    1  A    between atoms: C_16  and  C_1 
REMARK    2  A    between atoms: C_2  and  C_15 
REMARK       I    between atoms: C_3  and  N_12 
REMARK       I    between atoms: N_13  and  C_3 
REMARK    3  A    between atoms: N_12  and  N_6 
REMARK    4  A    between atoms: N_8  and  N_13 
REMARK    5  A    between atoms: O_24  and  C_10 
REMARK    6  A    between atoms: O_23  and  C_11 
ROOT
ATOM      1  C   UNL d   1       4.341  -4.715  -0.041  0.00  0.00     0.353 C 
ATOM      2  N   UNL d   1       3.035  -4.223  -0.108  0.00  0.00    -0.251 N 
ATOM      3  N   UNL d   1       5.274  -3.680   0.013  0.00  0.00    -0.251 N 
ATOM      4  O   UNL d   1       4.653  -5.902  -0.061  0.00  0.00    -0.244 OA
ATOM      5  H   UNL d   1       2.880  -3.318   0.319  0.00  0.00     0.191 HD
ATOM      6  H   UNL d   1       4.985  -2.716   0.070  0.00  0.00     0.191 HD
ENDROOT
BRANCH   2   7
ATOM      7  N   UNL d   1       1.899  -5.002  -0.134  0.00  0.00    -0.307 N 
ATOM      8  C   UNL d   1       1.946  -6.143  -0.761  0.00  0.00     0.122 C 
ATOM      9  HN  UNL d   1       1.043  -4.694   0.326  1.00  0.00     0.186 HD
BRANCH   8  10
ATOM     10  C   UNL d   1       0.776  -7.067  -0.786  0.00  0.00     0.025 A 
ATOM     11  C   UNL d   1       0.833  -8.307  -1.498  0.00  0.00    -0.011 A 
ATOM     12  C   UNL d   1      -0.311  -9.151  -1.454  0.00  0.00    -0.025 A 
ATOM     13  C   UNL d   1       1.934  -8.773  -2.267  0.00  0.00     0.013 A 
ATOM     14  C   UNL d   1      -0.330 -10.369  -2.153  0.00  0.00     0.012 A 
ATOM     15  C   UNL d   1      -1.445  -8.772  -0.723  0.00  0.00     0.015 A 
ATOM     16  C   UNL d   1       0.758 -10.776  -2.919  0.00  0.00     0.001 A 
ATOM     17  C   UNL d   1       1.891  -9.980  -2.974  0.00  0.00     0.001 A 
ATOM     18  C   UNL d   1      -1.495  -7.550  -0.062  0.00  0.00     0.038 A 
ATOM     19  C   UNL d   1      -0.398  -6.702  -0.101  0.00  0.00     0.078 A 
BRANCH  19  20
ATOM     20  O   UNL d   1      -0.558  -5.509   0.556  0.00  0.00    -0.360 OA
ATOM     21  H   UNL d   1       0.284  -5.013   0.459  0.00  0.00     0.217 HD
ENDBRANCH  19  20
ENDBRANCH   8  10
ENDBRANCH   2   7
BRANCH   3  22
ATOM     22  N   UNL d   1       6.595  -4.002   0.043  0.00  0.00    -0.307 N 
ATOM     23  C   UNL d   1       7.443  -3.032   0.172  0.00  0.00     0.122 C 
ATOM     24  HN  UNL d   1       6.906  -4.970  -0.034  1.00  0.00     0.186 HD
BRANCH  23  25
ATOM     25  C   UNL d   1       8.893  -3.334   0.252  0.00  0.00     0.025 A 
ATOM     26  C   UNL d   1       9.789  -2.430   0.890  0.00  0.00    -0.011 A 
ATOM     27  C   UNL d   1      11.153  -2.816   0.998  0.00  0.00    -0.025 A 
ATOM     28  C   UNL d   1       9.425  -1.181   1.454  0.00  0.00     0.013 A 
ATOM     29  C   UNL d   1      12.073  -1.983   1.653  0.00  0.00     0.012 A 
ATOM     30  C   UNL d   1      11.588  -4.038   0.463  0.00  0.00     0.015 A 
ATOM     31  C   UNL d   1      11.680  -0.762   2.195  0.00  0.00     0.001 A 
ATOM     32  C   UNL d   1      10.357  -0.358   2.093  0.00  0.00     0.001 A 
ATOM     33  C   UNL d   1      10.702  -4.894  -0.182  0.00  0.00     0.038 A 
ATOM     34  C   UNL d   1       9.363  -4.549  -0.277  0.00  0.00     0.078 A 
BRANCH  34  35
ATOM     35  O   UNL d   1       8.561  -5.464  -0.911  0.00  0.00    -0.360 OA
ATOM     36  H   UNL d   1       7.623  -5.250  -0.700  0.00  0.00     0.217 HD
ENDBRANCH  34  35
ENDBRANCH  23  25
ENDBRANCH   3  22
TORSDOF 6
