REMARK  6 active torsions:
REMARK  status: ('A' for Active; 'I' for Inactive)
REMARK    1  A    between atoms: N_7  and  C_25 
REMARK    2  A    between atoms: C_24  and  N_9 
REMARK    3  A    between atoms: C_16  and  C_13 
REMARK    4  A    between atoms: C_14  and  C_15 
REMARK    5  A    between atoms: C_23  and  C_24 
REMARK    6  A    between atoms: C_25  and  C_23 
ROOT
ATOM      1  C   UNL d   1      -4.958   4.929  -0.259  0.00  0.00     0.039 C 
ENDROOT
BRANCH   1   2
ATOM      2  C   UNL d   1      -5.162   3.418  -0.171  0.00  0.00     0.120 C 
BRANCH   2   3
ATOM      3  N   UNL d   1      -3.835   2.798  -0.110  0.00  0.00    -0.398 N 
ATOM      4  C   UNL d   1      -3.830   1.513  -0.023  0.00  0.00     0.094 C 
ATOM      5  HN  UNL d   1      -2.975   3.346  -0.134  1.00  0.00     0.158 HD
BRANCH   4   6
ATOM      6  C   UNL d   1      -2.558   0.763   0.045  0.00  0.00    -0.019 A 
ATOM      7  C   UNL d   1      -2.583  -0.630   0.136  0.00  0.00     0.038 A 
ATOM      8  C   UNL d   1      -1.378  -1.341   0.204  0.00  0.00     0.056 A 
ATOM      9  C   UNL d   1      -0.153  -0.660   0.182  0.00  0.00     0.055 A 
ATOM     10 CL   UNL d   1      -1.471  -3.065   0.313  0.00  0.00    -0.083 Cl
ATOM     11  C   UNL d   1      -0.137   0.734   0.090  0.00  0.00     0.026 A 
ATOM     12 CL   UNL d   1       1.367  -1.477   0.268  0.00  0.00    -0.083 Cl
ATOM     13  C   UNL d   1      -1.337   1.445   0.021  0.00  0.00     0.014 A 
ENDBRANCH   4   6
ENDBRANCH   2   3
ENDBRANCH   1   2
BRANCH   1  14
ATOM     14  C   UNL d   1      -6.276   5.698  -0.339  0.00  0.00     0.120 C 
BRANCH  14  15
ATOM     15  N   UNL d   1      -5.953   7.125  -0.399  0.00  0.00    -0.398 N 
ATOM     16  C   UNL d   1      -6.966   7.915  -0.474  0.00  0.00     0.094 C 
ATOM     17  HN  UNL d   1      -4.992   7.469  -0.382  1.00  0.00     0.158 HD
BRANCH  16  18
ATOM     18  C   UNL d   1      -6.783   9.381  -0.544  0.00  0.00    -0.019 A 
ATOM     19  C   UNL d   1      -7.901  10.214  -0.613  0.00  0.00     0.038 A 
ATOM     20  C   UNL d   1      -7.726  11.601  -0.696  0.00  0.00     0.056 A 
ATOM     21 CL   UNL d   1      -9.147  12.584  -0.774  0.00  0.00    -0.083 Cl
ATOM     22  C   UNL d   1      -6.436  12.151  -0.714  0.00  0.00     0.055 A 
ATOM     23  C   UNL d   1      -5.323  11.311  -0.636  0.00  0.00     0.026 A 
ATOM     24 CL   UNL d   1      -6.152  13.851  -0.836  0.00  0.00    -0.083 Cl
ATOM     25  C   UNL d   1      -5.495   9.928  -0.548  0.00  0.00     0.014 A 
ENDBRANCH  16  18
ENDBRANCH  14  15
ENDBRANCH   1  14
TORSDOF 6
