REMARK  0 active torsions:
REMARK  status: ('A' for Active; 'I' for Inactive)
ROOT
ATOM      1  N   UNL d   1       0.032   1.416   0.024  0.00  0.00    -0.356 N 
ATOM      2  HN  UNL d   1       0.019   2.436   0.046  1.00  0.00     0.166 HD
ATOM      3  N   UNL d   1       0.058  -1.397  -0.018  0.00  0.00    -0.356 N 
ATOM      4  HN  UNL d   1       0.067  -2.417  -0.037  1.00  0.00     0.166 HD
ATOM      5  C   UNL d   1       1.191   0.728   0.017  0.00  0.00     0.060 A 
ATOM      6  C   UNL d   1      -1.119   0.694   0.001  0.00  0.00     0.032 A 
ATOM      7  C   UNL d   1      -1.103  -0.701   0.001  0.00  0.00     0.032 A 
ATOM      8  C   UNL d   1       1.196  -0.687  -0.011  0.00  0.00     0.059 A 
ATOM      9  N   UNL d   1       5.883   1.990   0.042  0.00  0.00    -0.191 NA
ATOM     10  C   UNL d   1       4.869   1.429   0.030  0.00  0.00     0.099 C 
ATOM     11  C   UNL d   1       2.407   1.405   0.034  0.00  0.00     0.054 A 
ATOM     12  C   UNL d   1       3.625   0.714   0.014  0.00  0.00     0.046 A 
ATOM     13  C   UNL d   1       2.407  -1.365  -0.033  0.00  0.00     0.033 A 
ATOM     14  C   UNL d   1       3.622  -0.679  -0.022  0.00  0.00     0.025 A 
ATOM     15  C   UNL d   1      -2.415   1.461   0.041  0.00  0.00     0.059 C 
ATOM     16  C   UNL d   1      -2.368  -1.512  -0.045  0.00  0.00     0.059 C 
ATOM     17  C   UNL d   1      -3.601  -0.716   0.369  0.00  0.00     0.006 C 
ATOM     18  C   UNL d   1      -3.623   0.618  -0.370  0.00  0.00     0.006 C 
ENDROOT
TORSDOF 0
