REMARK  6 active torsions:
REMARK  status: ('A' for Active; 'I' for Inactive)
REMARK    1  A    between atoms: C_4  and  C_1 
REMARK    2  A    between atoms: C_15  and  C_2 
REMARK    3  A    between atoms: C_5  and  O_10 
REMARK    4  A    between atoms: C_9  and  C_5 
REMARK    5  A    between atoms: C_14  and  C_6 
REMARK    6  A    between atoms: O_10  and  C_14 
ROOT
ATOM      1  S   UNL d   1      -2.958   1.093   0.067  0.00  0.00    -0.084 SA
ATOM      2  C   UNL d   1      -1.965  -0.293   0.031  0.00  0.00     0.059 A 
ATOM      3  C   UNL d   1      -4.392   0.153   0.123  0.00  0.00     0.008 A 
ATOM      4  C   UNL d   1      -2.704  -1.455   0.040  0.00  0.00     0.029 A 
ATOM      5  C   UNL d   1      -4.107  -1.199   0.093  0.00  0.00     0.019 A 
ENDROOT
BRANCH   3   6
ATOM      6  C   UNL d   1      -5.732   0.823   0.141  0.00  0.00     0.225 C 
BRANCH   6   7
ATOM      7  O   UNL d   1      -5.815   1.625   1.329  0.00  0.00    -0.312 OA
BRANCH   7   8
ATOM      8  C   UNL d   1      -6.019   2.948   1.121  0.00  0.00     0.293 C 
ATOM      9  O   UNL d   1      -6.136   3.496   0.035  0.00  0.00    -0.259 OA
BRANCH   8  10
ATOM     10  C   UNL d   1      -6.126   3.693   2.406  0.00  0.00     0.039 A 
ATOM     11  C   UNL d   1      -6.374   5.074   2.341  0.00  0.00     0.019 A 
ATOM     12  C   UNL d   1      -6.527   5.825   3.509  0.00  0.00     0.025 A 
ATOM     13  C   UNL d   1      -6.431   5.198   4.749  0.00  0.00     0.034 A 
ATOM     14  C   UNL d   1      -6.169   3.830   4.829  0.00  0.00     0.025 A 
ATOM     15 CL   UNL d   1      -6.644   6.116   6.188  0.00  0.00    -0.084 Cl
ATOM     16  C   UNL d   1      -6.014   3.076   3.659  0.00  0.00     0.019 A 
ENDBRANCH   8  10
ENDBRANCH   7   8
ENDBRANCH   6   7
ENDBRANCH   3   6
BRANCH   2  17
ATOM     17  C   UNL d   1      -0.542  -0.226  -0.004  0.00  0.00    -0.054 C 
ATOM     18  C   UNL d   1       0.658  -0.160  -0.018  0.00  0.00    -0.061 C 
BRANCH  18  19
ATOM     19  C   UNL d   1       2.084  -0.072  -0.014  0.00  0.00     0.018 A 
ATOM     20  C   UNL d   1       2.712   1.176  -0.007  0.00  0.00     0.020 A 
ATOM     21  C   UNL d   1       4.106   1.258   0.014  0.00  0.00     0.001 A 
ATOM     22  C   UNL d   1       4.873   0.093   0.027  0.00  0.00     0.000 A 
ATOM     23  C   UNL d   1       4.248  -1.155   0.015  0.00  0.00     0.001 A 
ATOM     24  C   UNL d   1       2.855  -1.238  -0.005  0.00  0.00     0.020 A 
ENDBRANCH  18  19
ENDBRANCH   2  17
TORSDOF 6
