REMARK  4 active torsions:
REMARK  status: ('A' for Active; 'I' for Inactive)
REMARK       I    between atoms: N_2  and  C_1 
REMARK    1  A    between atoms: C_4  and  C_1 
REMARK       I    between atoms: C_5  and  N_2 
REMARK    2  A    between atoms: O_12  and  C_5 
REMARK    3  A    between atoms: N_7  and  O_12 
REMARK    4  A    between atoms: C_9  and  N_7 
ROOT
ATOM      1  C   UNL d   1       0.383  -1.738   0.923  0.00  0.00     0.266 C 
ATOM      2  N   UNL d   1       0.328  -0.650   0.070  0.00  0.00    -0.267 N 
ATOM      3  C   UNL d   1       1.251   0.367   0.088  0.00  0.00     0.389 C 
ATOM      4  O   UNL d   1       1.415  -2.312   1.257  0.00  0.00    -0.267 OA
ATOM      5  O   UNL d   1       0.876   1.528  -0.063  0.00  0.00    -0.236 OA
ATOM      6  H   UNL d   1      -0.587  -0.259  -0.105  0.00  0.00     0.174 HD
ENDROOT
BRANCH   3   7
ATOM      7  O   UNL d   1       2.537  -0.039   0.319  0.00  0.00    -0.181 OA
BRANCH   7   8
ATOM      8  N   UNL d   1       3.231   0.969   1.009  0.00  0.00    -0.260 N 
ATOM      9  HN  UNL d   1       2.782   1.758   1.475  1.00  0.00     0.194 HD
BRANCH   8  10
ATOM     10  C   UNL d   1       4.510   0.774   0.982  0.00  0.00     0.045 C 
ATOM     11  C   UNL d   1       5.315   1.631   1.822  0.00  0.00     0.020 A 
ATOM     12  C   UNL d   1       6.648   1.353   2.007  0.00  0.00     0.065 A 
ATOM     13  C   UNL d   1       5.037   2.757   2.629  0.00  0.00     0.040 A 
ATOM     14  O   UNL d   1       7.220   2.229   2.867  0.00  0.00    -0.326 OA
ATOM     15  C   UNL d   1       7.440   0.249   1.422  0.00  0.00     0.066 C 
ATOM     16  C   UNL d   1       6.226   3.082   3.247  0.00  0.00     0.143 A 
ATOM     17  C   UNL d   1       6.473  -0.834   0.899  0.00  0.00     0.013 C 
ATOM     18  C   UNL d   1       5.265  -0.255   0.139  0.00  0.00     0.060 C 
ENDBRANCH   8  10
ENDBRANCH   7   8
ENDBRANCH   3   7
BRANCH   1  19
ATOM     19  C   UNL d   1      -0.927  -2.276   1.365  0.00  0.00     0.109 A 
ATOM     20  C   UNL d   1      -2.047  -2.229   0.534  0.00  0.00     0.135 A 
ATOM     21  F   UNL d   1      -1.963  -1.691  -0.692  0.00  0.00    -0.205 F 
ATOM     22  C   UNL d   1      -3.283  -2.721   0.950  0.00  0.00     0.043 A 
ATOM     23  C   UNL d   1      -3.415  -3.273   2.222  0.00  0.00     0.006 A 
ATOM     24  C   UNL d   1      -2.306  -3.332   3.064  0.00  0.00     0.043 A 
ATOM     25  C   UNL d   1      -1.069  -2.840   2.634  0.00  0.00     0.135 A 
ATOM     26  F   UNL d   1      -0.043  -2.885   3.494  0.00  0.00    -0.205 F 
ENDBRANCH   1  19
TORSDOF 4
