REMARK  5 active torsions:
REMARK  status: ('A' for Active; 'I' for Inactive)
REMARK    1  A    between atoms: C_11  and  N_1 
REMARK    2  A    between atoms: C_19  and  C_5 
REMARK    3  A    between atoms: C_9  and  S_16 
REMARK    4  A    between atoms: C_14  and  C_10 
REMARK    5  A    between atoms: S_16  and  C_19 
ROOT
ATOM      1  S   UNL d   1      -2.446   3.269  -0.025  0.00  0.00    -0.088 SA
ENDROOT
BRANCH   1   2
ATOM      2  C   UNL d   1      -1.518   3.616  -1.498  0.00  0.00     0.144 A 
ATOM      3  N   UNL d   1      -1.205   2.627  -2.354  0.00  0.00    -0.336 N 
ATOM      4  C   UNL d   1      -0.471   2.964  -3.444  0.00  0.00     0.047 A 
ATOM      5  HN  UNL d   1      -1.506   1.666  -2.190  1.00  0.00     0.168 HD
ATOM      6  C   UNL d   1      -0.033   4.261  -3.648  0.00  0.00     0.047 A 
ATOM      7  C   UNL d   1      -0.391   5.190  -2.704  0.00  0.00     0.092 A 
ATOM      8  N   UNL d   1      -1.129   4.893  -1.629  0.00  0.00    -0.347 N 
ATOM      9  HN  UNL d   1      -1.385   5.603  -0.942  1.00  0.00     0.167 HD
BRANCH   4  10
ATOM     10  C   UNL d   1      -0.145   1.878  -4.390  0.00  0.00     0.006 A 
ATOM     11  C   UNL d   1       0.009   2.107  -5.762  0.00  0.00     0.101 A 
ATOM     12  N   UNL d   1       0.359   1.174  -6.682  0.00  0.00    -0.374 N 
ATOM     13  C   UNL d   1       0.560  -0.077  -6.225  0.00  0.00     0.087 A 
ATOM     14  HN  UNL d   1       0.465   1.408  -7.669  1.00  0.00     0.164 HD
ATOM     15  C   UNL d   1       0.415  -0.433  -4.896  0.00  0.00     0.018 A 
ATOM     16  C   UNL d   1       0.056   0.555  -3.977  0.00  0.00     0.016 A 
ENDBRANCH   4  10
ENDBRANCH   1   2
BRANCH   1  17
ATOM     17  C   UNL d   1      -2.686   1.482  -0.128  0.00  0.00     0.137 C 
BRANCH  17  18
ATOM     18  C   UNL d   1      -1.418   0.686  -0.084  0.00  0.00     0.022 A 
ATOM     19  N   UNL d   1      -1.327  -0.515  -0.580  0.00  0.00    -0.298 N 
ATOM     20  N   UNL d   1      -0.063  -0.977  -0.264  0.00  0.00    -0.224 N 
ATOM     21  HN  UNL d   1      -2.047  -1.016  -1.101  1.00  0.00     0.187 HD
ATOM     22  C   UNL d   1       0.701  -0.060   0.469  0.00  0.00     0.248 A 
ATOM     23  C   UNL d   1      -0.182   1.131   0.633  0.00  0.00     0.160 A 
ATOM     24  O   UNL d   1       1.841  -0.132   0.900  0.00  0.00    -0.271 OA
BRANCH  20  25
ATOM     25  C   UNL d   1       0.309  -2.284  -0.666  0.00  0.00     0.059 A 
ATOM     26  C   UNL d   1       1.520  -2.858  -0.251  0.00  0.00     0.033 A 
ATOM     27  C   UNL d   1       1.883  -4.149  -0.645  0.00  0.00     0.026 A 
ATOM     28  C   UNL d   1       1.042  -4.883  -1.472  0.00  0.00     0.034 A 
ATOM     29  C   UNL d   1      -0.166  -4.337  -1.901  0.00  0.00     0.026 A 
ATOM     30 CL   UNL d   1       1.494  -6.468  -1.963  0.00  0.00    -0.084 Cl
ATOM     31  C   UNL d   1      -0.529  -3.046  -1.496  0.00  0.00     0.033 A 
ENDBRANCH  20  25
ENDBRANCH  17  18
ENDBRANCH   1  17
TORSDOF 5
