REMARK  5 active torsions:
REMARK  status: ('A' for Active; 'I' for Inactive)
REMARK    1  A    between atoms: C_2  and  S_1 
REMARK    2  A    between atoms: C_7  and  S_1 
REMARK    3  A    between atoms: N_5  and  C_3 
REMARK    4  A    between atoms: C_13  and  N_8 
REMARK    5  A    between atoms: C_22  and  C_13 
ROOT
ATOM      1  C   UNL d   1       0.549   1.558   0.619  0.00  0.00     0.159 C 
ATOM      2  C   UNL d   1      -0.193   2.190  -0.311  0.00  0.00     0.121 C 
ATOM      3  C   UNL d   1       1.098   0.271   0.452  0.00  0.00     0.113 C 
ATOM      4  N   UNL d   1       1.574  -0.778   0.301  0.00  0.00    -0.191 NA
ENDROOT
BRANCH   1   5
ATOM      5  S   UNL d   1       0.872   2.382   2.104  0.00  0.00     0.218 S 
ATOM      6  O   UNL d   1      -0.103   1.945   3.091  0.00  0.00    -0.216 OA
ATOM      7  O   UNL d   1       1.059   3.804   1.860  0.00  0.00    -0.216 OA
BRANCH   5   8
ATOM      8  C   UNL d   1       2.466   1.791   2.654  0.00  0.00     0.065 A 
ATOM      9  C   UNL d   1       3.611   2.117   1.917  0.00  0.00     0.025 A 
ATOM     10  C   UNL d   1       4.864   1.712   2.382  0.00  0.00     0.025 A 
ATOM     11  C   UNL d   1       4.967   1.003   3.580  0.00  0.00     0.034 A 
ATOM     12  C   UNL d   1       3.825   0.679   4.313  0.00  0.00     0.025 A 
ATOM     13 CL   UNL d   1       6.517   0.544   4.169  0.00  0.00    -0.084 Cl
ATOM     14  C   UNL d   1       2.567   1.072   3.851  0.00  0.00     0.025 A 
ENDBRANCH   5   8
ENDBRANCH   1   5
BRANCH   2  15
ATOM     15  N   UNL d   1      -0.657   1.759  -1.548  0.00  0.00    -0.385 N 
ATOM     16  C   UNL d   1      -1.113   0.384  -1.842  0.00  0.00     0.152 C 
ATOM     17  C   UNL d   1      -0.312  -0.192  -3.026  0.00  0.00     0.292 C 
ATOM     18  N   UNL d   1      -0.392   0.622  -4.266  0.00  0.00     0.095 N 
ATOM     19  C   UNL d   1       0.008   2.015  -3.929  0.00  0.00     0.292 C 
ATOM     20  C   UNL d   1      -0.737   2.654  -2.722  0.00  0.00     0.152 C 
BRANCH  18  21
ATOM     21  C   UNL d   1      -1.731   0.610  -4.880  0.00  0.00     0.311 C 
BRANCH  21  22
ATOM     22  C   UNL d   1      -2.256  -0.768  -5.225  0.00  0.00    -0.030 A 
ATOM     23  C   UNL d   1      -3.376  -1.288  -4.558  0.00  0.00     0.009 A 
ATOM     24  C   UNL d   1      -3.869  -2.554  -4.877  0.00  0.00     0.001 A 
ATOM     25  C   UNL d   1      -3.249  -3.312  -5.869  0.00  0.00     0.000 A 
ATOM     26  C   UNL d   1      -2.133  -2.808  -6.536  0.00  0.00     0.001 A 
ATOM     27  C   UNL d   1      -1.636  -1.544  -6.214  0.00  0.00     0.009 A 
ENDBRANCH  21  22
ENDBRANCH  18  21
ENDBRANCH   2  15
TORSDOF 5
