REMARK  8 active torsions:
REMARK  status: ('A' for Active; 'I' for Inactive)
REMARK    1  A    between atoms: C_2  and  C_1 
REMARK    2  A    between atoms: C_3  and  C_1 
REMARK    3  A    between atoms: N_4  and  C_1 
REMARK    4  A    between atoms: O_9  and  C_2 
REMARK    5  A    between atoms: O_8  and  C_3 
REMARK    6  A    between atoms: C_7  and  N_4 
REMARK    7  A    between atoms: C_17  and  O_8 
REMARK    8  A    between atoms: C_16  and  O_9 
ROOT
ATOM      1  C   UNL d   1       1.051  -0.068   0.130  0.00  0.00     0.261 C 
ENDROOT
BRANCH   1   2
ATOM      2  C   UNL d   1       0.605  -1.338   0.835  0.00  0.00     0.286 C 
ATOM      3  O   UNL d   1       1.288  -1.972   1.632  0.00  0.00    -0.263 OA
BRANCH   2   4
ATOM      4  O   UNL d   1      -0.620  -1.717   0.365  0.00  0.00    -0.320 OA
BRANCH   4   5
ATOM      5  C   UNL d   1      -0.996  -3.075   0.628  0.00  0.00     0.174 C 
ATOM      6  C   UNL d   1      -0.444  -3.942  -0.490  0.00  0.00     0.034 C 
ENDBRANCH   4   5
ENDBRANCH   2   4
ENDBRANCH   1   2
BRANCH   1   7
ATOM      7  C   UNL d   1       0.532   1.175   0.830  0.00  0.00     0.286 C 
ATOM      8  O   UNL d   1      -0.249   1.191   1.774  0.00  0.00    -0.263 OA
BRANCH   7   9
ATOM      9  O   UNL d   1       0.931   2.284   0.132  0.00  0.00    -0.320 OA
BRANCH   9  10
ATOM     10  C   UNL d   1       0.168   3.475   0.349  0.00  0.00     0.174 C 
ATOM     11  C   UNL d   1      -1.026   3.446  -0.590  0.00  0.00     0.034 C 
ENDBRANCH   9  10
ENDBRANCH   7   9
ENDBRANCH   1   7
BRANCH   1  12
ATOM     12  N   UNL d   1       2.538  -0.044  -0.013  0.00  0.00    -0.271 NA
ATOM     13  H   UNL d   1       2.967  -0.341   0.867  0.00  0.00     0.129 HD
BRANCH  12  14
ATOM     14  C   UNL d   1       3.125  -0.704  -1.103  0.00  0.00     0.009 A 
ATOM     15  C   UNL d   1       2.545  -0.763  -2.377  0.00  0.00     0.025 A 
ATOM     16  C   UNL d   1       3.214  -1.356  -3.455  0.00  0.00     0.025 A 
ATOM     17  C   UNL d   1       4.495  -1.864  -3.280  0.00  0.00     0.034 A 
ATOM     18  C   UNL d   1       5.113  -1.779  -2.038  0.00  0.00     0.025 A 
ATOM     19 CL   UNL d   1       5.325  -2.572  -4.609  0.00  0.00    -0.084 Cl
ATOM     20  C   UNL d   1       4.435  -1.190  -0.964  0.00  0.00     0.025 A 
ENDBRANCH  12  14
ENDBRANCH   1  12
TORSDOF 8
