REMARK  3 active torsions:
REMARK  status: ('A' for Active; 'I' for Inactive)
REMARK    1  A    between atoms: C_3  and  C_2 
REMARK    2  A    between atoms: C_16  and  N_4 
REMARK    3  A    between atoms: C_15  and  C_8 
ROOT
ATOM      1  C   UNL d   1      -1.263   0.138  -0.332  0.00  0.00     0.106 C 
ATOM      2  C   UNL d   1      -2.609   0.084  -0.515  0.00  0.00     0.122 C 
ATOM      3  N   UNL d   1      -0.326   1.203  -0.165  0.00  0.00    -0.303 N 
ATOM      4  S   UNL d   1      -0.376  -1.478  -0.283  0.00  0.00    -0.080 SA
ATOM      5  C   UNL d   1       1.008   0.712  -0.203  0.00  0.00     0.057 C 
ATOM      6  C   UNL d   1       1.130  -0.626  -0.269  0.00  0.00     0.082 C 
ATOM      7  C   UNL d   1      -3.477   1.214  -0.576  0.00  0.00     0.106 C 
ATOM      8  N   UNL d   1      -4.257   2.073  -0.631  0.00  0.00    -0.191 NA
ENDROOT
BRANCH   2   9
ATOM      9  C   UNL d   1      -3.266  -1.151  -0.821  0.00  0.00     0.130 A 
ATOM     10  N   UNL d   1      -3.405  -1.775  -1.972  0.00  0.00    -0.339 N 
ATOM     11  C   UNL d   1      -4.166  -2.886  -1.711  0.00  0.00     0.060 A 
ATOM     12  HN  UNL d   1      -3.023  -1.491  -2.874  1.00  0.00     0.167 HD
ATOM     13  C   UNL d   1      -4.615  -3.892  -2.578  0.00  0.00     0.032 A 
ATOM     14  C   UNL d   1      -4.506  -2.944  -0.365  0.00  0.00     0.060 A 
ATOM     15  C   UNL d   1      -5.399  -4.929  -2.056  0.00  0.00     0.002 A 
ATOM     16  C   UNL d   1      -5.724  -4.962  -0.696  0.00  0.00     0.002 A 
ATOM     17  C   UNL d   1      -5.283  -3.967   0.184  0.00  0.00     0.032 A 
ATOM     18  N   UNL d   1      -3.922  -1.828   0.182  0.00  0.00    -0.339 N 
ATOM     19  H   UNL d   1      -3.974  -1.558   1.152  0.00  0.00     0.167 HD
ENDBRANCH   2   9
BRANCH   3  20
ATOM     20  C   UNL d   1      -0.622   2.511   0.338  0.00  0.00     0.040 A 
ATOM     21  C   UNL d   1      -0.002   2.994   1.508  0.00  0.00     0.030 A 
ATOM     22  C   UNL d   1      -0.217   4.298   1.966  0.00  0.00     0.002 A 
ATOM     23  C   UNL d   1      -1.090   5.139   1.285  0.00  0.00     0.000 A 
ATOM     24  C   UNL d   1      -1.705   4.689   0.121  0.00  0.00     0.002 A 
ATOM     25  C   UNL d   1      -1.438   3.405  -0.367  0.00  0.00     0.030 A 
ENDBRANCH   3  20
BRANCH   5  26
ATOM     26  C   UNL d   1       2.210   1.575  -0.325  0.00  0.00    -0.008 A 
ATOM     27  C   UNL d   1       2.183   2.738  -1.110  0.00  0.00     0.015 A 
ATOM     28  C   UNL d   1       3.307   3.562  -1.223  0.00  0.00     0.024 A 
ATOM     29  C   UNL d   1       4.488   3.211  -0.578  0.00  0.00     0.034 A 
ATOM     30  C   UNL d   1       4.552   2.048   0.183  0.00  0.00     0.024 A 
ATOM     31 CL   UNL d   1       5.875   4.217  -0.724  0.00  0.00    -0.084 Cl
ATOM     32  C   UNL d   1       3.416   1.240   0.317  0.00  0.00     0.015 A 
ENDBRANCH   5  26
TORSDOF 3
