REMARK  2 active torsions:
REMARK  status: ('A' for Active; 'I' for Inactive)
REMARK    1  A    between atoms: C_2  and  C_1 
REMARK       I    between atoms: N_4  and  C_2 
REMARK    2  A    between atoms: C_8  and  C_3 
ROOT
ATOM      1  C   UNL d   1       0.194  -2.739  -0.019  0.00  0.00     0.263 C 
ATOM      2  N   UNL d   1      -0.518  -3.924  -0.350  0.00  0.00    -0.307 N 
ATOM      3  C   UNL d   1      -0.194  -5.143   0.405  0.00  0.00     0.098 C 
ATOM      4  N   UNL d   1      -3.148  -5.389   0.040  0.00  0.00    -0.325 N 
ATOM      5  C   UNL d   1      -1.528  -4.035  -1.347  0.00  0.00     0.064 A 
ATOM      6  C   UNL d   1      -2.548  -5.707   1.212  0.00  0.00     0.224 C 
ATOM      7  C   UNL d   1      -1.148  -5.317   1.564  0.00  0.00     0.128 C 
ATOM      8  C   UNL d   1      -2.740  -4.725  -1.131  0.00  0.00     0.061 A 
ATOM      9  O   UNL d   1       1.137  -2.773   0.772  0.00  0.00    -0.267 OA
ATOM     10  O   UNL d   1      -3.232  -6.326   2.039  0.00  0.00    -0.273 OA
ATOM     11  C   UNL d   1      -0.002  -6.399  -0.459  0.00  0.00     0.033 C 
ATOM     12  C   UNL d   1      -1.289  -3.466  -2.612  0.00  0.00     0.032 A 
ATOM     13  C   UNL d   1      -3.696  -4.754  -2.166  0.00  0.00     0.032 A 
ATOM     14  C   UNL d   1      -2.244  -3.520  -3.628  0.00  0.00     0.002 A 
ATOM     15  C   UNL d   1      -3.455  -4.154  -3.401  0.00  0.00     0.002 A 
ATOM     16  H   UNL d   1      -4.087  -5.774   0.031  0.00  0.00     0.169 HD
ENDROOT
BRANCH   1  17
ATOM     17  C   UNL d   1      -0.179  -1.459  -0.603  0.00  0.00     0.093 C 
ATOM     18  C   UNL d   1       0.688  -0.427  -1.109  0.00  0.00     0.085 C 
ATOM     19  N   UNL d   1      -0.047   0.564  -1.637  0.00  0.00    -0.259 N 
ATOM     20  O   UNL d   1      -1.355   0.293  -1.335  0.00  0.00    -0.241 OA
ATOM     21  HN  UNL d   1       0.301   1.366  -2.163  1.00  0.00     0.195 HD
ATOM     22  C   UNL d   1      -1.439  -0.890  -0.677  0.00  0.00     0.090 C 
ATOM     23  C   UNL d   1      -2.795  -1.246  -0.219  0.00  0.00     0.080 C 
BRANCH  18  24
ATOM     24  C   UNL d   1       2.157  -0.367  -1.178  0.00  0.00     0.015 A 
ATOM     25  C   UNL d   1       2.883   0.812  -0.907  0.00  0.00     0.046 A 
ATOM     26 CL   UNL d   1       2.152   2.285  -0.358  0.00  0.00    -0.083 Cl
ATOM     27  C   UNL d   1       4.280   0.837  -1.035  0.00  0.00     0.025 A 
ATOM     28  C   UNL d   1       4.977  -0.310  -1.405  0.00  0.00     0.002 A 
ATOM     29  C   UNL d   1       4.279  -1.487  -1.652  0.00  0.00     0.001 A 
ATOM     30  C   UNL d   1       2.883  -1.514  -1.549  0.00  0.00     0.015 A 
ENDBRANCH  18  24
ENDBRANCH   1  17
TORSDOF 2
