REMARK  4 active torsions:
REMARK  status: ('A' for Active; 'I' for Inactive)
REMARK    1  A    between atoms: C_2  and  C_1 
REMARK       I    between atoms: N_5  and  C_1 
REMARK    2  A    between atoms: C_3  and  C_10 
REMARK    3  A    between atoms: C_13  and  C_4 
REMARK    4  A    between atoms: C_11  and  N_5 
ROOT
ATOM      1  C   UNL d   1       0.376  -1.196   0.313  0.00  0.00     0.049 A 
ATOM      2  N   UNL d   1      -1.395  -2.770  -0.210  0.00  0.00    -0.373 N 
ATOM      3  HN  UNL d   1      -2.165  -3.070  -0.808  1.00  0.00     0.164 HD
ATOM      4  C   UNL d   1       0.751  -1.959   1.422  0.00  0.00     0.040 A 
ATOM      5  C   UNL d   1       0.039  -3.125   1.708  0.00  0.00     0.034 A 
ATOM      6  C   UNL d   1      -0.694  -1.638  -0.461  0.00  0.00     0.104 A 
ATOM      7  C   UNL d   1      -1.018  -3.481   0.877  0.00  0.00     0.108 A 
ENDROOT
BRANCH   1   8
ATOM      8  C   UNL d   1       0.979   0.113  -0.020  0.00  0.00     0.257 C 
ATOM      9  N   UNL d   1       2.314   0.287   0.311  0.00  0.00    -0.323 N 
ATOM     10  H   UNL d   1       2.856  -0.536   0.539  0.00  0.00     0.169 HD
ATOM     11  O   UNL d   1       0.265   0.935  -0.582  0.00  0.00    -0.267 OA
BRANCH   9  12
ATOM     12  C   UNL d   1       3.016   1.514   0.277  0.00  0.00     0.035 A 
ATOM     13  C   UNL d   1       2.379   2.754   0.162  0.00  0.00     0.031 A 
ATOM     14  C   UNL d   1       3.113   3.944   0.208  0.00  0.00     0.026 A 
ATOM     15  C   UNL d   1       4.493   3.898   0.364  0.00  0.00     0.034 A 
ATOM     16  C   UNL d   1       5.146   2.672   0.459  0.00  0.00     0.026 A 
ATOM     17 CL   UNL d   1       5.391   5.362   0.459  0.00  0.00    -0.084 Cl
ATOM     18  C   UNL d   1       4.408   1.482   0.422  0.00  0.00     0.031 A 
ENDBRANCH   9  12
ENDBRANCH   1   8
BRANCH   5  19
ATOM     19  C   UNL d   1       0.373  -3.943   2.829  0.00  0.00    -0.060 C 
ATOM     20  C   UNL d   1       0.612  -4.689   3.739  0.00  0.00    -0.061 C 
BRANCH  20  21
ATOM     21  C   UNL d   1       0.857  -5.632   4.787  0.00  0.00     0.018 A 
ATOM     22  C   UNL d   1       0.725  -6.999   4.527  0.00  0.00     0.020 A 
ATOM     23  C   UNL d   1       0.947  -7.928   5.544  0.00  0.00     0.001 A 
ATOM     24  C   UNL d   1       1.299  -7.492   6.821  0.00  0.00     0.000 A 
ATOM     25  C   UNL d   1       1.431  -6.128   7.081  0.00  0.00     0.001 A 
ATOM     26  C   UNL d   1       1.209  -5.196   6.064  0.00  0.00     0.020 A 
ENDBRANCH  20  21
ENDBRANCH   5  19
TORSDOF 4
