REMARK  4 active torsions:
REMARK  status: ('A' for Active; 'I' for Inactive)
REMARK    1  A    between atoms: C_16  and  N_5 
REMARK    2  A    between atoms: C_13  and  C_9 
REMARK    3  A    between atoms: O_19  and  C_13 
REMARK    4  A    between atoms: C_22  and  O_19 
ROOT
ATOM      1  N   UNL d   1      -0.673   1.191   0.042  0.00  0.00    -0.270 N 
ATOM      2  C   UNL d   1       1.442  -0.025  -0.048  0.00  0.00     0.082 A 
ATOM      3  C   UNL d   1      -1.417   0.008   0.061  0.00  0.00     0.335 A 
ATOM      4  C   UNL d   1       0.705   1.264  -0.070  0.00  0.00     0.265 A 
ATOM      5  N   UNL d   1      -0.662  -1.181  -0.010  0.00  0.00    -0.274 N 
ATOM      6  C   UNL d   1       2.870  -0.088  -0.056  0.00  0.00     0.091 A 
ATOM      7  N   UNL d   1       3.598  -1.011  -0.668  0.00  0.00    -0.344 N 
ATOM      8  HN  UNL d   1       3.209  -1.815  -1.160  1.00  0.00     0.167 HD
ATOM      9  C   UNL d   1       4.967  -0.744  -0.554  0.00  0.00     0.115 A 
ATOM     10  C   UNL d   1       0.722  -1.154  -0.075  0.00  0.00     0.122 A 
ATOM     11  S   UNL d   1       3.832   1.044   0.846  0.00  0.00    -0.081 SA
ATOM     12  C   UNL d   1       5.262   0.352   0.232  0.00  0.00     0.087 A 
ATOM     13  O   UNL d   1      -2.649   0.033   0.089  0.00  0.00    -0.246 OA
ATOM     14  O   UNL d   1       1.294   2.335  -0.214  0.00  0.00    -0.267 OA
ATOM     15  C   UNL d   1      -1.392   2.452   0.019  0.00  0.00     0.164 C 
ENDROOT
BRANCH   5  16
ATOM     16  C   UNL d   1      -1.370  -2.428  -0.015  0.00  0.00     0.043 A 
ATOM     17  C   UNL d   1      -1.081  -3.411  -0.971  0.00  0.00     0.030 A 
ATOM     18  C   UNL d   1      -1.826  -4.594  -1.013  0.00  0.00     0.002 A 
ATOM     19  C   UNL d   1      -2.832  -4.825  -0.076  0.00  0.00     0.000 A 
ATOM     20  C   UNL d   1      -3.102  -3.872   0.903  0.00  0.00     0.002 A 
ATOM     21  C   UNL d   1      -2.382  -2.676   0.925  0.00  0.00     0.030 A 
ENDBRANCH   5  16
BRANCH   9  22
ATOM     22  C   UNL d   1       5.985  -1.512  -1.267  0.00  0.00     0.310 C 
ATOM     23  O   UNL d   1       7.177  -1.211  -1.265  0.00  0.00    -0.258 OA
BRANCH  22  24
ATOM     24  O   UNL d   1       5.446  -2.531  -1.996  0.00  0.00    -0.317 OA
BRANCH  24  25
ATOM     25  C   UNL d   1       6.271  -3.037  -3.049  0.00  0.00     0.175 C 
ATOM     26  C   UNL d   1       6.020  -2.193  -4.287  0.00  0.00     0.034 C 
ENDBRANCH  24  25
ENDBRANCH  22  24
ENDBRANCH   9  22
TORSDOF 4
