REMARK  4 active torsions:
REMARK  status: ('A' for Active; 'I' for Inactive)
REMARK       I    between atoms: N_2  and  C_1 
REMARK       I    between atoms: N_3  and  C_1 
REMARK       I    between atoms: C_4  and  N_2 
REMARK    1  A    between atoms: C_8  and  N_2 
REMARK    2  A    between atoms: C_5  and  N_3 
REMARK    3  A    between atoms: C_9  and  C_4 
REMARK    4  A    between atoms: C_14  and  C_8 
ROOT
ATOM      1  N   UNL d   1      -2.359   3.257   1.903  0.00  0.00    -0.197 NA
ATOM      2  C   UNL d   1      -2.018   2.281   2.434  0.00  0.00     0.068 C 
ATOM      3  C   UNL d   1      -1.561   1.077   3.114  0.00  0.00     0.227 C 
ENDROOT
BRANCH   3   4
ATOM      4  C   UNL d   1      -0.869   0.168   2.127  0.00  0.00     0.241 C 
ATOM      5  N   UNL d   1       0.472   0.360   1.788  0.00  0.00    -0.265 N 
ATOM      6  C   UNL d   1       0.974  -0.044   0.527  0.00  0.00     0.330 C 
ATOM      7  N   UNL d   1       0.275  -1.075  -0.077  0.00  0.00    -0.307 N 
ATOM      8  O   UNL d   1       1.933   0.530   0.013  0.00  0.00    -0.246 OA
ATOM      9  H   UNL d   1      -0.678  -1.167   0.257  0.00  0.00     0.170 HD
ATOM     10  O   UNL d   1      -1.543  -0.749   1.634  0.00  0.00    -0.272 OA
BRANCH   5  11
ATOM     11  C   UNL d   1       1.352   1.286   2.527  0.00  0.00     0.175 C 
BRANCH  11  12
ATOM     12  C   UNL d   1       1.581   0.855   3.963  0.00  0.00    -0.040 A 
ATOM     13  C   UNL d   1       2.078  -0.423   4.257  0.00  0.00     0.009 A 
ATOM     14  C   UNL d   1       2.152  -0.863   5.579  0.00  0.00     0.001 A 
ATOM     15  C   UNL d   1       1.738  -0.030   6.618  0.00  0.00     0.000 A 
ATOM     16  C   UNL d   1       1.313   1.267   6.343  0.00  0.00     0.001 A 
ATOM     17  C   UNL d   1       1.265   1.719   5.024  0.00  0.00     0.009 A 
ENDBRANCH  11  12
ENDBRANCH   5  11
BRANCH   7  18
ATOM     18  C   UNL d   1       0.580  -1.729  -1.296  0.00  0.00     0.048 C 
ATOM     19  C   UNL d   1       1.905  -2.015  -1.698  0.00  0.00    -0.035 C 
ATOM     20  C   UNL d   1       2.143  -2.563  -2.974  0.00  0.00     0.009 C 
ATOM     21  C   UNL d   1       3.117  -1.865  -0.817  0.00  0.00     0.050 C 
ATOM     22  C   UNL d   1       1.095  -2.905  -3.817  0.00  0.00     0.001 C 
ATOM     23  C   UNL d   1      -0.211  -2.732  -3.380  0.00  0.00     0.009 C 
ATOM     24  C   UNL d   1      -0.490  -2.170  -2.118  0.00  0.00    -0.035 C 
ATOM     25  C   UNL d   1      -1.956  -2.051  -1.781  0.00  0.00     0.050 C 
ENDBRANCH   7  18
ENDBRANCH   3   4
TORSDOF 4
