REMARK  2 active torsions:
REMARK  status: ('A' for Active; 'I' for Inactive)
REMARK    1  A    between atoms: C_2  and  S_1 
REMARK    2  A    between atoms: N_3  and  S_1 
ROOT
ATOM      1  C   UNL d   1       0.607  -1.423   1.152  0.00  0.00     0.098 A 
ATOM      2  C   UNL d   1       0.287  -2.637   0.522  0.00  0.00     0.052 A 
ATOM      3  C   UNL d   1       0.362  -1.254   2.516  0.00  0.00     0.058 A 
ATOM      4  C   UNL d   1      -0.225  -2.298   3.241  0.00  0.00     0.051 A 
ATOM      5  C   UNL d   1      -0.297  -3.675   1.251  0.00  0.00     0.057 A 
ATOM      6  C   UNL d   1      -0.559  -3.502   2.614  0.00  0.00     0.057 A 
ATOM      7 CL   UNL d   1       0.725   0.186   3.394  0.00  0.00    -0.083 Cl
ATOM      8 CL   UNL d   1      -0.677  -5.134   0.411  0.00  0.00    -0.083 Cl
ATOM      9 CL   UNL d   1      -1.300  -4.730   3.576  0.00  0.00    -0.082 Cl
ENDROOT
BRANCH   1  10
ATOM     10  S   UNL d   1       1.327  -0.138   0.169  0.00  0.00     0.245 S 
ATOM     11  O   UNL d   1       1.301  -0.576  -1.212  0.00  0.00    -0.206 OA
ATOM     12  O   UNL d   1       2.578   0.234   0.792  0.00  0.00    -0.206 OA
BRANCH  10  13
ATOM     13  N   UNL d   1       0.220   1.143   0.312  0.00  0.00    -0.202 NA
ATOM     14  C   UNL d   1      -1.139   0.958  -0.287  0.00  0.00     0.134 C 
ATOM     15  C   UNL d   1      -1.150   1.271  -1.790  0.00  0.00     0.183 C 
ATOM     16  O   UNL d   1      -0.629   2.580  -2.059  0.00  0.00    -0.389 OA
ATOM     17  C   UNL d   1       0.715   2.704  -1.571  0.00  0.00     0.183 C 
ATOM     18  C   UNL d   1       0.760   2.491  -0.055  0.00  0.00     0.134 C 
ENDBRANCH  10  13
ENDBRANCH   1  10
TORSDOF 2
