REMARK  5 active torsions:
REMARK  status: ('A' for Active; 'I' for Inactive)
REMARK    1  A    between atoms: C_9  and  C_3 
REMARK    2  A    between atoms: O_14  and  C_4 
REMARK       I    between atoms: N_13  and  C_9 
REMARK    3  A    between atoms: C_17  and  N_13 
REMARK    4  A    between atoms: C_15  and  C_16 
REMARK    5  A    between atoms: C_16  and  C_17 
ROOT
ATOM      1  N   UNL d   1       1.220   1.310   0.115  0.00  0.00    -0.318 N 
ATOM      2  HN  UNL d   1       1.153   2.328   0.094  1.00  0.00     0.169 HD
ATOM      3  C   UNL d   1       2.392   0.655   0.051  0.00  0.00     0.177 A 
ATOM      4  C   UNL d   1       0.154   0.517   0.207  0.00  0.00     0.154 A 
ATOM      5  N   UNL d   1       2.563  -0.690   0.071  0.00  0.00    -0.337 N 
ATOM      6  HN  UNL d   1       3.489  -1.114   0.011  1.00  0.00     0.167 HD
ATOM      7  C   UNL d   1       0.172  -0.871   0.248  0.00  0.00     0.042 A 
ATOM      8  C   UNL d   1       1.451  -1.435   0.174  0.00  0.00     0.048 A 
ATOM      9  C   UNL d   1      -0.977  -1.686   0.358  0.00  0.00     0.018 A 
ATOM     10  C   UNL d   1       1.547  -2.822   0.218  0.00  0.00     0.030 A 
ATOM     11  C   UNL d   1      -0.850  -3.070   0.402  0.00  0.00     0.001 A 
ATOM     12  C   UNL d   1       0.415  -3.640   0.333  0.00  0.00     0.002 A 
ENDROOT
BRANCH   3  13
ATOM     13  C   UNL d   1       3.647   1.497  -0.038  0.00  0.00     0.285 C 
ATOM     14  O   UNL d   1       3.619   2.723   0.031  0.00  0.00    -0.264 OA
ATOM     15  N   UNL d   1       4.828   0.785  -0.193  0.00  0.00    -0.354 N 
ATOM     16  H   UNL d   1       4.766  -0.229  -0.178  0.00  0.00     0.162 HD
BRANCH  15  17
ATOM     17  C   UNL d   1       6.124   1.438  -0.247  0.00  0.00     0.129 C 
BRANCH  17  18
ATOM     18  C   UNL d   1       6.685   1.715   1.146  0.00  0.00     0.076 C 
BRANCH  18  19
ATOM     19  C   UNL d   1       7.992   2.461   1.087  0.00  0.00     0.010 A 
ATOM     20  N   UNL d   1       9.124   1.721   0.988  0.00  0.00    -0.369 N 
ATOM     21  C   UNL d   1      10.301   2.387   0.961  0.00  0.00     0.088 A 
ATOM     22  HN  UNL d   1       9.089   0.703   0.935  1.00  0.00     0.165 HD
ATOM     23  C   UNL d   1      10.409   3.765   1.020  0.00  0.00     0.017 A 
ATOM     24  C   UNL d   1       9.239   4.510   1.105  0.00  0.00     0.003 A 
ATOM     25  C   UNL d   1       8.013   3.853   1.136  0.00  0.00     0.025 A 
ENDBRANCH  18  19
ENDBRANCH  17  18
ENDBRANCH  15  17
ENDBRANCH   3  13
BRANCH   4  26
ATOM     26  O   UNL d   1      -1.017   1.208   0.268  0.00  0.00    -0.345 OA
ATOM     27  H   UNL d   1      -0.689   2.125   0.223  0.00  0.00     0.219 HD
ENDBRANCH   4  26
TORSDOF 5
