REMARK  4 active torsions:
REMARK  status: ('A' for Active; 'I' for Inactive)
REMARK    1  A    between atoms: C_4  and  C_1 
REMARK    2  A    between atoms: C_9  and  C_3 
REMARK       I    between atoms: N_8  and  C_4 
REMARK    3  A    between atoms: C_7  and  C_10 
REMARK    4  A    between atoms: C_17  and  N_8 
ROOT
ATOM      1  C   UNL d   1      -2.773  -1.290  -0.055  0.00  0.00     0.258 C 
ATOM      2  N   UNL d   1      -3.949  -0.558  -0.014  0.00  0.00    -0.323 N 
ATOM      3  O   UNL d   1      -2.725  -2.508  -0.178  0.00  0.00    -0.267 OA
ATOM      4  H   UNL d   1      -3.884   0.439  -0.146  0.00  0.00     0.169 HD
ENDROOT
BRANCH   1   5
ATOM      5  C   UNL d   1      -1.509  -0.549   0.029  0.00  0.00     0.064 A 
ATOM      6  C   UNL d   1      -0.231  -1.168  -0.201  0.00  0.00     0.053 A 
ATOM      7  C   UNL d   1       0.742  -0.220   0.011  0.00  0.00     0.062 A 
ATOM      8  O   UNL d   1       0.143   0.953   0.352  0.00  0.00    -0.318 OA
ATOM      9  C   UNL d   1      -1.207   0.755   0.397  0.00  0.00     0.065 A 
ATOM     10  C   UNL d   1      -1.944   1.952   0.855  0.00  0.00     0.077 C 
BRANCH   7  11
ATOM     11  C   UNL d   1       2.247  -0.212  -0.045  0.00  0.00    -0.002 C 
ATOM     12  C   UNL d   1       2.806  -1.623  -0.307  0.00  0.00     0.021 C 
ATOM     13  C   UNL d   1       2.707   0.719  -1.180  0.00  0.00     0.021 C 
ATOM     14  C   UNL d   1       2.815   0.292   1.295  0.00  0.00     0.021 C 
ENDBRANCH   7  11
ENDBRANCH   1   5
BRANCH   2  15
ATOM     15  C   UNL d   1      -5.242  -1.094   0.220  0.00  0.00     0.035 A 
ATOM     16  C   UNL d   1      -5.468  -2.422   0.593  0.00  0.00     0.030 A 
ATOM     17  C   UNL d   1      -6.735  -2.857   0.997  0.00  0.00     0.018 A 
ATOM     18  C   UNL d   1      -7.814  -1.969   1.035  0.00  0.00     0.048 A 
ATOM     19  C   UNL d   1      -7.618  -0.663   0.561  0.00  0.00     0.018 A 
ATOM     20  C   UNL d   1      -6.342  -0.228   0.164  0.00  0.00     0.030 A 
BRANCH  18  21
ATOM     21  C   UNL d   1      -9.133  -2.385   1.641  0.00  0.00     0.417 C 
ATOM     22  F   UNL d   1      -9.114  -3.634   2.185  0.00  0.00    -0.166 F 
ATOM     23  F   UNL d   1      -9.515  -1.551   2.650  0.00  0.00    -0.166 F 
ATOM     24  F   UNL d   1     -10.157  -2.381   0.745  0.00  0.00    -0.166 F 
ENDBRANCH  18  21
ENDBRANCH   2  15
TORSDOF 4
