REMARK  6 active torsions:
REMARK  status: ('A' for Active; 'I' for Inactive)
REMARK    1  A    between atoms: C_3  and  C_1 
REMARK    2  A    between atoms: N_2  and  C_5 
REMARK    3  A    between atoms: C_4  and  C_10 
REMARK    4  A    between atoms: O_8  and  C_4 
REMARK    5  A    between atoms: C_21  and  O_8 
REMARK    6  A    between atoms: O_27  and  C_22 
ROOT
ATOM      1  N   UNL d   1      -0.111   3.462  -4.179  0.00  0.00    -0.367 N 
ATOM      2  C   UNL d   1      -0.804   6.128  -5.051  0.00  0.00     0.089 C 
ATOM      3  C   UNL d   1       0.936   4.288  -4.770  0.00  0.00     0.125 C 
ATOM      4  C   UNL d   1      -1.512   3.784  -4.426  0.00  0.00     0.125 C 
ATOM      5  C   UNL d   1       0.634   5.782  -4.648  0.00  0.00     0.034 C 
ATOM      6  C   UNL d   1      -1.754   5.277  -4.198  0.00  0.00     0.034 C 
ENDROOT
BRANCH   1   7
ATOM      7  C   UNL d   1       0.193   2.600  -3.141  0.00  0.00     0.102 A 
ATOM      8  C   UNL d   1      -0.474   1.378  -3.033  0.00  0.00     0.049 A 
ATOM      9  C   UNL d   1      -0.202   0.516  -1.973  0.00  0.00     0.021 A 
ATOM     10  C   UNL d   1       0.737   0.889  -1.015  0.00  0.00     0.063 A 
ATOM     11  C   UNL d   1       1.369   2.108  -1.197  0.00  0.00     0.106 A 
ATOM     12  N   UNL d   1       1.130   2.950  -2.236  0.00  0.00    -0.352 N 
ATOM     13  HN  UNL d   1       1.646   3.825  -2.329  1.00  0.00     0.166 HD
BRANCH  10  14
ATOM     14  C   UNL d   1       1.048   0.011   0.154  0.00  0.00     0.418 C 
ATOM     15  F   UNL d   1       1.980   0.531   1.000  0.00  0.00    -0.166 F 
ATOM     16  F   UNL d   1       1.525  -1.208  -0.222  0.00  0.00    -0.166 F 
ATOM     17  F   UNL d   1      -0.049  -0.242   0.921  0.00  0.00    -0.166 F 
ENDBRANCH  10  14
ENDBRANCH   1   7
BRANCH   2  18
ATOM     18  C   UNL d   1      -1.111   5.928  -6.537  0.00  0.00     0.268 C 
ATOM     19  O   UNL d   1      -2.177   5.487  -6.952  0.00  0.00    -0.264 OA
BRANCH  18  20
ATOM     20  O   UNL d   1      -0.047   6.365  -7.330  0.00  0.00    -0.279 OA
BRANCH  20  21
ATOM     21  C   UNL d   1      -0.103   6.140  -8.717  0.00  0.00     0.079 A 
ATOM     22  C   UNL d   1      -1.236   6.403  -9.489  0.00  0.00     0.040 A 
ATOM     23  C   UNL d   1      -1.236   6.097 -10.854  0.00  0.00     0.039 A 
ATOM     24  C   UNL d   1      -0.100   5.552 -11.454  0.00  0.00     0.068 A 
ATOM     25  C   UNL d   1       1.056   5.369 -10.688  0.00  0.00     0.039 A 
ATOM     26  C   UNL d   1       1.060   5.663  -9.321  0.00  0.00     0.040 A 
BRANCH  24  27
ATOM     27  O   UNL d   1       0.007   5.167 -12.763  0.00  0.00    -0.356 OA
ATOM     28  C   UNL d   1      -1.208   5.069 -13.498  0.00  0.00     0.210 C 
ENDBRANCH  24  27
ENDBRANCH  20  21
ENDBRANCH  18  20
ENDBRANCH   2  18
TORSDOF 6
