REMARK  4 active torsions:
REMARK  status: ('A' for Active; 'I' for Inactive)
REMARK    1  A    between atoms: N_3  and  S_1 
REMARK    2  A    between atoms: C_16  and  S_1 
REMARK       I    between atoms: C_5  and  N_3 
REMARK    3  A    between atoms: C_4  and  N_11 
REMARK       I    between atoms: N_10  and  C_5 
REMARK    4  A    between atoms: C_21  and  C_6 
ROOT
ATOM      1  N   UNL d   1       1.167  -1.029   1.762  0.00  0.00    -0.232 N 
ATOM      2  C   UNL d   1       0.741  -2.240   1.244  0.00  0.00     0.332 C 
ATOM      3  N   UNL d   1       1.584  -2.854   0.337  0.00  0.00    -0.332 N 
ATOM      4  N   UNL d   1       3.720  -4.857  -0.235  0.00  0.00    -0.365 N 
ATOM      5  O   UNL d   1      -0.313  -2.759   1.612  0.00  0.00    -0.246 OA
ATOM      6  C   UNL d   1       1.290  -4.214  -0.135  0.00  0.00     0.147 C 
ATOM      7  C   UNL d   1       2.370  -5.253   0.221  0.00  0.00     0.144 C 
ATOM      8  C   UNL d   1       4.004  -2.425   0.410  0.00  0.00     0.040 C 
ATOM      9  C   UNL d   1       2.706  -2.191  -0.316  0.00  0.00     0.129 C 
ATOM     10  C   UNL d   1       4.420  -3.874   0.567  0.00  0.00     0.126 C 
ATOM     11  H   UNL d   1       2.113  -0.697   1.653  0.00  0.00     0.183 HD
ENDROOT
BRANCH   4  12
ATOM     12  C   UNL d   1       4.353  -5.705  -1.138  0.00  0.00     0.118 A 
ATOM     13  C   UNL d   1       5.743  -6.081  -1.234  0.00  0.00     0.053 A 
ATOM     14  C   UNL d   1       6.976  -5.933  -0.425  0.00  0.00    -0.003 A 
ATOM     15  C   UNL d   1       6.065  -6.803  -2.389  0.00  0.00     0.089 A 
ATOM     16  C   UNL d   1       8.092  -6.410  -1.093  0.00  0.00     0.065 A 
ATOM     17  S   UNL d   1       7.724  -7.120  -2.586  0.00  0.00    -0.082 SA
ATOM     18  N   UNL d   1       5.237  -7.242  -3.348  0.00  0.00    -0.346 N 
ATOM     19  C   UNL d   1       3.977  -6.924  -3.117  0.00  0.00     0.182 A 
ATOM     20  HN  UNL d   1       5.548  -7.765  -4.166  1.00  0.00     0.167 HD
ATOM     21  N   UNL d   1       3.511  -6.199  -2.096  0.00  0.00    -0.338 N 
ATOM     22  HN  UNL d   1       2.511  -6.012  -2.030  1.00  0.00     0.168 HD
BRANCH  14  23
ATOM     23  C   UNL d   1       7.188  -5.335   0.903  0.00  0.00    -0.024 C 
ATOM     24  C   UNL d   1       6.336  -5.635   1.972  0.00  0.00     0.012 C 
ATOM     25  C   UNL d   1       6.343  -4.834   3.123  0.00  0.00     0.001 C 
ATOM     26  C   UNL d   1       7.258  -3.789   3.249  0.00  0.00     0.000 C 
ATOM     27  C   UNL d   1       8.201  -3.573   2.249  0.00  0.00     0.001 C 
ATOM     28  C   UNL d   1       8.165  -4.337   1.080  0.00  0.00     0.012 C 
ENDBRANCH  14  23
ENDBRANCH   4  12
BRANCH   1  29
ATOM     29  S   UNL d   1       0.210   0.048   2.591  0.00  0.00     0.266 S 
ATOM     30  O   UNL d   1      -0.962   0.348   1.798  0.00  0.00    -0.200 OA
ATOM     31  O   UNL d   1       1.110   1.112   2.993  0.00  0.00    -0.200 OA
BRANCH  29  32
ATOM     32  C   UNL d   1      -0.279  -0.813   4.061  0.00  0.00     0.080 A 
ATOM     33  C   UNL d   1       0.538  -0.765   5.192  0.00  0.00     0.026 A 
ATOM     34  C   UNL d   1       0.103  -1.354   6.381  0.00  0.00     0.008 A 
ATOM     35  C   UNL d   1      -1.147  -1.984   6.448  0.00  0.00    -0.062 A 
ATOM     36  C   UNL d   1      -1.955  -2.030   5.305  0.00  0.00     0.008 A 
ATOM     37  C   UNL d   1      -1.617  -2.567   7.749  0.00  0.00     0.048 C 
ATOM     38  C   UNL d   1      -1.528  -1.438   4.115  0.00  0.00     0.026 A 
ENDBRANCH  29  32
ENDBRANCH   1  29
TORSDOF 4
