REMARK  5 active torsions:
REMARK  status: ('A' for Active; 'I' for Inactive)
REMARK    1  A    between atoms: C_12  and  N_1 
REMARK    2  A    between atoms: C_7  and  C_3 
REMARK    3  A    between atoms: N_9  and  C_16 
REMARK    4  A    between atoms: C_14  and  C_12 
REMARK    5  A    between atoms: C_16  and  C_14 
ROOT
ATOM      1  N   UNL d   1       2.102  -0.237   0.306  0.00  0.00    -0.325 N 
ATOM      2  C   UNL d   1       1.191   0.774   0.016  0.00  0.00     0.257 C 
ATOM      3  C   UNL d   1       1.759  -1.616  -0.044  0.00  0.00     0.215 C 
ATOM      4  N   UNL d   1       0.393  -1.915   0.380  0.00  0.00    -0.265 NA
ATOM      5  C   UNL d   1      -0.232   0.393  -0.075  0.00  0.00     0.053 A 
ATOM      6  C   UNL d   1      -0.573  -0.951   0.087  0.00  0.00     0.026 A 
ATOM      7  O   UNL d   1       1.510   1.956  -0.125  0.00  0.00    -0.267 OA
ATOM      8  C   UNL d   1      -1.217   1.376  -0.240  0.00  0.00     0.019 A 
ATOM      9  C   UNL d   1      -1.932  -1.288   0.139  0.00  0.00     0.024 A 
ATOM     10  C   UNL d   1      -2.564   1.021  -0.207  0.00  0.00     0.001 A 
ATOM     11  C   UNL d   1      -2.921  -0.311  -0.015  0.00  0.00     0.002 A 
ATOM     12  H   UNL d   1       0.116  -2.849   0.086  0.00  0.00     0.130 HD
ENDROOT
BRANCH   1  13
ATOM     13  C   UNL d   1       3.508   0.144   0.479  0.00  0.00     0.130 C 
BRANCH  13  14
ATOM     14  C   UNL d   1       4.402  -0.022  -0.755  0.00  0.00     0.050 C 
BRANCH  14  15
ATOM     15  C   UNL d   1       3.984   0.910  -1.893  0.00  0.00     0.274 C 
BRANCH  15  16
ATOM     16  N   UNL d   1       4.763   0.751  -3.133  0.00  0.00     0.092 N 
ATOM     17  C   UNL d   1       4.230   1.664  -4.176  0.00  0.00     0.298 C 
ATOM     18  C   UNL d   1       4.585   3.143  -3.936  0.00  0.00     0.198 C 
ATOM     19  O   UNL d   1       6.005   3.322  -3.854  0.00  0.00    -0.388 OA
ATOM     20  C   UNL d   1       6.560   2.512  -2.809  0.00  0.00     0.198 C 
ATOM     21  C   UNL d   1       6.208   1.026  -2.993  0.00  0.00     0.298 C 
ENDBRANCH  15  16
ENDBRANCH  14  15
ENDBRANCH  13  14
ENDBRANCH   1  13
BRANCH   3  22
ATOM     22  C   UNL d   1       2.684  -2.679   0.565  0.00  0.00     0.047 A 
ATOM     23  N   UNL d   1       3.383  -3.479  -0.286  0.00  0.00    -0.366 N 
ATOM     24  C   UNL d   1       4.248  -4.362   0.259  0.00  0.00     0.088 A 
ATOM     25  HN  UNL d   1       3.258  -3.414  -1.297  1.00  0.00     0.165 HD
ATOM     26  C   UNL d   1       4.456  -4.498   1.621  0.00  0.00     0.017 A 
ATOM     27  C   UNL d   1       3.717  -3.698   2.482  0.00  0.00     0.003 A 
ATOM     28  C   UNL d   1       2.811  -2.787   1.953  0.00  0.00     0.028 A 
ENDBRANCH   3  22
TORSDOF 5
