REMARK  6 active torsions:
REMARK  status: ('A' for Active; 'I' for Inactive)
REMARK    1  A    between atoms: N_2  and  S_1 
REMARK    2  A    between atoms: C_5  and  S_1 
REMARK    3  A    between atoms: C_3  and  N_2 
REMARK    4  A    between atoms: C_4  and  C_9 
REMARK    5  A    between atoms: O_19  and  C_8 
REMARK    6  A    between atoms: O_20  and  C_11 
ROOT
ATOM      1  S   UNL d   1       0.885  -1.170  -2.477  0.00  0.00     0.246 S 
ATOM      2  O   UNL d   1       1.049  -2.190  -1.465  0.00  0.00    -0.206 OA
ATOM      3  O   UNL d   1       1.913  -0.928  -3.466  0.00  0.00    -0.206 OA
ENDROOT
BRANCH   1   4
ATOM      4  N   UNL d   1       0.525   0.261  -1.636  0.00  0.00    -0.179 NA
ATOM      5  H   UNL d   1       0.953   0.177  -0.710  0.00  0.00     0.146 HD
BRANCH   4   6
ATOM      6  C   UNL d   1       0.835   1.496  -2.294  0.00  0.00     0.059 A 
ATOM      7  C   UNL d   1      -0.165   2.134  -3.028  0.00  0.00     0.065 A 
ATOM      8  C   UNL d   1       0.087   3.331  -3.721  0.00  0.00     0.091 A 
ATOM      9  C   UNL d   1       1.379   3.872  -3.666  0.00  0.00     0.070 A 
ATOM     10  C   UNL d   1       2.386   3.219  -2.932  0.00  0.00     0.065 A 
ATOM     11 CL   UNL d   1       1.886   5.343  -4.423  0.00  0.00    -0.081 Cl
ATOM     12  C   UNL d   1       2.127   2.035  -2.240  0.00  0.00     0.092 A 
BRANCH   8  13
ATOM     13  O   UNL d   1      -1.041   3.779  -4.350  0.00  0.00    -0.354 OA
ATOM     14  C   UNL d   1      -1.005   4.942  -5.159  0.00  0.00     0.210 C 
ENDBRANCH   8  13
BRANCH  12  15
ATOM     15  O   UNL d   1       3.041   1.360  -1.472  0.00  0.00    -0.354 OA
ATOM     16  C   UNL d   1       4.391   1.812  -1.538  0.00  0.00     0.210 C 
ENDBRANCH  12  15
ENDBRANCH   4   6
ENDBRANCH   1   4
BRANCH   1  17
ATOM     17  C   UNL d   1      -0.624  -1.540  -3.356  0.00  0.00     0.075 A 
ATOM     18  C   UNL d   1      -0.818  -1.004  -4.635  0.00  0.00     0.041 A 
ATOM     19  C   UNL d   1      -1.918  -1.405  -5.411  0.00  0.00     0.049 A 
ATOM     20  C   UNL d   1      -2.810  -2.354  -4.884  0.00  0.00     0.016 A 
ATOM     21  C   UNL d   1      -2.612  -2.888  -3.609  0.00  0.00     0.002 A 
ATOM     22  C   UNL d   1      -1.517  -2.486  -2.843  0.00  0.00     0.025 A 
BRANCH  19  23
ATOM     23  C   UNL d   1      -2.130  -0.865  -6.806  0.00  0.00     0.417 C 
ATOM     24  F   UNL d   1      -1.200   0.058  -7.179  0.00  0.00    -0.166 F 
ATOM     25  F   UNL d   1      -2.087  -1.843  -7.753  0.00  0.00    -0.166 F 
ATOM     26  F   UNL d   1      -3.339  -0.256  -6.950  0.00  0.00    -0.166 F 
ENDBRANCH  19  23
ENDBRANCH   1  17
TORSDOF 6
