REMARK  10 active torsions:
REMARK  status: ('A' for Active; 'I' for Inactive)
REMARK    1  A    between atoms: C_3  and  C_1 
REMARK    2  A    between atoms: O_10  and  C_2 
REMARK    3  A    between atoms: N_24  and  C_3 
REMARK    4  A    between atoms: C_4  and  C_9 
REMARK    5  A    between atoms: C_5  and  O_17 
REMARK    6  A    between atoms: O_16  and  N_6 
REMARK    7  A    between atoms: C_8  and  O_16 
REMARK       I    between atoms: N_15  and  C_8 
REMARK    8  A    between atoms: C_19  and  O_10 
REMARK    9  A    between atoms: C_28  and  N_15 
REMARK   10  A    between atoms: O_17  and  C_29 
ROOT
ATOM      1  C   UNL d   1      -1.716  -2.120  -0.095  0.00  0.00     0.130 C 
ATOM      2  N   UNL d   1      -1.310  -3.308   0.240  0.00  0.00    -0.243 N 
ATOM      3  HN  UNL d   1      -1.921  -4.123   0.303  1.00  0.00     0.196 HD
ENDROOT
BRANCH   1   4
ATOM      4  C   UNL d   1      -3.190  -1.958  -0.206  0.00  0.00     0.124 A 
ATOM      5  C   UNL d   1      -3.931  -2.560  -1.219  0.00  0.00     0.178 A 
ATOM      6  N   UNL d   1      -5.292  -2.549  -1.188  0.00  0.00    -0.343 N 
ATOM      7  C   UNL d   1      -5.855  -1.965  -0.104  0.00  0.00     0.107 A 
ATOM      8  HN  UNL d   1      -5.854  -2.956  -1.935  1.00  0.00     0.167 HD
ATOM      9  C   UNL d   1      -5.105  -1.370   0.898  0.00  0.00     0.105 A 
ATOM     10  N   UNL d   1      -3.755  -1.337   0.871  0.00  0.00    -0.358 N 
ATOM     11  HN  UNL d   1      -3.201  -0.883   1.597  1.00  0.00     0.165 HD
BRANCH   5  12
ATOM     12  O   UNL d   1      -3.269  -3.126  -2.300  0.00  0.00    -0.291 OA
BRANCH  12  13
ATOM     13  C   UNL d   1      -4.014  -3.929  -3.131  0.00  0.00     0.078 A 
ATOM     14  C   UNL d   1      -4.196  -3.538  -4.456  0.00  0.00     0.053 A 
ATOM     15  C   UNL d   1      -4.925  -4.350  -5.337  0.00  0.00     0.050 A 
ATOM     16  C   UNL d   1      -5.450  -5.567  -4.867  0.00  0.00     0.016 A 
ATOM     17  C   UNL d   1      -5.240  -5.966  -3.545  0.00  0.00     0.004 A 
ATOM     18  C   UNL d   1      -4.514  -5.155  -2.680  0.00  0.00     0.037 A 
BRANCH  15  19
ATOM     19  C   UNL d   1      -5.153  -3.947  -6.774  0.00  0.00     0.417 C 
ATOM     20  F   UNL d   1      -4.586  -2.753  -7.103  0.00  0.00    -0.166 F 
ATOM     21  F   UNL d   1      -4.648  -4.855  -7.657  0.00  0.00    -0.166 F 
ATOM     22  F   UNL d   1      -6.475  -3.828  -7.077  0.00  0.00    -0.166 F 
ENDBRANCH  15  19
ENDBRANCH  12  13
ENDBRANCH   5  12
ENDBRANCH   1   4
BRANCH   1  23
ATOM     23  N   UNL d   1      -0.913  -1.011  -0.214  0.00  0.00    -0.285 NA
ATOM     24  H   UNL d   1      -1.339  -0.131   0.065  0.00  0.00     0.125 HD
ATOM     25  H   UNL d   1       0.021  -1.137   0.165  0.00  0.00     0.125 HD
ENDBRANCH   1  23
BRANCH   2  26
ATOM     26  O   UNL d   1       0.085  -3.338   0.506  0.00  0.00    -0.179 OA
BRANCH  26  27
ATOM     27  C   UNL d   1       0.356  -4.150   1.604  0.00  0.00     0.387 C 
ATOM     28  N   UNL d   1      -0.775  -4.437   2.329  0.00  0.00    -0.301 N 
ATOM     29  H   UNL d   1      -1.586  -3.982   1.926  0.00  0.00     0.171 HD
ATOM     30  O   UNL d   1       1.504  -4.480   1.876  0.00  0.00    -0.236 OA
BRANCH  28  31
ATOM     31  C   UNL d   1      -0.956  -5.268   3.437  0.00  0.00     0.037 A 
ATOM     32  C   UNL d   1       0.038  -6.090   3.961  0.00  0.00     0.032 A 
ATOM     33  C   UNL d   1      -0.247  -6.958   5.026  0.00  0.00     0.039 A 
ATOM     34  C   UNL d   1      -1.525  -6.996   5.585  0.00  0.00     0.078 A 
ATOM     35  C   UNL d   1      -2.508  -6.140   5.085  0.00  0.00     0.039 A 
ATOM     36  C   UNL d   1      -2.229  -5.290   4.013  0.00  0.00     0.032 A 
BRANCH  34  37
ATOM     37  O   UNL d   1      -1.940  -7.794   6.610  0.00  0.00    -0.255 OA
BRANCH  37  38
ATOM     38  C   UNL d   1      -1.103  -8.879   6.974  0.00  0.00     0.530 C 
ATOM     39  F   UNL d   1       0.054  -8.440   7.513  0.00  0.00    -0.144 F 
ATOM     40  F   UNL d   1      -1.742  -9.623   7.906  0.00  0.00    -0.144 F 
ATOM     41  F   UNL d   1      -0.839  -9.673   5.915  0.00  0.00    -0.144 F 
ENDBRANCH  37  38
ENDBRANCH  34  37
ENDBRANCH  28  31
ENDBRANCH  26  27
ENDBRANCH   2  26
TORSDOF 10
