REMARK  8 active torsions:
REMARK  status: ('A' for Active; 'I' for Inactive)
REMARK    1  A    between atoms: C_12  and  S_1 
REMARK    2  A    between atoms: O_19  and  S_1 
REMARK    3  A    between atoms: S_2  and  C_13 
REMARK    4  A    between atoms: O_18  and  S_2 
REMARK    5  A    between atoms: N_9  and  C_5 
REMARK    6  A    between atoms: N_10  and  C_6 
REMARK    7  A    between atoms: C_30  and  O_18 
REMARK    8  A    between atoms: C_29  and  O_19 
ROOT
ATOM      1  C   UNL d   1      -0.586  -5.782  -1.518  0.00  0.00     0.025 A 
ATOM      2  C   UNL d   1      -0.491  -4.320  -1.303  0.00  0.00     0.025 A 
ATOM      3  C   UNL d   1      -1.180  -6.651  -2.433  0.00  0.00     0.116 A 
ATOM      4  C   UNL d   1      -1.137  -3.164  -1.741  0.00  0.00     0.116 C 
ATOM      5  C   UNL d   1       0.501  -4.091  -0.316  0.00  0.00     0.030 A 
ATOM      6  C   UNL d   1       0.243  -6.424  -0.565  0.00  0.00     0.030 A 
ATOM      7  C   UNL d   1       0.949  -5.391   0.206  0.00  0.00     0.194 A 
ATOM      8  C   UNL d   1       0.341  -1.727  -0.424  0.00  0.00     0.090 C 
ATOM      9  C   UNL d   1      -0.236  -8.620  -1.334  0.00  0.00     0.090 A 
ATOM     10  C   UNL d   1      -0.704  -1.874  -1.347  0.00  0.00     0.062 C 
ATOM     11  C   UNL d   1      -1.035  -8.057  -2.338  0.00  0.00     0.062 A 
ATOM     12  C   UNL d   1       0.942  -2.850   0.135  0.00  0.00     0.042 C 
ATOM     13  C   UNL d   1       0.429  -7.799  -0.429  0.00  0.00     0.042 A 
ATOM     14  O   UNL d   1       1.744  -5.575   1.099  0.00  0.00    -0.287 OA
ENDROOT
BRANCH   8  15
ATOM     15  S   UNL d   1       0.922  -0.089  -0.008  0.00  0.00     0.303 S 
ATOM     16  O   UNL d   1       0.631   0.737  -1.169  0.00  0.00    -0.193 OA
ATOM     17  O   UNL d   1       2.280  -0.247   0.472  0.00  0.00    -0.193 OA
BRANCH  15  18
ATOM     18  O   UNL d   1      -0.047   0.347   1.224  0.00  0.00    -0.229 OA
BRANCH  18  19
ATOM     19  C   UNL d   1       0.024   1.582   1.820  0.00  0.00     0.089 A 
ATOM     20  C   UNL d   1       0.947   2.583   1.511  0.00  0.00     0.038 A 
ATOM     21  C   UNL d   1       0.916   3.802   2.196  0.00  0.00     0.003 A 
ATOM     22  C   UNL d   1      -0.034   4.025   3.191  0.00  0.00     0.000 A 
ATOM     23  C   UNL d   1      -0.957   3.030   3.502  0.00  0.00     0.003 A 
ATOM     24  C   UNL d   1      -0.927   1.813   2.820  0.00  0.00     0.038 A 
ENDBRANCH  18  19
ENDBRANCH  15  18
ENDBRANCH   8  15
BRANCH   4  25
ATOM     25  N   UNL d   1      -2.412  -3.177  -2.431  0.00  0.00    -0.115 N 
ATOM     26  O   UNL d   1      -2.401  -3.456  -3.629  0.00  0.00    -0.532 OA
ATOM     27  O   UNL d   1      -3.391  -2.826  -1.768  0.00  0.00    -0.532 OA
ENDBRANCH   4  25
BRANCH   3  28
ATOM     28  N   UNL d   1      -1.797  -6.203  -3.656  0.00  0.00    -0.115 N 
ATOM     29  O   UNL d   1      -1.033  -5.735  -4.507  0.00  0.00    -0.532 OA
ATOM     30  O   UNL d   1      -3.006  -6.428  -3.781  0.00  0.00    -0.532 OA
ENDBRANCH   3  28
BRANCH   9  31
ATOM     31  S   UNL d   1      -0.152 -10.398  -1.176  0.00  0.00     0.303 S 
ATOM     32  O   UNL d   1       0.171 -10.664   0.211  0.00  0.00    -0.193 OA
ATOM     33  O   UNL d   1      -1.380 -10.900  -1.763  0.00  0.00    -0.193 OA
BRANCH  31  34
ATOM     34  O   UNL d   1       1.112 -10.826  -2.118  0.00  0.00    -0.229 OA
BRANCH  34  35
ATOM     35  C   UNL d   1       1.430 -12.146  -2.345  0.00  0.00     0.089 A 
ATOM     36  C   UNL d   1       0.815 -13.237  -1.726  0.00  0.00     0.038 A 
ATOM     37  C   UNL d   1       1.204 -14.541  -2.042  0.00  0.00     0.003 A 
ATOM     38  C   UNL d   1       2.214 -14.766  -2.973  0.00  0.00     0.000 A 
ATOM     39  C   UNL d   1       2.841 -13.684  -3.587  0.00  0.00     0.003 A 
ATOM     40  C   UNL d   1       2.452 -12.378  -3.272  0.00  0.00     0.038 A 
ENDBRANCH  34  35
ENDBRANCH  31  34
ENDBRANCH   9  31
TORSDOF 8
