REMARK  5 active torsions:
REMARK  status: ('A' for Active; 'I' for Inactive)
REMARK    1  A    between atoms: C_2  and  C_1 
REMARK       I    between atoms: N_6  and  C_2 
REMARK    2  A    between atoms: C_13  and  C_5 
REMARK    3  A    between atoms: C_7  and  N_6 
REMARK    4  A    between atoms: N_10  and  C_7 
REMARK    5  A    between atoms: C_14  and  N_10 
ROOT
ATOM      1  C   UNL d   1       0.134  -2.518   0.699  0.00  0.00     0.262 C 
ATOM      2  N   UNL d   1      -0.355  -3.393  -0.259  0.00  0.00    -0.299 N 
ATOM      3  O   UNL d   1       0.733  -2.804   1.724  0.00  0.00    -0.267 OA
ATOM      4  H   UNL d   1      -0.975  -2.991  -0.926  0.00  0.00     0.171 HD
ENDROOT
BRANCH   1   5
ATOM      5  C   UNL d   1      -0.084  -1.135   0.329  0.00  0.00     0.093 C 
ATOM      6  C   UNL d   1      -1.264  -0.341   0.210  0.00  0.00     0.083 C 
ATOM      7  N   UNL d   1      -0.943   0.860  -0.309  0.00  0.00    -0.259 N 
ATOM      8  O   UNL d   1       0.425   0.907  -0.402  0.00  0.00    -0.241 OA
ATOM      9  HN  UNL d   1      -1.594   1.597  -0.581  1.00  0.00     0.195 HD
ATOM     10  C   UNL d   1       0.943  -0.270   0.013  0.00  0.00     0.090 C 
ATOM     11  C   UNL d   1       2.416  -0.369   0.022  0.00  0.00     0.080 C 
BRANCH   6  12
ATOM     12  C   UNL d   1      -2.659  -0.612   0.595  0.00  0.00    -0.006 A 
ATOM     13  C   UNL d   1      -3.671   0.292   0.218  0.00  0.00     0.014 A 
ATOM     14  C   UNL d   1      -4.981   0.149   0.680  0.00  0.00     0.001 A 
ATOM     15  C   UNL d   1      -5.308  -0.912   1.516  0.00  0.00     0.000 A 
ATOM     16  C   UNL d   1      -4.328  -1.834   1.878  0.00  0.00     0.001 A 
ATOM     17  C   UNL d   1      -3.011  -1.685   1.425  0.00  0.00     0.014 A 
ENDBRANCH   6  12
ENDBRANCH   1   5
BRANCH   2  18
ATOM     18  C   UNL d   1       0.154  -4.616  -0.597  0.00  0.00     0.179 C 
ATOM     19  S   UNL d   1       0.872  -5.704   0.459  0.00  0.00    -0.040 SA
BRANCH  18  20
ATOM     20  N   UNL d   1       0.137  -4.999  -1.909  0.00  0.00    -0.333 N 
ATOM     21  H   UNL d   1       0.573  -5.917  -1.992  0.00  0.00     0.168 HD
BRANCH  20  22
ATOM     22  C   UNL d   1      -0.153  -4.392  -3.154  0.00  0.00     0.034 A 
ATOM     23  C   UNL d   1       0.251  -5.124  -4.285  0.00  0.00     0.031 A 
ATOM     24  C   UNL d   1       0.066  -4.636  -5.583  0.00  0.00     0.026 A 
ATOM     25  C   UNL d   1      -0.547  -3.405  -5.772  0.00  0.00     0.034 A 
ATOM     26  C   UNL d   1      -0.967  -2.669  -4.672  0.00  0.00     0.026 A 
ATOM     27 CL   UNL d   1      -0.783  -2.790  -7.359  0.00  0.00    -0.084 Cl
ATOM     28  C   UNL d   1      -0.764  -3.154  -3.371  0.00  0.00     0.031 A 
ENDBRANCH  20  22
ENDBRANCH  18  20
ENDBRANCH   2  18
TORSDOF 5
