REMARK  4 active torsions:
REMARK  status: ('A' for Active; 'I' for Inactive)
REMARK    1  A    between atoms: C_3  and  C_1 
REMARK    2  A    between atoms: C_16  and  N_2 
REMARK    3  A    between atoms: C_9  and  C_6 
REMARK    4  A    between atoms: N_22  and  C_12 
ROOT
ATOM      1  C   UNL d   1      -0.486  -2.770   0.029  0.00  0.00     0.058 A 
ATOM      2  C   UNL d   1      -1.463  -3.345  -0.773  0.00  0.00     0.134 A 
ATOM      3  N   UNL d   1      -1.598  -4.706  -0.859  0.00  0.00    -0.328 N 
ATOM      4  HN  UNL d   1      -2.315  -5.120  -1.455  1.00  0.00     0.168 HD
ATOM      5  C   UNL d   1      -0.777  -5.479  -0.151  0.00  0.00     0.155 A 
ATOM      6  C   UNL d   1       0.239  -3.676   0.789  0.00  0.00     0.108 A 
ATOM      7  N   UNL d   1       0.126  -5.015   0.705  0.00  0.00    -0.342 N 
ATOM      8  HN  UNL d   1       0.703  -5.640   1.268  1.00  0.00     0.167 HD
ENDROOT
BRANCH   1   9
ATOM      9  C   UNL d   1      -0.207  -1.345   0.142  0.00  0.00     0.152 A 
ATOM     10  N   UNL d   1       1.049  -0.724   0.167  0.00  0.00    -0.224 N 
ATOM     11  N   UNL d   1       0.867   0.558   0.563  0.00  0.00     0.001 NA
ATOM     12  N   UNL d   1      -0.440   0.742   0.638  0.00  0.00    -0.007 NA
ATOM     13  N   UNL d   1      -1.115  -0.421   0.399  0.00  0.00    -0.269 N 
ATOM     14  HN  UNL d   1      -2.126  -0.551   0.416  1.00  0.00     0.185 HD
BRANCH  10  15
ATOM     15  C   UNL d   1       2.354  -1.235  -0.071  0.00  0.00     0.056 A 
ATOM     16  C   UNL d   1       2.577  -2.350  -0.899  0.00  0.00     0.034 A 
ATOM     17  C   UNL d   1       3.856  -2.887  -1.022  0.00  0.00     0.044 A 
ATOM     18  C   UNL d   1       4.916  -2.308  -0.337  0.00  0.00     0.116 A 
ATOM     19  C   UNL d   1       4.726  -1.177   0.444  0.00  0.00     0.044 A 
ATOM     20  F   UNL d   1       6.138  -2.847  -0.435  0.00  0.00    -0.206 F 
ATOM     21  C   UNL d   1       3.448  -0.625   0.567  0.00  0.00     0.034 A 
ENDBRANCH  10  15
ENDBRANCH   1   9
BRANCH   2  22
ATOM     22  C   UNL d   1      -2.472  -2.536  -1.575  0.00  0.00     0.433 C 
ATOM     23  F   UNL d   1      -2.083  -1.268  -1.880  0.00  0.00    -0.165 F 
ATOM     24  F   UNL d   1      -2.747  -3.106  -2.787  0.00  0.00    -0.165 F 
ATOM     25  F   UNL d   1      -3.674  -2.429  -0.941  0.00  0.00    -0.165 F 
ENDBRANCH   2  22
BRANCH   5  26
ATOM     26  N   UNL d   1      -0.877  -6.840  -0.299  0.00  0.00    -0.274 NA
ATOM     27  H   UNL d   1      -0.499  -7.315   0.508  0.00  0.00     0.127 HD
ATOM     28  H   UNL d   1      -1.803  -7.104  -0.606  0.00  0.00     0.127 HD
ENDBRANCH   5  26
TORSDOF 4
