REMARK  6 active torsions:
REMARK  status: ('A' for Active; 'I' for Inactive)
REMARK    1  A    between atoms: C_5  and  C_1 
REMARK    2  A    between atoms: C_2  and  S_3 
REMARK    3  A    between atoms: S_3  and  C_4 
REMARK       I    between atoms: N_13  and  C_5 
REMARK    4  A    between atoms: C_7  and  O_10 
REMARK    5  A    between atoms: C_12  and  C_8 
REMARK    6  A    between atoms: O_10  and  C_12 
ROOT
ATOM      1  C   UNL d   1       3.325  -2.697   2.367  0.00  0.00     0.017 C 
ATOM      2  C   UNL d   1       4.486  -1.965   2.801  0.00  0.00    -0.000 C 
ATOM      3  C   UNL d   1       4.640  -1.108   3.950  0.00  0.00    -0.021 C 
ATOM      4  C   UNL d   1       5.639  -2.109   1.977  0.00  0.00    -0.024 C 
ATOM      5  C   UNL d   1       3.422  -3.686   1.368  0.00  0.00     0.020 C 
ATOM      6  C   UNL d   1       4.609  -3.898   0.691  0.00  0.00     0.002 C 
ATOM      7  C   UNL d   1       6.800  -0.321   3.143  0.00  0.00     0.002 C 
ATOM      8  C   UNL d   1       5.761  -0.254   4.055  0.00  0.00     0.010 C 
ATOM      9  C   UNL d   1       6.759  -1.282   2.146  0.00  0.00     0.012 C 
ATOM     10  C   UNL d   1       5.693  -3.078   0.964  0.00  0.00     0.012 C 
ENDROOT
BRANCH   1  11
ATOM     11  S   UNL d   1       1.627  -2.403   2.868  0.00  0.00    -0.089 SA
BRANCH  11  12
ATOM     12  C   UNL d   1       1.253  -0.712   2.413  0.00  0.00     0.021 A 
ATOM     13  C   UNL d   1       1.716   0.029   1.315  0.00  0.00     0.049 A 
ATOM     14  C   UNL d   1       1.314   1.366   1.123  0.00  0.00     0.018 A 
ATOM     15  C   UNL d   1       0.398   1.963   1.981  0.00  0.00     0.001 A 
ATOM     16  C   UNL d   1      -0.118   1.229   3.039  0.00  0.00     0.001 A 
ATOM     17  C   UNL d   1       0.313  -0.085   3.258  0.00  0.00     0.020 A 
BRANCH  13  18
ATOM     18  C   UNL d   1       2.511  -0.500   0.189  0.00  0.00     0.252 C 
ATOM     19  O   UNL d   1       3.632  -0.066  -0.031  0.00  0.00    -0.268 OA
ATOM     20  N   UNL d   1       1.797  -1.313  -0.665  0.00  0.00    -0.361 N 
ATOM     21  C   UNL d   1       2.273  -1.609  -1.993  0.00  0.00     0.149 C 
ATOM     22  H   UNL d   1       0.853  -1.578  -0.417  0.00  0.00     0.162 HD
ENDBRANCH  13  18
ENDBRANCH  11  12
ENDBRANCH   1  11
BRANCH   3  23
ATOM     23  C   UNL d   1       3.777  -1.187   5.196  0.00  0.00     0.218 C 
BRANCH  23  24
ATOM     24  O   UNL d   1       4.558  -1.802   6.250  0.00  0.00    -0.317 OA
BRANCH  24  25
ATOM     25  C   UNL d   1       5.019  -0.995   7.239  0.00  0.00     0.255 C 
ATOM     26  O   UNL d   1       4.805   0.206   7.341  0.00  0.00    -0.266 OA
ATOM     27  C   UNL d   1       5.882  -1.774   8.187  0.00  0.00     0.126 C 
ENDBRANCH  24  25
ENDBRANCH  23  24
ENDBRANCH   3  23
TORSDOF 6
