REMARK  8 active torsions:
REMARK  status: ('A' for Active; 'I' for Inactive)
REMARK    1  A    between atoms: N_9  and  C_1 
REMARK    2  A    between atoms: N_10  and  C_1 
REMARK    3  A    between atoms: O_17  and  C_2 
REMARK    4  A    between atoms: N_3  and  N_10 
REMARK    5  A    between atoms: C_5  and  C_15 
REMARK    6  A    between atoms: C_6  and  C_16 
REMARK    7  A    between atoms: C_16  and  N_9 
REMARK    8  A    between atoms: O_18  and  C_13 
ROOT
ATOM      1  N   UNL d   1       3.150  -0.080   1.330  0.00  0.00    -0.309 N 
ATOM      2  HN  UNL d   1       2.822   0.012   2.291  1.00  0.00     0.186 HD
ATOM      3  C   UNL d   1       4.244  -0.700   1.021  0.00  0.00     0.121 C 
ENDROOT
BRANCH   1   4
ATOM      4  N   UNL d   1       2.473   0.439   0.268  0.00  0.00    -0.277 N 
ATOM      5  H   UNL d   1       2.529  -0.024  -0.634  0.00  0.00     0.189 HD
BRANCH   4   6
ATOM      6  C   UNL d   1       1.521   1.417   0.435  0.00  0.00     0.186 C 
ATOM      7  S   UNL d   1       0.507   1.803  -0.831  0.00  0.00    -0.040 SA
BRANCH   6   8
ATOM      8  N   UNL d   1       1.571   2.035   1.654  0.00  0.00    -0.360 N 
ATOM      9  H   UNL d   1       2.200   1.590   2.317  0.00  0.00     0.162 HD
BRANCH   8  10
ATOM     10  C   UNL d   1       0.901   3.264   2.016  0.00  0.00     0.187 C 
BRANCH  10  11
ATOM     11  C   UNL d   1       1.376   3.743   3.337  0.00  0.00     0.070 A 
ATOM     12  O   UNL d   1       0.991   3.025   4.432  0.00  0.00    -0.325 OA
ATOM     13  C   UNL d   1       1.490   3.666   5.521  0.00  0.00     0.142 A 
ATOM     14  C   UNL d   1       2.195   4.783   5.143  0.00  0.00     0.027 A 
ATOM     15  C   UNL d   1       2.131   4.830   3.729  0.00  0.00     0.036 A 
ENDBRANCH  10  11
ENDBRANCH   8  10
ENDBRANCH   6   8
ENDBRANCH   4   6
ENDBRANCH   1   4
BRANCH   3  16
ATOM     16  C   UNL d   1       4.966  -1.475   2.036  0.00  0.00     0.017 A 
ATOM     17  C   UNL d   1       6.362  -1.393   2.202  0.00  0.00     0.113 A 
ATOM     18  C   UNL d   1       6.983  -2.275   3.100  0.00  0.00     0.102 A 
ATOM     19  C   UNL d   1       6.194  -3.193   3.822  0.00  0.00     0.040 A 
ATOM     20  C   UNL d   1       4.811  -3.244   3.667  0.00  0.00     0.004 A 
ATOM     21  C   UNL d   1       4.194  -2.377   2.782  0.00  0.00     0.016 A 
BRANCH  17  22
ATOM     22  O   UNL d   1       7.112  -0.535   1.438  0.00  0.00    -0.352 OA
ATOM     23  C   UNL d   1       6.854   0.844   1.735  0.00  0.00     0.210 C 
ENDBRANCH  17  22
BRANCH  18  24
ATOM     24  O   UNL d   1       8.310  -2.413   3.409  0.00  0.00    -0.353 OA
ATOM     25  C   UNL d   1       9.246  -1.490   2.882  0.00  0.00     0.210 C 
ENDBRANCH  18  24
ENDBRANCH   3  16
TORSDOF 8
