REMARK  3 active torsions:
REMARK  status: ('A' for Active; 'I' for Inactive)
REMARK    1  A    between atoms: C_2  and  C_1 
REMARK    2  A    between atoms: C_12  and  N_3 
REMARK    3  A    between atoms: C_14  and  C_8 
ROOT
ATOM      1  C   UNL d   1      -0.089  -1.250   0.052  0.00  0.00     0.153 C 
ATOM      2  N   UNL d   1       1.043  -0.662   0.580  0.00  0.00    -0.224 N 
ATOM      3  N   UNL d   1       0.804   0.660   0.725  0.00  0.00     0.001 NA
ATOM      4  N   UNL d   1      -0.340   0.884   0.096  0.00  0.00    -0.007 NA
ATOM      5  N   UNL d   1      -0.897  -0.287  -0.343  0.00  0.00    -0.269 N 
ATOM      6  HN  UNL d   1      -1.763  -0.393  -0.870  1.00  0.00     0.185 HD
ENDROOT
BRANCH   1   7
ATOM      7  C   UNL d   1      -0.413  -2.694  -0.023  0.00  0.00     0.065 A 
ATOM      8  C   UNL d   1      -1.196  -3.305  -0.974  0.00  0.00     0.124 A 
ATOM      9  O   UNL d   1      -1.267  -4.639  -0.687  0.00  0.00    -0.236 OA
ATOM     10  N   UNL d   1      -0.523  -4.913   0.452  0.00  0.00    -0.271 N 
ATOM     11  C   UNL d   1      -0.025  -3.737   0.839  0.00  0.00     0.132 A 
ATOM     12  HN  UNL d   1      -0.386  -5.820   0.897  1.00  0.00     0.194 HD
BRANCH   8  13
ATOM     13  C   UNL d   1      -1.856  -2.877  -2.198  0.00  0.00     0.001 A 
ATOM     14  C   UNL d   1      -1.276  -1.883  -3.004  0.00  0.00     0.017 A 
ATOM     15  C   UNL d   1      -1.940  -1.396  -4.128  0.00  0.00     0.043 A 
ATOM     16  C   UNL d   1      -3.178  -1.924  -4.467  0.00  0.00     0.116 A 
ATOM     17  C   UNL d   1      -3.750  -2.942  -3.712  0.00  0.00     0.043 A 
ATOM     18  F   UNL d   1      -3.830  -1.441  -5.530  0.00  0.00    -0.206 F 
ATOM     19  C   UNL d   1      -3.091  -3.423  -2.580  0.00  0.00     0.017 A 
ENDBRANCH   8  13
ENDBRANCH   1   7
BRANCH   2  20
ATOM     20  C   UNL d   1       2.328  -1.209   0.801  0.00  0.00     0.056 A 
ATOM     21  C   UNL d   1       2.779  -2.299   0.040  0.00  0.00     0.033 A 
ATOM     22  C   UNL d   1       4.051  -2.829   0.268  0.00  0.00     0.026 A 
ATOM     23  C   UNL d   1       4.868  -2.270   1.245  0.00  0.00     0.034 A 
ATOM     24  C   UNL d   1       4.435  -1.168   1.985  0.00  0.00     0.026 A 
ATOM     25 CL   UNL d   1       6.428  -2.933   1.530  0.00  0.00    -0.084 Cl
ATOM     26  C   UNL d   1       3.170  -0.623   1.755  0.00  0.00     0.033 A 
ENDBRANCH   2  20
TORSDOF 3
