REMARK  7 active torsions:
REMARK  status: ('A' for Active; 'I' for Inactive)
REMARK    1  A    between atoms: C_4  and  N_1 
REMARK       I    between atoms: C_5  and  N_1 
REMARK    2  A    between atoms: N_2  and  C_3 
REMARK       I    between atoms: C_6  and  N_2 
REMARK    3  A    between atoms: C_7  and  O_11 
REMARK    4  A    between atoms: O_12  and  C_8 
REMARK    5  A    between atoms: O_11  and  C_19 
REMARK    6  A    between atoms: C_20  and  O_12 
REMARK    7  A    between atoms: C_19  and  C_20 
ROOT
ATOM      1  C   UNL d   1       3.554  -0.549   3.274  0.00  0.00     0.202 C 
ENDROOT
BRANCH   1   2
ATOM      2  O   UNL d   1       4.568   0.307   2.730  0.00  0.00    -0.347 OA
BRANCH   2   3
ATOM      3  C   UNL d   1       5.535  -0.209   1.906  0.00  0.00     0.095 A 
ATOM      4  C   UNL d   1       6.062   0.641   0.908  0.00  0.00     0.068 A 
ATOM      5  C   UNL d   1       6.881   0.106  -0.097  0.00  0.00     0.032 A 
ATOM      6  C   UNL d   1       7.274  -1.227  -0.054  0.00  0.00     0.002 A 
ATOM      7  C   UNL d   1       6.838  -2.040   0.987  0.00  0.00     0.003 A 
ATOM      8  C   UNL d   1       5.969  -1.534   1.960  0.00  0.00     0.039 A 
BRANCH   4   9
ATOM      9  N   UNL d   1       5.756   2.013   0.785  0.00  0.00    -0.325 N 
ATOM     10  C   UNL d   1       5.750   2.911   1.840  0.00  0.00     0.218 C 
ATOM     11  O   UNL d   1       6.056   2.673   3.005  0.00  0.00    -0.274 OA
ATOM     12  C   UNL d   1       5.385   4.304   1.391  0.00  0.00     0.117 C 
ATOM     13  H   UNL d   1       5.890   2.425  -0.129  0.00  0.00     0.169 HD
ENDBRANCH   4   9
ENDBRANCH   2   3
ENDBRANCH   1   2
BRANCH   1  14
ATOM     14  C   UNL d   1       2.284  -0.584   2.417  0.00  0.00     0.202 C 
BRANCH  14  15
ATOM     15  O   UNL d   1       1.674   0.712   2.311  0.00  0.00    -0.347 OA
BRANCH  15  16
ATOM     16  C   UNL d   1       1.686   1.311   1.080  0.00  0.00     0.095 A 
ATOM     17  C   UNL d   1       0.658   2.220   0.791  0.00  0.00     0.068 A 
ATOM     18  C   UNL d   1       0.632   2.881  -0.446  0.00  0.00     0.032 A 
ATOM     19  C   UNL d   1       1.614   2.636  -1.402  0.00  0.00     0.002 A 
ATOM     20  C   UNL d   1       2.620   1.717  -1.134  0.00  0.00     0.003 A 
ATOM     21  C   UNL d   1       2.647   1.058   0.098  0.00  0.00     0.039 A 
BRANCH  17  22
ATOM     22  N   UNL d   1      -0.313   2.497   1.764  0.00  0.00    -0.325 N 
ATOM     23  C   UNL d   1      -1.666   2.623   1.583  0.00  0.00     0.218 C 
ATOM     24  O   UNL d   1      -2.379   3.093   2.470  0.00  0.00    -0.274 OA
ATOM     25  C   UNL d   1      -2.266   2.065   0.314  0.00  0.00     0.117 C 
ATOM     26  H   UNL d   1      -0.017   2.469   2.735  0.00  0.00     0.169 HD
ENDBRANCH  17  22
ENDBRANCH  15  16
ENDBRANCH  14  15
ENDBRANCH   1  14
TORSDOF 7
