REMARK  4 active torsions:
REMARK  status: ('A' for Active; 'I' for Inactive)
REMARK    1  A    between atoms: N_2  and  C_1 
REMARK    2  A    between atoms: N_3  and  C_10 
REMARK    3  A    between atoms: C_6  and  C_5 
REMARK       I    between atoms: N_9  and  C_6 
REMARK    4  A    between atoms: C_18  and  N_9 
ROOT
ATOM      1  C   UNL d   1      -0.825  -2.287  -0.048  0.00  0.00     0.280 C 
ATOM      2  N   UNL d   1      -2.190  -2.482   0.104  0.00  0.00    -0.321 N 
ATOM      3  O   UNL d   1      -0.304  -1.207  -0.316  0.00  0.00    -0.265 OA
ATOM      4  H   UNL d   1      -2.473  -3.390   0.461  0.00  0.00     0.169 HD
ENDROOT
BRANCH   2   5
ATOM      5  C   UNL d   1      -3.205  -1.534  -0.160  0.00  0.00     0.035 A 
ATOM      6  C   UNL d   1      -2.969  -0.326  -0.831  0.00  0.00     0.032 A 
ATOM      7  C   UNL d   1      -4.008   0.571  -1.101  0.00  0.00     0.038 A 
ATOM      8  C   UNL d   1      -5.306   0.262  -0.692  0.00  0.00     0.103 A 
ATOM      9  C   UNL d   1      -5.565  -0.936  -0.015  0.00  0.00     0.038 A 
ATOM     10  C   UNL d   1      -4.514  -1.832   0.240  0.00  0.00     0.032 A 
BRANCH   8  11
ATOM     11  N   UNL d   1      -6.400   1.197  -0.988  0.00  0.00    -0.116 N 
ATOM     12  O   UNL d   1      -6.123   2.230  -1.615  0.00  0.00    -0.532 OA
ATOM     13  O   UNL d   1      -7.536   0.895  -0.597  0.00  0.00    -0.532 OA
ENDBRANCH   8  11
ENDBRANCH   2   5
BRANCH   1  14
ATOM     14  C   UNL d   1      -0.002  -3.466   0.149  0.00  0.00     0.146 A 
ATOM     15  O   UNL d   1      -0.561  -4.695   0.403  0.00  0.00    -0.283 OA
ATOM     16  C   UNL d   1       0.483  -5.569   0.487  0.00  0.00     0.215 A 
ATOM     17  C   UNL d   1       1.694  -4.944   0.308  0.00  0.00     0.066 A 
ATOM     18  C   UNL d   1       1.379  -3.584   0.093  0.00  0.00     0.047 A 
BRANCH  16  19
ATOM     19  N   UNL d   1       0.163  -6.941   0.729  0.00  0.00    -0.090 N 
ATOM     20  O   UNL d   1       1.120  -7.720   0.822  0.00  0.00    -0.530 OA
ATOM     21  O   UNL d   1      -1.034  -7.242   0.824  0.00  0.00    -0.530 OA
ENDBRANCH  16  19
ENDBRANCH   1  14
TORSDOF 4
