REMARK  3 active torsions:
REMARK  status: ('A' for Active; 'I' for Inactive)
REMARK    1  A    between atoms: C_13  and  C_4 
REMARK       I    between atoms: C_7  and  N_12 
REMARK    2  A    between atoms: C_8  and  C_7 
REMARK    3  A    between atoms: N_12  and  C_17 
ROOT
ATOM      1  C   UNL d   1       3.586  -1.020  -0.162  0.00  0.00    -0.008 A 
ATOM      2  C   UNL d   1       4.322  -0.949   1.029  0.00  0.00     0.016 A 
ATOM      3  C   UNL d   1       4.190  -1.615  -1.272  0.00  0.00     0.016 A 
ATOM      4  C   UNL d   1       6.285  -1.884  -0.058  0.00  0.00     0.034 A 
ATOM      5  C   UNL d   1       5.521  -2.043  -1.216  0.00  0.00     0.030 A 
ATOM      6  C   UNL d   1       5.654  -1.387   1.087  0.00  0.00     0.030 A 
ENDROOT
BRANCH   1   7
ATOM      7  C   UNL d   1       2.252  -0.439  -0.226  0.00  0.00     0.060 A 
ATOM      8  N   UNL d   1       1.626   0.121   0.881  0.00  0.00    -0.335 N 
ATOM      9  C   UNL d   1       0.510   0.593   0.406  0.00  0.00     0.147 A 
ATOM     10  HN  UNL d   1       1.964   0.155   1.843  1.00  0.00     0.168 HD
ATOM     11  N   UNL d   1       0.371   0.365  -0.920  0.00  0.00    -0.335 N 
ATOM     12  S   UNL d   1      -0.817   1.436   1.089  0.00  0.00    -0.092 SA
ATOM     13  C   UNL d   1       1.468  -0.289  -1.367  0.00  0.00     0.123 A 
ATOM     14  C   UNL d   1      -0.800   0.910  -1.569  0.00  0.00     0.141 C 
ATOM     15  C   UNL d   1      -1.801   1.226  -0.452  0.00  0.00     0.102 C 
ENDBRANCH   1   7
BRANCH   4  16
ATOM     16  N   UNL d   1       7.677  -2.148  -0.000  0.00  0.00    -0.327 N 
ATOM     17  C   UNL d   1       8.494  -2.374  -1.087  0.00  0.00     0.226 C 
ATOM     18  O   UNL d   1       8.143  -2.466  -2.256  0.00  0.00    -0.273 OA
ATOM     19  H   UNL d   1       8.123  -2.012   0.895  0.00  0.00     0.169 HD
BRANCH  17  20
ATOM     20  C   UNL d   1       9.964  -2.482  -0.838  0.00  0.00     0.078 A 
ATOM     21  C   UNL d   1      10.681  -2.407   0.480  0.00  0.00     0.015 A 
ATOM     22  C   UNL d   1      10.736  -1.238  -0.460  0.00  0.00     0.015 A 
ENDBRANCH  17  20
ENDBRANCH   4  16
TORSDOF 3
