REMARK  3 active torsions:
REMARK  status: ('A' for Active; 'I' for Inactive)
REMARK    1  A    between atoms: N_7  and  C_3 
REMARK       I    between atoms: C_8  and  N_7 
REMARK       I    between atoms: N_11  and  C_8 
REMARK    2  A    between atoms: C_13  and  N_10 
REMARK    3  A    between atoms: C_20  and  N_11 
ROOT
ATOM      1  N   UNL d   1       0.993   0.464  -0.550  0.00  0.00    -0.019 N 
ATOM      2  HN  UNL d   1       1.918   0.834  -0.771  1.00  0.00     0.203 HD
ATOM      3  C   UNL d   1       0.643  -0.789  -0.354  0.00  0.00     0.715 A 
ATOM      4  C   UNL d   1      -0.188   1.162  -0.387  0.00  0.00     0.712 A 
ATOM      5  N   UNL d   1      -1.242   0.385  -0.121  0.00  0.00    -0.117 N 
ATOM      6  HN  UNL d   1      -2.215   0.653   0.024  1.00  0.00     0.206 HD
ATOM      7  N   UNL d   1      -0.695  -0.830  -0.092  0.00  0.00    -0.117 N 
ATOM      8  N   UNL d   1      -0.143   2.506  -0.455  0.00  0.00    -0.190 N 
ATOM      9  H   UNL d   1      -1.278  -1.629   0.119  0.00  0.00     0.206 HD
ATOM     10  H   UNL d   1       0.780   2.902  -0.551  0.00  0.00     0.184 HD
ENDROOT
BRANCH   3  11
ATOM     11  N   UNL d   1       1.390  -1.937  -0.357  0.00  0.00    -0.139 N 
ATOM     12  C   UNL d   1       2.724  -2.063  -0.564  0.00  0.00     0.334 C 
ATOM     13  N   UNL d   1       3.431  -0.960  -0.911  0.00  0.00    -0.339 N 
ATOM     14  O   UNL d   1       3.226  -3.180  -0.422  0.00  0.00    -0.246 OA
ATOM     15  H   UNL d   1       2.897  -0.102  -1.028  0.00  0.00     0.164 HD
ATOM     16  H   UNL d   1       0.956  -2.818  -0.125  0.00  0.00     0.189 HD
BRANCH  13  17
ATOM     17  C   UNL d   1       4.879  -0.919  -1.065  0.00  0.00     0.078 C 
ATOM     18  C   UNL d   1       5.606  -1.311   0.222  0.00  0.00     0.032 C 
ATOM     19  C   UNL d   1       5.372  -1.758  -2.244  0.00  0.00     0.032 C 
ENDBRANCH  13  17
ENDBRANCH   3  11
BRANCH   8  20
ATOM     20  C   UNL d   1      -1.177   3.466  -0.419  0.00  0.00     0.049 A 
ATOM     21  C   UNL d   1      -2.526   3.150  -0.643  0.00  0.00     0.032 A 
ATOM     22  C   UNL d   1      -3.527   4.123  -0.553  0.00  0.00     0.026 A 
ATOM     23  C   UNL d   1      -3.194   5.430  -0.213  0.00  0.00     0.034 A 
ATOM     24  C   UNL d   1      -1.867   5.767   0.035  0.00  0.00     0.026 A 
ATOM     25 CL   UNL d   1      -4.423   6.627  -0.096  0.00  0.00    -0.084 Cl
ATOM     26  C   UNL d   1      -0.869   4.790  -0.066  0.00  0.00     0.032 A 
ENDBRANCH   8  20
TORSDOF 3
