REMARK  4 active torsions:
REMARK  status: ('A' for Active; 'I' for Inactive)
REMARK    1  A    between atoms: C_4  and  C_1 
REMARK    2  A    between atoms: C_15  and  C_4 
REMARK    3  A    between atoms: N_10  and  C_6 
REMARK    4  A    between atoms: C_17  and  N_10 
ROOT
ATOM      1  C   UNL d   1       0.985   0.158   0.036  0.00  0.00     0.110 C 
ATOM      2  C   UNL d   1       0.327  -1.000  -0.168  0.00  0.00     0.115 C 
ATOM      3  C   UNL d   1       0.284   1.363   0.306  0.00  0.00     0.105 C 
ATOM      4  N   UNL d   1      -0.327   2.332   0.491  0.00  0.00    -0.191 NA
ENDROOT
BRANCH   1   5
ATOM      5  C   UNL d   1       2.479   0.125  -0.021  0.00  0.00     0.204 C 
ATOM      6  O   UNL d   1       3.111  -0.895   0.245  0.00  0.00    -0.286 OA
BRANCH   5   7
ATOM      7  C   UNL d   1       3.220   1.365  -0.387  0.00  0.00     0.015 A 
ATOM      8  C   UNL d   1       4.476   1.588   0.193  0.00  0.00     0.015 A 
ATOM      9  C   UNL d   1       5.188   2.753  -0.102  0.00  0.00     0.001 A 
ATOM     10  C   UNL d   1       4.652   3.695  -0.980  0.00  0.00     0.000 A 
ATOM     11  C   UNL d   1       3.423   3.459  -1.591  0.00  0.00     0.001 A 
ATOM     12  C   UNL d   1       2.717   2.288  -1.314  0.00  0.00     0.015 A 
ENDBRANCH   5   7
ENDBRANCH   1   5
BRANCH   2  13
ATOM     13  N   UNL d   1      -1.036  -1.204  -0.213  0.00  0.00    -0.364 N 
ATOM     14  H   UNL d   1      -1.621  -0.378  -0.103  0.00  0.00     0.165 HD
BRANCH  13  15
ATOM     15  C   UNL d   1      -1.754  -2.391  -0.453  0.00  0.00     0.033 A 
ATOM     16  C   UNL d   1      -1.157  -3.652  -0.563  0.00  0.00     0.047 A 
ATOM     17  C   UNL d   1      -1.972  -4.744  -0.823  0.00  0.00     0.050 A 
ATOM     18  C   UNL d   1      -1.588  -6.141  -0.977  0.00  0.00     0.294 A 
ATOM     19  C   UNL d   1      -3.336  -4.643  -0.982  0.00  0.00    -0.018 A 
ATOM     20  O   UNL d   1      -2.737  -6.838  -1.228  0.00  0.00    -0.313 OA
ATOM     21  O   UNL d   1      -0.466  -6.597  -0.899  0.00  0.00    -0.259 OA
ATOM     22  C   UNL d   1      -3.897  -5.978  -1.261  0.00  0.00     0.218 A 
ATOM     23  C   UNL d   1      -3.958  -3.416  -0.876  0.00  0.00     0.012 A 
ATOM     24  C   UNL d   1      -3.159  -2.296  -0.611  0.00  0.00     0.030 A 
ENDBRANCH  13  15
ENDBRANCH   2  13
TORSDOF 4
