REMARK  2 active torsions:
REMARK  status: ('A' for Active; 'I' for Inactive)
REMARK       I    between atoms: N_6  and  C_1 
REMARK       I    between atoms: N_7  and  C_1 
REMARK    1  A    between atoms: C_5  and  N_6 
REMARK    2  A    between atoms: C_12  and  N_7 
ROOT
ATOM      1  C   UNL d   1       0.974  -0.046  -0.058  0.00  0.00     0.325 C 
ATOM      2  N   UNL d   1       2.325  -0.247   0.187  0.00  0.00    -0.309 N 
ATOM      3  N   UNL d   1       0.206  -0.298   1.068  0.00  0.00    -0.309 N 
ATOM      4  O   UNL d   1       0.516   0.282  -1.144  0.00  0.00    -0.247 OA
ATOM      5  H   UNL d   1       2.565  -0.689   1.061  0.00  0.00     0.170 HD
ATOM      6  H   UNL d   1       0.692  -0.371   1.948  0.00  0.00     0.170 HD
ENDROOT
BRANCH   2   7
ATOM      7  C   UNL d   1       3.358  -0.156  -0.780  0.00  0.00     0.039 A 
ATOM      8  C   UNL d   1       3.189   0.421  -2.043  0.00  0.00     0.053 A 
ATOM      9  C   UNL d   1       4.222   0.393  -2.981  0.00  0.00     0.037 A 
ATOM     10 CL   UNL d   1       3.975   1.075  -4.542  0.00  0.00    -0.084 Cl
ATOM     11  C   UNL d   1       5.444  -0.191  -2.672  0.00  0.00     0.048 A 
ATOM     12  C   UNL d   1       5.630  -0.728  -1.403  0.00  0.00     0.037 A 
ATOM     13  C   UNL d   1       4.603  -0.706  -0.455  0.00  0.00     0.053 A 
ATOM     14 CL   UNL d   1       7.140  -1.452  -1.003  0.00  0.00    -0.084 Cl
ENDBRANCH   2   7
BRANCH   3  15
ATOM     15  C   UNL d   1      -1.209  -0.329   1.120  0.00  0.00     0.037 A 
ATOM     16  C   UNL d   1      -2.026  -0.213  -0.009  0.00  0.00     0.048 A 
ATOM     17  C   UNL d   1      -3.398  -0.246   0.166  0.00  0.00     0.050 A 
ATOM     18  C   UNL d   1      -4.439  -0.135  -0.848  0.00  0.00     0.294 A 
ATOM     19  C   UNL d   1      -3.988  -0.399   1.400  0.00  0.00    -0.018 A 
ATOM     20  O   UNL d   1      -5.636  -0.217  -0.184  0.00  0.00    -0.313 OA
ATOM     21  O   UNL d   1      -4.285   0.000  -2.044  0.00  0.00    -0.259 OA
ATOM     22  C   UNL d   1      -5.455  -0.376   1.238  0.00  0.00     0.218 A 
ATOM     23  C   UNL d   1      -3.207  -0.538   2.532  0.00  0.00     0.012 A 
ATOM     24  C   UNL d   1      -1.812  -0.502   2.386  0.00  0.00     0.030 A 
ENDBRANCH   3  15
TORSDOF 2
