REMARK  5 active torsions:
REMARK  status: ('A' for Active; 'I' for Inactive)
REMARK    1  A    between atoms: C_13  and  C_2 
REMARK    2  A    between atoms: S_15  and  C_5 
REMARK    3  A    between atoms: C_8  and  C_10 
REMARK    4  A    between atoms: C_9  and  C_14 
REMARK    5  A    between atoms: C_14  and  S_15 
ROOT
ATOM      1  S   UNL d   1       1.211  -0.041  -0.190  0.00  0.00    -0.043 SA
ATOM      2  C   UNL d   1       0.013   1.185   0.030  0.00  0.00     0.118 A 
ATOM      3  N   UNL d   1      -1.204   0.694   0.180  0.00  0.00    -0.291 N 
ATOM      4  HN  UNL d   1      -2.028   1.269   0.356  1.00  0.00     0.187 HD
ATOM      5  C   UNL d   1      -0.048  -1.202  -0.142  0.00  0.00     0.129 A 
ATOM      6  N   UNL d   1      -1.238  -0.683   0.073  0.00  0.00    -0.287 N 
ATOM      7  HN  UNL d   1      -2.092  -1.236   0.152  1.00  0.00     0.188 HD
ENDROOT
BRANCH   2   8
ATOM      8  C   UNL d   1       0.345   2.620   0.008  0.00  0.00     0.067 A 
ATOM      9  N   UNL d   1       1.655   2.954  -0.132  0.00  0.00    -0.363 N 
ATOM     10  C   UNL d   1       1.968   4.272  -0.197  0.00  0.00     0.104 A 
ATOM     11  HN  UNL d   1       2.378   2.237  -0.186  1.00  0.00     0.165 HD
ATOM     12  C   UNL d   1       1.039   5.299  -0.133  0.00  0.00     0.063 A 
ATOM     13  C   UNL d   1      -0.302   4.938   0.020  0.00  0.00     0.020 A 
ATOM     14  C   UNL d   1      -0.655   3.589   0.093  0.00  0.00     0.033 A 
BRANCH  12  15
ATOM     15  C   UNL d   1       1.468   6.732  -0.233  0.00  0.00     0.418 C 
ATOM     16  F   UNL d   1       2.813   6.888  -0.382  0.00  0.00    -0.166 F 
ATOM     17  F   UNL d   1       0.900   7.372  -1.291  0.00  0.00    -0.166 F 
ATOM     18  F   UNL d   1       1.129   7.456   0.868  0.00  0.00    -0.166 F 
ENDBRANCH  12  15
ENDBRANCH   2   8
BRANCH   5  19
ATOM     19  S   UNL d   1       0.109  -2.922  -0.448  0.00  0.00    -0.099 SA
BRANCH  19  20
ATOM     20  C   UNL d   1       1.792  -3.310   0.104  0.00  0.00     0.123 C 
BRANCH  20  21
ATOM     21  C   UNL d   1       2.092  -4.794  -0.003  0.00  0.00    -0.005 A 
ATOM     22  C   UNL d   1       2.700  -5.343  -1.151  0.00  0.00     0.042 A 
ATOM     23 CL   UNL d   1       3.130  -4.374  -2.519  0.00  0.00    -0.084 Cl
ATOM     24  C   UNL d   1       2.988  -6.713  -1.237  0.00  0.00     0.024 A 
ATOM     25  C   UNL d   1       2.664  -7.569  -0.191  0.00  0.00     0.003 A 
ATOM     26  C   UNL d   1       2.042  -7.056   0.942  0.00  0.00     0.024 A 
ATOM     27  C   UNL d   1       1.756  -5.685   1.035  0.00  0.00     0.042 A 
ATOM     28 CL   UNL d   1       0.975  -5.154   2.485  0.00  0.00    -0.084 Cl
ENDBRANCH  20  21
ENDBRANCH  19  20
ENDBRANCH   5  19
TORSDOF 5
