REMARK  4 active torsions:
REMARK  status: ('A' for Active; 'I' for Inactive)
REMARK    1  A    between atoms: C_13  and  C_1 
REMARK    2  A    between atoms: C_14  and  C_1 
REMARK    3  A    between atoms: O_18  and  C_13 
REMARK    4  A    between atoms: O_17  and  C_14 
ROOT
ATOM      1  C   UNL d   1      -1.846  -0.699  -0.721  0.00  0.00     0.144 C 
ATOM      2  C   UNL d   1      -0.798  -1.532   0.050  0.00  0.00     0.024 C 
ATOM      3  C   UNL d   1      -0.967   0.570  -0.709  0.00  0.00     0.024 C 
ATOM      4  C   UNL d   1       0.515  -1.360  -0.726  0.00  0.00     0.001 C 
ATOM      5  C   UNL d   1       0.396   0.092  -1.272  0.00  0.00     0.001 C 
ATOM      6  C   UNL d   1      -0.637   0.784   0.774  0.00  0.00     0.001 A 
ATOM      7  C   UNL d   1      -0.521  -0.667   1.308  0.00  0.00     0.001 A 
ATOM      8  C   UNL d   1       0.995  -0.480   1.455  0.00  0.00    -0.000 A 
ATOM      9  C   UNL d   1       0.881   0.960   0.898  0.00  0.00    -0.000 A 
ATOM     10  C   UNL d   1       1.657  -1.249   0.304  0.00  0.00    -0.004 C 
ATOM     11  C   UNL d   1       1.494   0.841  -0.504  0.00  0.00    -0.004 C 
ATOM     12  C   UNL d   1       2.586  -0.211  -0.321  0.00  0.00     0.011 C 
ENDROOT
BRANCH   1  13
ATOM     13  C   UNL d   1      -2.181  -1.095  -2.144  0.00  0.00     0.278 C 
ATOM     14  O   UNL d   1      -2.140  -0.318  -3.091  0.00  0.00    -0.264 OA
BRANCH  13  15
ATOM     15  O   UNL d   1      -2.608  -2.382  -2.240  0.00  0.00    -0.325 OA
ATOM     16  C   UNL d   1      -3.105  -2.720  -3.540  0.00  0.00     0.213 C 
ENDBRANCH  13  15
ENDBRANCH   1  13
BRANCH   1  17
ATOM     17  C   UNL d   1      -3.139  -0.626   0.075  0.00  0.00     0.278 C 
ATOM     18  O   UNL d   1      -3.633  -1.582   0.658  0.00  0.00    -0.264 OA
BRANCH  17  19
ATOM     19  O   UNL d   1      -3.675   0.623   0.048  0.00  0.00    -0.325 OA
ATOM     20  C   UNL d   1      -4.853   0.795   0.842  0.00  0.00     0.213 C 
ENDBRANCH  17  19
ENDBRANCH   1  17
TORSDOF 4
