REMARK  3 active torsions:
REMARK  status: ('A' for Active; 'I' for Inactive)
REMARK       I    between atoms: N_3  and  C_1 
REMARK       I    between atoms: N_5  and  C_1 
REMARK    1  A    between atoms: C_2  and  N_3 
REMARK    2  A    between atoms: C_10  and  N_5 
REMARK    3  A    between atoms: O_13  and  C_6 
ROOT
ATOM      1  C   UNL d   1       1.172   0.189  -0.180  0.00  0.00     0.325 C 
ATOM      2  N   UNL d   1       0.486   0.910   0.794  0.00  0.00    -0.306 N 
ATOM      3  N   UNL d   1       0.279  -0.518  -0.966  0.00  0.00    -0.309 N 
ATOM      4  O   UNL d   1       2.390   0.150  -0.269  0.00  0.00    -0.247 OA
ATOM      5  H   UNL d   1      -0.426   0.557   1.027  0.00  0.00     0.171 HD
ATOM      6  H   UNL d   1      -0.682  -0.213  -0.926  0.00  0.00     0.170 HD
ENDROOT
BRANCH   2   7
ATOM      7  C   UNL d   1       1.159   1.596   1.831  0.00  0.00     0.071 A 
ATOM      8  C   UNL d   1       2.215   2.461   1.509  0.00  0.00     0.056 A 
ATOM      9  C   UNL d   1       2.840   3.206   2.507  0.00  0.00     0.036 A 
ATOM     10 CL   UNL d   1       4.076   4.329   2.090  0.00  0.00    -0.084 Cl
ATOM     11  C   UNL d   1       2.445   3.075   3.835  0.00  0.00     0.026 A 
ATOM     12  C   UNL d   1       1.392   2.216   4.160  0.00  0.00     0.041 A 
ATOM     13  C   UNL d   1       0.735   1.483   3.164  0.00  0.00     0.095 A 
BRANCH  13  14
ATOM     14  O   UNL d   1      -0.341   0.753   3.603  0.00  0.00    -0.354 OA
ATOM     15  C   UNL d   1      -0.382  -0.617   3.210  0.00  0.00     0.210 C 
ENDBRANCH  13  14
ENDBRANCH   2   7
BRANCH   3  16
ATOM     16  C   UNL d   1       0.575  -1.527  -1.907  0.00  0.00     0.036 A 
ATOM     17  C   UNL d   1       1.859  -2.027  -2.137  0.00  0.00     0.029 A 
ATOM     18  C   UNL d   1       2.067  -3.038  -3.083  0.00  0.00     0.002 A 
ATOM     19  C   UNL d   1       0.993  -3.562  -3.796  0.00  0.00     0.000 A 
ATOM     20  C   UNL d   1      -0.293  -3.082  -3.564  0.00  0.00     0.002 A 
ATOM     21  C   UNL d   1      -0.499  -2.068  -2.623  0.00  0.00     0.029 A 
ENDBRANCH   3  16
TORSDOF 3
