REMARK  5 active torsions:
REMARK  status: ('A' for Active; 'I' for Inactive)
REMARK    1  A    between atoms: C_3  and  S_1 
REMARK    2  A    between atoms: N_9  and  S_1 
REMARK       I    between atoms: C_2  and  N_4 
REMARK       I    between atoms: N_8  and  C_2 
REMARK    3  A    between atoms: N_4  and  C_12 
REMARK    4  A    between atoms: C_16  and  N_8 
REMARK    5  A    between atoms: C_10  and  C_11 
ROOT
ATOM      1  C   UNL d   1       4.419  -3.254   0.289  0.00  0.00     0.325 C 
ATOM      2  N   UNL d   1       5.032  -4.504   0.394  0.00  0.00    -0.309 N 
ATOM      3  N   UNL d   1       3.090  -3.260   0.666  0.00  0.00    -0.309 N 
ATOM      4  O   UNL d   1       4.971  -2.258  -0.175  0.00  0.00    -0.247 OA
ATOM      5  H   UNL d   1       4.463  -5.269   0.735  0.00  0.00     0.170 HD
ATOM      6  H   UNL d   1       2.814  -3.898   1.396  0.00  0.00     0.170 HD
ENDROOT
BRANCH   2   7
ATOM      7  C   UNL d   1       6.170  -4.865  -0.386  0.00  0.00     0.037 C 
ATOM      8  C   UNL d   1       6.878  -3.906  -1.102  0.00  0.00     0.054 C 
ATOM      9  C   UNL d   1       7.485  -4.260  -2.296  0.00  0.00     0.076 C 
ATOM     10  C   UNL d   1       7.740  -5.597  -2.583  0.00  0.00     0.025 C 
ATOM     11  C   UNL d   1       7.296  -6.574  -1.691  0.00  0.00     0.004 C 
ATOM     12  C   UNL d   1       6.455  -6.213  -0.626  0.00  0.00     0.029 C 
BRANCH   9  13
ATOM     13  S   UNL d   1       7.570  -3.043  -3.591  0.00  0.00     0.239 S 
ATOM     14  O   UNL d   1       7.037  -3.662  -4.787  0.00  0.00    -0.206 OA
ATOM     15  O   UNL d   1       8.877  -2.442  -3.536  0.00  0.00    -0.206 OA
BRANCH  13  16
ATOM     16  N   UNL d   1       6.472  -1.836  -3.154  0.00  0.00    -0.225 NA
ATOM     17  H   UNL d   1       5.824  -2.061  -2.393  0.00  0.00     0.136 HD
ATOM     18  H   UNL d   1       6.974  -0.968  -2.968  0.00  0.00     0.136 HD
ENDBRANCH  13  16
ENDBRANCH   9  13
ENDBRANCH   2   7
BRANCH   3  19
ATOM     19  C   UNL d   1       2.195  -2.205   0.347  0.00  0.00     0.036 A 
ATOM     20  C   UNL d   1       2.418  -1.322  -0.715  0.00  0.00     0.030 A 
ATOM     21  C   UNL d   1       1.553  -0.253  -0.968  0.00  0.00     0.010 A 
ATOM     22  C   UNL d   1       0.416  -0.028  -0.182  0.00  0.00    -0.051 A 
ATOM     23  C   UNL d   1       0.159  -0.962   0.839  0.00  0.00     0.010 A 
ATOM     24  C   UNL d   1       1.029  -2.042   1.093  0.00  0.00     0.030 A 
BRANCH  22  25
ATOM     25  C   UNL d   1      -0.476   1.193  -0.467  0.00  0.00    -0.024 C 
ATOM     26  C   UNL d   1      -1.601   1.395   0.571  0.00  0.00     0.019 C 
ATOM     27  C   UNL d   1       0.372   2.488  -0.466  0.00  0.00     0.019 C 
ATOM     28  C   UNL d   1      -1.139   1.038  -1.852  0.00  0.00     0.019 C 
ENDBRANCH  22  25
ENDBRANCH   3  19
TORSDOF 5
