REMARK  4 active torsions:
REMARK  status: ('A' for Active; 'I' for Inactive)
REMARK    1  A    between atoms: C_17  and  N_3 
REMARK    2  A    between atoms: N_19  and  C_8 
REMARK    3  A    between atoms: C_15  and  C_9 
REMARK    4  A    between atoms: N_11  and  C_14 
ROOT
ATOM      1  C   UNL d   1       0.166  -0.617   0.021  0.00  0.00     0.180 A 
ATOM      2  C   UNL d   1       0.160   0.757  -0.032  0.00  0.00     0.033 A 
ATOM      3  N   UNL d   1       1.486  -1.026   0.073  0.00  0.00    -0.233 N 
ATOM      4  N   UNL d   1       2.312   0.060   0.139  0.00  0.00    -0.296 N 
ATOM      5  HN  UNL d   1       3.325   0.055   0.256  1.00  0.00     0.187 HD
ATOM      6  C   UNL d   1      -2.312   0.549  -0.001  0.00  0.00     0.080 A 
ATOM      7  O   UNL d   1      -0.903  -1.411   0.025  0.00  0.00    -0.278 OA
ATOM      8  C   UNL d   1      -2.167  -0.800   0.043  0.00  0.00     0.140 A 
ATOM      9  C   UNL d   1      -1.127   1.500  -0.119  0.00  0.00     0.105 A 
ATOM     10  C   UNL d   1       1.520   1.130   0.018  0.00  0.00     0.034 A 
ATOM     11  C   UNL d   1      -3.609   1.139   0.034  0.00  0.00     0.100 C 
ATOM     12  N   UNL d   1      -4.663   1.625   0.091  0.00  0.00    -0.191 NA
ATOM     13  C   UNL d   1       2.140   2.478  -0.016  0.00  0.00     0.070 C 
ENDROOT
BRANCH   8  14
ATOM     14  N   UNL d   1      -3.196  -1.711   0.111  0.00  0.00    -0.282 NA
ATOM     15  H   UNL d   1      -4.069  -1.368   0.505  0.00  0.00     0.126 HD
ATOM     16  H   UNL d   1      -2.905  -2.603   0.501  0.00  0.00     0.126 HD
ENDBRANCH   8  14
BRANCH   9  17
ATOM     17  C   UNL d   1      -1.067   2.558   0.976  0.00  0.00    -0.044 A 
ATOM     18  C   UNL d   1      -1.153   3.915   0.615  0.00  0.00     0.011 A 
ATOM     19  C   UNL d   1      -1.019   4.918   1.576  0.00  0.00     0.036 A 
ATOM     20  C   UNL d   1      -0.819   4.566   2.916  0.00  0.00     0.102 A 
ATOM     21  C   UNL d   1      -0.764   3.221   3.300  0.00  0.00     0.036 A 
ATOM     22  C   UNL d   1      -0.895   2.223   2.333  0.00  0.00     0.011 A 
BRANCH  20  23
ATOM     23  N   UNL d   1      -0.654   5.618   3.925  0.00  0.00    -0.116 N 
ATOM     24  O   UNL d   1      -0.477   5.268   5.100  0.00  0.00    -0.532 OA
ATOM     25  O   UNL d   1      -0.696   6.796   3.540  0.00  0.00    -0.532 OA
ENDBRANCH  20  23
ENDBRANCH   9  17
BRANCH   3  26
ATOM     26  C   UNL d   1       2.047  -2.334   0.031  0.00  0.00     0.059 A 
ATOM     27  C   UNL d   1       1.258  -3.472  -0.167  0.00  0.00     0.031 A 
ATOM     28  C   UNL d   1       1.858  -4.730  -0.275  0.00  0.00     0.002 A 
ATOM     29  C   UNL d   1       3.241  -4.862  -0.175  0.00  0.00     0.000 A 
ATOM     30  C   UNL d   1       4.033  -3.738   0.042  0.00  0.00     0.002 A 
ATOM     31  C   UNL d   1       3.441  -2.478   0.144  0.00  0.00     0.031 A 
ENDBRANCH   3  26
TORSDOF 4
