REMARK  16 active torsions:
REMARK  status: ('A' for Active; 'I' for Inactive)
REMARK    1  A    between atoms: C_3  and  C_1 
REMARK    2  A    between atoms: O_4  and  C_1 
REMARK    3  A    between atoms: O_5  and  C_3 
REMARK    4  A    between atoms: C_7  and  O_4 
REMARK    5  A    between atoms: C_8  and  C_7 
REMARK    6  A    between atoms: C_18  and  C_8 
REMARK    7  A    between atoms: C_9  and  C_10 
REMARK    8  A    between atoms: C_10  and  C_17 
REMARK    9  A    between atoms: C_11  and  C_12 
REMARK   10  A    between atoms: C_19  and  C_11 
REMARK   11  A    between atoms: C_12  and  C_18 
REMARK   12  A    between atoms: C_13  and  C_19 
REMARK   13  A    between atoms: C_14  and  C_13 
REMARK   14  A    between atoms: C_15  and  C_14 
REMARK   15  A    between atoms: C_16  and  C_15 
REMARK   16  A    between atoms: C_17  and  C_16 
ROOT
ATOM      1  C   UNL d   1       6.785   1.194   1.623  0.00  0.00     0.000 C 
ENDROOT
BRANCH   1   2
ATOM      2  C   UNL d   1       7.574   1.998   2.653  0.00  0.00     0.000 C 
BRANCH   2   3
ATOM      3  C   UNL d   1       9.067   1.832   2.444  0.00  0.00     0.000 C 
BRANCH   3   4
ATOM      4  C   UNL d   1       9.828   2.654   3.473  0.00  0.00     0.000 C 
BRANCH   4   5
ATOM      5  C   UNL d   1      11.324   2.494   3.265  0.00  0.00     0.000 C 
BRANCH   5   6
ATOM      6  C   UNL d   1      12.091   3.309   4.294  0.00  0.00     0.000 C 
BRANCH   6   7
ATOM      7  C   UNL d   1      13.588   3.147   4.086  0.00  0.00     0.000 C 
BRANCH   7   8
ATOM      8  C   UNL d   1      14.360   3.961   5.115  0.00  0.00     0.000 C 
BRANCH   8   9
ATOM      9  C   UNL d   1      15.860   3.798   4.906  0.00  0.00    -0.000 C 
BRANCH   9  10
ATOM     10  C   UNL d   1      16.643   4.609   5.932  0.00  0.00    -0.005 C 
ATOM     11  C   UNL d   1      18.137   4.445   5.721  0.00  0.00     0.005 C 
ENDBRANCH   9  10
ENDBRANCH   8   9
ENDBRANCH   7   8
ENDBRANCH   6   7
ENDBRANCH   5   6
ENDBRANCH   4   5
ENDBRANCH   3   4
ENDBRANCH   2   3
ENDBRANCH   1   2
BRANCH   1  12
ATOM     12  C   UNL d   1       5.281   1.355   1.817  0.00  0.00     0.002 C 
BRANCH  12  13
ATOM     13  C   UNL d   1       4.845   2.808   1.663  0.00  0.00     0.027 C 
BRANCH  13  14
ATOM     14  C   UNL d   1       3.351   2.967   1.891  0.00  0.00     0.178 C 
BRANCH  14  15
ATOM     15  O   UNL d   1       2.988   4.350   1.784  0.00  0.00    -0.319 OA
BRANCH  15  16
ATOM     16  C   UNL d   1       3.261   5.102   2.894  0.00  0.00     0.287 C 
ATOM     17  O   UNL d   1       3.763   4.683   3.925  0.00  0.00    -0.262 OA
BRANCH  16  18
ATOM     18  C   UNL d   1       2.857   6.561   2.665  0.00  0.00     0.213 C 
ATOM     19  C   UNL d   1       3.605   7.162   1.485  0.00  0.00     0.050 C 
BRANCH  18  20
ATOM     20  O   UNL d   1       3.102   7.385   3.803  0.00  0.00    -0.386 OA
ATOM     21  H   UNL d   1       4.046   7.293   4.026  0.00  0.00     0.210 HD
ENDBRANCH  18  20
ENDBRANCH  16  18
ENDBRANCH  15  16
ENDBRANCH  14  15
ENDBRANCH  13  14
ENDBRANCH  12  13
ENDBRANCH   1  12
TORSDOF 16
