REMARK  1 active torsions:
REMARK  status: ('A' for Active; 'I' for Inactive)
REMARK    1  A    between atoms: N_6  and  C_3 
ROOT
ATOM      1  S   UNL d   1      -1.395  -1.860  -0.148  0.00  0.00     0.178 S 
ATOM      2  C   UNL d   1      -2.622  -0.575  -0.317  0.00  0.00     0.186 C 
ATOM      3  C   UNL d   1      -1.946   0.780  -0.002  0.00  0.00     0.271 C 
ATOM      4  C   UNL d   1      -0.036  -0.784  -0.025  0.00  0.00     0.067 A 
ATOM      5  C   UNL d   1      -0.442   0.547   0.019  0.00  0.00    -0.003 A 
ATOM      6  O   UNL d   1      -1.290  -2.577  -1.398  0.00  0.00    -0.223 OA
ATOM      7  O   UNL d   1      -1.565  -2.522   1.125  0.00  0.00    -0.223 OA
ATOM      8  C   UNL d   1       0.542   1.533   0.041  0.00  0.00     0.011 A 
ATOM      9  C   UNL d   1       1.289  -1.187  -0.054  0.00  0.00     0.024 A 
ATOM     10  C   UNL d   1       1.893   1.158   0.016  0.00  0.00     0.001 A 
ATOM     11  C   UNL d   1       2.264  -0.195  -0.027  0.00  0.00     0.002 A 
ENDROOT
BRANCH   3  12
ATOM     12  N   UNL d   1      -2.364   1.546   1.190  0.00  0.00     0.098 N 
ATOM     13  C   UNL d   1      -3.144   0.849   2.214  0.00  0.00     0.273 C 
ATOM     14  C   UNL d   1      -4.594   1.098   1.833  0.00  0.00     0.032 C 
ATOM     15  C   UNL d   1      -4.578   2.501   1.254  0.00  0.00     0.032 C 
ATOM     16  C   UNL d   1      -3.122   2.770   0.889  0.00  0.00     0.273 C 
ENDBRANCH   3  12
TORSDOF 1
