REMARK  4 active torsions:
REMARK  status: ('A' for Active; 'I' for Inactive)
REMARK    1  A    between atoms: C_3  and  C_5 
REMARK    2  A    between atoms: C_4  and  C_6 
REMARK       I    between atoms: N_7  and  C_4 
REMARK    3  A    between atoms: C_14  and  N_7 
REMARK    4  A    between atoms: C_15  and  C_14 
ROOT
ATOM      1  C   UNL d   1      -1.313  -2.525   0.037  0.00  0.00     0.268 C 
ATOM      2  N   UNL d   1      -2.685  -2.459   0.051  0.00  0.00    -0.350 N 
ATOM      3  O   UNL d   1      -0.694  -3.585   0.040  0.00  0.00    -0.266 OA
ATOM      4  H   UNL d   1      -3.152  -1.554   0.048  0.00  0.00     0.163 HD
ENDROOT
BRANCH   1   5
ATOM      5  C   UNL d   1      -0.594  -1.208   0.019  0.00  0.00     0.101 A 
ATOM      6  N   UNL d   1      -1.356  -0.080   0.017  0.00  0.00    -0.348 N 
ATOM      7  C   UNL d   1      -0.702   1.120   0.003  0.00  0.00     0.117 A 
ATOM      8  HN  UNL d   1      -2.375  -0.128   0.026  1.00  0.00     0.166 HD
ATOM      9  C   UNL d   1       0.695   1.202  -0.008  0.00  0.00     0.034 A 
ATOM     10  C   UNL d   1       1.448   0.032  -0.007  0.00  0.00     0.005 A 
ATOM     11  C   UNL d   1       0.796  -1.195   0.006  0.00  0.00     0.035 A 
BRANCH   7  12
ATOM     12  C   UNL d   1      -1.498   2.421  -0.001  0.00  0.00     0.432 C 
ATOM     13  F   UNL d   1      -2.850   2.254   0.005  0.00  0.00    -0.165 F 
ATOM     14  F   UNL d   1      -1.214   3.206   1.079  0.00  0.00    -0.165 F 
ATOM     15  F   UNL d   1      -1.223   3.194  -1.093  0.00  0.00    -0.165 F 
ENDBRANCH   7  12
ENDBRANCH   1   5
BRANCH   2  16
ATOM     16  C   UNL d   1      -3.507  -3.648   0.076  0.00  0.00     0.179 C 
BRANCH  16  17
ATOM     17  C   UNL d   1      -4.992  -3.348   0.088  0.00  0.00     0.026 A 
ATOM     18  N   UNL d   1      -5.388  -2.047   0.077  0.00  0.00    -0.368 N 
ATOM     19  C   UNL d   1      -6.717  -1.803   0.087  0.00  0.00     0.088 A 
ATOM     20  HN  UNL d   1      -4.709  -1.286   0.061  1.00  0.00     0.165 HD
ATOM     21  C   UNL d   1      -7.685  -2.793   0.108  0.00  0.00     0.017 A 
ATOM     22  C   UNL d   1      -7.268  -4.118   0.119  0.00  0.00     0.003 A 
ATOM     23  C   UNL d   1      -5.904  -4.404   0.109  0.00  0.00     0.027 A 
ENDBRANCH  16  17
ENDBRANCH   2  16
TORSDOF 4
