REMARK  3 active torsions:
REMARK  status: ('A' for Active; 'I' for Inactive)
REMARK    1  A    between atoms: O_2  and  C_1 
REMARK    2  A    between atoms: C_5  and  C_1 
REMARK    3  A    between atoms: C_3  and  O_2 
ROOT
ATOM      1  C   UNL d   1       0.868  -0.392  -0.448  0.00  0.00     0.293 C 
ATOM      2  O   UNL d   1       0.283  -1.401  -0.088  0.00  0.00    -0.259 OA
ENDROOT
BRANCH   1   3
ATOM      3  O   UNL d   1       0.282   0.755  -0.874  0.00  0.00    -0.310 OA
BRANCH   3   4
ATOM      4  C   UNL d   1      -1.159   0.745  -0.909  0.00  0.00     0.164 C 
ATOM      5  C   UNL d   1      -1.687  -0.000  -2.162  0.00  0.00     0.305 C 
ATOM      6  N   UNL d   1      -2.531   0.871  -3.024  0.00  0.00     0.090 N 
ATOM      7  C   UNL d   1      -1.714   2.018  -3.476  0.00  0.00     0.273 C 
ATOM      8  C   UNL d   1      -3.666   1.381  -2.224  0.00  0.00     0.273 C 
ATOM      9  C   UNL d   1      -1.177   2.838  -2.293  0.00  0.00     0.037 C 
ATOM     10  C   UNL d   1      -1.653   2.206  -0.972  0.00  0.00     0.020 C 
ATOM     11  C   UNL d   1      -3.189   2.183  -1.001  0.00  0.00     0.037 C 
ENDBRANCH   3   4
ENDBRANCH   1   3
BRANCH   1  12
ATOM     12  C   UNL d   1       2.353  -0.266  -0.481  0.00  0.00     0.039 A 
ATOM     13  C   UNL d   1       3.127  -1.343  -0.020  0.00  0.00     0.019 A 
ATOM     14  C   UNL d   1       4.523  -1.276  -0.051  0.00  0.00     0.025 A 
ATOM     15  C   UNL d   1       5.151  -0.133  -0.542  0.00  0.00     0.034 A 
ATOM     16  C   UNL d   1       4.395   0.946  -0.998  0.00  0.00     0.025 A 
ATOM     17 CL   UNL d   1       6.869  -0.052  -0.591  0.00  0.00    -0.084 Cl
ATOM     18  C   UNL d   1       2.997   0.881  -0.967  0.00  0.00     0.019 A 
ENDBRANCH   1  12
TORSDOF 3
