REMARK  5 active torsions:
REMARK  status: ('A' for Active; 'I' for Inactive)
REMARK    1  A    between atoms: C_8  and  C_2 
REMARK    2  A    between atoms: S_20  and  C_5 
REMARK       I    between atoms: N_19  and  C_23 
REMARK    3  A    between atoms: C_21  and  N_19 
REMARK    4  A    between atoms: C_27  and  S_20 
REMARK    5  A    between atoms: C_23  and  C_27 
ROOT
ATOM      1  N   UNL d   1       1.039   0.153   0.168  0.00  0.00    -0.315 N 
ATOM      2  C   UNL d   1       0.103   1.155   0.004  0.00  0.00     0.134 C 
ATOM      3  N   UNL d   1      -1.091   0.586  -0.051  0.00  0.00    -0.283 N 
ATOM      4  HN  UNL d   1      -1.967   1.064  -0.257  1.00  0.00     0.188 HD
ATOM      5  C   UNL d   1       0.322  -0.981   0.416  0.00  0.00     0.163 C 
ATOM      6  N   UNL d   1      -0.955  -0.748   0.213  0.00  0.00    -0.278 N 
ATOM      7  HN  UNL d   1      -1.706  -1.437   0.247  1.00  0.00     0.189 HD
ATOM      8  C   UNL d   1       2.475   0.231   0.063  0.00  0.00     0.160 C 
ENDROOT
BRANCH   5   9
ATOM      9  S   UNL d   1       0.972  -2.392   1.171  0.00  0.00    -0.083 SA
BRANCH   9  10
ATOM     10  C   UNL d   1      -0.455  -3.507   1.245  0.00  0.00     0.185 C 
BRANCH  10  11
ATOM     11  C   UNL d   1      -1.563  -3.187   2.247  0.00  0.00     0.232 C 
ATOM     12  N   UNL d   1      -1.695  -1.872   2.651  0.00  0.00    -0.324 N 
ATOM     13  H   UNL d   1      -1.347  -1.197   1.979  0.00  0.00     0.169 HD
ATOM     14  O   UNL d   1      -2.358  -4.079   2.552  0.00  0.00    -0.272 OA
BRANCH  12  15
ATOM     15  C   UNL d   1      -2.776  -1.418   3.434  0.00  0.00     0.073 A 
ATOM     16  C   UNL d   1      -3.263  -2.104   4.553  0.00  0.00     0.145 A 
ATOM     17  C   UNL d   1      -4.392  -1.651   5.228  0.00  0.00     0.086 A 
ATOM     18  F   UNL d   1      -2.616  -3.172   5.043  0.00  0.00    -0.204 F 
ATOM     19  C   UNL d   1      -5.030  -0.504   4.777  0.00  0.00     0.119 A 
ATOM     20  C   UNL d   1      -4.536   0.220   3.697  0.00  0.00     0.044 A 
ATOM     21  F   UNL d   1      -6.138  -0.079   5.398  0.00  0.00    -0.206 F 
ATOM     22  C   UNL d   1      -3.391  -0.225   3.036  0.00  0.00     0.036 A 
ENDBRANCH  12  15
ENDBRANCH  10  11
ENDBRANCH   9  10
ENDBRANCH   5   9
BRANCH   2  23
ATOM     23  C   UNL d   1       0.331   2.606  -0.054  0.00  0.00     0.012 A 
ATOM     24  C   UNL d   1      -0.505   3.375  -0.897  0.00  0.00     0.049 A 
ATOM     25  C   UNL d   1      -0.290   4.767  -0.852  0.00  0.00     0.086 A 
ATOM     26  N   UNL d   1      -0.915   5.745  -1.515  0.00  0.00    -0.240 N 
ATOM     27  C   UNL d   1       0.722   5.370   0.002  0.00  0.00     0.085 A 
ATOM     28  O   UNL d   1      -0.321   6.925  -1.096  0.00  0.00    -0.156 OA
ATOM     29  HN  UNL d   1      -1.673   5.644  -2.191  1.00  0.00     0.197 HD
ATOM     30  N   UNL d   1       0.687   6.695  -0.174  0.00  0.00    -0.240 N 
ATOM     31  HN  UNL d   1       1.279   7.392   0.278  1.00  0.00     0.197 HD
ATOM     32  C   UNL d   1       1.546   4.606   0.842  0.00  0.00     0.035 A 
ATOM     33  C   UNL d   1       1.301   3.218   0.797  0.00  0.00     0.018 A 
ENDBRANCH   2  23
TORSDOF 5
