REMARK  7 active torsions:
REMARK  status: ('A' for Active; 'I' for Inactive)
REMARK    1  A    between atoms: C_7  and  C_1 
REMARK    2  A    between atoms: N_9  and  C_3 
REMARK    3  A    between atoms: C_8  and  C_6 
REMARK    4  A    between atoms: O_13  and  C_7 
REMARK    5  A    between atoms: O_14  and  C_8 
REMARK    6  A    between atoms: C_17  and  O_13 
REMARK    7  A    between atoms: C_18  and  O_14 
ROOT
ATOM      1  C   UNL d   1      -0.910  -1.472  -0.034  0.00  0.00     0.081 A 
ATOM      2  C   UNL d   1       0.418  -0.878  -0.009  0.00  0.00    -0.012 A 
ATOM      3  C   UNL d   1      -1.888  -0.487   0.045  0.00  0.00     0.085 A 
ATOM      4  C   UNL d   1       0.365   0.500   0.049  0.00  0.00    -0.007 A 
ATOM      5  S   UNL d   1      -1.222   1.087   0.113  0.00  0.00    -0.076 SA
ATOM      6  C   UNL d   1       1.744  -1.613  -0.083  0.00  0.00     0.120 C 
ATOM      7  C   UNL d   1       1.541   1.424   0.089  0.00  0.00     0.047 C 
ATOM      8  C   UNL d   1       2.909  -0.712   0.372  0.00  0.00     0.020 C 
ATOM      9  C   UNL d   1       2.843   0.687  -0.256  0.00  0.00     0.006 C 
ENDROOT
BRANCH   1  10
ATOM     10  C   UNL d   1      -1.175  -2.911  -0.164  0.00  0.00     0.296 C 
ATOM     11  O   UNL d   1      -0.282  -3.744  -0.261  0.00  0.00    -0.259 OA
BRANCH  10  12
ATOM     12  O   UNL d   1      -2.505  -3.225  -0.224  0.00  0.00    -0.318 OA
BRANCH  12  13
ATOM     13  C   UNL d   1      -2.814  -4.529  -0.733  0.00  0.00     0.174 C 
ATOM     14  C   UNL d   1      -2.938  -4.431  -2.243  0.00  0.00     0.034 C 
ENDBRANCH  12  13
ENDBRANCH  10  12
ENDBRANCH   1  10
BRANCH   3  15
ATOM     15  N   UNL d   1      -3.228  -0.629   0.060  0.00  0.00    -0.393 N 
ATOM     16  H   UNL d   1      -3.669  -1.546   0.078  0.00  0.00     0.156 HD
ATOM     17  H   UNL d   1      -3.842   0.169   0.184  0.00  0.00     0.156 HD
ENDBRANCH   3  15
BRANCH   6  18
ATOM     18  C   UNL d   1       1.996  -2.153  -1.489  0.00  0.00     0.267 C 
ATOM     19  O   UNL d   1       1.540  -1.683  -2.524  0.00  0.00    -0.265 OA
BRANCH  18  20
ATOM     20  O   UNL d   1       2.796  -3.259  -1.425  0.00  0.00    -0.321 OA
BRANCH  20  21
ATOM     21  C   UNL d   1       2.867  -4.033  -2.631  0.00  0.00     0.174 C 
ATOM     22  C   UNL d   1       1.700  -5.005  -2.669  0.00  0.00     0.034 C 
ENDBRANCH  20  21
ENDBRANCH  18  20
ENDBRANCH   6  18
TORSDOF 7
