REMARK  6 active torsions:
REMARK  status: ('A' for Active; 'I' for Inactive)
REMARK    1  A    between atoms: C_14  and  N_1 
REMARK    2  A    between atoms: C_17  and  N_5 
REMARK    3  A    between atoms: C_13  and  C_9 
REMARK    4  A    between atoms: O_19  and  C_13 
REMARK    5  A    between atoms: C_20  and  C_14 
REMARK    6  A    between atoms: C_23  and  O_19 
ROOT
ATOM      1  N   UNL d   1      -0.684   1.174  -0.041  0.00  0.00    -0.261 N 
ATOM      2  C   UNL d   1      -1.370  -0.028  -0.198  0.00  0.00     0.332 C 
ATOM      3  C   UNL d   1       1.466   0.015   0.046  0.00  0.00     0.082 C 
ATOM      4  C   UNL d   1       0.697   1.288   0.041  0.00  0.00     0.266 C 
ATOM      5  N   UNL d   1      -0.602  -1.186  -0.044  0.00  0.00    -0.304 N 
ATOM      6  C   UNL d   1       2.896  -0.035   0.016  0.00  0.00     0.091 A 
ATOM      7  N   UNL d   1       3.610  -0.941  -0.635  0.00  0.00    -0.344 N 
ATOM      8  HN  UNL d   1       3.210  -1.729  -1.144  1.00  0.00     0.167 HD
ATOM      9  C   UNL d   1       4.981  -0.682  -0.538  0.00  0.00     0.115 A 
ATOM     10  C   UNL d   1       0.776  -1.132   0.006  0.00  0.00     0.116 C 
ATOM     11  S   UNL d   1       3.871   1.083   0.915  0.00  0.00    -0.081 SA
ATOM     12  C   UNL d   1       5.290   0.395   0.266  0.00  0.00     0.087 A 
ATOM     13  O   UNL d   1      -2.571  -0.075  -0.464  0.00  0.00    -0.246 OA
ATOM     14  O   UNL d   1       1.270   2.380   0.068  0.00  0.00    -0.267 OA
ENDROOT
BRANCH   1  15
ATOM     15  C   UNL d   1      -1.474   2.400  -0.020  0.00  0.00     0.175 C 
BRANCH  15  16
ATOM     16  C   UNL d   1      -2.088   2.644   1.345  0.00  0.00    -0.040 A 
ATOM     17  C   UNL d   1      -1.387   3.346   2.336  0.00  0.00     0.009 A 
ATOM     18  C   UNL d   1      -1.935   3.505   3.611  0.00  0.00     0.001 A 
ATOM     19  C   UNL d   1      -3.182   2.959   3.912  0.00  0.00     0.000 A 
ATOM     20  C   UNL d   1      -3.892   2.268   2.933  0.00  0.00     0.001 A 
ATOM     21  C   UNL d   1      -3.351   2.117   1.657  0.00  0.00     0.009 A 
ENDBRANCH  15  16
ENDBRANCH   1  15
BRANCH   5  22
ATOM     22  C   UNL d   1      -1.301  -2.491  -0.072  0.00  0.00     0.086 C 
ATOM     23  C   UNL d   1      -1.243  -3.127  -1.460  0.00  0.00     0.032 C 
ATOM     24  C   UNL d   1      -0.824  -3.467   1.010  0.00  0.00     0.032 C 
ENDBRANCH   5  22
BRANCH   9  25
ATOM     25  C   UNL d   1       5.989  -1.442  -1.279  0.00  0.00     0.310 C 
ATOM     26  O   UNL d   1       7.182  -1.157  -1.264  0.00  0.00    -0.258 OA
BRANCH  25  27
ATOM     27  O   UNL d   1       5.440  -2.433  -2.039  0.00  0.00    -0.317 OA
BRANCH  27  28
ATOM     28  C   UNL d   1       6.277  -2.938  -3.087  0.00  0.00     0.175 C 
ATOM     29  C   UNL d   1       6.057  -2.078  -4.320  0.00  0.00     0.034 C 
ENDBRANCH  27  28
ENDBRANCH  25  27
ENDBRANCH   9  25
TORSDOF 6
