REMARK  5 active torsions:
REMARK  status: ('A' for Active; 'I' for Inactive)
REMARK    1  A    between atoms: C_4  and  C_3 
REMARK    2  A    between atoms: O_17  and  C_7 
REMARK    3  A    between atoms: C_9  and  C_13 
REMARK    4  A    between atoms: C_19  and  C_10 
REMARK    5  A    between atoms: O_20  and  C_19 
ROOT
ATOM      1  N   UNL d   1       1.125   1.359  -0.008  0.00  0.00    -0.352 N 
ATOM      2  HN  UNL d   1       1.078   2.378  -0.011  1.00  0.00     0.166 HD
ATOM      3  C   UNL d   1       2.328   0.724  -0.023  0.00  0.00     0.119 A 
ATOM      4  C   UNL d   1       0.008  -0.781   0.034  0.00  0.00     0.025 A 
ATOM      5  C   UNL d   1       0.001   0.628   0.009  0.00  0.00     0.045 A 
ATOM      6  C   UNL d   1       1.264  -1.427   0.026  0.00  0.00     0.082 A 
ATOM      7  C   UNL d   1       2.430  -0.665  -0.006  0.00  0.00     0.072 A 
ATOM      8  C   UNL d   1      -1.225  -1.475   0.053  0.00  0.00     0.037 A 
ATOM      9  C   UNL d   1      -1.218   1.291  -0.019  0.00  0.00     0.032 A 
ATOM     10  C   UNL d   1      -2.439  -0.787   0.017  0.00  0.00     0.018 A 
ATOM     11  C   UNL d   1      -2.434   0.602  -0.029  0.00  0.00     0.023 A 
ENDROOT
BRANCH  10  12
ATOM     12  C   UNL d   1      -3.675  -1.505   0.040  0.00  0.00    -0.065 C 
ATOM     13  C   UNL d   1      -4.712  -2.112   0.092  0.00  0.00    -0.075 C 
BRANCH  13  14
ATOM     14  C   UNL d   1      -5.973  -2.844   0.196  0.00  0.00     0.258 C 
BRANCH  14  15
ATOM     15  O   UNL d   1      -5.892  -4.066  -0.523  0.00  0.00    -0.389 OA
ATOM     16  H   UNL d   1      -5.641  -3.837  -1.434  0.00  0.00     0.210 HD
ENDBRANCH  14  15
ENDBRANCH  13  14
ENDBRANCH  10  12
BRANCH   6  17
ATOM     17  O   UNL d   1       1.240  -2.800   0.029  0.00  0.00    -0.355 OA
ATOM     18  C   UNL d   1       2.486  -3.486  -0.009  0.00  0.00     0.210 C 
ENDBRANCH   6  17
BRANCH   3  19
ATOM     19  C   UNL d   1       3.606   1.549  -0.093  0.00  0.00     0.432 C 
ATOM     20  F   UNL d   1       3.410   2.897  -0.103  0.00  0.00    -0.165 F 
ATOM     21  F   UNL d   1       4.445   1.302   0.956  0.00  0.00    -0.165 F 
ATOM     22  F   UNL d   1       4.338   1.272  -1.213  0.00  0.00    -0.165 F 
ENDBRANCH   3  19
TORSDOF 5
