REMARK  5 active torsions:
REMARK  status: ('A' for Active; 'I' for Inactive)
REMARK    1  A    between atoms: N_2  and  S_1 
REMARK    2  A    between atoms: C_5  and  S_1 
REMARK    3  A    between atoms: S_4  and  N_2 
REMARK    4  A    between atoms: C_8  and  S_4 
REMARK    5  A    between atoms: C_14  and  S_4 
ROOT
ATOM      1  N   UNL d   1       0.579  -1.930  -0.939  0.00  0.00    -0.259 N 
ATOM      2  HN  UNL d   1       1.393  -1.811  -0.336  1.00  0.00     0.186 HD
ENDROOT
BRANCH   1   3
ATOM      3  S   UNL d   1      -0.823  -2.707  -0.338  0.00  0.00     0.267 S 
ATOM      4  O   UNL d   1      -0.591  -4.143  -0.374  0.00  0.00    -0.200 OA
ATOM      5  O   UNL d   1      -2.021  -2.132  -0.917  0.00  0.00    -0.200 OA
BRANCH   3   6
ATOM      6  C   UNL d   1      -0.795  -2.200   1.364  0.00  0.00     0.080 A 
ATOM      7  C   UNL d   1      -1.133  -0.879   1.672  0.00  0.00     0.026 A 
ATOM      8  C   UNL d   1      -1.171  -0.472   3.004  0.00  0.00     0.008 A 
ATOM      9  C   UNL d   1      -0.882  -1.379   4.032  0.00  0.00    -0.062 A 
ATOM     10  C   UNL d   1      -0.561  -2.706   3.710  0.00  0.00     0.008 A 
ATOM     11  C   UNL d   1      -0.925  -0.921   5.460  0.00  0.00     0.048 C 
ATOM     12  C   UNL d   1      -0.518  -3.121   2.376  0.00  0.00     0.026 A 
ENDBRANCH   3   6
ENDBRANCH   1   3
BRANCH   1  13
ATOM     13  S   UNL d   1       0.616  -1.387  -2.456  0.00  0.00    -0.083 SA
BRANCH  13  14
ATOM     14  C   UNL d   1       2.437  -1.494  -2.574  0.00  0.00     0.010 A 
ATOM     15  C   UNL d   1       3.062  -1.736  -3.801  0.00  0.00     0.019 A 
ATOM     16  C   UNL d   1       4.452  -1.850  -3.898  0.00  0.00     0.001 A 
ATOM     17  C   UNL d   1       5.246  -1.677  -2.770  0.00  0.00     0.000 A 
ATOM     18  C   UNL d   1       4.650  -1.363  -1.554  0.00  0.00     0.001 A 
ATOM     19  C   UNL d   1       3.258  -1.260  -1.459  0.00  0.00     0.019 A 
ENDBRANCH  13  14
BRANCH  13  20
ATOM     20  C   UNL d   1       0.110  -2.908  -3.339  0.00  0.00     0.086 C 
ATOM     21  C   UNL d   1      -0.138  -2.675  -4.820  0.00  0.00     0.017 C 
ENDBRANCH  13  20
ENDBRANCH   1  13
TORSDOF 5
