REMARK  5 active torsions:
REMARK  status: ('A' for Active; 'I' for Inactive)
REMARK    1  A    between atoms: C_3  and  C_1 
REMARK    2  A    between atoms: O_10  and  C_1 
REMARK       I    between atoms: C_2  and  N_4 
REMARK    3  A    between atoms: C_9  and  C_2 
REMARK    4  A    between atoms: N_4  and  C_6 
REMARK    5  A    between atoms: C_11  and  C_9 
ROOT
ATOM      1  C   UNL d   1       1.778  -2.532   4.180  0.00  0.00     0.226 C 
ATOM      2  N   UNL d   1       0.516  -2.840   3.685  0.00  0.00    -0.327 N 
ATOM      3  O   UNL d   1       2.699  -2.033   3.536  0.00  0.00    -0.273 OA
ATOM      4  H   UNL d   1      -0.069  -3.436   4.260  0.00  0.00     0.169 HD
ENDROOT
BRANCH   2   5
ATOM      5  C   UNL d   1       0.068  -2.585   2.372  0.00  0.00     0.035 A 
ATOM      6  C   UNL d   1       0.736  -1.716   1.509  0.00  0.00     0.047 A 
ATOM      7  C   UNL d   1       0.315  -1.560   0.185  0.00  0.00     0.039 A 
ATOM      8  C   UNL d   1      -0.836  -2.215  -0.259  0.00  0.00     0.018 A 
ATOM      9  C   UNL d   1      -1.543  -3.044   0.612  0.00  0.00     0.003 A 
ATOM     10  C   UNL d   1      -1.089  -3.232   1.923  0.00  0.00     0.029 A 
BRANCH   7  11
ATOM     11  C   UNL d   1       1.053  -0.681  -0.756  0.00  0.00     0.176 C 
ATOM     12  O   UNL d   1       0.503  -0.099  -1.674  0.00  0.00    -0.646 OA
BRANCH  11  13
ATOM     13  O   UNL d   1       2.384  -0.628  -0.537  0.00  0.00    -0.773 OA
ATOM     14  H   UNL d   1       2.731  -1.236   0.145  0.00  0.00     0.167 HD
ENDBRANCH  11  13
ENDBRANCH   7  11
ENDBRANCH   2   5
BRANCH   1  15
ATOM     15  C   UNL d   1       1.975  -2.929   5.633  0.00  0.00     0.141 C 
BRANCH  15  16
ATOM     16  C   UNL d   1       2.443  -4.355   5.768  0.00  0.00    -0.050 A 
ATOM     17  C   UNL d   1       3.653  -4.762   5.184  0.00  0.00     0.007 A 
ATOM     18  C   UNL d   1       4.071  -6.089   5.270  0.00  0.00     0.001 A 
ATOM     19  C   UNL d   1       3.291  -7.021   5.950  0.00  0.00     0.000 A 
ATOM     20  C   UNL d   1       2.099  -6.623   6.554  0.00  0.00     0.001 A 
ATOM     21  C   UNL d   1       1.677  -5.296   6.468  0.00  0.00     0.007 A 
ENDBRANCH  15  16
ENDBRANCH   1  15
TORSDOF 5
