REMARK  5 active torsions:
REMARK  status: ('A' for Active; 'I' for Inactive)
REMARK    1  A    between atoms: C_9  and  C_1 
REMARK    2  A    between atoms: N_7  and  C_2 
REMARK    3  A    between atoms: C_6  and  N_7 
REMARK    4  A    between atoms: N_10  and  C_6 
REMARK    5  A    between atoms: C_12  and  N_10 
ROOT
ATOM      1  N   UNL d   1       2.034  -1.326  -0.346  0.00  0.00    -0.318 N 
ATOM      2  H   UNL d   1       1.995  -2.338  -0.362  0.00  0.00     0.170 HD
ENDROOT
BRANCH   1   3
ATOM      3  C   UNL d   1       3.316  -0.708  -0.234  0.00  0.00     0.177 C 
ATOM      4  S   UNL d   1       3.653   0.828   0.311  0.00  0.00    -0.040 SA
BRANCH   3   5
ATOM      5  N   UNL d   1       4.332  -1.593  -0.460  0.00  0.00    -0.332 N 
ATOM      6  H   UNL d   1       5.211  -1.342  -0.017  0.00  0.00     0.168 HD
BRANCH   5   7
ATOM      7  C   UNL d   1       4.381  -2.708  -1.337  0.00  0.00     0.056 A 
ATOM      8  C   UNL d   1       3.647  -2.855  -2.531  0.00  0.00     0.060 A 
ATOM      9 CL   UNL d   1       2.725  -1.581  -3.249  0.00  0.00    -0.082 Cl
ATOM     10  C   UNL d   1       3.761  -4.025  -3.290  0.00  0.00     0.026 A 
ATOM     11  C   UNL d   1       4.634  -5.036  -2.900  0.00  0.00     0.002 A 
ATOM     12  C   UNL d   1       5.416  -4.870  -1.761  0.00  0.00     0.002 A 
ATOM     13  C   UNL d   1       5.298  -3.711  -0.990  0.00  0.00     0.031 A 
ENDBRANCH   5   7
ENDBRANCH   3   5
ENDBRANCH   1   3
BRANCH   1  14
ATOM     14  C   UNL d   1       0.845  -0.656  -0.593  0.00  0.00     0.124 A 
ATOM     15  C   UNL d   1      -0.369  -1.277  -0.760  0.00  0.00     0.082 A 
ATOM     16  C   UNL d   1      -1.236  -0.260  -1.231  0.00  0.00     0.068 A 
ATOM     17  N   UNL d   1      -0.626   0.932  -1.260  0.00  0.00    -0.298 N 
ATOM     18  N   UNL d   1       0.624   0.669  -0.847  0.00  0.00    -0.285 N 
ATOM     19  HN  UNL d   1      -1.020   1.833  -1.533  1.00  0.00     0.187 HD
ATOM     20  H   UNL d   1       1.294   1.431  -0.819  0.00  0.00     0.188 HD
BRANCH  16  21
ATOM     21  C   UNL d   1      -2.647  -0.441  -1.707  0.00  0.00     0.033 A 
ATOM     22  S   UNL d   1      -3.498  -1.922  -1.669  0.00  0.00    -0.100 SA
ATOM     23  C   UNL d   1      -4.876  -1.221  -2.403  0.00  0.00     0.050 A 
ATOM     24  C   UNL d   1      -4.691   0.117  -2.675  0.00  0.00     0.008 A 
ATOM     25  C   UNL d   1      -3.403   0.569  -2.265  0.00  0.00     0.021 A 
ENDBRANCH  16  21
ENDBRANCH   1  14
TORSDOF 5
