REMARK  3 active torsions:
REMARK  status: ('A' for Active; 'I' for Inactive)
REMARK    1  A    between atoms: N_6  and  C_2 
REMARK    2  A    between atoms: C_14  and  C_3 
REMARK    3  A    between atoms: C_19  and  N_10 
ROOT
ATOM      1  C   UNL d   1       1.208   0.521   1.124  0.00  0.00     0.048 A 
ATOM      2  C   UNL d   1       1.516   1.415   0.050  0.00  0.00     0.097 A 
ATOM      3  C   UNL d   1       1.332   0.528   2.588  0.00  0.00    -0.003 A 
ATOM      4  C   UNL d   1       0.654  -0.696   0.720  0.00  0.00     0.089 A 
ATOM      5  C   UNL d   1       0.957  -0.689   3.136  0.00  0.00     0.065 A 
ATOM      6  S   UNL d   1       0.376  -1.794   1.986  0.00  0.00    -0.082 SA
ATOM      7  N   UNL d   1       1.196   1.024  -1.213  0.00  0.00    -0.342 N 
ATOM      8  HN  UNL d   1       1.385   1.646  -1.999  1.00  0.00     0.167 HD
ATOM      9  N   UNL d   1       0.341  -1.085  -0.525  0.00  0.00    -0.346 N 
ATOM     10  HN  UNL d   1      -0.078  -1.988  -0.747  1.00  0.00     0.167 HD
ATOM     11  C   UNL d   1       0.635  -0.169  -1.433  0.00  0.00     0.182 A 
ENDROOT
BRANCH   2  12
ATOM     12  N   UNL d   1       2.243   2.611   0.182  0.00  0.00    -0.265 NA
ATOM     13  C   UNL d   1       2.964   2.982  -1.062  0.00  0.00     0.127 C 
ATOM     14  C   UNL d   1       3.869   4.212  -0.810  0.00  0.00     0.287 C 
ATOM     15  N   UNL d   1       3.169   5.407  -0.263  0.00  0.00     0.094 N 
ATOM     16  C   UNL d   1       2.415   4.947   0.934  0.00  0.00     0.287 C 
ATOM     17  C   UNL d   1       1.456   3.745   0.694  0.00  0.00     0.127 C 
BRANCH  15  18
ATOM     18  C   UNL d   1       2.315   6.110  -1.244  0.00  0.00     0.215 C 
ATOM     19  C   UNL d   1       1.690   7.376  -0.626  0.00  0.00     0.042 C 
ATOM     20  C   UNL d   1       3.101   6.556  -2.490  0.00  0.00     0.042 C 
ENDBRANCH  15  18
ENDBRANCH   2  12
BRANCH   3  21
ATOM     21  C   UNL d   1       1.728   1.599   3.515  0.00  0.00    -0.024 A 
ATOM     22  C   UNL d   1       0.941   1.857   4.657  0.00  0.00     0.012 A 
ATOM     23  C   UNL d   1       1.248   2.910   5.522  0.00  0.00     0.001 A 
ATOM     24  C   UNL d   1       2.337   3.731   5.252  0.00  0.00     0.000 A 
ATOM     25  C   UNL d   1       3.145   3.460   4.151  0.00  0.00     0.001 A 
ATOM     26  C   UNL d   1       2.858   2.382   3.302  0.00  0.00     0.012 A 
ENDBRANCH   3  21
TORSDOF 3
