REMARK  7 active torsions:
REMARK  status: ('A' for Active; 'I' for Inactive)
REMARK    1  A    between atoms: C_2  and  C_1 
REMARK    2  A    between atoms: C_3  and  C_2 
REMARK    3  A    between atoms: C_4  and  C_2 
REMARK       I    between atoms: N_5  and  C_3 
REMARK       I    between atoms: N_6  and  C_4 
REMARK    4  A    between atoms: C_18  and  N_5 
REMARK    5  A    between atoms: C_19  and  N_6 
REMARK    6  A    between atoms: O_30  and  C_20 
REMARK    7  A    between atoms: O_31  and  C_21 
ROOT
ATOM      1  C   UNL d   1      -3.073   0.623   0.061  0.00  0.00     0.178 C 
ENDROOT
BRANCH   1   2
ATOM      2  C   UNL d   1      -1.718  -0.186   0.227  0.00  0.00    -0.019 C 
ATOM      3  C   UNL d   1      -2.067  -1.719   0.236  0.00  0.00     0.015 C 
ATOM      4  C   UNL d   1      -0.876  -2.571   0.662  0.00  0.00    -0.013 C 
ATOM      5  C   UNL d   1       0.184  -2.450  -0.431  0.00  0.00     0.009 C 
ATOM      6  C   UNL d   1      -0.342  -2.059   2.010  0.00  0.00     0.009 C 
ATOM      7  C   UNL d   1       0.595  -0.975  -0.584  0.00  0.00    -0.013 C 
ATOM      8  C   UNL d   1      -0.645  -0.075  -0.906  0.00  0.00     0.015 C 
ATOM      9  C   UNL d   1       1.234  -0.550   0.750  0.00  0.00     0.009 C 
ATOM     10  C   UNL d   1       0.191  -0.625   1.869  0.00  0.00    -0.013 C 
ATOM     11  C   UNL d   1      -0.970   0.303   1.510  0.00  0.00     0.015 C 
ENDBRANCH   1   2
BRANCH   1  12
ATOM     12  C   UNL d   1      -3.968   0.361   1.322  0.00  0.00     0.236 C 
ATOM     13  N   UNL d   1      -5.091   1.152   1.514  0.00  0.00    -0.326 N 
ATOM     14  H   UNL d   1      -4.977   2.116   1.206  0.00  0.00     0.169 HD
ATOM     15  O   UNL d   1      -3.688  -0.530   2.126  0.00  0.00    -0.272 OA
BRANCH  13  16
ATOM     16  C   UNL d   1      -5.864   0.965   2.697  0.00  0.00     0.034 A 
ATOM     17  C   UNL d   1      -6.239   2.078   3.445  0.00  0.00     0.032 A 
ATOM     18  C   UNL d   1      -6.784   1.908   4.727  0.00  0.00     0.039 A 
ATOM     19  C   UNL d   1      -6.986   0.626   5.250  0.00  0.00     0.068 A 
ATOM     20  C   UNL d   1      -6.704  -0.483   4.457  0.00  0.00     0.039 A 
ATOM     21  C   UNL d   1      -6.159  -0.315   3.184  0.00  0.00     0.032 A 
BRANCH  19  22
ATOM     22  O   UNL d   1      -7.441   0.331   6.504  0.00  0.00    -0.356 OA
ATOM     23  C   UNL d   1      -7.456   1.398   7.444  0.00  0.00     0.210 C 
ENDBRANCH  19  22
ENDBRANCH  13  16
ENDBRANCH   1  12
BRANCH   1  24
ATOM     24  C   UNL d   1      -2.921   2.127  -0.196  0.00  0.00     0.236 C 
ATOM     25  N   UNL d   1      -2.497   2.483  -1.467  0.00  0.00    -0.326 N 
ATOM     26  H   UNL d   1      -2.129   1.755  -2.068  0.00  0.00     0.169 HD
ATOM     27  O   UNL d   1      -3.209   2.932   0.688  0.00  0.00    -0.272 OA
BRANCH  25  28
ATOM     28  C   UNL d   1      -2.231   3.819  -1.867  0.00  0.00     0.034 C 
ATOM     29  C   UNL d   1      -1.287   4.036  -2.877  0.00  0.00     0.032 C 
ATOM     30  C   UNL d   1      -0.829   5.330  -3.150  0.00  0.00     0.039 C 
ATOM     31  C   UNL d   1      -1.338   6.419  -2.453  0.00  0.00     0.068 C 
ATOM     32  C   UNL d   1      -2.391   6.226  -1.555  0.00  0.00     0.039 C 
ATOM     33  C   UNL d   1      -2.825   4.929  -1.264  0.00  0.00     0.032 C 
BRANCH  31  34
ATOM     34  O   UNL d   1      -0.906   7.714  -2.587  0.00  0.00    -0.356 OA
ATOM     35  C   UNL d   1       0.495   7.844  -2.811  0.00  0.00     0.210 C 
ENDBRANCH  31  34
ENDBRANCH  25  28
ENDBRANCH   1  24
TORSDOF 7
