REMARK  1 active torsions:
REMARK  status: ('A' for Active; 'I' for Inactive)
REMARK    1  A    between atoms: C_7  and  N_1 
ROOT
ATOM      1  N   UNL d   1       2.420  -0.651  -0.069  0.00  0.00    -0.265 N 
ATOM      2  C   UNL d   1       1.269  -1.450  -0.061  0.00  0.00     0.266 A 
ATOM      3  C   UNL d   1       2.329   0.732  -0.021  0.00  0.00     0.087 A 
ATOM      4  N   UNL d   1       1.203   1.372   0.043  0.00  0.00    -0.345 N 
ATOM      5  HN  UNL d   1       1.191   2.391   0.099  1.00  0.00     0.167 HD
ATOM      6  C   UNL d   1      -0.020  -0.740  -0.005  0.00  0.00     0.059 A 
ATOM      7  C   UNL d   1       0.009   0.650   0.034  0.00  0.00     0.049 A 
ATOM      8  O   UNL d   1       1.263  -2.683  -0.090  0.00  0.00    -0.267 OA
ATOM      9  C   UNL d   1       3.566   1.604  -0.116  0.00  0.00     0.089 C 
ATOM     10  C   UNL d   1      -1.236  -1.435  -0.024  0.00  0.00     0.019 A 
ATOM     11  C   UNL d   1      -1.199   1.351   0.025  0.00  0.00     0.030 A 
ATOM     12  C   UNL d   1      -2.437  -0.725  -0.031  0.00  0.00     0.001 A 
ATOM     13  C   UNL d   1      -2.418   0.669  -0.014  0.00  0.00     0.002 A 
ENDROOT
BRANCH   1  14
ATOM     14  C   UNL d   1       3.675  -1.321  -0.171  0.00  0.00     0.082 A 
ATOM     15  C   UNL d   1       4.667  -1.172   0.808  0.00  0.00     0.146 A 
ATOM     16  C   UNL d   1       5.914  -1.771   0.667  0.00  0.00     0.086 A 
ATOM     17  F   UNL d   1       4.425  -0.438   1.904  0.00  0.00    -0.204 F 
ATOM     18  C   UNL d   1       6.171  -2.528  -0.467  0.00  0.00     0.119 A 
ATOM     19  C   UNL d   1       5.197  -2.717  -1.443  0.00  0.00     0.045 A 
ATOM     20  F   UNL d   1       7.379  -3.082  -0.630  0.00  0.00    -0.206 F 
ATOM     21  C   UNL d   1       3.941  -2.127  -1.289  0.00  0.00     0.036 A 
ENDBRANCH   1  14
TORSDOF 1
