REMARK  1 active torsions:
REMARK  status: ('A' for Active; 'I' for Inactive)
REMARK    1  A    between atoms: C_7  and  N_1 
ROOT
ATOM      1  N   UNL d   1      -0.613  -1.218  -0.088  0.00  0.00    -0.270 N 
ATOM      2  C   UNL d   1      -1.381  -0.055   0.111  0.00  0.00     0.334 A 
ATOM      3  N   UNL d   1      -0.667   1.117   0.189  0.00  0.00    -0.274 N 
ATOM      4  C   UNL d   1       1.449   0.026  -0.147  0.00  0.00     0.128 A 
ATOM      5  C   UNL d   1       0.771  -1.127  -0.204  0.00  0.00     0.130 A 
ATOM      6  C   UNL d   1       0.680   1.272   0.021  0.00  0.00     0.271 A 
ATOM      7  C   UNL d   1       2.864   0.068  -0.232  0.00  0.00     0.106 C 
ATOM      8  N   UNL d   1       4.021   0.038  -0.292  0.00  0.00    -0.191 NA
ATOM      9  O   UNL d   1      -2.607   0.002   0.177  0.00  0.00    -0.246 OA
ATOM     10  O   UNL d   1       1.202   2.379   0.012  0.00  0.00    -0.266 OA
ATOM     11  H   UNL d   1      -1.214   1.961   0.278  0.00  0.00     0.173 HD
ENDROOT
BRANCH   1  12
ATOM     12  C   UNL d   1      -1.284  -2.489  -0.205  0.00  0.00     0.082 A 
ATOM     13  C   UNL d   1      -0.855  -3.459  -1.130  0.00  0.00     0.146 A 
ATOM     14  C   UNL d   1      -1.502  -4.685  -1.261  0.00  0.00     0.086 A 
ATOM     15  F   UNL d   1       0.163  -3.201  -1.966  0.00  0.00    -0.204 F 
ATOM     16  C   UNL d   1      -2.583  -4.966  -0.443  0.00  0.00     0.119 A 
ATOM     17  C   UNL d   1      -3.027  -4.042   0.494  0.00  0.00     0.045 A 
ATOM     18  F   UNL d   1      -3.210  -6.144  -0.557  0.00  0.00    -0.206 F 
ATOM     19  C   UNL d   1      -2.386  -2.804   0.608  0.00  0.00     0.036 A 
ENDBRANCH   1  12
TORSDOF 1
