REMARK  6 active torsions:
REMARK  status: ('A' for Active; 'I' for Inactive)
REMARK    1  A    between atoms: O_5  and  N_1 
REMARK    2  A    between atoms: C_4  and  C_3 
REMARK    3  A    between atoms: C_11  and  C_6 
REMARK    4  A    between atoms: C_12  and  C_11 
REMARK    5  A    between atoms: C_14  and  C_12 
REMARK    6  A    between atoms: C_13  and  C_14 
ROOT
ATOM      1  C   UNL d   1      -0.978   0.641   0.817  0.00  0.00    -0.019 A 
ATOM      2  C   UNL d   1      -3.780   0.713   0.897  0.00  0.00    -0.058 A 
ATOM      3  C   UNL d   1      -1.629   1.218   1.909  0.00  0.00     0.013 A 
ATOM      4  C   UNL d   1      -1.716   0.120  -0.246  0.00  0.00     0.013 A 
ATOM      5  C   UNL d   1      -3.024   1.255   1.946  0.00  0.00     0.008 A 
ATOM      6  C   UNL d   1      -3.112   0.162  -0.207  0.00  0.00     0.008 A 
ENDROOT
BRANCH   1   7
ATOM      7  C   UNL d   1       0.494   0.556   0.773  0.00  0.00     0.125 C 
ATOM      8  N   UNL d   1       1.240   0.983   1.742  0.00  0.00    -0.280 N 
ATOM      9  HN  UNL d   1       0.904   1.415   2.603  1.00  0.00     0.193 HD
BRANCH   8  10
ATOM     10  O   UNL d   1       2.582   0.754   1.417  0.00  0.00    -0.290 OA
ATOM     11  H   UNL d   1       3.046   1.085   2.209  0.00  0.00     0.244 HD
ENDBRANCH   8  10
ENDBRANCH   1   7
BRANCH   2  12
ATOM     12  C   UNL d   1      -5.288   0.723   0.966  0.00  0.00     0.038 C 
BRANCH  12  13
ATOM     13  C   UNL d   1      -5.930  -0.670   0.908  0.00  0.00     0.005 C 
BRANCH  13  14
ATOM     14  C   UNL d   1      -5.528  -1.572   2.080  0.00  0.00    -0.000 C 
BRANCH  14  15
ATOM     15  C   UNL d   1      -6.200  -2.941   1.975  0.00  0.00    -0.005 C 
ATOM     16  C   UNL d   1      -5.789  -3.855   3.118  0.00  0.00     0.005 C 
ENDBRANCH  14  15
ENDBRANCH  13  14
ENDBRANCH  12  13
ENDBRANCH   2  12
TORSDOF 6
