REMARK  7 active torsions:
REMARK  status: ('A' for Active; 'I' for Inactive)
REMARK    1  A    between atoms: N_10  and  C_1 
REMARK    2  A    between atoms: C_5  and  C_2 
REMARK    3  A    between atoms: C_9  and  O_17 
REMARK       I    between atoms: N_11  and  C_9 
REMARK    4  A    between atoms: C_26  and  N_10 
REMARK    5  A    between atoms: C_16  and  N_11 
REMARK    6  A    between atoms: O_17  and  C_25 
REMARK    7  A    between atoms: C_25  and  C_26 
ROOT
ATOM      1  N   UNL d   1      -1.393  -3.232   0.126  0.00  0.00    -0.382 N 
ATOM      2  C   UNL d   1      -0.239  -4.088  -0.158  0.00  0.00     0.150 C 
ENDROOT
BRANCH   1   3
ATOM      3  C   UNL d   1      -1.275  -1.828   0.107  0.00  0.00     0.044 C 
ATOM      4  C   UNL d   1      -2.412  -1.047  -0.176  0.00  0.00     0.064 C 
ATOM      5  C   UNL d   1      -2.326   0.333  -0.353  0.00  0.00     0.119 C 
ATOM      6  N   UNL d   1      -1.152   0.993  -0.239  0.00  0.00    -0.352 N 
ATOM      7  C   UNL d   1      -0.063   0.308   0.106  0.00  0.00     0.045 A 
ATOM      8  HN  UNL d   1      -1.101   1.997  -0.413  1.00  0.00     0.166 HD
ATOM      9  C   UNL d   1      -0.049  -1.093   0.343  0.00  0.00     0.017 A 
ATOM     10  C   UNL d   1       1.096   1.065   0.232  0.00  0.00     0.030 A 
ATOM     11  C   UNL d   1       1.188  -1.612   0.825  0.00  0.00     0.016 A 
ATOM     12  C   UNL d   1       2.349  -0.837   0.944  0.00  0.00     0.001 A 
ATOM     13  C   UNL d   1       2.307   0.506   0.626  0.00  0.00     0.002 A 
BRANCH   5  14
ATOM     14  C   UNL d   1      -3.581   1.118  -0.701  0.00  0.00     0.432 C 
ATOM     15  F   UNL d   1      -3.341   2.390  -1.134  0.00  0.00    -0.165 F 
ATOM     16  F   UNL d   1      -4.308   0.529  -1.697  0.00  0.00    -0.165 F 
ATOM     17  F   UNL d   1      -4.438   1.243   0.354  0.00  0.00    -0.165 F 
ENDBRANCH   5  14
ENDBRANCH   1   3
BRANCH   1  18
ATOM     18  C   UNL d   1      -2.704  -3.930  -0.002  0.00  0.00     0.149 C 
BRANCH  18  19
ATOM     19  C   UNL d   1      -3.131  -4.115  -1.478  0.00  0.00     0.200 C 
BRANCH  19  20
ATOM     20  O   UNL d   1      -4.335  -4.886  -1.684  0.00  0.00    -0.302 OA
BRANCH  20  21
ATOM     21  C   UNL d   1      -5.484  -4.248  -1.351  0.00  0.00     0.365 C 
ATOM     22  N   UNL d   1      -6.652  -4.758  -1.846  0.00  0.00    -0.303 N 
ATOM     23  H   UNL d   1      -7.429  -4.188  -1.540  0.00  0.00     0.171 HD
ATOM     24  O   UNL d   1      -5.518  -3.224  -0.672  0.00  0.00    -0.238 OA
BRANCH  22  25
ATOM     25  C   UNL d   1      -6.954  -5.748  -2.798  0.00  0.00     0.036 A 
ATOM     26  C   UNL d   1      -6.042  -6.637  -3.365  0.00  0.00     0.031 A 
ATOM     27  C   UNL d   1      -6.461  -7.541  -4.359  0.00  0.00     0.026 A 
ATOM     28  C   UNL d   1      -7.785  -7.557  -4.788  0.00  0.00     0.034 A 
ATOM     29  C   UNL d   1      -8.710  -6.693  -4.215  0.00  0.00     0.026 A 
ATOM     30 CL   UNL d   1      -8.280  -8.637  -6.031  0.00  0.00    -0.084 Cl
ATOM     31  C   UNL d   1      -8.296  -5.802  -3.220  0.00  0.00     0.031 A 
ENDBRANCH  22  25
ENDBRANCH  20  21
ENDBRANCH  19  20
ENDBRANCH  18  19
ENDBRANCH   1  18
TORSDOF 7
