REMARK  3 active torsions:
REMARK  status: ('A' for Active; 'I' for Inactive)
REMARK    1  A    between atoms: C_6  and  N_1 
REMARK    2  A    between atoms: N_9  and  C_6 
REMARK    3  A    between atoms: C_12  and  N_9 
ROOT
ATOM      1  N   UNL d   1      -1.949   0.051  -0.136  0.00  0.00    -0.263 N 
ATOM      2  C   UNL d   1      -1.203  -1.084  -0.138  0.00  0.00     0.258 A 
ATOM      3  C   UNL d   1      -1.158   1.143   0.025  0.00  0.00     0.258 A 
ATOM      4  C   UNL d   1       0.225   0.668  -0.027  0.00  0.00     0.022 A 
ATOM      5  C   UNL d   1       0.201  -0.665  -0.099  0.00  0.00     0.022 A 
ATOM      6  O   UNL d   1      -1.469   2.297   0.257  0.00  0.00    -0.267 OA
ATOM      7  O   UNL d   1      -1.572  -2.244  -0.133  0.00  0.00    -0.267 OA
ATOM      8  C   UNL d   1       1.396  -1.539  -0.075  0.00  0.00     0.045 C 
ATOM      9  C   UNL d   1       1.450   1.498   0.032  0.00  0.00     0.045 C 
ATOM     10  C   UNL d   1       2.650  -0.740   0.330  0.00  0.00     0.005 C 
ATOM     11  C   UNL d   1       2.692   0.658  -0.310  0.00  0.00     0.005 C 
ENDROOT
BRANCH   1  12
ATOM     12  C   UNL d   1      -3.378   0.065  -0.047  0.00  0.00     0.258 C 
BRANCH  12  13
ATOM     13  N   UNL d   1      -3.956   0.003  -1.375  0.00  0.00    -0.373 N 
ATOM     14  H   UNL d   1      -3.699  -0.835  -1.888  0.00  0.00     0.161 HD
BRANCH  13  15
ATOM     15  C   UNL d   1      -4.218   1.109  -2.171  0.00  0.00     0.029 A 
ATOM     16  C   UNL d   1      -4.116   2.435  -1.737  0.00  0.00     0.029 A 
ATOM     17  C   UNL d   1      -4.479   3.506  -2.562  0.00  0.00     0.002 A 
ATOM     18  C   UNL d   1      -4.989   3.270  -3.833  0.00  0.00     0.000 A 
ATOM     19  C   UNL d   1      -5.136   1.961  -4.276  0.00  0.00     0.002 A 
ATOM     20  C   UNL d   1      -4.758   0.896  -3.450  0.00  0.00     0.029 A 
ENDBRANCH  13  15
ENDBRANCH  12  13
ENDBRANCH   1  12
TORSDOF 3
