REMARK  5 active torsions:
REMARK  status: ('A' for Active; 'I' for Inactive)
REMARK    1  A    between atoms: C_9  and  C_4 
REMARK       I    between atoms: C_8  and  N_7 
REMARK       I    between atoms: N_13  and  C_8 
REMARK    2  A    between atoms: O_15  and  C_10 
REMARK    3  A    between atoms: C_16  and  N_13 
REMARK    4  A    between atoms: C_26  and  O_15 
REMARK    5  A    between atoms: O_27  and  C_17 
ROOT
ATOM      1  C   UNL d   1      -5.512   0.863  -1.829  0.00  0.00     0.153 C 
ATOM      2  N   UNL d   1      -6.233  -0.224  -1.866  0.00  0.00    -0.335 N 
ATOM      3  HN  UNL d   1      -6.166  -1.001  -1.209  1.00  0.00     0.168 HD
ATOM      4  C   UNL d   1      -7.106  -0.152  -2.941  0.00  0.00     0.057 C 
ATOM      5  S   UNL d   1      -5.940   2.102  -2.912  0.00  0.00    -0.057 SA
ATOM      6  C   UNL d   1      -7.074   1.035  -3.654  0.00  0.00     0.010 C 
ATOM      7  N   UNL d   1      -4.404   1.114  -1.078  0.00  0.00    -0.288 N 
ATOM      8  C   UNL d   1      -3.620   0.142  -0.523  0.00  0.00     0.326 C 
ATOM      9  N   UNL d   1      -4.167  -1.098  -0.346  0.00  0.00    -0.309 N 
ATOM     10  O   UNL d   1      -2.463   0.450  -0.226  0.00  0.00    -0.247 OA
ATOM     11  C   UNL d   1      -7.818   1.474  -4.870  0.00  0.00     0.059 C 
ATOM     12  H   UNL d   1      -3.933   1.993  -1.230  0.00  0.00     0.172 HD
ATOM     13  H   UNL d   1      -5.176  -1.133  -0.256  0.00  0.00     0.170 HD
ENDROOT
BRANCH   9  14
ATOM     14  C   UNL d   1      -3.437  -2.290  -0.167  0.00  0.00     0.039 A 
ATOM     15  C   UNL d   1      -2.170  -2.454  -0.730  0.00  0.00     0.069 A 
ATOM     16  C   UNL d   1      -1.466  -3.664  -0.634  0.00  0.00     0.104 A 
ATOM     17  C   UNL d   1      -2.028  -4.712   0.095  0.00  0.00     0.101 A 
ATOM     18  C   UNL d   1      -3.298  -4.554   0.673  0.00  0.00     0.042 A 
ATOM     19  C   UNL d   1      -4.017  -3.362   0.507  0.00  0.00     0.032 A 
BRANCH  16  20
ATOM     20  O   UNL d   1      -0.330  -3.640  -1.381  0.00  0.00    -0.343 OA
BRANCH  20  21
ATOM     21  C   UNL d   1       0.740  -4.548  -1.193  0.00  0.00     0.129 C 
ATOM     22  C   UNL d   1       1.634  -4.146  -0.027  0.00  0.00     0.032 C 
ATOM     23  C   UNL d   1       3.064  -4.468  -0.454  0.00  0.00     0.002 C 
ATOM     24  C   UNL d   1       3.016  -4.834  -1.933  0.00  0.00     0.002 C 
ATOM     25  C   UNL d   1       1.647  -4.402  -2.414  0.00  0.00     0.032 C 
ENDBRANCH  20  21
ENDBRANCH  16  20
BRANCH  17  26
ATOM     26  O   UNL d   1      -1.363  -5.882   0.332  0.00  0.00    -0.353 OA
ATOM     27  C   UNL d   1      -1.724  -6.887  -0.617  0.00  0.00     0.210 C 
ENDBRANCH  17  26
ENDBRANCH   9  14
BRANCH   4  28
ATOM     28  C   UNL d   1      -7.922  -1.316  -3.232  0.00  0.00    -0.007 A 
ATOM     29  C   UNL d   1      -8.657  -1.892  -2.189  0.00  0.00     0.038 A 
ATOM     30  C   UNL d   1      -9.289  -3.123  -2.364  0.00  0.00     0.040 A 
ATOM     31 CL   UNL d   1     -10.122  -3.797  -1.008  0.00  0.00    -0.084 Cl
ATOM     32  C   UNL d   1      -9.205  -3.801  -3.589  0.00  0.00    -0.040 A 
ATOM     33  C   UNL d   1      -8.494  -3.201  -4.641  0.00  0.00     0.009 A 
ATOM     34  C   UNL d   1      -9.770  -5.182  -3.772  0.00  0.00     0.050 C 
ATOM     35  C   UNL d   1      -7.856  -1.969  -4.466  0.00  0.00     0.014 A 
ENDBRANCH   4  28
TORSDOF 5
