REMARK  9 active torsions:
REMARK  status: ('A' for Active; 'I' for Inactive)
REMARK    1  A    between atoms: C_2  and  C_1 
REMARK    2  A    between atoms: C_3  and  N_11 
REMARK    3  A    between atoms: N_12  and  C_3 
REMARK    4  A    between atoms: N_11  and  N_6 
REMARK    5  A    between atoms: C_17  and  C_8 
REMARK    6  A    between atoms: C_18  and  N_12 
REMARK    7  A    between atoms: C_14  and  C_16 
REMARK    8  A    between atoms: O_24  and  C_17 
REMARK    9  A    between atoms: C_26  and  O_24 
ROOT
ATOM      1  C   UNL d   1      -1.944  -5.865  10.924  0.00  0.00    -0.012 A 
ATOM      2  C   UNL d   1      -0.629  -6.157  10.543  0.00  0.00     0.016 A 
ATOM      3  C   UNL d   1      -2.501  -6.510  12.034  0.00  0.00     0.016 A 
ATOM      4  C   UNL d   1      -0.457  -7.762  12.355  0.00  0.00     0.069 A 
ATOM      5  C   UNL d   1      -1.756  -7.444  12.754  0.00  0.00     0.037 A 
ATOM      6  C   UNL d   1       0.111  -7.100  11.264  0.00  0.00     0.037 A 
ENDROOT
BRANCH   1   7
ATOM      7  C   UNL d   1      -2.797  -4.923  10.139  0.00  0.00     0.032 C 
ATOM      8  N   UNL d   1      -4.074  -5.179  10.093  0.00  0.00    -0.302 N 
ATOM      9  HN  UNL d   1      -4.453  -5.966  10.618  1.00  0.00     0.186 HD
ATOM     10  C   UNL d   1      -2.089  -3.789   9.427  0.00  0.00     0.070 C 
BRANCH   8  11
ATOM     11  N   UNL d   1      -4.898  -4.404   9.350  0.00  0.00    -0.276 N 
ATOM     12  H   UNL d   1      -4.557  -3.540   8.966  0.00  0.00     0.189 HD
BRANCH  11  13
ATOM     13  C   UNL d   1      -6.197  -4.756   9.098  0.00  0.00     0.187 C 
ATOM     14  S   UNL d   1      -7.078  -5.920   9.917  0.00  0.00    -0.040 SA
BRANCH  13  15
ATOM     15  N   UNL d   1      -6.808  -4.143   8.039  0.00  0.00    -0.358 N 
ATOM     16  H   UNL d   1      -7.759  -4.477   7.927  0.00  0.00     0.162 HD
BRANCH  15  17
ATOM     17  C   UNL d   1      -6.261  -3.353   6.915  0.00  0.00     0.021 C 
ATOM     18  C   UNL d   1      -5.006  -4.011   6.311  0.00  0.00     0.037 C 
ATOM     19  C   UNL d   1      -7.339  -3.315   5.812  0.00  0.00     0.037 C 
ATOM     20  C   UNL d   1      -5.967  -1.907   7.339  0.00  0.00     0.037 C 
ENDBRANCH  15  17
ENDBRANCH  13  15
ENDBRANCH  11  13
ENDBRANCH   8  11
ENDBRANCH   1   7
BRANCH   4  21
ATOM     21  O   UNL d   1       0.340  -8.697  12.961  0.00  0.00    -0.345 OA
BRANCH  21  22
ATOM     22  C   UNL d   1      -0.375  -9.752  13.613  0.00  0.00     0.234 C 
BRANCH  22  23
ATOM     23  C   UNL d   1       0.524 -10.942  13.861  0.00  0.00     0.055 A 
ATOM     24  N   UNL d   1       0.659 -11.326  15.163  0.00  0.00    -0.365 N 
ATOM     25  C   UNL d   1       1.406 -12.422  15.433  0.00  0.00     0.104 A 
ATOM     26  HN  UNL d   1       0.209 -10.802  15.913  1.00  0.00     0.165 HD
ATOM     27  C   UNL d   1       2.038 -13.179  14.460  0.00  0.00     0.064 A 
ATOM     28  C   UNL d   1       1.889 -12.778  13.128  0.00  0.00     0.043 A 
ATOM     29  C   UNL d   1       1.122 -11.654  12.818  0.00  0.00     0.059 A 
ATOM     30 CL   UNL d   1       0.928 -11.237  11.158  0.00  0.00    -0.082 Cl
BRANCH  27  31
ATOM     31  C   UNL d   1       2.829 -14.384  14.860  0.00  0.00     0.418 C 
ATOM     32  F   UNL d   1       3.424 -15.014  13.809  0.00  0.00    -0.166 F 
ATOM     33  F   UNL d   1       2.063 -15.325  15.475  0.00  0.00    -0.166 F 
ATOM     34  F   UNL d   1       3.829 -14.086  15.732  0.00  0.00    -0.166 F 
ENDBRANCH  27  31
ENDBRANCH  22  23
ENDBRANCH  21  22
ENDBRANCH   4  21
TORSDOF 9
