REMARK  5 active torsions:
REMARK  status: ('A' for Active; 'I' for Inactive)
REMARK    1  A    between atoms: C_2  and  C_1 
REMARK    2  A    between atoms: C_4  and  C_2 
REMARK    3  A    between atoms: C_11  and  N_3 
REMARK    4  A    between atoms: C_9  and  C_4 
REMARK    5  A    between atoms: N_14  and  C_10 
ROOT
ATOM      1  C   UNL d   1      -0.505  -3.038   0.065  0.00  0.00     0.077 C 
ATOM      2  C   UNL d   1       0.573  -3.837  -0.010  0.00  0.00     0.104 C 
ENDROOT
BRANCH   1   3
ATOM      3  C   UNL d   1      -0.254  -1.642   0.213  0.00  0.00     0.154 A 
ATOM      4  N   UNL d   1      -0.224  -0.736  -0.857  0.00  0.00    -0.224 N 
ATOM      5  N   UNL d   1       0.089   0.482  -0.328  0.00  0.00     0.001 NA
ATOM      6  N   UNL d   1       0.224   0.314   0.975  0.00  0.00    -0.007 NA
ATOM      7  N   UNL d   1       0.034  -0.987   1.326  0.00  0.00    -0.269 N 
ATOM      8  HN  UNL d   1       0.100  -1.380   2.264  1.00  0.00     0.185 HD
BRANCH   4   9
ATOM      9  C   UNL d   1      -0.359  -0.872  -2.276  0.00  0.00     0.056 A 
ATOM     10  C   UNL d   1      -0.711  -2.072  -2.901  0.00  0.00     0.031 A 
ATOM     11  C   UNL d   1      -0.786  -2.162  -4.296  0.00  0.00     0.002 A 
ATOM     12  C   UNL d   1      -0.513  -1.051  -5.088  0.00  0.00     0.000 A 
ATOM     13  C   UNL d   1      -0.179   0.155  -4.486  0.00  0.00     0.002 A 
ATOM     14  C   UNL d   1      -0.108   0.250  -3.092  0.00  0.00     0.031 A 
ENDBRANCH   4   9
ENDBRANCH   1   3
BRANCH   1  15
ATOM     15  C   UNL d   1      -1.961  -3.421   0.048  0.00  0.00     0.199 C 
ATOM     16  O   UNL d   1      -2.780  -2.584  -0.319  0.00  0.00    -0.286 OA
BRANCH  15  17
ATOM     17  C   UNL d   1      -2.439  -4.742   0.541  0.00  0.00     0.037 A 
ATOM     18  C   UNL d   1      -3.591  -5.343   0.003  0.00  0.00     0.048 A 
ATOM     19 CL   UNL d   1      -4.427  -4.745  -1.389  0.00  0.00    -0.083 Cl
ATOM     20  C   UNL d   1      -4.090  -6.532   0.556  0.00  0.00     0.025 A 
ATOM     21  C   UNL d   1      -3.434  -7.146   1.620  0.00  0.00     0.002 A 
ATOM     22  C   UNL d   1      -2.274  -6.577   2.137  0.00  0.00     0.001 A 
ATOM     23  C   UNL d   1      -1.792  -5.372   1.617  0.00  0.00     0.017 A 
ENDBRANCH  15  17
ENDBRANCH   1  15
BRANCH   2  24
ATOM     24  N   UNL d   1       0.764  -5.187  -0.282  0.00  0.00    -0.398 N 
ATOM     25  C   UNL d   1      -0.015  -5.951  -1.256  0.00  0.00     0.148 C 
ATOM     26  C   UNL d   1       1.931  -5.906   0.249  0.00  0.00     0.148 C 
ENDBRANCH   2  24
TORSDOF 5
