REMARK  3 active torsions:
REMARK  status: ('A' for Active; 'I' for Inactive)
REMARK    1  A    between atoms: C_9  and  C_2 
REMARK    2  A    between atoms: O_18  and  C_11 
REMARK    3  A    between atoms: O_19  and  C_12 
ROOT
ATOM      1  C   UNL d   1      -0.110   0.455  -0.002  0.00  0.00     0.069 A 
ATOM      2  C   UNL d   1       1.645  -1.610   0.006  0.00  0.00     0.169 A 
ATOM      3  N   UNL d   1       0.389  -1.908  -0.047  0.00  0.00    -0.335 N 
ATOM      4  HN  UNL d   1       0.079  -2.879  -0.093  1.00  0.00     0.168 HD
ATOM      5  C   UNL d   1       1.334   0.709   0.033  0.00  0.00     0.302 A 
ATOM      6  O   UNL d   1       2.163  -0.357   0.053  0.00  0.00    -0.256 OA
ATOM      7  C   UNL d   1      -0.522  -0.861  -0.040  0.00  0.00     0.053 A 
ATOM      8  C   UNL d   1      -1.036   1.506   0.016  0.00  0.00     0.059 A 
ATOM      9  C   UNL d   1      -1.887  -1.133  -0.055  0.00  0.00     0.070 A 
ATOM     10  C   UNL d   1      -2.412   1.240   0.006  0.00  0.00     0.102 A 
ATOM     11  C   UNL d   1      -2.841  -0.102  -0.028  0.00  0.00     0.103 A 
ATOM     12  O   UNL d   1       1.762   1.859   0.054  0.00  0.00    -0.259 OA
ENDROOT
BRANCH   2  13
ATOM     13  C   UNL d   1       2.696  -2.607   0.033  0.00  0.00     0.056 A 
ATOM     14  S   UNL d   1       2.306  -4.277  -0.065  0.00  0.00    -0.098 SA
ATOM     15  C   UNL d   1       3.945  -4.743   0.042  0.00  0.00     0.050 A 
ATOM     16  C   UNL d   1       4.784  -3.658   0.149  0.00  0.00     0.009 A 
ATOM     17  C   UNL d   1       4.066  -2.427   0.138  0.00  0.00     0.024 A 
ENDBRANCH   2  13
BRANCH  11  18
ATOM     18  O   UNL d   1      -4.121  -0.592  -0.036  0.00  0.00    -0.353 OA
ATOM     19  C   UNL d   1      -5.210   0.316   0.007  0.00  0.00     0.210 C 
ENDBRANCH  11  18
BRANCH  10  20
ATOM     20  O   UNL d   1      -3.361   2.223   0.029  0.00  0.00    -0.353 OA
ATOM     21  C   UNL d   1      -2.940   3.581   0.063  0.00  0.00     0.210 C 
ENDBRANCH  10  20
TORSDOF 3
