REMARK  1 active torsions:
REMARK  status: ('A' for Active; 'I' for Inactive)
REMARK    1  A    between atoms: N_10  and  C_3 
ROOT
ATOM      1  N   UNL d   1       0.690   0.416   0.010  0.00  0.00    -0.280 N 
ATOM      2  C   UNL d   1       1.061  -0.939   0.026  0.00  0.00     0.136 A 
ATOM      3  C   UNL d   1       1.647   1.479  -0.060  0.00  0.00     0.112 A 
ATOM      4  C   UNL d   1       2.450  -1.269   0.054  0.00  0.00     0.095 A 
ATOM      5  N   UNL d   1       0.018  -1.742  -0.012  0.00  0.00    -0.339 N 
ATOM      6  HN  UNL d   1       0.026  -2.761  -0.049  1.00  0.00     0.167 HD
ATOM      7  C   UNL d   1       2.950   1.119  -0.033  0.00  0.00     0.057 A 
ATOM      8  C   UNL d   1       3.369  -0.277   0.034  0.00  0.00    -0.034 A 
ATOM      9  C   UNL d   1      -0.703   0.414   0.086  0.00  0.00     0.069 A 
ATOM     10  C   UNL d   1      -1.073  -0.927   0.009  0.00  0.00     0.061 A 
ATOM     11  C   UNL d   1       2.838  -2.645   0.092  0.00  0.00     0.104 C 
ATOM     12  N   UNL d   1       3.223  -3.741   0.121  0.00  0.00    -0.191 NA
ATOM     13  C   UNL d   1       4.855  -0.535   0.046  0.00  0.00     0.050 C 
ATOM     14  C   UNL d   1      -1.673   1.419   0.214  0.00  0.00     0.032 A 
ATOM     15  C   UNL d   1      -2.432  -1.284  -0.018  0.00  0.00     0.032 A 
ATOM     16  C   UNL d   1      -3.023   1.056   0.141  0.00  0.00     0.002 A 
ATOM     17  C   UNL d   1      -3.401  -0.278   0.021  0.00  0.00     0.002 A 
ENDROOT
BRANCH   3  18
ATOM     18  N   UNL d   1       1.236   2.837  -0.174  0.00  0.00    -0.367 N 
ATOM     19  C   UNL d   1       0.555   3.269  -1.423  0.00  0.00     0.124 C 
ATOM     20  C   UNL d   1      -0.293   4.518  -1.170  0.00  0.00     0.020 C 
ATOM     21  C   UNL d   1       0.537   5.654  -0.583  0.00  0.00     0.003 C 
ATOM     22  C   UNL d   1       1.320   5.181   0.636  0.00  0.00     0.020 C 
ATOM     23  C   UNL d   1       2.122   3.916   0.340  0.00  0.00     0.124 C 
ENDBRANCH   3  18
TORSDOF 1
