REMARK  2 active torsions:
REMARK  status: ('A' for Active; 'I' for Inactive)
REMARK    1  A    between atoms: C_8  and  N_1 
REMARK    2  A    between atoms: C_6  and  C_2 
ROOT
ATOM      1  N   UNL d   1       0.906  -0.719   0.072  0.00  0.00    -0.271 N 
ATOM      2  C   UNL d   1       0.919   0.645  -0.160  0.00  0.00     0.141 C 
ATOM      3  N   UNL d   1      -0.272   1.190  -0.180  0.00  0.00    -0.282 N 
ATOM      4  HN  UNL d   1      -0.505   2.170  -0.341  1.00  0.00     0.188 HD
ATOM      5  C   UNL d   1      -0.427  -1.003   0.337  0.00  0.00     0.199 C 
ATOM      6  N   UNL d   1      -1.126   0.166   0.060  0.00  0.00    -0.274 N 
ATOM      7  S   UNL d   1      -1.192  -2.318   1.006  0.00  0.00    -0.039 SA
ATOM      8  H   UNL d   1      -2.113   0.326   0.240  0.00  0.00     0.189 HD
ENDROOT
BRANCH   1   9
ATOM      9  C   UNL d   1       2.000  -1.627   0.158  0.00  0.00     0.049 A 
ATOM     10  C   UNL d   1       2.023  -2.857  -0.547  0.00  0.00    -0.035 A 
ATOM     11  C   UNL d   1       0.909  -3.393  -1.409  0.00  0.00     0.050 C 
ATOM     12  C   UNL d   1       3.194  -3.643  -0.523  0.00  0.00     0.009 A 
ATOM     13  C   UNL d   1       4.345  -3.208   0.125  0.00  0.00     0.001 A 
ATOM     14  C   UNL d   1       4.328  -2.009   0.821  0.00  0.00     0.002 A 
ATOM     15  C   UNL d   1       3.156  -1.244   0.861  0.00  0.00     0.031 A 
ENDBRANCH   1   9
BRANCH   2  16
ATOM     16  C   UNL d   1       2.121   1.507  -0.279  0.00  0.00     0.032 A 
ATOM     17  C   UNL d   1       3.238   1.269  -1.076  0.00  0.00     0.048 A 
ATOM     18 CL   UNL d   1       3.282   0.061  -2.307  0.00  0.00    -0.083 Cl
ATOM     19  C   UNL d   1       4.374   2.089  -0.947  0.00  0.00     0.025 A 
ATOM     20  C   UNL d   1       4.352   3.208  -0.112  0.00  0.00     0.002 A 
ATOM     21  C   UNL d   1       3.196   3.524   0.589  0.00  0.00     0.001 A 
ATOM     22  C   UNL d   1       2.090   2.671   0.518  0.00  0.00     0.017 A 
ENDBRANCH   2  16
TORSDOF 2
