REMARK  5 active torsions:
REMARK  status: ('A' for Active; 'I' for Inactive)
REMARK       I    between atoms: C_4  and  N_12 
REMARK    1  A    between atoms: C_6  and  C_4 
REMARK    2  A    between atoms: O_19  and  C_7 
REMARK    3  A    between atoms: O_22  and  C_9 
REMARK    4  A    between atoms: O_21  and  C_10 
REMARK    5  A    between atoms: N_12  and  C_16 
ROOT
ATOM      1  C   UNL d   1       4.774   0.739   0.069  0.00  0.00     0.256 C 
ATOM      2  N   UNL d   1       4.924   1.179   1.373  0.00  0.00    -0.323 N 
ATOM      3  O   UNL d   1       4.514   1.431  -0.911  0.00  0.00    -0.267 OA
ATOM      4  H   UNL d   1       5.123   0.484   2.081  0.00  0.00     0.169 HD
ENDROOT
BRANCH   1   5
ATOM      5  C   UNL d   1       4.853  -0.741  -0.127  0.00  0.00     0.037 A 
ATOM      6  C   UNL d   1       4.083  -1.313  -1.148  0.00  0.00     0.057 A 
ATOM      7  C   UNL d   1       3.976  -2.706  -1.286  0.00  0.00     0.105 A 
ATOM      8  C   UNL d   1       4.686  -3.547  -0.399  0.00  0.00     0.135 A 
ATOM      9  C   UNL d   1       5.554  -2.959   0.550  0.00  0.00     0.105 A 
ATOM     10  C   UNL d   1       5.619  -1.567   0.691  0.00  0.00     0.057 A 
BRANCH   7  11
ATOM     11  O   UNL d   1       3.195  -3.292  -2.246  0.00  0.00    -0.353 OA
ATOM     12  C   UNL d   1       2.479  -2.466  -3.156  0.00  0.00     0.210 C 
ENDBRANCH   7  11
BRANCH   8  13
ATOM     13  O   UNL d   1       4.609  -4.915  -0.347  0.00  0.00    -0.351 OA
ATOM     14  C   UNL d   1       3.605  -5.611  -1.069  0.00  0.00     0.210 C 
ENDBRANCH   8  13
BRANCH   9  15
ATOM     15  O   UNL d   1       6.355  -3.608   1.460  0.00  0.00    -0.353 OA
ATOM     16  C   UNL d   1       6.844  -4.895   1.096  0.00  0.00     0.210 C 
ENDBRANCH   9  15
ENDBRANCH   1   5
BRANCH   2  17
ATOM     17  C   UNL d   1       4.662   2.479   1.871  0.00  0.00     0.037 A 
ATOM     18  C   UNL d   1       4.229   3.541   1.065  0.00  0.00     0.062 A 
ATOM     19  C   UNL d   1       3.894   4.761   1.674  0.00  0.00     0.076 A 
ATOM     20  N   UNL d   1       3.420   5.930   1.138  0.00  0.00    -0.282 N 
ATOM     21  C   UNL d   1       4.015   4.899   3.048  0.00  0.00     0.074 A 
ATOM     22  N   UNL d   1       3.226   6.791   2.129  0.00  0.00    -0.022 NA
ATOM     23  HN  UNL d   1       3.246   6.108   0.149  1.00  0.00     0.184 HD
ATOM     24  N   UNL d   1       3.576   6.175   3.269  0.00  0.00    -0.282 N 
ATOM     25  H   UNL d   1       3.479   6.678   4.143  0.00  0.00     0.184 HD
ATOM     26  C   UNL d   1       4.479   3.885   3.882  0.00  0.00     0.035 A 
ATOM     27  C   UNL d   1       4.802   2.671   3.258  0.00  0.00     0.032 A 
ENDBRANCH   2  17
TORSDOF 5
