REMARK  6 active torsions:
REMARK  status: ('A' for Active; 'I' for Inactive)
REMARK    1  A    between atoms: C_6  and  N_1 
REMARK    2  A    between atoms: C_13  and  C_6 
REMARK    3  A    between atoms: N_11  and  C_18 
REMARK    4  A    between atoms: C_12  and  N_11 
REMARK    5  A    between atoms: C_18  and  C_13 
REMARK    6  A    between atoms: O_21  and  C_13 
ROOT
ATOM      1  N   UNL d   1       0.178  -1.540  -0.370  0.00  0.00    -0.343 N 
ATOM      2  C   UNL d   1       0.886   0.481  -1.005  0.00  0.00     0.005 A 
ATOM      3  C   UNL d   1       0.042   0.630   0.137  0.00  0.00     0.005 A 
ATOM      4  C   UNL d   1       0.898  -0.871  -1.351  0.00  0.00     0.046 A 
ATOM      5  C   UNL d   1      -0.401  -0.640   0.504  0.00  0.00     0.046 A 
ATOM      6  C   UNL d   1       1.573  -1.341  -2.488  0.00  0.00     0.032 A 
ATOM      7  C   UNL d   1      -1.270  -0.835   1.596  0.00  0.00     0.032 A 
ATOM      8  C   UNL d   1       1.630   1.392  -1.784  0.00  0.00     0.033 A 
ATOM      9  C   UNL d   1      -0.385   1.749   0.884  0.00  0.00     0.033 A 
ATOM     10  C   UNL d   1       2.345   0.919  -2.888  0.00  0.00     0.011 A 
ATOM     11  C   UNL d   1      -1.250   1.558   1.964  0.00  0.00     0.011 A 
ATOM     12  C   UNL d   1       2.306  -0.423  -3.247  0.00  0.00     0.021 A 
ATOM     13  C   UNL d   1      -1.690   0.287   2.317  0.00  0.00     0.021 A 
ATOM     14 BR   UNL d   1       3.390   2.129  -3.901  0.00  0.00    -0.051 Br
ATOM     15 BR   UNL d   1      -1.838   3.056   2.959  0.00  0.00    -0.051 Br
ENDROOT
BRANCH   1  16
ATOM     16  C   UNL d   1       0.083  -2.983  -0.268  0.00  0.00     0.163 C 
BRANCH  16  17
ATOM     17  C   UNL d   1       1.397  -3.704   0.068  0.00  0.00     0.164 C 
BRANCH  17  18
ATOM     18  C   UNL d   1       2.106  -3.149   1.335  0.00  0.00     0.303 C 
BRANCH  18  19
ATOM     19  N   UNL d   1       3.332  -3.925   1.618  0.00  0.00     0.094 N 
ATOM     20  H   UNL d   1       3.925  -3.916   0.781  0.00  0.00     0.317 HD
BRANCH  19  21
ATOM     21  C   UNL d   1       4.137  -3.465   2.775  0.00  0.00     0.147 C 
ATOM     22  C   UNL d   1       3.382  -3.692   4.088  0.00  0.00     0.048 C 
ATOM     23  C   UNL d   1       5.418  -4.336   2.808  0.00  0.00     0.048 C 
ATOM     24  C   UNL d   1       4.577  -1.996   2.661  0.00  0.00     0.048 C 
ENDBRANCH  19  21
ENDBRANCH  18  19
ENDBRANCH  17  18
BRANCH  17  25
ATOM     25  O   UNL d   1       1.071  -5.095   0.244  0.00  0.00    -0.392 OA
ATOM     26  H   UNL d   1       1.386  -5.351   1.130  0.00  0.00     0.210 HD
ENDBRANCH  17  25
ENDBRANCH  16  17
ENDBRANCH   1  16
TORSDOF 6
