REMARK  2 active torsions:
REMARK  status: ('A' for Active; 'I' for Inactive)
REMARK    1  A    between atoms: N_2  and  C_3 
REMARK    2  A    between atoms: N_4  and  C_8 
ROOT
ATOM      1  C   UNL d   1      -2.713  -0.217   1.042  0.00  0.00     0.012 A 
ATOM      2  C   UNL d   1      -2.435  -1.181   0.026  0.00  0.00     0.024 A 
ATOM      3  C   UNL d   1      -1.972   0.993   1.029  0.00  0.00     0.045 A 
ATOM      4  C   UNL d   1      -3.700  -0.378   2.046  0.00  0.00     0.017 A 
ATOM      5  C   UNL d   1      -2.214   1.958   1.992  0.00  0.00     0.054 A 
ATOM      6  N   UNL d   1      -1.034   1.268   0.113  0.00  0.00    -0.365 N 
ATOM      7  HN  UNL d   1      -0.522   2.150   0.133  1.00  0.00     0.165 HD
ATOM      8  C   UNL d   1      -3.169   1.766   2.984  0.00  0.00     0.036 A 
ATOM      9  C   UNL d   1      -1.444  -0.867  -0.913  0.00  0.00     0.041 A 
ATOM     10  C   UNL d   1      -3.915   0.598   3.019  0.00  0.00     0.025 A 
ATOM     11  C   UNL d   1      -0.790   0.347  -0.833  0.00  0.00     0.090 A 
ATOM     12 CL   UNL d   1      -3.433   2.988   4.166  0.00  0.00    -0.084 Cl
ENDROOT
BRANCH   2  13
ATOM     13  N   UNL d   1      -3.157  -2.410  -0.041  0.00  0.00    -0.282 NA
ATOM     14  C   UNL d   1      -3.288  -2.982  -1.394  0.00  0.00     0.098 C 
ATOM     15  C   UNL d   1      -4.301  -4.116  -1.391  0.00  0.00     0.040 C 
ATOM     16  C   UNL d   1      -3.980  -5.181  -0.337  0.00  0.00     0.091 C 
ATOM     17  C   UNL d   1      -3.683  -4.559   1.034  0.00  0.00     0.040 C 
ATOM     18  C   UNL d   1      -2.714  -3.378   0.982  0.00  0.00     0.098 C 
BRANCH  16  19
ATOM     19  N   UNL d   1      -2.984  -6.157  -0.786  0.00  0.00    -0.362 N 
ATOM     20  C   UNL d   1      -1.637  -5.968  -0.961  0.00  0.00     0.091 A 
ATOM     21  C   UNL d   1      -1.081  -7.155  -1.386  0.00  0.00     0.019 A 
ATOM     22  C   UNL d   1      -2.126  -8.096  -1.489  0.00  0.00     0.019 A 
ATOM     23  C   UNL d   1      -3.287  -7.457  -1.118  0.00  0.00     0.091 A 
ENDBRANCH  16  19
ENDBRANCH   2  13
TORSDOF 2
