REMARK  6 active torsions:
REMARK  status: ('A' for Active; 'I' for Inactive)
REMARK    1  A    between atoms: N_3  and  C_1 
REMARK       I    between atoms: C_7  and  N_3 
REMARK    2  A    between atoms: C_14  and  C_7 
REMARK    3  A    between atoms: C_9  and  C_15 
REMARK    4  A    between atoms: O_12  and  C_9 
REMARK    5  A    between atoms: C_16  and  C_14 
REMARK    6  A    between atoms: C_15  and  C_16 
ROOT
ATOM      1  N   UNL d   1      -0.510  -2.528   0.041  0.00  0.00    -0.312 N 
ATOM      2  C   UNL d   1      -1.733  -2.912   0.552  0.00  0.00     0.223 C 
ATOM      3  O   UNL d   1      -2.481  -2.222   1.237  0.00  0.00    -0.273 OA
ATOM      4  H   UNL d   1       0.116  -3.265  -0.271  0.00  0.00     0.170 HD
ENDROOT
BRANCH   1   5
ATOM      5  C   UNL d   1       0.050  -1.265   0.154  0.00  0.00     0.125 A 
ATOM      6  N   UNL d   1      -0.554  -0.045   0.396  0.00  0.00    -0.281 N 
ATOM      7  N   UNL d   1       0.340   0.970   0.495  0.00  0.00    -0.308 N 
ATOM      8  C   UNL d   1      -1.949   0.327   0.385  0.00  0.00     0.179 C 
ATOM      9  C   UNL d   1       1.514   0.398   0.249  0.00  0.00     0.111 A 
ATOM     10  HN  UNL d   1       0.153   1.949   0.709  1.00  0.00     0.186 HD
ATOM     11  C   UNL d   1       1.392  -0.976  -0.002  0.00  0.00     0.068 A 
ENDBRANCH   1   5
BRANCH   2  12
ATOM     12  C   UNL d   1      -2.085  -4.349   0.207  0.00  0.00     0.103 C 
BRANCH  12  13
ATOM     13  C   UNL d   1      -3.595  -4.546   0.027  0.00  0.00     0.019 C 
BRANCH  13  14
ATOM     14  C   UNL d   1      -4.180  -3.758  -1.150  0.00  0.00     0.110 C 
BRANCH  14  15
ATOM     15  C   UNL d   1      -3.605  -4.192  -2.478  0.00  0.00     0.139 C 
ATOM     16  O   UNL d   1      -3.174  -5.310  -2.715  0.00  0.00    -0.650 OA
BRANCH  15  17
ATOM     17  O   UNL d   1      -3.616  -3.211  -3.406  0.00  0.00    -0.776 OA
ATOM     18  H   UNL d   1      -4.000  -2.368  -3.099  0.00  0.00     0.167 HD
ENDBRANCH  15  17
ENDBRANCH  14  15
ENDBRANCH  13  14
ENDBRANCH  12  13
ENDBRANCH   2  12
TORSDOF 6
