REMARK  4 active torsions:
REMARK  status: ('A' for Active; 'I' for Inactive)
REMARK    1  A    between atoms: N_8  and  S_1 
REMARK    2  A    between atoms: C_10  and  S_1 
REMARK    3  A    between atoms: C_2  and  C_9 
REMARK    4  A    between atoms: C_9  and  N_8 
ROOT
ATOM      1  N   UNL d   1       0.490   0.431  -3.324  0.00  0.00    -0.311 N 
ATOM      2  H   UNL d   1      -0.514   0.346  -3.463  0.00  0.00     0.172 HD
ENDROOT
BRANCH   1   3
ATOM      3  S   UNL d   1       1.387  -0.886  -3.851  0.00  0.00     0.259 S 
ATOM      4  O   UNL d   1       2.779  -0.660  -3.524  0.00  0.00    -0.201 OA
ATOM      5  O   UNL d   1       0.963  -1.169  -5.204  0.00  0.00    -0.201 OA
BRANCH   3   6
ATOM      6  C   UNL d   1       0.804  -2.233  -2.837  0.00  0.00     0.079 A 
ATOM      7  C   UNL d   1      -0.250  -3.030  -3.308  0.00  0.00     0.028 A 
ATOM      8  C   UNL d   1      -0.641  -4.160  -2.587  0.00  0.00     0.044 A 
ATOM      9  C   UNL d   1       0.024  -4.488  -1.411  0.00  0.00     0.116 A 
ATOM     10  C   UNL d   1       1.077  -3.707  -0.941  0.00  0.00     0.044 A 
ATOM     11  F   UNL d   1      -0.344  -5.580  -0.729  0.00  0.00    -0.206 F 
ATOM     12  C   UNL d   1       1.478  -2.577  -1.658  0.00  0.00     0.028 A 
ENDBRANCH   3   6
ENDBRANCH   1   3
BRANCH   1  13
ATOM     13  C   UNL d   1       0.936   1.111  -2.111  0.00  0.00     0.172 C 
BRANCH  13  14
ATOM     14  C   UNL d   1       0.072   2.312  -1.739  0.00  0.00    -0.027 C 
ATOM     15  C   UNL d   1      -0.921   2.189  -0.737  0.00  0.00    -0.047 C 
ATOM     16  C   UNL d   1      -1.489   3.355  -0.164  0.00  0.00    -0.049 C 
ATOM     17  C   UNL d   1      -1.372   0.828  -0.257  0.00  0.00     0.049 C 
ATOM     18  C   UNL d   1      -2.402   3.256   1.043  0.00  0.00     0.049 C 
ATOM     19  C   UNL d   1      -1.192   4.642  -0.697  0.00  0.00    -0.049 C 
ATOM     20  C   UNL d   1      -0.302   4.755  -1.792  0.00  0.00    -0.049 C 
ATOM     21  C   UNL d   1      -1.832   5.846  -0.037  0.00  0.00     0.049 C 
ATOM     22  C   UNL d   1       0.312   3.583  -2.328  0.00  0.00    -0.047 C 
ATOM     23  C   UNL d   1       0.051   6.090  -2.416  0.00  0.00     0.049 C 
ATOM     24  C   UNL d   1       1.221   3.728  -3.533  0.00  0.00     0.049 C 
ENDBRANCH  13  14
ENDBRANCH   1  13
TORSDOF 4
