REMARK  4 active torsions:
REMARK  status: ('A' for Active; 'I' for Inactive)
REMARK    1  A    between atoms: C_6  and  N_1 
REMARK    2  A    between atoms: N_9  and  C_6 
REMARK    3  A    between atoms: C_10  and  N_9 
REMARK    4  A    between atoms: C_18  and  C_11 
ROOT
ATOM      1  N   UNL d   1       1.995  -0.052   0.334  0.00  0.00    -0.267 N 
ATOM      2  C   UNL d   1       1.416  -1.226   0.728  0.00  0.00     0.262 C 
ATOM      3  C   UNL d   1       1.056   0.921   0.140  0.00  0.00     0.262 C 
ATOM      4  C   UNL d   1      -0.220   0.374   0.600  0.00  0.00     0.048 A 
ATOM      5  C   UNL d   1       0.000  -0.943   0.955  0.00  0.00     0.048 A 
ATOM      6  O   UNL d   1       1.185   2.028  -0.354  0.00  0.00    -0.267 OA
ATOM      7  O   UNL d   1       1.905  -2.337   0.817  0.00  0.00    -0.267 OA
ATOM      8  C   UNL d   1      -1.021  -1.766   1.388  0.00  0.00     0.018 A 
ATOM      9  C   UNL d   1      -1.476   0.948   0.666  0.00  0.00     0.018 A 
ATOM     10  C   UNL d   1      -2.301  -1.208   1.468  0.00  0.00     0.001 A 
ATOM     11  C   UNL d   1      -2.526   0.139   1.112  0.00  0.00     0.001 A 
ENDROOT
BRANCH   1  12
ATOM     12  C   UNL d   1       3.348  -0.003  -0.164  0.00  0.00     0.230 C 
BRANCH  12  13
ATOM     13  N   UNL d   1       3.952   1.262   0.193  0.00  0.00    -0.276 NA
ATOM     14  H   UNL d   1       3.322   2.047   0.012  0.00  0.00     0.129 HD
BRANCH  13  15
ATOM     15  C   UNL d   1       5.264   1.563  -0.179  0.00  0.00     0.009 A 
ATOM     16  C   UNL d   1       6.148   0.655  -0.772  0.00  0.00     0.024 A 
ATOM     17  C   UNL d   1       7.487   0.996  -1.017  0.00  0.00     0.009 A 
ATOM     18  C   UNL d   1       7.985   2.249  -0.647  0.00  0.00    -0.058 A 
ATOM     19  C   UNL d   1       7.114   3.158  -0.042  0.00  0.00     0.009 A 
ATOM     20  C   UNL d   1       5.775   2.817   0.184  0.00  0.00     0.024 A 
BRANCH  18  21
ATOM     21  C   UNL d   1       9.436   2.602  -0.855  0.00  0.00     0.034 C 
ATOM     22  C   UNL d   1      10.304   2.199   0.329  0.00  0.00     0.010 C 
ENDBRANCH  18  21
ENDBRANCH  13  15
ENDBRANCH  12  13
ENDBRANCH   1  12
TORSDOF 4
