REMARK  3 active torsions:
REMARK  status: ('A' for Active; 'I' for Inactive)
REMARK    1  A    between atoms: C_6  and  C_1 
REMARK    2  A    between atoms: C_9  and  N_2 
REMARK       I    between atoms: N_8  and  C_6 
REMARK    3  A    between atoms: C_13  and  N_8 
ROOT
ATOM      1  C   UNL d   1      -0.197   1.101   0.092  0.00  0.00     0.073 A 
ATOM      2  N   UNL d   1       0.923  -0.839   0.172  0.00  0.00    -0.260 N 
ATOM      3  C   UNL d   1       1.064   0.551   0.316  0.00  0.00     0.048 A 
ATOM      4  N   UNL d   1      -0.371  -1.185  -0.014  0.00  0.00    -0.304 N 
ATOM      5  HN  UNL d   1      -0.761  -2.126  -0.067  1.00  0.00     0.186 HD
ATOM      6  C   UNL d   1      -1.021  -0.034  -0.113  0.00  0.00     0.126 A 
ATOM      7  C   UNL d   1       2.346   1.185   0.743  0.00  0.00     0.071 C 
ENDROOT
BRANCH   1   8
ATOM      8  C   UNL d   1      -0.726   2.471   0.098  0.00  0.00     0.259 C 
ATOM      9  N   UNL d   1       0.192   3.493   0.266  0.00  0.00    -0.323 N 
ATOM     10  H   UNL d   1       1.161   3.236   0.314  0.00  0.00     0.169 HD
ATOM     11  O   UNL d   1      -1.929   2.641  -0.055  0.00  0.00    -0.267 OA
BRANCH   9  12
ATOM     12  C   UNL d   1      -0.052   4.884   0.256  0.00  0.00     0.035 A 
ATOM     13  C   UNL d   1      -1.313   5.458   0.085  0.00  0.00     0.029 A 
ATOM     14  C   UNL d   1      -1.454   6.846  -0.029  0.00  0.00     0.002 A 
ATOM     15  C   UNL d   1      -0.339   7.675   0.048  0.00  0.00     0.000 A 
ATOM     16  C   UNL d   1       0.916   7.120   0.277  0.00  0.00     0.002 A 
ATOM     17  C   UNL d   1       1.058   5.732   0.386  0.00  0.00     0.029 A 
ENDBRANCH   9  12
ENDBRANCH   1   8
BRANCH   2  18
ATOM     18  C   UNL d   1       1.910  -1.862   0.311  0.00  0.00     0.056 C 
ATOM     19  C   UNL d   1       1.528  -3.125   0.796  0.00  0.00     0.034 C 
ATOM     20  C   UNL d   1       2.508  -4.058   1.154  0.00  0.00     0.044 C 
ATOM     21  C   UNL d   1       3.851  -3.739   0.997  0.00  0.00     0.116 C 
ATOM     22  C   UNL d   1       4.237  -2.537   0.420  0.00  0.00     0.044 C 
ATOM     23  F   UNL d   1       4.791  -4.601   1.407  0.00  0.00    -0.206 F 
ATOM     24  C   UNL d   1       3.263  -1.611   0.048  0.00  0.00     0.034 C 
ENDBRANCH   2  18
TORSDOF 3
