REMARK  9 active torsions:
REMARK  status: ('A' for Active; 'I' for Inactive)
REMARK       I    between atoms: N_4  and  C_1 
REMARK    1  A    between atoms: C_5  and  C_1 
REMARK    2  A    between atoms: C_2  and  C_5 
REMARK    3  A    between atoms: C_6  and  C_2 
REMARK    4  A    between atoms: C_9  and  C_2 
REMARK    5  A    between atoms: C_3  and  C_6 
REMARK    6  A    between atoms: O_13  and  C_3 
REMARK    7  A    between atoms: C_11  and  N_4 
REMARK    8  A    between atoms: O_10  and  C_12 
REMARK    9  A    between atoms: C_14  and  O_10 
ROOT
ATOM      1  C   UNL d   1       1.191   0.072  -0.079  0.00  0.00     0.222 C 
ATOM      2  N   UNL d   1       0.789  -0.983   0.726  0.00  0.00    -0.327 N 
ATOM      3  O   UNL d   1       2.211   0.740   0.039  0.00  0.00    -0.273 OA
ATOM      4  H   UNL d   1      -0.132  -1.364   0.549  0.00  0.00     0.169 HD
ENDROOT
BRANCH   1   5
ATOM      5  C   UNL d   1       0.162   0.346  -1.164  0.00  0.00     0.113 C 
BRANCH   5   6
ATOM      6  C   UNL d   1       0.537   1.489  -2.130  0.00  0.00     0.037 C 
BRANCH   6   7
ATOM      7  C   UNL d   1       1.772   1.201  -3.002  0.00  0.00     0.119 C 
BRANCH   7   8
ATOM      8  C   UNL d   1       1.583   0.039  -3.944  0.00  0.00     0.140 C 
ATOM      9  O   UNL d   1       1.741  -1.129  -3.620  0.00  0.00    -0.650 OA
BRANCH   8  10
ATOM     10  O   UNL d   1       1.178   0.396  -5.182  0.00  0.00    -0.776 OA
ATOM     11  H   UNL d   1       0.973   1.348  -5.270  0.00  0.00     0.167 HD
ENDBRANCH   8  10
ENDBRANCH   7   8
ENDBRANCH   6   7
BRANCH   6  12
ATOM     12  C   UNL d   1      -0.633   1.915  -3.018  0.00  0.00    -0.053 A 
ATOM     13  C   UNL d   1      -0.719   3.247  -3.451  0.00  0.00     0.007 A 
ATOM     14  C   UNL d   1      -1.746   3.652  -4.309  0.00  0.00     0.001 A 
ATOM     15  C   UNL d   1      -2.697   2.733  -4.743  0.00  0.00     0.000 A 
ATOM     16  C   UNL d   1      -2.626   1.410  -4.325  0.00  0.00     0.001 A 
ATOM     17  C   UNL d   1      -1.599   1.002  -3.473  0.00  0.00     0.007 A 
ENDBRANCH   6  12
ENDBRANCH   5   6
ENDBRANCH   1   5
BRANCH   2  18
ATOM     18  C   UNL d   1       1.516  -1.599   1.764  0.00  0.00     0.034 A 
ATOM     19  C   UNL d   1       2.837  -1.282   2.079  0.00  0.00     0.032 A 
ATOM     20  C   UNL d   1       3.506  -1.969   3.098  0.00  0.00     0.039 A 
ATOM     21  C   UNL d   1       2.870  -3.006   3.782  0.00  0.00     0.076 A 
ATOM     22  C   UNL d   1       1.537  -3.299   3.503  0.00  0.00     0.039 A 
ATOM     23  C   UNL d   1       0.865  -2.603   2.493  0.00  0.00     0.032 A 
BRANCH  21  24
ATOM     24  O   UNL d   1       3.465  -3.747   4.777  0.00  0.00    -0.311 OA
BRANCH  24  25
ATOM     25  C   UNL d   1       4.798  -4.073   4.653  0.00  0.00     0.076 A 
ATOM     26  C   UNL d   1       5.545  -4.085   5.832  0.00  0.00     0.037 A 
ATOM     27  C   UNL d   1       6.904  -4.399   5.795  0.00  0.00     0.003 A 
ATOM     28  C   UNL d   1       7.515  -4.709   4.580  0.00  0.00     0.000 A 
ATOM     29  C   UNL d   1       6.763  -4.732   3.406  0.00  0.00     0.003 A 
ATOM     30  C   UNL d   1       5.400  -4.436   3.444  0.00  0.00     0.037 A 
ENDBRANCH  24  25
ENDBRANCH  21  24
ENDBRANCH   2  18
TORSDOF 9
