REMARK  6 active torsions:
REMARK  status: ('A' for Active; 'I' for Inactive)
REMARK    1  A    between atoms: C_7  and  N_1 
REMARK    2  A    between atoms: S_11  and  C_2 
REMARK    3  A    between atoms: C_19  and  S_11 
REMARK    4  A    between atoms: O_14  and  C_15 
REMARK    5  A    between atoms: C_16  and  O_14 
REMARK    6  A    between atoms: C_20  and  C_16 
ROOT
ATOM      1  C   UNL d   1       3.044   4.125   0.963  0.00  0.00    -0.107 C 
ATOM      2  C   UNL d   1       3.979   4.883   0.972  0.00  0.00     0.013 C 
ATOM      3  C   UNL d   1       1.915   3.181   0.928  0.00  0.00     0.175 C 
ENDROOT
BRANCH   3   4
ATOM      4  S   UNL d   1       2.458   1.593   0.268  0.00  0.00    -0.080 SA
BRANCH   4   5
ATOM      5  C   UNL d   1       0.972   0.699   0.219  0.00  0.00     0.171 A 
ATOM      6  N   UNL d   1       0.977  -0.654   0.033  0.00  0.00    -0.241 N 
ATOM      7  C   UNL d   1      -0.342  -0.996  -0.158  0.00  0.00     0.347 A 
ATOM      8  N   UNL d   1      -1.057   0.189   0.014  0.00  0.00    -0.249 N 
ATOM      9  O   UNL d   1      -0.839  -2.089  -0.390  0.00  0.00    -0.245 OA
ATOM     10  N   UNL d   1      -0.209   1.245   0.233  0.00  0.00    -0.275 N 
ATOM     11  H   UNL d   1      -2.061   0.290  -0.067  0.00  0.00     0.192 HD
ATOM     12  HN  UNL d   1      -0.448   2.227   0.374  1.00  0.00     0.189 HD
BRANCH   6  13
ATOM     13  C   UNL d   1       2.063  -1.539   0.029  0.00  0.00     0.046 A 
ATOM     14  C   UNL d   1       2.241  -2.446  -1.018  0.00  0.00     0.033 A 
ATOM     15  C   UNL d   1       3.402  -3.224  -1.074  0.00  0.00     0.039 A 
ATOM     16  C   UNL d   1       4.357  -3.151  -0.057  0.00  0.00     0.069 A 
ATOM     17  C   UNL d   1       4.153  -2.283   1.014  0.00  0.00     0.039 A 
ATOM     18  C   UNL d   1       3.011  -1.487   1.057  0.00  0.00     0.033 A 
BRANCH  16  19
ATOM     19  O   UNL d   1       5.447  -3.962  -0.213  0.00  0.00    -0.347 OA
BRANCH  19  20
ATOM     20  C   UNL d   1       6.244  -4.149   0.955  0.00  0.00     0.214 C 
BRANCH  20  21
ATOM     21  C   UNL d   1       7.172  -5.312   0.731  0.00  0.00    -0.034 A 
ATOM     22  C   UNL d   1       8.514  -5.106   0.391  0.00  0.00     0.009 A 
ATOM     23  C   UNL d   1       9.367  -6.195   0.214  0.00  0.00     0.001 A 
ATOM     24  C   UNL d   1       8.884  -7.495   0.368  0.00  0.00     0.000 A 
ATOM     25  C   UNL d   1       7.545  -7.709   0.687  0.00  0.00     0.001 A 
ATOM     26  C   UNL d   1       6.691  -6.623   0.862  0.00  0.00     0.009 A 
ENDBRANCH  20  21
ENDBRANCH  19  20
ENDBRANCH  16  19
ENDBRANCH   6  13
ENDBRANCH   4   5
ENDBRANCH   3   4
TORSDOF 6
