REMARK  7 active torsions:
REMARK  status: ('A' for Active; 'I' for Inactive)
REMARK    1  A    between atoms: C_12  and  C_1 
REMARK    2  A    between atoms: C_10  and  C_2 
REMARK    3  A    between atoms: C_9  and  C_3 
REMARK    4  A    between atoms: N_7  and  C_6 
REMARK       I    between atoms: N_23  and  C_10 
REMARK    5  A    between atoms: O_26  and  C_12 
REMARK    6  A    between atoms: C_14  and  C_22 
REMARK    7  A    between atoms: N_15  and  N_23 
ROOT
ATOM      1  C   UNL d   1      -1.444  -0.260   0.081  0.00  0.00     0.110 A 
ATOM      2  C   UNL d   1      -0.909   1.015  -0.063  0.00  0.00     0.186 A 
ATOM      3  C   UNL d   1      -0.339  -1.155  -0.141  0.00  0.00     0.087 A 
ATOM      4  N   UNL d   1       0.759  -0.447  -0.432  0.00  0.00    -0.259 N 
ATOM      5  HN  UNL d   1       1.676  -0.822  -0.674  1.00  0.00     0.195 HD
ATOM      6  O   UNL d   1       0.419   0.876  -0.345  0.00  0.00    -0.231 OA
ENDROOT
BRANCH   2   7
ATOM      7  C   UNL d   1      -1.375   2.391   0.032  0.00  0.00     0.296 C 
ATOM      8  N   UNL d   1      -2.751   2.563   0.124  0.00  0.00    -0.264 N 
ATOM      9  H   UNL d   1      -3.368   1.768   0.005  0.00  0.00     0.190 HD
ATOM     10  O   UNL d   1      -0.602   3.345   0.023  0.00  0.00    -0.264 OA
BRANCH   8  11
ATOM     11  N   UNL d   1      -3.308   3.811   0.166  0.00  0.00    -0.308 N 
ATOM     12  C   UNL d   1      -4.604   3.845   0.215  0.00  0.00     0.126 C 
ATOM     13  HN  UNL d   1      -2.741   4.660   0.159  1.00  0.00     0.186 HD
BRANCH  12  14
ATOM     14  C   UNL d   1      -5.300   5.104   0.247  0.00  0.00     0.024 A 
ATOM     15  S   UNL d   1      -7.006   5.119   0.393  0.00  0.00    -0.065 SA
ATOM     16  C   UNL d   1      -7.048   6.819   0.380  0.00  0.00     0.144 A 
ATOM     17  C   UNL d   1      -5.798   7.383   0.252  0.00  0.00     0.045 A 
ATOM     18  C   UNL d   1      -4.783   6.383   0.175  0.00  0.00     0.023 A 
BRANCH  16  19
ATOM     19  N   UNL d   1      -8.300   7.522   0.497  0.00  0.00    -0.108 N 
ATOM     20  O   UNL d   1      -8.235   8.758   0.501  0.00  0.00    -0.531 OA
ATOM     21  O   UNL d   1      -9.340   6.857   0.586  0.00  0.00    -0.531 OA
ENDBRANCH  16  19
ENDBRANCH  12  14
ENDBRANCH   8  11
ENDBRANCH   2   7
BRANCH   1  22
ATOM     22  C   UNL d   1      -2.810  -0.620   0.378  0.00  0.00     0.298 C 
ATOM     23  O   UNL d   1      -3.121  -1.563   1.092  0.00  0.00    -0.259 OA
BRANCH  22  24
ATOM     24  O   UNL d   1      -3.700   0.158  -0.304  0.00  0.00    -0.322 OA
ATOM     25  C   UNL d   1      -5.060  -0.300  -0.289  0.00  0.00     0.213 C 
ENDBRANCH  22  24
ENDBRANCH   1  22
BRANCH   3  26
ATOM     26  C   UNL d   1      -0.282  -2.630  -0.149  0.00  0.00     0.037 A 
ATOM     27  C   UNL d   1      -1.218  -3.410  -0.864  0.00  0.00     0.048 A 
ATOM     28 CL   UNL d   1      -2.427  -2.734  -1.909  0.00  0.00    -0.083 Cl
ATOM     29  C   UNL d   1      -1.167  -4.813  -0.843  0.00  0.00     0.025 A 
ATOM     30  C   UNL d   1      -0.137  -5.473  -0.185  0.00  0.00     0.003 A 
ATOM     31  C   UNL d   1       0.834  -4.729   0.473  0.00  0.00     0.025 A 
ATOM     32  C   UNL d   1       0.754  -3.327   0.516  0.00  0.00     0.048 A 
ATOM     33 CL   UNL d   1       1.993  -2.545   1.446  0.00  0.00    -0.083 Cl
ENDBRANCH   3  26
TORSDOF 7
