REMARK  6 active torsions:
REMARK  status: ('A' for Active; 'I' for Inactive)
REMARK    1  A    between atoms: C_2  and  C_6 
REMARK       I    between atoms: C_3  and  N_7 
REMARK       I    between atoms: N_9  and  C_3 
REMARK    2  A    between atoms: C_17  and  N_4 
REMARK    3  A    between atoms: N_7  and  C_5 
REMARK       I    between atoms: C_6  and  N_13 
REMARK    4  A    between atoms: C_14  and  N_9 
REMARK    5  A    between atoms: N_13  and  C_23 
REMARK    6  A    between atoms: C_23  and  C_17 
ROOT
ATOM      1  C   UNL d   1      -4.599  -2.090  -0.978  0.00  0.00     0.058 A 
ATOM      2  C   UNL d   1      -4.343  -1.425  -2.204  0.00  0.00     0.052 A 
ATOM      3  C   UNL d   1      -5.774  -1.839  -0.258  0.00  0.00     0.019 A 
ATOM      4  C   UNL d   1      -5.250  -0.459  -2.651  0.00  0.00     0.030 A 
ATOM      5  C   UNL d   1      -6.690  -0.906  -0.739  0.00  0.00     0.001 A 
ATOM      6  C   UNL d   1      -6.411  -0.194  -1.911  0.00  0.00     0.002 A 
ENDROOT
BRANCH   1   7
ATOM      7  C   UNL d   1      -3.553  -2.989  -0.417  0.00  0.00     0.253 C 
ATOM      8  N   UNL d   1      -3.962  -4.080   0.311  0.00  0.00    -0.355 N 
ATOM      9  H   UNL d   1      -4.944  -4.307   0.420  0.00  0.00     0.162 HD
ATOM     10  O   UNL d   1      -2.373  -2.745  -0.626  0.00  0.00    -0.268 OA
BRANCH   8  11
ATOM     11  C   UNL d   1      -2.982  -5.045   0.791  0.00  0.00     0.143 C 
BRANCH  11  12
ATOM     12  C   UNL d   1      -3.264  -5.524   2.210  0.00  0.00     0.147 C 
BRANCH  12  13
ATOM     13  N   UNL d   1      -4.412  -6.406   2.308  0.00  0.00    -0.331 N 
ATOM     14  C   UNL d   1      -5.703  -6.008   2.620  0.00  0.00     0.318 C 
ATOM     15  N   UNL d   1      -6.503  -7.145   2.593  0.00  0.00    -0.341 N 
ATOM     16  O   UNL d   1      -6.094  -4.881   2.871  0.00  0.00    -0.247 OA
ATOM     17  C   UNL d   1      -5.691  -8.325   2.450  0.00  0.00     0.144 C 
ATOM     18  H   UNL d   1      -7.425  -7.107   3.007  0.00  0.00     0.164 HD
ATOM     19  C   UNL d   1      -4.396  -7.782   1.864  0.00  0.00     0.147 C 
ENDBRANCH  12  13
ENDBRANCH  11  12
ENDBRANCH   8  11
ENDBRANCH   1   7
BRANCH   2  20
ATOM     20  N   UNL d   1      -3.436  -2.019  -3.099  0.00  0.00    -0.308 N 
ATOM     21  C   UNL d   1      -2.248  -1.752  -3.640  0.00  0.00     0.325 C 
ATOM     22  N   UNL d   1      -1.609  -0.601  -3.822  0.00  0.00    -0.309 N 
ATOM     23  O   UNL d   1      -1.669  -2.742  -4.121  0.00  0.00    -0.247 OA
ATOM     24  H   UNL d   1      -0.809  -0.806  -4.412  0.00  0.00     0.170 HD
ATOM     25  H   UNL d   1      -3.401  -3.028  -2.982  0.00  0.00     0.170 HD
BRANCH  22  26
ATOM     26  C   UNL d   1      -1.829   0.751  -3.600  0.00  0.00     0.036 C 
ATOM     27  C   UNL d   1      -2.597   1.272  -2.570  0.00  0.00     0.032 C 
ATOM     28  C   UNL d   1      -2.928   2.626  -2.569  0.00  0.00     0.044 C 
ATOM     29  C   UNL d   1      -2.431   3.460  -3.565  0.00  0.00     0.116 C 
ATOM     30  C   UNL d   1      -1.544   2.983  -4.515  0.00  0.00     0.044 C 
ATOM     31  F   UNL d   1      -2.812   4.742  -3.605  0.00  0.00    -0.206 F 
ATOM     32  C   UNL d   1      -1.223   1.627  -4.518  0.00  0.00     0.032 C 
ENDBRANCH  22  26
ENDBRANCH   2  20
TORSDOF 6
