REMARK  6 active torsions:
REMARK  status: ('A' for Active; 'I' for Inactive)
REMARK    1  A    between atoms: C_3  and  C_4 
REMARK    2  A    between atoms: C_8  and  C_3 
REMARK    3  A    between atoms: N_14  and  C_7 
REMARK    4  A    between atoms: O_15  and  C_8 
REMARK    5  A    between atoms: O_16  and  N_10 
REMARK    6  A    between atoms: C_17  and  O_15 
ROOT
ATOM      1  N   UNL d   1      -3.843   2.816   1.018  0.00  0.00    -0.300 N 
ATOM      2  HN  UNL d   1      -4.308   2.127   1.609  1.00  0.00     0.186 HD
ATOM      3  C   UNL d   1      -3.038   2.432   0.074  0.00  0.00     0.070 C 
ATOM      4  N   UNL d   1      -4.068   4.189   1.217  0.00  0.00    -0.284 N 
ATOM      5  HN  UNL d   1      -4.346   4.515   2.143  1.00  0.00     0.188 HD
ATOM      6  C   UNL d   1      -3.933   5.054   0.260  0.00  0.00     0.131 C 
ATOM      7  S   UNL d   1      -3.336   4.694  -1.334  0.00  0.00    -0.093 SA
ATOM      8  C   UNL d   1      -2.264   3.348  -0.818  0.00  0.00     0.143 C 
ENDROOT
BRANCH   3   9
ATOM      9  C   UNL d   1      -2.777   0.955  -0.102  0.00  0.00     0.154 C 
ATOM     10  N   UNL d   1      -3.717   0.087  -0.372  0.00  0.00    -0.261 N 
ATOM     11  HN  UNL d   1      -3.550  -0.912  -0.491  1.00  0.00     0.194 HD
BRANCH   9  12
ATOM     12  C   UNL d   1      -1.354   0.437  -0.050  0.00  0.00     0.314 C 
ATOM     13  O   UNL d   1      -0.429   1.075  -0.528  0.00  0.00    -0.257 OA
BRANCH  12  14
ATOM     14  O   UNL d   1      -1.310  -0.799   0.485  0.00  0.00    -0.317 OA
BRANCH  14  15
ATOM     15  C   UNL d   1      -0.101  -1.534   0.260  0.00  0.00     0.175 C 
ATOM     16  C   UNL d   1      -0.262  -2.350  -1.010  0.00  0.00     0.034 C 
ENDBRANCH  14  15
ENDBRANCH  12  14
ENDBRANCH   9  12
BRANCH  10  17
ATOM     17  O   UNL d   1      -4.977   0.682  -0.478  0.00  0.00    -0.289 OA
ATOM     18  H   UNL d   1      -5.583  -0.081  -0.425  0.00  0.00     0.244 HD
ENDBRANCH  10  17
ENDBRANCH   3   9
BRANCH   6  19
ATOM     19  N   UNL d   1      -4.261   6.363   0.421  0.00  0.00    -0.282 NA
ATOM     20  H   UNL d   1      -4.942   6.503   1.159  0.00  0.00     0.126 HD
ATOM     21  H   UNL d   1      -4.484   6.841  -0.443  0.00  0.00     0.126 HD
ENDBRANCH   6  19
TORSDOF 6
