REMARK  3 active torsions:
REMARK  status: ('A' for Active; 'I' for Inactive)
REMARK    1  A    between atoms: N_2  and  C_1 
REMARK    2  A    between atoms: C_5  and  C_4 
REMARK       I    between atoms: N_8  and  C_5 
REMARK    3  A    between atoms: C_12  and  N_8 
ROOT
ATOM      1  C   UNL d   1      -0.849  -2.295  -0.049  0.00  0.00     0.280 C 
ATOM      2  N   UNL d   1      -2.215  -2.505   0.073  0.00  0.00    -0.321 N 
ATOM      3  O   UNL d   1      -0.328  -1.201  -0.239  0.00  0.00    -0.265 OA
ATOM      4  H   UNL d   1      -2.505  -3.430   0.375  0.00  0.00     0.169 HD
ENDROOT
BRANCH   1   5
ATOM      5  C   UNL d   1      -0.018  -3.481   0.079  0.00  0.00     0.146 A 
ATOM      6  O   UNL d   1      -0.560  -4.731   0.255  0.00  0.00    -0.283 OA
ATOM      7  C   UNL d   1       0.500  -5.595   0.291  0.00  0.00     0.215 A 
ATOM      8  C   UNL d   1       1.700  -4.941   0.154  0.00  0.00     0.066 A 
ATOM      9  C   UNL d   1       1.365  -3.575   0.018  0.00  0.00     0.047 A 
BRANCH   7  10
ATOM     10  N   UNL d   1       0.207  -6.985   0.451  0.00  0.00    -0.090 N 
ATOM     11  O   UNL d   1       1.178  -7.750   0.512  0.00  0.00    -0.530 OA
ATOM     12  O   UNL d   1      -0.985  -7.317   0.511  0.00  0.00    -0.530 OA
ENDBRANCH   7  10
ENDBRANCH   1   5
BRANCH   2  13
ATOM     13  C   UNL d   1      -3.227  -1.540  -0.151  0.00  0.00     0.035 A 
ATOM     14  C   UNL d   1      -2.982  -0.299  -0.757  0.00  0.00     0.032 A 
ATOM     15  C   UNL d   1      -4.020   0.608  -0.987  0.00  0.00     0.044 A 
ATOM     16  C   UNL d   1      -5.311   0.280  -0.607  0.00  0.00     0.116 A 
ATOM     17  C   UNL d   1      -5.582  -0.941  -0.002  0.00  0.00     0.044 A 
ATOM     18  F   UNL d   1      -6.307   1.147  -0.832  0.00  0.00    -0.206 F 
ATOM     19  C   UNL d   1      -4.542  -1.855   0.219  0.00  0.00     0.032 A 
ENDBRANCH   2  13
TORSDOF 3
