REMARK  8 active torsions:
REMARK  status: ('A' for Active; 'I' for Inactive)
REMARK    1  A    between atoms: C_7  and  C_1 
REMARK    2  A    between atoms: C_19  and  N_2 
REMARK    3  A    between atoms: C_20  and  C_6 
REMARK       I    between atoms: N_14  and  C_7 
REMARK    4  A    between atoms: C_8  and  C_10 
REMARK    5  A    between atoms: C_9  and  C_11 
REMARK    6  A    between atoms: C_12  and  C_13 
REMARK       I    between atoms: C_13  and  N_15 
REMARK    7  A    between atoms: N_15  and  N_14 
REMARK    8  A    between atoms: C_29  and  C_19 
ROOT
ATOM      1  C   UNL d   1      -0.762  -2.668   0.424  0.00  0.00     0.288 C 
ATOM      2  N   UNL d   1       0.047  -3.482   1.200  0.00  0.00    -0.262 N 
ATOM      3  O   UNL d   1      -1.791  -3.128  -0.075  0.00  0.00    -0.264 OA
ATOM      4  H   UNL d   1       0.674  -3.082   1.892  0.00  0.00     0.190 HD
ENDROOT
BRANCH   1   5
ATOM      5  C   UNL d   1      -0.396  -1.272   0.306  0.00  0.00     0.122 A 
ATOM      6  N   UNL d   1       0.842  -0.672   0.273  0.00  0.00    -0.282 N 
ATOM      7  N   UNL d   1       0.782   0.666   0.079  0.00  0.00    -0.301 N 
ATOM      8  C   UNL d   1      -0.519   0.965   0.080  0.00  0.00     0.036 A 
ATOM      9  HN  UNL d   1       1.564   1.309  -0.044  1.00  0.00     0.187 HD
ATOM     10  C   UNL d   1      -1.289  -0.217   0.162  0.00  0.00     0.064 A 
BRANCH   6  11
ATOM     11  C   UNL d   1       2.174  -1.254   0.435  0.00  0.00     0.188 C 
BRANCH  11  12
ATOM     12  C   UNL d   1       2.592  -1.254   1.891  0.00  0.00    -0.038 A 
ATOM     13  C   UNL d   1       3.023  -2.440   2.505  0.00  0.00     0.012 A 
ATOM     14  C   UNL d   1       3.296  -2.464   3.874  0.00  0.00     0.043 A 
ATOM     15  C   UNL d   1       3.184  -1.301   4.624  0.00  0.00     0.116 A 
ATOM     16  C   UNL d   1       2.825  -0.101   4.025  0.00  0.00     0.043 A 
ATOM     17  F   UNL d   1       3.421  -1.337   5.942  0.00  0.00    -0.206 F 
ATOM     18  C   UNL d   1       2.541  -0.077   2.661  0.00  0.00     0.012 A 
ENDBRANCH  11  12
ENDBRANCH   6  11
BRANCH   8  19
ATOM     19  C   UNL d   1      -0.962   2.417   0.013  0.00  0.00    -0.007 C 
ATOM     20  C   UNL d   1      -2.496   2.556   0.077  0.00  0.00     0.021 C 
ATOM     21  C   UNL d   1      -0.370   3.201   1.206  0.00  0.00     0.021 C 
ATOM     22  C   UNL d   1      -0.474   3.069  -1.297  0.00  0.00     0.021 C 
ENDBRANCH   8  19
ENDBRANCH   1   5
BRANCH   2  23
ATOM     23  N   UNL d   1      -0.443  -4.769   1.520  0.00  0.00    -0.263 N 
ATOM     24  C   UNL d   1       0.343  -5.618   2.273  0.00  0.00     0.270 C 
ATOM     25  O   UNL d   1       1.494  -5.347   2.604  0.00  0.00    -0.266 OA
ATOM     26  H   UNL d   1      -1.338  -5.021   1.101  0.00  0.00     0.190 HD
BRANCH  24  27
ATOM     27  C   UNL d   1      -0.271  -6.907   2.708  0.00  0.00     0.035 A 
ATOM     28  C   UNL d   1       0.576  -7.992   2.995  0.00  0.00     0.033 A 
ATOM     29  C   UNL d   1       0.061  -9.200   3.497  0.00  0.00     0.049 A 
ATOM     30  C   UNL d   1      -1.323  -9.307   3.713  0.00  0.00     0.032 A 
ATOM     31  C   UNL d   1      -2.183  -8.226   3.454  0.00  0.00     0.049 A 
ATOM     32  C   UNL d   1      -1.647  -7.032   2.937  0.00  0.00     0.033 A 
BRANCH  29  33
ATOM     33  C   UNL d   1       0.987 -10.355   3.809  0.00  0.00     0.417 C 
ATOM     34  F   UNL d   1       0.371 -11.376   4.467  0.00  0.00    -0.166 F 
ATOM     35  F   UNL d   1       1.524 -10.902   2.685  0.00  0.00    -0.166 F 
ATOM     36  F   UNL d   1       2.038  -9.986   4.590  0.00  0.00    -0.166 F 
ENDBRANCH  29  33
BRANCH  31  37
ATOM     37  C   UNL d   1      -3.666  -8.337   3.734  0.00  0.00     0.417 C 
ATOM     38  F   UNL d   1      -3.982  -9.369   4.562  0.00  0.00    -0.166 F 
ATOM     39  F   UNL d   1      -4.167  -7.217   4.323  0.00  0.00    -0.166 F 
ATOM     40  F   UNL d   1      -4.390  -8.525   2.599  0.00  0.00    -0.166 F 
ENDBRANCH  31  37
ENDBRANCH  24  27
ENDBRANCH   2  23
TORSDOF 8
