REMARK  7 active torsions:
REMARK  status: ('A' for Active; 'I' for Inactive)
REMARK    1  A    between atoms: S_7  and  C_1 
REMARK    2  A    between atoms: C_8  and  C_3 
REMARK       I    between atoms: C_6  and  N_10 
REMARK       I    between atoms: N_14  and  C_6 
REMARK    3  A    between atoms: C_12  and  S_7 
REMARK    4  A    between atoms: O_20  and  C_8 
REMARK    5  A    between atoms: N_10  and  C_13 
REMARK    6  A    between atoms: C_19  and  N_14 
REMARK    7  A    between atoms: C_30  and  O_20 
ROOT
ATOM      1  C   UNL d   1       0.321   1.863   0.141  0.00  0.00     0.097 C 
ATOM      2  C   UNL d   1       0.827   1.748   1.423  0.00  0.00     0.094 C 
ATOM      3  C   UNL d   1       0.354   0.697   2.205  0.00  0.00     0.065 C 
ATOM      4  N   UNL d   1      -0.839   1.232  -0.213  0.00  0.00    -0.353 N 
ATOM      5  HN  UNL d   1      -1.245   1.375  -1.137  1.00  0.00     0.166 HD
ATOM      6  C   UNL d   1       1.603   2.769   2.032  0.00  0.00     0.103 C 
ATOM      7  N   UNL d   1       2.140   3.636   2.608  0.00  0.00    -0.191 NA
ATOM      8  C   UNL d   1      -0.833   0.044   1.862  0.00  0.00     0.043 C 
ATOM      9  C   UNL d   1      -1.442   0.413   0.681  0.00  0.00     0.007 C 
ATOM     10  C   UNL d   1      -2.859  -0.028   0.406  0.00  0.00     0.068 C 
ENDROOT
BRANCH   1  11
ATOM     11  S   UNL d   1       1.090   2.861  -1.130  0.00  0.00    -0.069 SA
BRANCH  11  12
ATOM     12  C   UNL d   1       2.851   2.439  -1.101  0.00  0.00     0.028 C 
ATOM     13  C   UNL d   1       3.417   1.473  -1.964  0.00  0.00     0.033 C 
ATOM     14  C   UNL d   1       4.803   1.417  -2.183  0.00  0.00     0.025 C 
ATOM     15  C   UNL d   1       5.650   2.134  -1.344  0.00  0.00     0.002 C 
ATOM     16  C   UNL d   1       5.112   2.965  -0.366  0.00  0.00     0.001 C 
ATOM     17  C   UNL d   1       3.732   3.186  -0.312  0.00  0.00     0.021 C 
BRANCH  13  18
ATOM     18  N   UNL d   1       2.688   0.300  -2.296  0.00  0.00    -0.214 NA
ATOM     19  C   UNL d   1       2.511  -0.565  -1.216  0.00  0.00     0.281 C 
ATOM     20  N   UNL d   1       1.810  -1.706  -1.547  0.00  0.00    -0.215 NA
ATOM     21  O   UNL d   1       2.803  -0.311  -0.050  0.00  0.00    -0.260 OA
ATOM     22  H   UNL d   1       1.055  -1.624  -0.867  0.00  0.00     0.138 HD
ATOM     23  H   UNL d   1       3.005  -0.213  -3.109  0.00  0.00     0.138 HD
BRANCH  20  24
ATOM     24  C   UNL d   1       2.393  -2.974  -1.244  0.00  0.00     0.016 A 
ATOM     25  C   UNL d   1       2.938  -3.282   0.008  0.00  0.00     0.025 A 
ATOM     26  C   UNL d   1       3.486  -4.545   0.247  0.00  0.00     0.025 A 
ATOM     27  C   UNL d   1       3.466  -5.506  -0.760  0.00  0.00     0.034 A 
ATOM     28  C   UNL d   1       2.867  -5.227  -1.988  0.00  0.00     0.025 A 
ATOM     29 CL   UNL d   1       4.195  -7.041  -0.492  0.00  0.00    -0.084 Cl
ATOM     30  C   UNL d   1       2.330  -3.959  -2.230  0.00  0.00     0.025 A 
ENDBRANCH  20  24
ENDBRANCH  13  18
ENDBRANCH  11  12
ENDBRANCH   1  11
BRANCH   3  31
ATOM     31  C   UNL d   1       1.120   0.215   3.361  0.00  0.00     0.295 C 
ATOM     32  O   UNL d   1       0.635  -0.370   4.316  0.00  0.00    -0.259 OA
BRANCH  31  33
ATOM     33  O   UNL d   1       2.428   0.402   3.084  0.00  0.00    -0.318 OA
BRANCH  33  34
ATOM     34  C   UNL d   1       3.402  -0.124   3.992  0.00  0.00     0.174 C 
ATOM     35  C   UNL d   1       3.840  -1.492   3.512  0.00  0.00     0.034 C 
ENDBRANCH  33  34
ENDBRANCH  31  33
ENDBRANCH   3  31
TORSDOF 7
