REMARK  7 active torsions:
REMARK  status: ('A' for Active; 'I' for Inactive)
REMARK    1  A    between atoms: S_7  and  C_1 
REMARK    2  A    between atoms: C_10  and  C_3 
REMARK       I    between atoms: C_6  and  N_8 
REMARK    3  A    between atoms: C_9  and  C_6 
REMARK    4  A    between atoms: C_13  and  S_7 
REMARK    5  A    between atoms: N_8  and  C_14 
REMARK    6  A    between atoms: O_23  and  C_10 
REMARK    7  A    between atoms: C_27  and  O_23 
ROOT
ATOM      1  C   UNL d   1       0.549   0.563   0.805  0.00  0.00     0.097 A 
ATOM      2  C   UNL d   1      -0.767   0.627   0.349  0.00  0.00     0.094 A 
ATOM      3  C   UNL d   1      -1.376  -0.571  -0.051  0.00  0.00     0.065 A 
ATOM      4  N   UNL d   1       1.256  -0.600   0.834  0.00  0.00    -0.353 N 
ATOM      5  HN  UNL d   1       2.213  -0.614   1.187  1.00  0.00     0.166 HD
ATOM      6  C   UNL d   1      -1.428   1.893   0.235  0.00  0.00     0.103 C 
ATOM      7  N   UNL d   1      -1.953   2.919   0.102  0.00  0.00    -0.191 NA
ATOM      8  C   UNL d   1      -0.646  -1.764  -0.030  0.00  0.00     0.043 A 
ATOM      9  C   UNL d   1       0.674  -1.735   0.389  0.00  0.00     0.007 A 
ATOM     10  C   UNL d   1       1.494  -2.990   0.412  0.00  0.00     0.068 C 
ENDROOT
BRANCH   1  11
ATOM     11  S   UNL d   1       1.380   2.002   1.493  0.00  0.00    -0.069 SA
BRANCH  11  12
ATOM     12  C   UNL d   1       2.816   2.134   0.433  0.00  0.00     0.033 A 
ATOM     13  C   UNL d   1       2.908   2.931  -0.726  0.00  0.00     0.052 A 
ATOM     14  C   UNL d   1       3.976   2.705  -1.616  0.00  0.00     0.031 A 
ATOM     15  C   UNL d   1       4.991   1.796  -1.317  0.00  0.00     0.002 A 
ATOM     16  C   UNL d   1       4.955   1.094  -0.122  0.00  0.00     0.002 A 
ATOM     17  C   UNL d   1       3.873   1.257   0.740  0.00  0.00     0.021 A 
BRANCH  13  18
ATOM     18  N   UNL d   1       2.007   3.937  -1.143  0.00  0.00    -0.321 N 
ATOM     19  C   UNL d   1       1.295   4.839  -0.365  0.00  0.00     0.263 C 
ATOM     20  O   UNL d   1       1.401   4.940   0.852  0.00  0.00    -0.267 OA
ATOM     21  H   UNL d   1       2.076   4.225  -2.112  0.00  0.00     0.169 HD
BRANCH  19  22
ATOM     22  C   UNL d   1       0.438   5.740  -1.144  0.00  0.00     0.072 A 
ATOM     23  S   UNL d   1       0.438   5.745  -2.864  0.00  0.00    -0.097 SA
ATOM     24  C   UNL d   1      -0.827   6.888  -2.937  0.00  0.00     0.050 A 
ATOM     25  C   UNL d   1      -1.211   7.311  -1.685  0.00  0.00     0.009 A 
ATOM     26  C   UNL d   1      -0.460   6.673  -0.653  0.00  0.00     0.025 A 
ENDBRANCH  19  22
ENDBRANCH  13  18
ENDBRANCH  11  12
ENDBRANCH   1  11
BRANCH   3  27
ATOM     27  C   UNL d   1      -2.773  -0.672  -0.536  0.00  0.00     0.295 C 
ATOM     28  O   UNL d   1      -3.139  -1.512  -1.339  0.00  0.00    -0.259 OA
BRANCH  27  29
ATOM     29  O   UNL d   1      -3.550   0.250   0.073  0.00  0.00    -0.318 OA
BRANCH  29  30
ATOM     30  C   UNL d   1      -4.907   0.357  -0.388  0.00  0.00     0.174 C 
ATOM     31  C   UNL d   1      -4.962   1.116  -1.703  0.00  0.00     0.034 C 
ENDBRANCH  29  30
ENDBRANCH  27  29
ENDBRANCH   3  27
TORSDOF 7
