REMARK  2 active torsions:
REMARK  status: ('A' for Active; 'I' for Inactive)
REMARK    1  A    between atoms: C_9  and  C_1 
REMARK    2  A    between atoms: C_10  and  C_1 
ROOT
ATOM      1  C   UNL d   1       0.380   1.247   0.008  0.00  0.00     0.105 A 
ATOM      2  C   UNL d   1       1.366   0.087  -0.050  0.00  0.00     0.238 A 
ATOM      3  C   UNL d   1      -1.085   0.847  -0.112  0.00  0.00     0.168 A 
ATOM      4  N   UNL d   1       0.848  -1.179  -0.103  0.00  0.00    -0.336 N 
ATOM      5  C   UNL d   1      -1.440  -0.583  -0.162  0.00  0.00     0.068 A 
ATOM      6  C   UNL d   1      -0.474  -1.500  -0.151  0.00  0.00     0.094 A 
ATOM      7  O   UNL d   1       2.586   0.241  -0.027  0.00  0.00    -0.272 OA
ATOM      8  O   UNL d   1      -1.999   1.671  -0.149  0.00  0.00    -0.292 OA
ATOM      9  H   UNL d   1       1.546  -1.918  -0.117  0.00  0.00     0.168 HD
ENDROOT
BRANCH   1  10
ATOM     10  C   UNL d   1       0.571   1.972   1.369  0.00  0.00     0.023 C 
ATOM     11  C   UNL d   1       0.284   1.105   2.594  0.00  0.00     0.007 C 
ENDBRANCH   1  10
BRANCH   1  12
ATOM     12  C   UNL d   1       0.718   2.234  -1.142  0.00  0.00     0.023 C 
ATOM     13  C   UNL d   1       0.566   1.641  -2.542  0.00  0.00     0.007 C 
ENDBRANCH   1  12
TORSDOF 2
