REMARK  4 active torsions:
REMARK  status: ('A' for Active; 'I' for Inactive)
REMARK    1  A    between atoms: O_14  and  C_2 
REMARK    2  A    between atoms: C_13  and  C_16 
REMARK    3  A    between atoms: C_15  and  C_13 
REMARK    4  A    between atoms: C_16  and  O_14 
ROOT
ATOM      1  N   UNL d   1       1.770   7.854   6.299  0.00  0.00    -0.191 NA
ATOM      2  C   UNL d   1       1.791   7.377   5.242  0.00  0.00     0.099 C 
ATOM      3  C   UNL d   1       1.988   5.563   1.415  0.00  0.00     0.012 A 
ATOM      4  C   UNL d   1       2.360   6.904   1.581  0.00  0.00     0.017 A 
ATOM      5  C   UNL d   1       1.502   4.840   2.510  0.00  0.00     0.017 A 
ATOM      6  C   UNL d   1       1.830   6.775   3.941  0.00  0.00     0.044 A 
ATOM      7  C   UNL d   1       1.423   5.447   3.769  0.00  0.00     0.023 A 
ATOM      8  C   UNL d   1       2.288   7.506   2.841  0.00  0.00     0.023 A 
ENDROOT
BRANCH   3   9
ATOM      9  C   UNL d   1       2.148   4.948   0.067  0.00  0.00     0.183 C 
ATOM     10  O   UNL d   1       2.131   5.671  -0.928  0.00  0.00    -0.290 OA
BRANCH   9  11
ATOM     11  C   UNL d   1       2.373   3.449  -0.026  0.00  0.00     0.261 C 
BRANCH  11  12
ATOM     12  O   UNL d   1       1.103   2.812  -0.016  0.00  0.00    -0.327 OA
BRANCH  12  13
ATOM     13  C   UNL d   1       1.174   1.434  -0.128  0.00  0.00     0.156 A 
ATOM     14  C   UNL d   1      -0.035   0.746  -0.235  0.00  0.00     0.042 A 
ATOM     15  C   UNL d   1       0.086  -0.646  -0.309  0.00  0.00     0.049 A 
ATOM     16  C   UNL d   1      -1.311   1.357  -0.269  0.00  0.00     0.020 A 
ATOM     17  N   UNL d   1       1.274  -1.263  -0.284  0.00  0.00    -0.351 N 
ATOM     18  C   UNL d   1      -1.073  -1.405  -0.408  0.00  0.00     0.054 A 
ATOM     19  C   UNL d   1       2.365  -0.490  -0.182  0.00  0.00     0.182 A 
ATOM     20  HN  UNL d   1       1.346  -2.279  -0.339  1.00  0.00     0.166 HD
ATOM     21  N   UNL d   1       2.381   0.845  -0.091  0.00  0.00    -0.332 N 
ATOM     22  HN  UNL d   1       3.247   1.377  -0.000  1.00  0.00     0.168 HD
ATOM     23  C   UNL d   1      -2.333  -0.804  -0.438  0.00  0.00     0.036 A 
ATOM     24  C   UNL d   1      -2.459   0.578  -0.371  0.00  0.00     0.025 A 
ATOM     25 CL   UNL d   1      -3.743  -1.782  -0.560  0.00  0.00    -0.084 Cl
ENDBRANCH  12  13
ENDBRANCH  11  12
ENDBRANCH   9  11
ENDBRANCH   3   9
TORSDOF 4
