REMARK  4 active torsions:
REMARK  status: ('A' for Active; 'I' for Inactive)
REMARK    1  A    between atoms: C_2  and  C_1 
REMARK    2  A    between atoms: C_4  and  C_2 
REMARK    3  A    between atoms: N_6  and  C_3 
REMARK    4  A    between atoms: C_9  and  N_6 
ROOT
ATOM      1  C   UNL d   1       1.046   0.162  -0.081  0.00  0.00     0.072 C 
ATOM      2  C   UNL d   1       2.373  -0.022  -0.147  0.00  0.00     0.092 C 
ENDROOT
BRANCH   1   3
ATOM      3  C   UNL d   1       0.347  -0.071   1.211  0.00  0.00     0.183 C 
ATOM      4  O   UNL d   1       0.840  -0.754   2.103  0.00  0.00    -0.288 OA
BRANCH   3   5
ATOM      5  C   UNL d   1      -0.999   0.537   1.394  0.00  0.00     0.014 A 
ATOM      6  C   UNL d   1      -1.884  -0.074   2.295  0.00  0.00     0.018 A 
ATOM      7  C   UNL d   1      -3.143   0.483   2.530  0.00  0.00     0.043 A 
ATOM      8  C   UNL d   1      -3.508   1.652   1.873  0.00  0.00     0.116 A 
ATOM      9  C   UNL d   1      -2.639   2.275   0.983  0.00  0.00     0.043 A 
ATOM     10  F   UNL d   1      -4.710   2.193   2.106  0.00  0.00    -0.206 F 
ATOM     11  C   UNL d   1      -1.379   1.720   0.743  0.00  0.00     0.018 A 
ENDBRANCH   3   5
ENDBRANCH   1   3
BRANCH   2  12
ATOM     12  N   UNL d   1       3.178   0.187  -1.238  0.00  0.00    -0.366 N 
ATOM     13  H   UNL d   1       2.733   0.554  -2.071  0.00  0.00     0.165 HD
BRANCH  12  14
ATOM     14  C   UNL d   1       4.541  -0.128  -1.373  0.00  0.00     0.032 A 
ATOM     15  C   UNL d   1       5.213  -1.006  -0.510  0.00  0.00     0.031 A 
ATOM     16  C   UNL d   1       6.585  -1.247  -0.647  0.00  0.00     0.026 A 
ATOM     17  C   UNL d   1       7.306  -0.592  -1.639  0.00  0.00     0.034 A 
ATOM     18  C   UNL d   1       6.667   0.299  -2.496  0.00  0.00     0.026 A 
ATOM     19 CL   UNL d   1       8.993  -0.879  -1.804  0.00  0.00    -0.084 Cl
ATOM     20  C   UNL d   1       5.293   0.528  -2.360  0.00  0.00     0.031 A 
ENDBRANCH  12  14
ENDBRANCH   2  12
TORSDOF 4
