REMARK  7 active torsions:
REMARK  status: ('A' for Active; 'I' for Inactive)
REMARK    1  A    between atoms: N_2  and  C_1 
REMARK    2  A    between atoms: N_5  and  C_1 
REMARK    3  A    between atoms: C_3  and  N_2 
REMARK    4  A    between atoms: CA_12  and  N_5 
REMARK    5  A    between atoms: C_14  and  CA_12 
REMARK    6  A    between atoms: C_15  and  CA_12 
REMARK    7  A    between atoms: O_13  and  C_14 
ROOT
ATOM      1  C   UNL d   1       1.126   0.276  -0.350  0.00  0.00     0.168 C 
ATOM      2  S   UNL d   1       2.636  -0.363  -0.638  0.00  0.00    -0.041 SA
ENDROOT
BRANCH   1   3
ATOM      3  N   UNL d   1       0.581   0.589   0.859  0.00  0.00    -0.362 N 
ATOM      4  H   UNL d   1      -0.397   0.832   0.826  0.00  0.00     0.162 HD
BRANCH   3   5
ATOM      5  C   UNL d   1       1.222   0.740   2.159  0.00  0.00     0.088 C 
ATOM      6  C   UNL d   1       0.187   1.041   3.279  0.00  0.00     0.009 C 
ATOM      7  C   UNL d   1       1.002   0.740   4.537  0.00  0.00     0.011 C 
ATOM      8  C   UNL d   1      -0.883  -0.071   3.358  0.00  0.00     0.007 C 
ATOM      9  C   UNL d   1       1.308  -0.690   4.104  0.00  0.00    -0.012 C 
ATOM     10  C   UNL d   1       1.969  -0.483   2.729  0.00  0.00     0.030 C 
ATOM     11  C   UNL d   1      -0.092  -1.277   3.879  0.00  0.00     0.005 C 
ENDBRANCH   3   5
ENDBRANCH   1   3
BRANCH   1  12
ATOM     12  N   UNL d   1       0.306   0.506  -1.420  0.00  0.00    -0.361 N 
ATOM     13  H   UNL d   1       0.697   0.189  -2.304  0.00  0.00     0.162 HD
BRANCH  12  14
ATOM     14  CA  UNL d   1      -0.639   1.625  -1.570  0.00  0.00     0.107 C 
BRANCH  14  15
ATOM     15  C   UNL d   1      -0.139   2.555  -2.695  0.00  0.00     0.189 C 
BRANCH  15  16
ATOM     16  O   UNL d   1      -0.141   1.867  -3.946  0.00  0.00    -0.399 OA
ATOM     17  H   UNL d   1       0.136   2.508  -4.624  0.00  0.00     0.209 HD
ENDBRANCH  15  16
ENDBRANCH  14  15
BRANCH  14  18
ATOM     18  C   UNL d   1      -2.057   1.110  -1.862  0.00  0.00     0.023 C 
ATOM     19  C   UNL d   1      -2.659   0.332  -0.701  0.00  0.00     0.007 C 
ENDBRANCH  14  18
ENDBRANCH  12  14
ENDBRANCH   1  12
TORSDOF 7
