REMARK  5 active torsions:
REMARK  status: ('A' for Active; 'I' for Inactive)
REMARK    1  A    between atoms: C_4  and  C_1 
REMARK    2  A    between atoms: O_6  and  C_1 
REMARK    3  A    between atoms: S_2  and  C_4 
REMARK    4  A    between atoms: C_5  and  S_2 
REMARK    5  A    between atoms: C_7  and  C_5 
ROOT
ATOM      1  S   UNL d   1       0.631  -0.278  -2.776  0.00  0.00    -0.149 SA
ENDROOT
BRANCH   1   2
ATOM      2  C   UNL d   1       0.385   0.634  -1.202  0.00  0.00     0.141 C 
ATOM      3  C   UNL d   1      -1.093   0.577  -0.833  0.00  0.00     0.032 C 
BRANCH   2   4
ATOM      4  C   UNL d   1       1.202   0.032  -0.066  0.00  0.00     0.153 C 
ATOM      5  O   UNL d   1       1.599   0.670   0.899  0.00  0.00    -0.649 OA
BRANCH   4   6
ATOM      6  O   UNL d   1       1.417  -1.304  -0.185  0.00  0.00    -0.776 OA
ATOM      7  H   UNL d   1       1.033  -1.646  -1.022  0.00  0.00     0.167 HD
ENDBRANCH   4   6
ENDBRANCH   2   4
ENDBRANCH   1   2
BRANCH   1   8
ATOM      8  C   UNL d   1       2.410   0.051  -3.055  0.00  0.00     0.113 C 
BRANCH   8   9
ATOM      9  C   UNL d   1       2.860  -0.585  -4.347  0.00  0.00    -0.049 A 
ATOM     10  C   UNL d   1       2.833   0.142  -5.547  0.00  0.00     0.008 A 
ATOM     11  C   UNL d   1       3.213  -0.460  -6.748  0.00  0.00     0.001 A 
ATOM     12  C   UNL d   1       3.615  -1.794  -6.765  0.00  0.00     0.000 A 
ATOM     13  C   UNL d   1       3.640  -2.528  -5.581  0.00  0.00     0.001 A 
ATOM     14  C   UNL d   1       3.265  -1.928  -4.378  0.00  0.00     0.008 A 
ENDBRANCH   8   9
ENDBRANCH   1   8
TORSDOF 5
