REMARK  3 active torsions:
REMARK  status: ('A' for Active; 'I' for Inactive)
REMARK    1  A    between atoms: C_2  and  S_1 
REMARK    2  A    between atoms: N_7  and  S_1 
REMARK    3  A    between atoms: C_12  and  N_7 
ROOT
ATOM      1  S   UNL d   1       1.064  -0.181  -0.006  0.00  0.00     0.253 S 
ATOM      2  O   UNL d   1       2.443   0.016   0.389  0.00  0.00    -0.205 OA
ATOM      3  O   UNL d   1       0.713  -1.115  -1.056  0.00  0.00    -0.205 OA
ENDROOT
BRANCH   1   4
ATOM      4  C   UNL d   1       0.475   1.422  -0.577  0.00  0.00     0.122 A 
ATOM      5  S   UNL d   1       1.249   2.773   0.128  0.00  0.00    -0.076 SA
ATOM      6  C   UNL d   1       0.389   3.894  -0.844  0.00  0.00     0.017 A 
ATOM      7  C   UNL d   1       0.548   5.296  -0.863  0.00  0.00     0.021 A 
ATOM      8  C   UNL d   1      -0.541   3.248  -1.659  0.00  0.00    -0.009 A 
ATOM      9  C   UNL d   1      -0.241   6.057  -1.728  0.00  0.00     0.025 A 
ATOM     10  C   UNL d   1      -1.170   5.438  -2.549  0.00  0.00     0.035 A 
ATOM     11  C   UNL d   1      -1.333   4.051  -2.523  0.00  0.00     0.037 A 
ATOM     12 CL   UNL d   1      -2.132   6.385  -3.616  0.00  0.00    -0.084 Cl
ATOM     13  C   UNL d   1      -0.520   1.809  -1.467  0.00  0.00    -0.021 A 
ATOM     14  C   UNL d   1      -1.445   0.881  -2.191  0.00  0.00     0.051 C 
ENDBRANCH   1   4
BRANCH   1  15
ATOM     15  N   UNL d   1       0.218  -0.575   1.412  0.00  0.00    -0.181 NA
ATOM     16  H   UNL d   1       0.536   0.008   2.185  0.00  0.00     0.146 HD
BRANCH  15  17
ATOM     17  C   UNL d   1      -1.189  -0.751   1.302  0.00  0.00     0.022 A 
ATOM     18  C   UNL d   1      -1.702  -1.984   0.894  0.00  0.00     0.026 A 
ATOM     19  C   UNL d   1      -3.080  -2.148   0.738  0.00  0.00     0.021 A 
ATOM     20  C   UNL d   1      -3.933  -1.070   0.966  0.00  0.00     0.011 A 
ATOM     21  C   UNL d   1      -3.422   0.166   1.361  0.00  0.00     0.021 A 
ATOM     22 BR   UNL d   1      -5.797  -1.280   0.731  0.00  0.00    -0.051 Br
ATOM     23  C   UNL d   1      -2.045   0.325   1.533  0.00  0.00     0.026 A 
ENDBRANCH  15  17
ENDBRANCH   1  15
TORSDOF 3
