REMARK  6 active torsions:
REMARK  status: ('A' for Active; 'I' for Inactive)
REMARK    1  A    between atoms: C_2  and  N_1 
REMARK    2  A    between atoms: S_7  and  C_6 
REMARK    3  A    between atoms: C_13  and  S_7 
REMARK    4  A    between atoms: C_9  and  C_13 
REMARK    5  A    between atoms: O_15  and  C_9 
REMARK    6  A    between atoms: C_16  and  O_15 
ROOT
ATOM      1  C   UNL d   1       0.212  -0.071  -1.431  0.00  0.00     0.104 A 
ATOM      2  C   UNL d   1       0.930   0.659  -2.386  0.00  0.00     0.061 A 
ATOM      3  C   UNL d   1       0.264   1.194  -3.497  0.00  0.00     0.053 A 
ATOM      4  C   UNL d   1      -1.118   0.995  -3.669  0.00  0.00     0.022 A 
ATOM      5  C   UNL d   1      -1.162  -0.275  -1.581  0.00  0.00     0.037 A 
ATOM      6  C   UNL d   1      -1.816   0.262  -2.692  0.00  0.00     0.023 A 
ATOM      7 CL   UNL d   1       1.215   2.129  -4.597  0.00  0.00    -0.083 Cl
ENDROOT
BRANCH   4   8
ATOM      8  S   UNL d   1      -2.128   1.670  -4.991  0.00  0.00    -0.118 SA
BRANCH   8   9
ATOM      9  C   UNL d   1      -1.448   0.863  -6.478  0.00  0.00     0.190 C 
BRANCH   9  10
ATOM     10  C   UNL d   1      -1.356  -0.644  -6.397  0.00  0.00     0.268 C 
ATOM     11  O   UNL d   1      -1.664  -1.358  -5.454  0.00  0.00    -0.264 OA
BRANCH  10  12
ATOM     12  O   UNL d   1      -0.780  -1.095  -7.554  0.00  0.00    -0.321 OA
BRANCH  12  13
ATOM     13  C   UNL d   1      -0.249  -2.426  -7.505  0.00  0.00     0.174 C 
ATOM     14  C   UNL d   1       1.182  -2.337  -7.006  0.00  0.00     0.034 C 
ENDBRANCH  12  13
ENDBRANCH  10  12
ENDBRANCH   9  10
ENDBRANCH   8   9
ENDBRANCH   4   8
BRANCH   1  15
ATOM     15  N   UNL d   1       0.902  -0.614  -0.254  0.00  0.00    -0.116 N 
ATOM     16  O   UNL d   1       2.121  -0.412  -0.161  0.00  0.00    -0.532 OA
ATOM     17  O   UNL d   1       0.226  -1.232   0.577  0.00  0.00    -0.532 OA
ENDBRANCH   1  15
TORSDOF 6
