REMARK  4 active torsions:
REMARK  status: ('A' for Active; 'I' for Inactive)
REMARK    1  A    between atoms: C_2  and  S_1 
REMARK    2  A    between atoms: O_7  and  S_1 
REMARK    3  A    between atoms: C_8  and  O_7 
REMARK    4  A    between atoms: N_9  and  C_10 
ROOT
ATOM      1  C   UNL d   1       0.629   2.550   0.990  0.00  0.00     0.116 A 
ATOM      2  C   UNL d   1       2.005   2.437   1.300  0.00  0.00     0.065 A 
ATOM      3  C   UNL d   1      -0.067   3.713   1.385  0.00  0.00     0.040 A 
ATOM      4  C   UNL d   1       2.600   3.514   2.005  0.00  0.00     0.032 A 
ATOM      5  C   UNL d   1       0.564   4.762   2.055  0.00  0.00     0.003 A 
ATOM      6  C   UNL d   1       1.903   4.661   2.372  0.00  0.00     0.002 A 
ENDROOT
BRANCH   1   7
ATOM      7  O   UNL d   1      -0.030   1.514   0.340  0.00  0.00    -0.227 OA
BRANCH   7   8
ATOM      8  S   UNL d   1      -1.280   1.824  -0.673  0.00  0.00     0.305 S 
ATOM      9  O   UNL d   1      -2.387   2.432   0.033  0.00  0.00    -0.193 OA
ATOM     10  O   UNL d   1      -0.799   2.326  -1.942  0.00  0.00    -0.193 OA
BRANCH   8  11
ATOM     11  C   UNL d   1      -1.917   0.258  -1.060  0.00  0.00     0.117 A 
ATOM     12  C   UNL d   1      -1.259  -0.748  -1.722  0.00  0.00     0.100 A 
ATOM     13  S   UNL d   1      -2.247  -2.104  -2.025  0.00  0.00    -0.064 SA
ATOM     14 CL   UNL d   1       0.352  -0.798  -2.309  0.00  0.00    -0.074 Cl
ATOM     15  C   UNL d   1      -3.583  -1.336  -1.329  0.00  0.00     0.077 A 
ATOM     16  C   UNL d   1      -3.295  -0.094  -0.829  0.00  0.00     0.059 A 
ATOM     17 CL   UNL d   1      -5.115  -2.111  -1.323  0.00  0.00    -0.076 Cl
ENDBRANCH   8  11
ENDBRANCH   7   8
ENDBRANCH   1   7
BRANCH   2  18
ATOM     18  N   UNL d   1       2.849   1.360   1.022  0.00  0.00    -0.374 N 
ATOM     19  C   UNL d   1       2.352  -0.001   0.807  0.00  0.00     0.149 C 
ATOM     20  C   UNL d   1       3.506  -1.003   1.017  0.00  0.00     0.187 C 
ATOM     21  O   UNL d   1       4.633  -0.712   0.171  0.00  0.00    -0.388 OA
ATOM     22  C   UNL d   1       5.119   0.615   0.429  0.00  0.00     0.187 C 
ATOM     23  C   UNL d   1       4.028   1.666   0.172  0.00  0.00     0.149 C 
ENDBRANCH   2  18
TORSDOF 4
