REMARK  5 active torsions:
REMARK  status: ('A' for Active; 'I' for Inactive)
REMARK    1  A    between atoms: C_4  and  C_1 
REMARK    2  A    between atoms: N_5  and  C_2 
REMARK    3  A    between atoms: O_14  and  C_4 
REMARK       I    between atoms: C_8  and  N_5 
REMARK    4  A    between atoms: C_6  and  C_7 
REMARK    5  A    between atoms: O_15  and  C_6 
ROOT
ATOM      1  C   UNL d   1       1.313  -0.596  -0.050  0.00  0.00     0.040 C 
ATOM      2  C   UNL d   1       0.264  -1.455   0.019  0.00  0.00     0.024 C 
ATOM      3  C   UNL d   1       1.124   0.909  -0.078  0.00  0.00     0.061 C 
ATOM      4  C   UNL d   1      -0.245   1.376   0.427  0.00  0.00     0.090 C 
ATOM      5  C   UNL d   1      -1.167  -0.945   0.040  0.00  0.00     0.059 C 
ATOM      6  C   UNL d   1      -1.333   0.548  -0.241  0.00  0.00     0.021 C 
ENDROOT
BRANCH   2   7
ATOM      7  N   UNL d   1       0.458  -2.832   0.086  0.00  0.00    -0.330 N 
ATOM      8  C   UNL d   1      -0.506  -3.816   0.254  0.00  0.00     0.217 C 
ATOM      9  O   UNL d   1      -1.717  -3.634   0.370  0.00  0.00    -0.274 OA
ATOM     10  C   UNL d   1       0.054  -5.215   0.281  0.00  0.00     0.117 C 
ATOM     11  H   UNL d   1       1.430  -3.148   0.029  0.00  0.00     0.168 HD
ENDBRANCH   2   7
BRANCH   1  12
ATOM     12  C   UNL d   1       2.729  -1.091  -0.056  0.00  0.00     0.290 C 
ATOM     13  O   UNL d   1       3.043  -2.268  -0.196  0.00  0.00    -0.260 OA
BRANCH  12  14
ATOM     14  O   UNL d   1       3.592  -0.062   0.120  0.00  0.00    -0.323 OA
ATOM     15  C   UNL d   1       4.971  -0.417   0.200  0.00  0.00     0.213 C 
ENDBRANCH  12  14
ENDBRANCH   1  12
BRANCH   4  16
ATOM     16  C   UNL d   1      -0.309   1.314   1.947  0.00  0.00     0.263 C 
ATOM     17  O   UNL d   1       0.611   0.960   2.672  0.00  0.00    -0.265 OA
BRANCH  16  18
ATOM     18  O   UNL d   1      -1.518   1.756   2.392  0.00  0.00    -0.326 OA
ATOM     19  C   UNL d   1      -1.644   1.739   3.815  0.00  0.00     0.213 C 
ENDBRANCH  16  18
ENDBRANCH   4  16
TORSDOF 5
