REMARK  9 active torsions:
REMARK  status: ('A' for Active; 'I' for Inactive)
REMARK    1  A    between atoms: C_2  and  C_1 
REMARK    2  A    between atoms: C_3  and  N_6 
REMARK    3  A    between atoms: N_7  and  C_3 
REMARK    4  A    between atoms: C_4  and  O_9 
REMARK    5  A    between atoms: N_6  and  C_5 
REMARK    6  A    between atoms: C_17  and  N_7 
REMARK    7  A    between atoms: O_9  and  C_18 
REMARK    8  A    between atoms: O_13  and  C_19 
REMARK    9  A    between atoms: C_20  and  O_13 
ROOT
ATOM      1  C   UNL d   1       0.645   1.168  -0.489  0.00  0.00     0.034 C 
ATOM      2  C   UNL d   1      -1.914   0.830  -1.527  0.00  0.00     0.076 C 
ATOM      3  C   UNL d   1      -0.335   0.541   0.284  0.00  0.00     0.032 C 
ATOM      4  C   UNL d   1       0.301   1.764  -1.706  0.00  0.00     0.032 C 
ATOM      5  C   UNL d   1      -1.616   0.351  -0.249  0.00  0.00     0.039 C 
ATOM      6  C   UNL d   1      -0.989   1.619  -2.213  0.00  0.00     0.039 C 
ENDROOT
BRANCH   1   7
ATOM      7  N   UNL d   1       1.999   1.148  -0.071  0.00  0.00    -0.333 N 
ATOM      8  H   UNL d   1       2.150   0.998   0.917  0.00  0.00     0.168 HD
BRANCH   7   9
ATOM      9  C   UNL d   1       2.992   0.551  -0.821  0.00  0.00     0.176 C 
ATOM     10  S   UNL d   1       2.786  -0.505  -2.113  0.00  0.00    -0.041 SA
BRANCH   9  11
ATOM     11  N   UNL d   1       4.285   0.720  -0.405  0.00  0.00    -0.332 N 
ATOM     12  H   UNL d   1       4.878   0.001  -0.828  0.00  0.00     0.168 HD
BRANCH  11  13
ATOM     13  C   UNL d   1       4.967   1.898  -0.009  0.00  0.00     0.049 A 
ATOM     14  C   UNL d   1       6.381   1.912  -0.069  0.00  0.00     0.074 A 
ATOM     15  C   UNL d   1       7.070   3.136   0.072  0.00  0.00     0.018 A 
ATOM     16  C   UNL d   1       6.385   4.312   0.355  0.00  0.00     0.001 A 
ATOM     17  C   UNL d   1       5.007   4.277   0.518  0.00  0.00     0.002 A 
ATOM     18  C   UNL d   1       4.301   3.083   0.324  0.00  0.00     0.030 A 
BRANCH  14  19
ATOM     19  C   UNL d   1       7.225   0.683  -0.303  0.00  0.00     0.419 C 
ATOM     20  F   UNL d   1       6.534  -0.491  -0.244  0.00  0.00    -0.166 F 
ATOM     21  F   UNL d   1       8.231   0.559   0.609  0.00  0.00    -0.166 F 
ATOM     22  F   UNL d   1       7.829   0.689  -1.524  0.00  0.00    -0.166 F 
ENDBRANCH  14  19
ENDBRANCH  11  13
ENDBRANCH   9  11
ENDBRANCH   7   9
ENDBRANCH   1   7
BRANCH   2  23
ATOM     23  O   UNL d   1      -3.124   0.468  -2.088  0.00  0.00    -0.311 OA
BRANCH  23  24
ATOM     24  C   UNL d   1      -3.089   0.036  -3.402  0.00  0.00     0.076 A 
ATOM     25  C   UNL d   1      -2.054  -0.748  -3.920  0.00  0.00     0.040 A 
ATOM     26  C   UNL d   1      -2.026  -1.056  -5.279  0.00  0.00     0.040 A 
ATOM     27  C   UNL d   1      -3.059  -0.644  -6.123  0.00  0.00     0.078 A 
ATOM     28  C   UNL d   1      -4.120   0.099  -5.599  0.00  0.00     0.040 A 
ATOM     29  C   UNL d   1      -4.140   0.425  -4.234  0.00  0.00     0.040 A 
BRANCH  27  30
ATOM     30  O   UNL d   1      -2.878  -0.979  -7.430  0.00  0.00    -0.255 OA
BRANCH  30  31
ATOM     31  C   UNL d   1      -4.016  -1.261  -8.225  0.00  0.00     0.530 C 
ATOM     32  F   UNL d   1      -5.116  -1.560  -7.503  0.00  0.00    -0.144 F 
ATOM     33  F   UNL d   1      -4.287  -0.211  -9.028  0.00  0.00    -0.144 F 
ATOM     34  F   UNL d   1      -3.732  -2.328  -9.006  0.00  0.00    -0.144 F 
ENDBRANCH  30  31
ENDBRANCH  27  30
ENDBRANCH  23  24
ENDBRANCH   2  23
TORSDOF 9
