REMARK  7 active torsions:
REMARK  status: ('A' for Active; 'I' for Inactive)
REMARK    1  A    between atoms: C_8  and  N_1 
REMARK    2  A    between atoms: C_6  and  O_14 
REMARK    3  A    between atoms: C_7  and  C_6 
REMARK    4  A    between atoms: C_12  and  C_8 
REMARK    5  A    between atoms: O_14  and  N_9 
REMARK    6  A    between atoms: C_11  and  C_12 
REMARK    7  A    between atoms: N_22  and  C_11 
ROOT
ATOM      1  N   UNL d   1       3.278  -4.778   0.588  0.00  0.00    -0.245 N 
ATOM      2  HN  UNL d   1       3.617  -5.622   1.049  1.00  0.00     0.196 HD
ATOM      3  C   UNL d   1       4.036  -3.910  -0.009  0.00  0.00     0.097 C 
ENDROOT
BRANCH   3   4
ATOM      4  C   UNL d   1       5.543  -4.130   0.008  0.00  0.00     0.098 C 
BRANCH   4   5
ATOM      5  C   UNL d   1       5.923  -5.607  -0.005  0.00  0.00     0.142 C 
BRANCH   5   6
ATOM      6  N   UNL d   1       7.354  -5.805   0.014  0.00  0.00    -0.290 N 
ATOM      7  C   UNL d   1       8.179  -5.904  -1.089  0.00  0.00     0.372 A 
ATOM      8  O   UNL d   1       9.513  -6.105  -0.704  0.00  0.00    -0.259 OA
ATOM      9  O   UNL d   1       7.827  -5.821  -2.258  0.00  0.00    -0.237 OA
ATOM     10  C   UNL d   1       9.430  -6.102   0.678  0.00  0.00     0.107 A 
ATOM     11  C   UNL d   1       8.143  -5.911   1.137  0.00  0.00     0.073 A 
ATOM     12  C   UNL d   1      10.490  -6.269   1.544  0.00  0.00     0.040 A 
ATOM     13  C   UNL d   1       7.838  -5.862   2.480  0.00  0.00     0.039 A 
ATOM     14  C   UNL d   1       8.894  -6.024   3.390  0.00  0.00    -0.060 A 
ATOM     15  C   UNL d   1      10.212  -6.230   2.915  0.00  0.00     0.009 A 
ATOM     16  C   UNL d   1       8.639  -5.987   4.870  0.00  0.00     0.048 C 
ENDBRANCH   5   6
ENDBRANCH   4   5
ENDBRANCH   3   4
BRANCH   3  17
ATOM     17  N   UNL d   1       3.578  -2.769  -0.619  0.00  0.00    -0.387 N 
ATOM     18  H   UNL d   1       2.585  -2.770  -0.827  0.00  0.00     0.157 HD
ATOM     19  H   UNL d   1       4.153  -2.352  -1.341  0.00  0.00     0.157 HD
ENDBRANCH   3  17
BRANCH   1  20
ATOM     20  O   UNL d   1       1.920  -4.397   0.513  0.00  0.00    -0.193 OA
BRANCH  20  21
ATOM     21  C   UNL d   1       1.117  -5.311   1.160  0.00  0.00     0.322 C 
ATOM     22  O   UNL d   1       1.503  -6.349   1.692  0.00  0.00    -0.257 OA
BRANCH  21  23
ATOM     23  C   UNL d   1      -0.279  -4.887   1.135  0.00  0.00     0.082 A 
ATOM     24  S   UNL d   1      -0.792  -3.420   0.406  0.00  0.00    -0.096 SA
ATOM     25  C   UNL d   1      -2.427  -3.699   0.820  0.00  0.00     0.050 A 
ATOM     26  C   UNL d   1      -2.593  -4.886   1.496  0.00  0.00     0.009 A 
ATOM     27  C   UNL d   1      -1.355  -5.569   1.677  0.00  0.00     0.026 A 
ENDBRANCH  21  23
ENDBRANCH  20  21
ENDBRANCH   1  20
TORSDOF 7
