REMARK  5 active torsions:
REMARK  status: ('A' for Active; 'I' for Inactive)
REMARK    1  A    between atoms: S_12  and  C_1 
REMARK    2  A    between atoms: C_7  and  C_6 
REMARK    3  A    between atoms: C_11  and  C_7 
REMARK    4  A    between atoms: C_8  and  S_12 
REMARK    5  A    between atoms: C_22  and  C_19 
ROOT
ATOM      1  C   UNL d   1       1.938  -5.220  -0.054  0.00  0.00     0.063 C 
ATOM      2  C   UNL d   1       1.551  -3.942  -0.163  0.00  0.00     0.057 C 
ENDROOT
BRANCH   2   3
ATOM      3  S   UNL d   1      -0.114  -3.495   0.009  0.00  0.00    -0.066 SA
BRANCH   3   4
ATOM      4  C   UNL d   1       0.028  -1.838   0.657  0.00  0.00     0.148 A 
ATOM      5  N   UNL d   1      -0.966  -0.993   0.331  0.00  0.00    -0.341 N 
ATOM      6  C   UNL d   1      -0.922   0.244   0.861  0.00  0.00     0.009 A 
ATOM      7  HN  UNL d   1      -1.722  -1.278  -0.291  1.00  0.00     0.167 HD
ATOM      8  C   UNL d   1      -2.028   1.188   0.500  0.00  0.00     0.068 C 
ATOM      9  C   UNL d   1       0.089   0.645   1.710  0.00  0.00     0.049 A 
ATOM     10  C   UNL d   1       1.071  -0.286   1.990  0.00  0.00     0.009 A 
ATOM     11  N   UNL d   1       1.059  -1.532   1.470  0.00  0.00    -0.341 N 
ATOM     12  C   UNL d   1       2.196   0.076   2.916  0.00  0.00     0.068 C 
ATOM     13  HN  UNL d   1       1.793  -2.208   1.681  1.00  0.00     0.167 HD
ENDBRANCH   3   4
ENDBRANCH   2   3
BRANCH   1  14
ATOM     14  C   UNL d   1       3.336  -5.729  -0.153  0.00  0.00     0.182 C 
ATOM     15  O   UNL d   1       3.515  -6.904  -0.460  0.00  0.00    -0.288 OA
BRANCH  14  16
ATOM     16  C   UNL d   1       4.505  -4.847   0.110  0.00  0.00     0.014 A 
ATOM     17  C   UNL d   1       4.453  -3.775   1.007  0.00  0.00     0.016 A 
ATOM     18  C   UNL d   1       5.558  -2.936   1.165  0.00  0.00     0.008 A 
ATOM     19  C   UNL d   1       6.748  -3.188   0.473  0.00  0.00    -0.059 A 
ATOM     20  C   UNL d   1       6.821  -4.304  -0.371  0.00  0.00     0.008 A 
ATOM     21  C   UNL d   1       5.707  -5.130  -0.550  0.00  0.00     0.016 A 
BRANCH  19  22
ATOM     22  C   UNL d   1       7.925  -2.259   0.620  0.00  0.00     0.034 C 
ATOM     23  C   UNL d   1       7.910  -1.153  -0.426  0.00  0.00     0.010 C 
ENDBRANCH  19  22
ENDBRANCH  14  16
ENDBRANCH   1  14
TORSDOF 5
