REMARK  6 active torsions:
REMARK  status: ('A' for Active; 'I' for Inactive)
REMARK    1  A    between atoms: S_9  and  C_1 
REMARK    2  A    between atoms: C_6  and  C_3 
REMARK    3  A    between atoms: C_11  and  C_7 
REMARK       I    between atoms: C_8  and  N_13 
REMARK       I    between atoms: N_18  and  C_8 
REMARK    4  A    between atoms: C_15  and  S_9 
REMARK    5  A    between atoms: N_13  and  C_17 
REMARK    6  A    between atoms: C_26  and  N_18 
ROOT
ATOM      1  C   UNL d   1      -0.212  -2.039  -0.394  0.00  0.00     0.097 C 
ATOM      2  C   UNL d   1       0.448  -1.752  -1.592  0.00  0.00     0.093 C 
ATOM      3  C   UNL d   1      -0.088  -0.752  -2.418  0.00  0.00     0.073 C 
ATOM      4  N   UNL d   1      -1.463  -1.553  -0.125  0.00  0.00    -0.348 N 
ATOM      5  HN  UNL d   1      -1.951  -1.822   0.729  1.00  0.00     0.166 HD
ATOM      6  C   UNL d   1      -2.042  -0.711  -1.012  0.00  0.00     0.051 C 
ATOM      7  C   UNL d   1      -1.352  -0.232  -2.112  0.00  0.00     0.048 C 
ATOM      8  C   UNL d   1       1.558  -2.528  -2.049  0.00  0.00     0.103 C 
ATOM      9  N   UNL d   1       2.393  -3.197  -2.505  0.00  0.00    -0.191 NA
ENDROOT
BRANCH   1  10
ATOM     10  S   UNL d   1       0.392  -3.127   0.893  0.00  0.00    -0.069 SA
BRANCH  10  11
ATOM     11  C   UNL d   1       2.149  -2.806   1.050  0.00  0.00     0.028 A 
ATOM     12  C   UNL d   1       2.715  -1.739   1.768  0.00  0.00     0.034 A 
ATOM     13  C   UNL d   1       4.106  -1.678   1.981  0.00  0.00     0.025 A 
ATOM     14  C   UNL d   1       4.952  -2.629   1.422  0.00  0.00     0.002 A 
ATOM     15  C   UNL d   1       4.411  -3.675   0.688  0.00  0.00     0.001 A 
ATOM     16  C   UNL d   1       3.023  -3.784   0.541  0.00  0.00     0.021 A 
BRANCH  12  17
ATOM     17  N   UNL d   1       1.970  -0.639   2.274  0.00  0.00    -0.209 NA
ATOM     18  C   UNL d   1       1.775   0.415   1.375  0.00  0.00     0.303 C 
ATOM     19  N   UNL d   1       1.774   1.627   2.046  0.00  0.00    -0.313 N 
ATOM     20  O   UNL d   1       1.725   0.268   0.160  0.00  0.00    -0.253 OA
ATOM     21  H   UNL d   1       1.557   1.603   3.031  0.00  0.00     0.170 HD
ATOM     22  H   UNL d   1       2.381  -0.269   3.121  0.00  0.00     0.138 HD
BRANCH  19  23
ATOM     23  C   UNL d   1       1.992   2.902   1.480  0.00  0.00     0.035 A 
ATOM     24  C   UNL d   1       2.296   3.114   0.133  0.00  0.00     0.029 A 
ATOM     25  C   UNL d   1       2.530   4.404  -0.350  0.00  0.00     0.002 A 
ATOM     26  C   UNL d   1       2.475   5.495   0.511  0.00  0.00     0.000 A 
ATOM     27  C   UNL d   1       2.187   5.296   1.859  0.00  0.00     0.002 A 
ATOM     28  C   UNL d   1       1.946   4.006   2.341  0.00  0.00     0.029 A 
ENDBRANCH  19  23
ENDBRANCH  12  17
ENDBRANCH  10  11
ENDBRANCH   1  10
BRANCH   3  29
ATOM     29  C   UNL d   1       0.598  -0.228  -3.650  0.00  0.00     0.419 C 
ATOM     30  F   UNL d   1       1.895  -0.592  -3.799  0.00  0.00    -0.166 F 
ATOM     31  F   UNL d   1      -0.040  -0.626  -4.786  0.00  0.00    -0.166 F 
ATOM     32  F   UNL d   1       0.597   1.135  -3.689  0.00  0.00    -0.166 F 
ENDBRANCH   3  29
BRANCH   6  33
ATOM     33  C   UNL d   1      -3.467  -0.410  -0.782  0.00  0.00     0.031 A 
ATOM     34  S   UNL d   1      -4.503  -0.053  -2.118  0.00  0.00    -0.100 SA
ATOM     35  C   UNL d   1      -5.875   0.117  -1.120  0.00  0.00     0.050 A 
ATOM     36  C   UNL d   1      -5.577  -0.106   0.201  0.00  0.00     0.008 A 
ATOM     37  C   UNL d   1      -4.195  -0.424   0.395  0.00  0.00     0.021 A 
ENDBRANCH   6  33
TORSDOF 6
