REMARK  8 active torsions:
REMARK  status: ('A' for Active; 'I' for Inactive)
REMARK    1  A    between atoms: C_2  and  C_1 
REMARK    2  A    between atoms: C_4  and  C_1 
REMARK    3  A    between atoms: C_9  and  C_2 
REMARK    4  A    between atoms: C_3  and  C_4 
REMARK    5  A    between atoms: S_7  and  C_4 
REMARK    6  A    between atoms: C_17  and  S_7 
REMARK    7  A    between atoms: C_8  and  C_17 
REMARK    8  A    between atoms: O_21  and  C_8 
ROOT
ATOM      1  C   UNL d   1       2.600   0.073  -0.460  0.00  0.00     0.088 C 
ENDROOT
BRANCH   1   2
ATOM      2  C   UNL d   1       2.991  -1.310  -1.006  0.00  0.00    -0.042 A 
ATOM      3  C   UNL d   1       2.042  -2.301  -1.320  0.00  0.00     0.034 A 
ATOM      4  C   UNL d   1       2.425  -3.554  -1.821  0.00  0.00     0.056 A 
ATOM      5 CL   UNL d   1       1.170  -4.694  -2.159  0.00  0.00    -0.083 Cl
ATOM      6  C   UNL d   1       3.774  -3.837  -2.027  0.00  0.00     0.055 A 
ATOM      7  C   UNL d   1       4.733  -2.873  -1.713  0.00  0.00     0.026 A 
ATOM      8 CL   UNL d   1       4.318  -5.348  -2.661  0.00  0.00    -0.083 Cl
ATOM      9  C   UNL d   1       4.347  -1.629  -1.198  0.00  0.00     0.010 A 
ENDBRANCH   1   2
BRANCH   1  10
ATOM     10  C   UNL d   1       1.100   0.202  -0.143  0.00  0.00     0.104 C 
BRANCH  10  11
ATOM     11  C   UNL d   1       0.640   1.476   0.542  0.00  0.00     0.161 C 
ATOM     12  O   UNL d   1       1.409   2.367   0.884  0.00  0.00    -0.292 OA
BRANCH  11  13
ATOM     13  C   UNL d   1      -0.827   1.614   0.822  0.00  0.00     0.010 A 
ATOM     14  C   UNL d   1      -1.741   0.587   0.536  0.00  0.00     0.017 A 
ATOM     15  C   UNL d   1      -3.094   0.735   0.851  0.00  0.00     0.025 A 
ATOM     16  C   UNL d   1      -3.543   1.909   1.451  0.00  0.00     0.034 A 
ATOM     17  C   UNL d   1      -2.651   2.943   1.725  0.00  0.00     0.025 A 
ATOM     18 CL   UNL d   1      -5.204   2.074   1.861  0.00  0.00    -0.084 Cl
ATOM     19  C   UNL d   1      -1.294   2.797   1.412  0.00  0.00     0.017 A 
ENDBRANCH  11  13
ENDBRANCH  10  11
ENDBRANCH   1  10
BRANCH   1  20
ATOM     20  S   UNL d   1       3.223   1.420  -1.572  0.00  0.00    -0.149 SA
BRANCH  20  21
ATOM     21  C   UNL d   1       2.314   1.063  -3.113  0.00  0.00     0.184 C 
BRANCH  21  22
ATOM     22  C   UNL d   1       2.558   2.133  -4.160  0.00  0.00     0.149 C 
ATOM     23  O   UNL d   1       2.338   1.958  -5.352  0.00  0.00    -0.649 OA
BRANCH  22  24
ATOM     24  O   UNL d   1       2.956   3.331  -3.672  0.00  0.00    -0.776 OA
ATOM     25  H   UNL d   1       3.115   3.277  -2.703  0.00  0.00     0.167 HD
ENDBRANCH  22  24
ENDBRANCH  21  22
ENDBRANCH  20  21
ENDBRANCH   1  20
TORSDOF 8
