REMARK  4 active torsions:
REMARK  status: ('A' for Active; 'I' for Inactive)
REMARK    1  A    between atoms: C_2  and  C_1 
REMARK       I    between atoms: N_3  and  C_1 
REMARK    2  A    between atoms: C_7  and  N_3 
REMARK    3  A    between atoms: N_10  and  C_4 
REMARK    4  A    between atoms: C_11  and  C_6 
ROOT
ATOM      1  C   UNL d   1       0.953  -0.207  -0.008  0.00  0.00     0.258 C 
ATOM      2  N   UNL d   1       0.203  -0.303   1.155  0.00  0.00    -0.323 N 
ATOM      3  O   UNL d   1       2.129   0.145  -0.080  0.00  0.00    -0.267 OA
ATOM      4  H   UNL d   1      -0.658  -0.833   1.116  0.00  0.00     0.169 HD
ENDROOT
BRANCH   1   5
ATOM      5  C   UNL d   1       0.273  -0.597  -1.274  0.00  0.00     0.053 A 
ATOM      6  C   UNL d   1       1.031  -1.168  -2.321  0.00  0.00     0.021 A 
ATOM      7  C   UNL d   1       0.385  -1.478  -3.523  0.00  0.00     0.024 A 
ATOM      8  C   UNL d   1      -0.956  -1.144  -3.722  0.00  0.00     0.002 A 
ATOM      9  C   UNL d   1      -1.687  -0.539  -2.701  0.00  0.00     0.001 A 
ATOM     10  C   UNL d   1      -1.078  -0.268  -1.476  0.00  0.00     0.019 A 
BRANCH   6  11
ATOM     11  N   UNL d   1       2.345  -1.643  -2.123  0.00  0.00    -0.302 NA
ATOM     12  H   UNL d   1       2.809  -1.116  -1.371  0.00  0.00     0.124 HD
ATOM     13  H   UNL d   1       2.910  -1.644  -2.966  0.00  0.00     0.124 HD
ENDBRANCH   6  11
ENDBRANCH   1   5
BRANCH   2  14
ATOM     14  C   UNL d   1       0.614   0.157   2.426  0.00  0.00     0.035 A 
ATOM     15  C   UNL d   1       1.686   1.032   2.597  0.00  0.00     0.030 A 
ATOM     16  C   UNL d   1       2.055   1.476   3.866  0.00  0.00     0.010 A 
ATOM     17  C   UNL d   1       1.362   1.054   5.005  0.00  0.00    -0.055 A 
ATOM     18  C   UNL d   1       0.276   0.182   4.835  0.00  0.00     0.010 A 
ATOM     19  C   UNL d   1      -0.100  -0.255   3.555  0.00  0.00     0.030 A 
BRANCH  17  20
ATOM     20  C   UNL d   1       1.776   1.527   6.386  0.00  0.00     0.010 C 
ATOM     21  C   UNL d   1       3.216   1.115   6.710  0.00  0.00     0.015 C 
ATOM     22  C   UNL d   1       1.609   3.043   6.532  0.00  0.00     0.015 C 
ENDBRANCH  17  20
ENDBRANCH   2  14
TORSDOF 4
