REMARK  5 active torsions:
REMARK  status: ('A' for Active; 'I' for Inactive)
REMARK    1  A    between atoms: C_2  and  S_1 
REMARK    2  A    between atoms: C_13  and  S_1 
REMARK    3  A    between atoms: C_3  and  N_10 
REMARK    4  A    between atoms: C_8  and  C_5 
REMARK    5  A    between atoms: N_15  and  C_11 
ROOT
ATOM      1  C   UNL d   1      -0.758   2.860   1.455  0.00  0.00     0.160 C 
ATOM      2  C   UNL d   1      -0.293   2.226   0.348  0.00  0.00     0.121 C 
ATOM      3  C   UNL d   1       0.079   3.040   2.601  0.00  0.00     0.113 C 
ATOM      4  N   UNL d   1       0.823   3.215   3.465  0.00  0.00    -0.191 NA
ENDROOT
BRANCH   1   5
ATOM      5  S   UNL d   1      -2.358   3.517   1.595  0.00  0.00     0.233 S 
ATOM      6  O   UNL d   1      -2.581   4.482   0.520  0.00  0.00    -0.215 OA
ATOM      7  O   UNL d   1      -2.650   3.928   2.964  0.00  0.00    -0.215 OA
BRANCH   5   8
ATOM      8  C   UNL d   1      -3.401   2.099   1.265  0.00  0.00     0.134 A 
ATOM      9  N   UNL d   1      -3.235   1.065   2.139  0.00  0.00    -0.356 N 
ATOM     10  C   UNL d   1      -3.890  -0.075   1.830  0.00  0.00     0.089 A 
ATOM     11  HN  UNL d   1      -2.652   1.147   2.972  1.00  0.00     0.166 HD
ATOM     12  C   UNL d   1      -4.656  -0.234   0.684  0.00  0.00     0.017 A 
ATOM     13  C   UNL d   1      -4.815   0.854  -0.172  0.00  0.00     0.004 A 
ATOM     14  C   UNL d   1      -4.196   2.060   0.132  0.00  0.00     0.042 A 
ENDBRANCH   5   8
ENDBRANCH   1   5
BRANCH   2  15
ATOM     15  N   UNL d   1      -0.722   2.061  -0.984  0.00  0.00    -0.385 N 
ATOM     16  C   UNL d   1      -0.697   3.217  -1.947  0.00  0.00     0.142 C 
ATOM     17  C   UNL d   1       0.180   2.978  -3.222  0.00  0.00     0.143 C 
ATOM     18  N   UNL d   1      -0.270   1.746  -3.891  0.00  0.00    -0.377 N 
ATOM     19  C   UNL d   1      -0.026   0.575  -3.018  0.00  0.00     0.143 C 
ATOM     20  C   UNL d   1      -0.800   0.717  -1.661  0.00  0.00     0.142 C 
BRANCH  18  21
ATOM     21  C   UNL d   1      -0.438   1.625  -5.275  0.00  0.00     0.045 A 
ATOM     22  C   UNL d   1      -1.499   0.841  -5.839  0.00  0.00     0.018 A 
ATOM     23  C   UNL d   1      -1.612   0.756  -7.249  0.00  0.00     0.045 A 
ATOM     24  C   UNL d   1      -2.480   0.154  -5.085  0.00  0.00     0.022 A 
ATOM     25  C   UNL d   1      -2.603  -0.019  -7.830  0.00  0.00     0.031 A 
ATOM     26  N   UNL d   1      -0.803   1.398  -8.086  0.00  0.00    -0.352 N 
ATOM     27  C   UNL d   1      -3.502  -0.753  -7.063  0.00  0.00     0.009 A 
ATOM     28  C   UNL d   1      -3.439  -0.679  -5.677  0.00  0.00    -0.061 A 
ATOM     29  C   UNL d   1      -4.378  -1.492  -4.840  0.00  0.00     0.048 C 
ATOM     30  C   UNL d   1       0.192   2.165  -7.579  0.00  0.00     0.119 A 
ATOM     31  HN  UNL d   1      -0.930   1.314  -9.095  1.00  0.00     0.166 HD
ATOM     32  C   UNL d   1       0.400   2.290  -6.194  0.00  0.00     0.064 A 
BRANCH  30  33
ATOM     33  C   UNL d   1       1.089   2.877  -8.585  0.00  0.00     0.432 C 
ATOM     34  F   UNL d   1       0.721   2.694  -9.889  0.00  0.00    -0.165 F 
ATOM     35  F   UNL d   1       1.120   4.229  -8.405  0.00  0.00    -0.165 F 
ATOM     36  F   UNL d   1       2.389   2.466  -8.516  0.00  0.00    -0.165 F 
ENDBRANCH  30  33
ENDBRANCH  18  21
ENDBRANCH   2  15
TORSDOF 5
