REMARK  5 active torsions:
REMARK  status: ('A' for Active; 'I' for Inactive)
REMARK    1  A    between atoms: S_3  and  C_1 
REMARK    2  A    between atoms: C_7  and  S_3 
REMARK    3  A    between atoms: C_4  and  C_7 
REMARK       I    between atoms: N_9  and  C_4 
REMARK    4  A    between atoms: C_22  and  C_7 
REMARK    5  A    between atoms: C_16  and  N_9 
ROOT
ATOM      1  C   UNL d   1      -0.129   1.471   0.725  0.00  0.00     0.092 A 
ATOM      2  C   UNL d   1       0.511   0.548   1.565  0.00  0.00     0.084 A 
ATOM      3  N   UNL d   1      -1.408   1.323   0.293  0.00  0.00    -0.353 N 
ATOM      4  HN  UNL d   1      -1.837   2.008  -0.329  1.00  0.00     0.166 HD
ATOM      5  C   UNL d   1      -0.211  -0.582   1.986  0.00  0.00    -0.037 A 
ATOM      6  C   UNL d   1       1.871   0.745   1.976  0.00  0.00     0.103 C 
ATOM      7  N   UNL d   1       2.977   0.854   2.321  0.00  0.00    -0.191 NA
ATOM      8  C   UNL d   1      -2.093   0.237   0.716  0.00  0.00     0.006 A 
ATOM      9  C   UNL d   1      -1.534  -0.727   1.550  0.00  0.00     0.033 A 
ATOM     10  C   UNL d   1       0.356  -1.645   2.889  0.00  0.00     0.050 C 
ATOM     11  C   UNL d   1      -3.511   0.091   0.253  0.00  0.00     0.068 C 
ENDROOT
BRANCH   1  12
ATOM     12  S   UNL d   1       0.741   2.877   0.061  0.00  0.00    -0.091 SA
BRANCH  12  13
ATOM     13  C   UNL d   1      -0.583   4.190   0.047  0.00  0.00     0.179 C 
BRANCH  13  14
ATOM     14  C   UNL d   1      -1.273   4.317   1.425  0.00  0.00     0.240 C 
ATOM     15  N   UNL d   1      -2.399   5.156   1.425  0.00  0.00    -0.326 N 
ATOM     16  H   UNL d   1      -2.526   5.749   0.614  0.00  0.00     0.169 HD
ATOM     17  O   UNL d   1      -0.831   3.772   2.440  0.00  0.00    -0.272 OA
BRANCH  15  18
ATOM     18  C   UNL d   1      -3.175   5.468   2.571  0.00  0.00     0.037 A 
ATOM     19  C   UNL d   1      -3.173   4.673   3.724  0.00  0.00     0.069 A 
ATOM     20  C   UNL d   1      -3.855   5.123   4.836  0.00  0.00     0.107 A 
ATOM     21  O   UNL d   1      -3.897   4.497   6.044  0.00  0.00    -0.323 OA
ATOM     22  C   UNL d   1      -4.559   6.301   4.830  0.00  0.00     0.105 A 
ATOM     23  C   UNL d   1      -4.600   5.480   6.829  0.00  0.00     0.352 C 
ATOM     24  O   UNL d   1      -5.114   6.577   6.040  0.00  0.00    -0.323 OA
ATOM     25  C   UNL d   1      -4.648   7.076   3.695  0.00  0.00     0.042 A 
ATOM     26  C   UNL d   1      -3.953   6.648   2.551  0.00  0.00     0.032 A 
ENDBRANCH  15  18
ENDBRANCH  13  14
BRANCH  13  27
ATOM     27  C   UNL d   1       0.121   5.472  -0.411  0.00  0.00    -0.035 A 
ATOM     28  C   UNL d   1       0.617   6.417   0.504  0.00  0.00     0.009 A 
ATOM     29  C   UNL d   1       1.433   7.465   0.074  0.00  0.00     0.001 A 
ATOM     30  C   UNL d   1       1.777   7.581  -1.270  0.00  0.00     0.000 A 
ATOM     31  C   UNL d   1       1.280   6.666  -2.195  0.00  0.00     0.001 A 
ATOM     32  C   UNL d   1       0.449   5.626  -1.772  0.00  0.00     0.009 A 
ENDBRANCH  13  27
ENDBRANCH  12  13
ENDBRANCH   1  12
TORSDOF 5
