REMARK  2 active torsions:
REMARK  status: ('A' for Active; 'I' for Inactive)
REMARK    1  A    between atoms: N_3  and  C_2 
REMARK       I    between atoms: C_6  and  N_3 
REMARK    2  A    between atoms: N_11  and  C_10 
ROOT
ATOM      1  C   UNL d   1      -1.526   0.110  -0.091  0.00  0.00     0.073 A 
ATOM      2  C   UNL d   1      -0.898  -1.147  -0.129  0.00  0.00     0.055 A 
ATOM      3  N   UNL d   1      -4.042   0.620   0.277  0.00  0.00    -0.191 NA
ATOM      4  C   UNL d   1      -2.935   0.324   0.080  0.00  0.00     0.102 C 
ATOM      5  C   UNL d   1      -0.735   1.280  -0.074  0.00  0.00     0.048 A 
ATOM      6  C   UNL d   1       0.507  -1.187  -0.062  0.00  0.00     0.033 A 
ATOM      7  C   UNL d   1       0.662   1.230  -0.104  0.00  0.00     0.007 A 
ATOM      8  C   UNL d   1       1.272  -0.016  -0.037  0.00  0.00     0.025 A 
ENDROOT
BRANCH   2   9
ATOM      9  N   UNL d   1      -1.517  -2.422  -0.185  0.00  0.00    -0.326 N 
ATOM     10  C   UNL d   1      -2.749  -2.740  -0.718  0.00  0.00     0.218 C 
ATOM     11  O   UNL d   1      -3.515  -1.963  -1.274  0.00  0.00    -0.274 OA
ATOM     12  C   UNL d   1      -3.090  -4.206  -0.605  0.00  0.00     0.117 C 
ATOM     13  H   UNL d   1      -0.902  -3.211  -0.028  0.00  0.00     0.169 HD
ENDBRANCH   2   9
BRANCH   7  14
ATOM     14  N   UNL d   1       1.413   2.397   0.056  0.00  0.00    -0.303 NA
ATOM     15  H   UNL d   1       0.958   3.239  -0.280  0.00  0.00     0.124 HD
ATOM     16  H   UNL d   1       2.371   2.325  -0.279  0.00  0.00     0.124 HD
ENDBRANCH   7  14
TORSDOF 2
