REMARK  8 active torsions:
REMARK  status: ('A' for Active; 'I' for Inactive)
REMARK    1  A    between atoms: C_7  and  C_1 
REMARK    2  A    between atoms: O_16  and  C_2 
REMARK    3  A    between atoms: C_5  and  N_17 
REMARK    4  A    between atoms: N_8  and  C_5 
REMARK    5  A    between atoms: C_6  and  N_8 
REMARK    6  A    between atoms: N_17  and  N_12 
REMARK    7  A    between atoms: C_25  and  O_16 
REMARK    8  A    between atoms: C_23  and  C_27 
ROOT
ATOM      1  C   UNL d   1       0.848   5.981   0.543  0.00  0.00     0.079 A 
ATOM      2  C   UNL d   1       0.503   8.540   1.625  0.00  0.00    -0.019 A 
ATOM      3  C   UNL d   1       0.900   6.171   1.927  0.00  0.00     0.038 A 
ATOM      4  C   UNL d   1       0.667   7.085  -0.297  0.00  0.00     0.038 A 
ATOM      5  C   UNL d   1       0.699   7.441   2.466  0.00  0.00     0.015 A 
ATOM      6  C   UNL d   1       0.505   8.370   0.240  0.00  0.00     0.015 A 
ENDROOT
BRANCH   2   7
ATOM      7  C   UNL d   1       0.351   9.874   2.229  0.00  0.00     0.118 C 
ATOM      8  N   UNL d   1      -0.281  10.011   3.347  0.00  0.00    -0.309 N 
ATOM      9  HN  UNL d   1      -0.792   9.241   3.779  1.00  0.00     0.186 HD
BRANCH   8  10
ATOM     10  N   UNL d   1      -0.225  11.247   3.913  0.00  0.00    -0.276 N 
ATOM     11  H   UNL d   1       0.631  11.781   3.811  0.00  0.00     0.189 HD
BRANCH  10  12
ATOM     12  C   UNL d   1      -1.188  11.681   4.804  0.00  0.00     0.191 C 
ATOM     13  S   UNL d   1      -2.805  11.259   4.761  0.00  0.00    -0.039 SA
BRANCH  12  14
ATOM     14  N   UNL d   1      -0.768  12.622   5.713  0.00  0.00    -0.331 N 
ATOM     15  H   UNL d   1      -1.492  13.239   6.070  0.00  0.00     0.168 HD
BRANCH  14  16
ATOM     16  C   UNL d   1       0.474  12.665   6.393  0.00  0.00     0.057 A 
ATOM     17  C   UNL d   1       1.274  11.521   6.514  0.00  0.00     0.055 A 
ATOM     18  C   UNL d   1       2.488  11.582   7.198  0.00  0.00     0.036 A 
ATOM     19 CL   UNL d   1       3.447  10.162   7.360  0.00  0.00    -0.084 Cl
ATOM     20  C   UNL d   1       2.925  12.779   7.761  0.00  0.00     0.026 A 
ATOM     21  C   UNL d   1       2.117  13.914   7.683  0.00  0.00     0.028 A 
ATOM     22  C   UNL d   1       0.883  13.851   7.026  0.00  0.00     0.060 A 
ATOM     23 CL   UNL d   1      -0.092  15.276   6.980  0.00  0.00    -0.082 Cl
ENDBRANCH  14  16
ENDBRANCH  12  14
ENDBRANCH  10  12
ENDBRANCH   8  10
ENDBRANCH   2   7
BRANCH   1  24
ATOM     24  O   UNL d   1       1.050   4.769  -0.082  0.00  0.00    -0.279 OA
BRANCH  24  25
ATOM     25  C   UNL d   1       0.740   3.597   0.594  0.00  0.00     0.229 A 
ATOM     26  N   UNL d   1       1.506   2.539   0.287  0.00  0.00    -0.318 N 
ATOM     27  C   UNL d   1       1.229   1.371   0.926  0.00  0.00     0.120 A 
ATOM     28  HN  UNL d   1       2.263   2.608  -0.394  1.00  0.00     0.169 HD
ATOM     29  C   UNL d   1       0.203   1.271   1.852  0.00  0.00     0.051 A 
ATOM     30  C   UNL d   1      -0.536   2.407   2.071  0.00  0.00     0.094 A 
ATOM     31  N   UNL d   1      -0.301   3.571   1.445  0.00  0.00    -0.332 N 
ATOM     32  HN  UNL d   1      -0.881   4.394   1.606  1.00  0.00     0.168 HD
BRANCH  27  33
ATOM     33  C   UNL d   1       2.056   0.131   0.624  0.00  0.00     0.432 C 
ATOM     34  F   UNL d   1       3.038   0.316  -0.301  0.00  0.00    -0.165 F 
ATOM     35  F   UNL d   1       1.290  -0.898   0.156  0.00  0.00    -0.165 F 
ATOM     36  F   UNL d   1       2.678  -0.359   1.736  0.00  0.00    -0.165 F 
ENDBRANCH  27  33
ENDBRANCH  24  25
ENDBRANCH   1  24
TORSDOF 8
