REMARK  5 active torsions:
REMARK  status: ('A' for Active; 'I' for Inactive)
REMARK    1  A    between atoms: C_18  and  C_2 
REMARK    2  A    between atoms: S_15  and  C_5 
REMARK    3  A    between atoms: C_9  and  C_17 
REMARK    4  A    between atoms: C_17  and  S_15 
REMARK    5  A    between atoms: O_22  and  C_20 
ROOT
ATOM      1  S   UNL d   1      -1.118  -2.534   0.948  0.00  0.00    -0.088 SA
ENDROOT
BRANCH   1   2
ATOM      2  C   UNL d   1      -1.002  -0.817   0.894  0.00  0.00     0.161 C 
ATOM      3  N   UNL d   1      -2.091  -0.010   0.967  0.00  0.00    -0.320 N 
ATOM      4  C   UNL d   1      -1.630   1.263   1.188  0.00  0.00     0.132 C 
ATOM      5  H   UNL d   1      -3.055  -0.292   0.961  0.00  0.00     0.169 HD
ATOM      6  N   UNL d   1      -0.314   1.234   1.087  0.00  0.00    -0.283 N 
ATOM      7  N   UNL d   1       0.085  -0.083   0.929  0.00  0.00    -0.278 N 
ATOM      8  HN  UNL d   1       0.305   2.045   1.121  1.00  0.00     0.188 HD
ATOM      9  HN  UNL d   1       1.045  -0.419   0.852  1.00  0.00     0.189 HD
BRANCH   4  10
ATOM     10  C   UNL d   1      -2.498   2.398   1.504  0.00  0.00     0.009 A 
ATOM     11  C   UNL d   1      -3.794   2.202   2.011  0.00  0.00     0.015 A 
ATOM     12  C   UNL d   1      -4.610   3.287   2.331  0.00  0.00     0.001 A 
ATOM     13  C   UNL d   1      -4.141   4.585   2.150  0.00  0.00     0.000 A 
ATOM     14  C   UNL d   1      -2.856   4.796   1.655  0.00  0.00     0.001 A 
ATOM     15  C   UNL d   1      -2.037   3.708   1.335  0.00  0.00     0.015 A 
ENDBRANCH   4  10
ENDBRANCH   1   2
BRANCH   1  16
ATOM     16  C   UNL d   1      -2.564  -2.898  -0.090  0.00  0.00     0.122 C 
BRANCH  16  17
ATOM     17  C   UNL d   1      -2.980  -4.346   0.013  0.00  0.00    -0.030 A 
ATOM     18  C   UNL d   1      -2.177  -5.433  -0.578  0.00  0.00     0.005 A 
ATOM     19  C   UNL d   1      -2.617  -6.753  -0.425  0.00  0.00     0.092 A 
ATOM     20  C   UNL d   1      -0.978  -5.231  -1.277  0.00  0.00     0.017 A 
ATOM     21  C   UNL d   1      -1.895  -7.842  -0.911  0.00  0.00     0.074 A 
ATOM     22  O   UNL d   1      -3.827  -7.061   0.229  0.00  0.00    -0.275 OA
ATOM     23  C   UNL d   1      -0.699  -7.611  -1.573  0.00  0.00     0.068 A 
ATOM     24  C   UNL d   1      -0.237  -6.314  -1.767  0.00  0.00     0.037 A 
ATOM     25  C   UNL d   1      -4.633  -6.061   0.734  0.00  0.00     0.288 A 
ATOM     26  C   UNL d   1      -4.132  -4.683   0.617  0.00  0.00     0.091 A 
ATOM     27  O   UNL d   1      -5.718  -6.284   1.256  0.00  0.00    -0.260 OA
BRANCH  23  28
ATOM     28  O   UNL d   1      -0.000  -8.691  -2.021  0.00  0.00    -0.361 OA
ATOM     29  H   UNL d   1       0.845  -8.387  -2.390  0.00  0.00     0.217 HD
ENDBRANCH  23  28
ENDBRANCH  16  17
ENDBRANCH   1  16
TORSDOF 5
