REMARK  4 active torsions:
REMARK  status: ('A' for Active; 'I' for Inactive)
REMARK    1  A    between atoms: C_2  and  C_1 
REMARK    2  A    between atoms: C_17  and  C_10 
REMARK    3  A    between atoms: S_18  and  C_11 
REMARK    4  A    between atoms: O_24  and  C_21 
ROOT
ATOM      1  C   UNL d   1       2.039  -2.487  -0.039  0.00  0.00     0.134 A 
ATOM      2  N   UNL d   1       2.936  -2.614   0.950  0.00  0.00    -0.339 N 
ATOM      3  HN  UNL d   1       3.003  -1.911   1.687  1.00  0.00     0.167 HD
ATOM      4  C   UNL d   1       3.639  -4.681  -0.035  0.00  0.00     0.105 A 
ATOM      5  N   UNL d   1       1.905  -3.357  -1.048  0.00  0.00    -0.334 N 
ATOM      6  HN  UNL d   1       1.225  -3.207  -1.793  1.00  0.00     0.168 HD
ATOM      7  C   UNL d   1       3.752  -3.700   0.946  0.00  0.00     0.068 A 
ATOM      8  C   UNL d   1       2.707  -4.439  -1.038  0.00  0.00     0.094 A 
ATOM      9  C   UNL d   1       4.401  -5.891  -0.020  0.00  0.00     0.104 C 
ATOM     10  N   UNL d   1       5.034  -6.863  -0.009  0.00  0.00    -0.191 NA
ENDROOT
BRANCH   8  11
ATOM     11  S   UNL d   1       2.513  -5.547  -2.441  0.00  0.00    -0.115 SA
ATOM     12  C   UNL d   1       1.228  -4.692  -3.396  0.00  0.00     0.097 C 
ENDBRANCH   8  11
BRANCH   7  13
ATOM     13  C   UNL d   1       4.747  -3.687   2.057  0.00  0.00    -0.008 A 
ATOM     14  C   UNL d   1       4.433  -3.090   3.297  0.00  0.00     0.016 A 
ATOM     15  C   UNL d   1       5.362  -3.024   4.349  0.00  0.00     0.037 A 
ATOM     16  C   UNL d   1       6.632  -3.565   4.191  0.00  0.00     0.068 A 
ATOM     17  C   UNL d   1       6.963  -4.174   2.986  0.00  0.00     0.037 A 
ATOM     18  C   UNL d   1       6.048  -4.203   1.926  0.00  0.00     0.016 A 
BRANCH  16  19
ATOM     19  O   UNL d   1       7.609  -3.591   5.147  0.00  0.00    -0.356 OA
ATOM     20  C   UNL d   1       7.632  -2.469   6.021  0.00  0.00     0.210 C 
ENDBRANCH  16  19
ENDBRANCH   7  13
BRANCH   1  21
ATOM     21  C   UNL d   1       1.152  -1.322  -0.038  0.00  0.00     0.084 A 
ATOM     22  N   UNL d   1       1.196  -0.329   0.938  0.00  0.00    -0.351 N 
ATOM     23  C   UNL d   1       0.302   0.601   0.679  0.00  0.00     0.047 A 
ATOM     24  HN  UNL d   1       1.830  -0.323   1.737  1.00  0.00     0.166 HD
ATOM     25  C   UNL d   1       0.087   1.820   1.505  0.00  0.00     0.076 C 
ATOM     26  S   UNL d   1      -0.654   0.342  -0.724  0.00  0.00    -0.087 SA
ATOM     27  C   UNL d   1       0.195  -1.115  -1.017  0.00  0.00     0.084 A 
ENDBRANCH   1  21
TORSDOF 4
