REMARK  3 active torsions:
REMARK  status: ('A' for Active; 'I' for Inactive)
REMARK    1  A    between atoms: C_3  and  C_1 
REMARK    2  A    between atoms: N_7  and  C_2 
REMARK       I    between atoms: C_6  and  N_7 
REMARK       I    between atoms: N_9  and  C_6 
REMARK    3  A    between atoms: C_14  and  N_9 
ROOT
ATOM      1  C   UNL d   1       1.506  -3.135  -0.030  0.00  0.00     0.325 C 
ATOM      2  N   UNL d   1       0.217  -2.644   0.069  0.00  0.00    -0.306 N 
ATOM      3  N   UNL d   1       1.579  -4.459   0.385  0.00  0.00    -0.309 N 
ATOM      4  O   UNL d   1       2.455  -2.471  -0.438  0.00  0.00    -0.247 OA
ATOM      5  H   UNL d   1      -0.526  -3.325   0.070  0.00  0.00     0.171 HD
ATOM      6  H   UNL d   1       0.715  -4.986   0.396  0.00  0.00     0.170 HD
ENDROOT
BRANCH   2   7
ATOM      7  C   UNL d   1      -0.191  -1.315  -0.046  0.00  0.00     0.077 A 
ATOM      8  C   UNL d   1       0.482  -0.102   0.057  0.00  0.00     0.186 A 
ATOM      9  O   UNL d   1      -0.420   0.924  -0.130  0.00  0.00    -0.308 OA
ATOM     10  C   UNL d   1      -1.653   0.394  -0.292  0.00  0.00     0.052 A 
ATOM     11  C   UNL d   1      -2.759   1.361  -0.448  0.00  0.00     0.077 C 
ATOM     12  C   UNL d   1      -1.569  -0.977  -0.250  0.00  0.00     0.064 A 
BRANCH   8  13
ATOM     13  C   UNL d   1       1.844   0.417   0.372  0.00  0.00     0.441 C 
ATOM     14  F   UNL d   1       2.714  -0.478   0.895  0.00  0.00    -0.164 F 
ATOM     15  F   UNL d   1       2.435   0.986  -0.714  0.00  0.00    -0.164 F 
ATOM     16  F   UNL d   1       1.763   1.409   1.309  0.00  0.00    -0.164 F 
ENDBRANCH   8  13
ENDBRANCH   2   7
BRANCH   3  17
ATOM     17  C   UNL d   1       2.740  -5.170   0.775  0.00  0.00     0.036 A 
ATOM     18  C   UNL d   1       3.980  -4.555   0.983  0.00  0.00     0.032 A 
ATOM     19  C   UNL d   1       5.057  -5.283   1.503  0.00  0.00     0.044 A 
ATOM     20  C   UNL d   1       4.902  -6.628   1.805  0.00  0.00     0.116 A 
ATOM     21  C   UNL d   1       3.694  -7.270   1.566  0.00  0.00     0.044 A 
ATOM     22  F   UNL d   1       5.920  -7.312   2.342  0.00  0.00    -0.206 F 
ATOM     23  C   UNL d   1       2.613  -6.541   1.052  0.00  0.00     0.032 A 
ENDBRANCH   3  17
TORSDOF 3
