REMARK  3 active torsions:
REMARK  status: ('A' for Active; 'I' for Inactive)
REMARK    1  A    between atoms: S_13  and  C_1 
REMARK    2  A    between atoms: C_3  and  C_14 
REMARK    3  A    between atoms: C_14  and  S_13 
ROOT
ATOM      1  C   UNL d   1       1.829   3.284  -2.197  0.00  0.00     0.091 A 
ATOM      2  C   UNL d   1       2.644   2.355  -2.868  0.00  0.00     0.084 A 
ATOM      3  N   UNL d   1       2.334   4.372  -1.562  0.00  0.00    -0.353 N 
ATOM      4  HN  UNL d   1       1.720   5.026  -1.077  1.00  0.00     0.166 HD
ATOM      5  C   UNL d   1       4.037   2.578  -2.902  0.00  0.00    -0.037 A 
ATOM      6  C   UNL d   1       2.081   1.192  -3.509  0.00  0.00     0.103 C 
ATOM      7  N   UNL d   1       1.672   0.245  -4.030  0.00  0.00    -0.191 NA
ATOM      8  C   UNL d   1       3.675   4.566  -1.588  0.00  0.00     0.006 A 
ATOM      9  C   UNL d   1       4.547   3.698  -2.231  0.00  0.00     0.033 A 
ATOM     10  C   UNL d   1       5.010   1.654  -3.583  0.00  0.00     0.050 C 
ATOM     11  C   UNL d   1       4.224   5.772  -0.883  0.00  0.00     0.068 C 
ENDROOT
BRANCH   1  12
ATOM     12  S   UNL d   1       0.040   3.153  -2.250  0.00  0.00    -0.106 SA
BRANCH  12  13
ATOM     13  C   UNL d   1      -0.519   4.109  -0.757  0.00  0.00     0.120 C 
BRANCH  13  14
ATOM     14  C   UNL d   1      -1.965   3.735  -0.409  0.00  0.00    -0.036 C 
ATOM     15  C   UNL d   1      -2.248   2.381  -0.135  0.00  0.00    -0.048 C 
ATOM     16  C   UNL d   1      -3.535   1.877  -0.373  0.00  0.00    -0.049 C 
ATOM     17  C   UNL d   1      -1.246   1.544   0.627  0.00  0.00     0.049 C 
ATOM     18  C   UNL d   1      -3.704   0.430  -0.773  0.00  0.00     0.049 C 
ATOM     19  C   UNL d   1      -4.637   2.754  -0.338  0.00  0.00    -0.049 C 
ATOM     20  C   UNL d   1      -4.394   4.144  -0.252  0.00  0.00    -0.049 C 
ATOM     21  C   UNL d   1      -6.015   2.133  -0.344  0.00  0.00     0.049 C 
ATOM     22  C   UNL d   1      -3.052   4.640  -0.391  0.00  0.00    -0.048 C 
ATOM     23  C   UNL d   1      -5.516   5.138  -0.047  0.00  0.00     0.049 C 
ATOM     24  C   UNL d   1      -2.846   6.137  -0.455  0.00  0.00     0.049 C 
ENDBRANCH  13  14
ENDBRANCH  12  13
ENDBRANCH   1  12
TORSDOF 3
