REMARK  2 active torsions:
REMARK  status: ('A' for Active; 'I' for Inactive)
REMARK       I    between atoms: N_4  and  C_1 
REMARK    1  A    between atoms: C_5  and  C_1 
REMARK    2  A    between atoms: C_11  and  N_4 
ROOT
ATOM      1  C   UNL d   1       1.062   0.023  -0.129  0.00  0.00     0.256 C 
ATOM      2  N   UNL d   1       0.435   0.178   1.096  0.00  0.00    -0.323 N 
ATOM      3  O   UNL d   1       2.260   0.169  -0.350  0.00  0.00    -0.267 OA
ATOM      4  H   UNL d   1      -0.518  -0.154   1.178  0.00  0.00     0.169 HD
ENDROOT
BRANCH   1   5
ATOM      5  C   UNL d   1       0.208  -0.408  -1.270  0.00  0.00     0.033 A 
ATOM      6  C   UNL d   1      -1.122   0.017  -1.404  0.00  0.00     0.038 A 
ATOM      7  C   UNL d   1      -1.816  -0.355  -2.573  0.00  0.00     0.033 A 
ATOM      8  S   UNL d   1      -3.428   0.039  -3.049  0.00  0.00    -0.083 SA
ATOM      9  C   UNL d   1      -1.229  -1.133  -3.576  0.00  0.00     0.049 A 
ATOM     10  C   UNL d   1      -3.200  -0.823  -4.510  0.00  0.00     0.139 A 
ATOM     11  N   UNL d   1      -2.032  -1.400  -4.671  0.00  0.00    -0.359 N 
ATOM     12  HN  UNL d   1      -1.758  -1.958  -5.480  1.00  0.00     0.166 HD
ATOM     13  C   UNL d   1       0.100  -1.564  -3.410  0.00  0.00     0.032 A 
ATOM     14  C   UNL d   1       0.808  -1.190  -2.264  0.00  0.00     0.019 A 
ENDBRANCH   1   5
BRANCH   2  15
ATOM     15  C   UNL d   1       1.058   0.597   2.296  0.00  0.00     0.036 A 
ATOM     16  C   UNL d   1       2.341   1.150   2.348  0.00  0.00     0.053 A 
ATOM     17  C   UNL d   1       2.909   1.505   3.573  0.00  0.00     0.036 A 
ATOM     18 CL   UNL d   1       4.494   2.175   3.618  0.00  0.00    -0.084 Cl
ATOM     19  C   UNL d   1       2.205   1.323   4.759  0.00  0.00     0.024 A 
ATOM     20  C   UNL d   1       0.916   0.797   4.718  0.00  0.00     0.004 A 
ATOM     21  C   UNL d   1       0.342   0.444   3.491  0.00  0.00     0.029 A 
ENDBRANCH   2  15
TORSDOF 2
