REMARK  9 active torsions:
REMARK  status: ('A' for Active; 'I' for Inactive)
REMARK    1  A    between atoms: N_2  and  C_1 
REMARK    2  A    between atoms: C_3  and  C_11 
REMARK       I    between atoms: C_4  and  N_8 
REMARK    3  A    between atoms: C_7  and  C_4 
REMARK    4  A    between atoms: S_10  and  C_5 
REMARK    5  A    between atoms: N_8  and  C_16 
REMARK    6  A    between atoms: O_26  and  C_9 
REMARK    7  A    between atoms: C_17  and  S_10 
REMARK    8  A    between atoms: O_27  and  C_12 
REMARK    9  A    between atoms: O_28  and  C_13 
ROOT
ATOM      1  C   UNL d   1       3.269  -2.317   0.745  0.00  0.00     0.052 A 
ATOM      2  C   UNL d   1       2.848  -2.729  -0.535  0.00  0.00     0.032 A 
ATOM      3  C   UNL d   1       4.643  -2.361   1.049  0.00  0.00     0.031 A 
ATOM      4  C   UNL d   1       3.788  -3.321  -1.403  0.00  0.00     0.021 A 
ATOM      5  C   UNL d   1       5.133  -3.434  -1.049  0.00  0.00     0.002 A 
ATOM      6  C   UNL d   1       5.567  -2.912   0.161  0.00  0.00     0.002 A 
ENDROOT
BRANCH   1   7
ATOM      7  N   UNL d   1       2.452  -1.793   1.776  0.00  0.00    -0.322 N 
ATOM      8  C   UNL d   1       1.157  -2.157   2.098  0.00  0.00     0.256 C 
ATOM      9  O   UNL d   1       0.480  -3.038   1.577  0.00  0.00    -0.267 OA
ATOM     10  H   UNL d   1       2.946  -1.248   2.469  0.00  0.00     0.169 HD
BRANCH   8  11
ATOM     11  C   UNL d   1       0.552  -1.387   3.218  0.00  0.00     0.037 A 
ATOM     12  C   UNL d   1      -0.794  -1.029   3.136  0.00  0.00     0.057 A 
ATOM     13  C   UNL d   1      -1.363  -0.180   4.095  0.00  0.00     0.105 A 
ATOM     14  C   UNL d   1      -0.559   0.339   5.142  0.00  0.00     0.135 A 
ATOM     15  C   UNL d   1       0.773  -0.111   5.269  0.00  0.00     0.105 A 
ATOM     16  C   UNL d   1       1.305  -0.991   4.319  0.00  0.00     0.057 A 
BRANCH  13  17
ATOM     17  O   UNL d   1      -2.689   0.173   4.074  0.00  0.00    -0.353 OA
ATOM     18  C   UNL d   1      -3.524  -0.375   3.059  0.00  0.00     0.210 C 
ENDBRANCH  13  17
BRANCH  14  19
ATOM     19  O   UNL d   1      -1.003   1.223   6.094  0.00  0.00    -0.351 OA
ATOM     20  C   UNL d   1      -2.049   2.125   5.748  0.00  0.00     0.210 C 
ENDBRANCH  14  19
BRANCH  15  21
ATOM     21  O   UNL d   1       1.706   0.196   6.227  0.00  0.00    -0.353 OA
ATOM     22  C   UNL d   1       1.453   1.263   7.126  0.00  0.00     0.210 C 
ENDBRANCH  15  21
ENDBRANCH   8  11
ENDBRANCH   1   7
BRANCH   2  23
ATOM     23  S   UNL d   1       1.345  -2.155  -1.334  0.00  0.00    -0.086 SA
BRANCH  23  24
ATOM     24  C   UNL d   1       0.154  -3.476  -1.184  0.00  0.00     0.038 A 
ATOM     25  C   UNL d   1      -1.227  -3.221  -1.214  0.00  0.00     0.120 A 
ATOM     26  C   UNL d   1      -2.187  -4.220  -0.978  0.00  0.00     0.053 A 
ATOM     27  C   UNL d   1      -1.772  -5.528  -0.709  0.00  0.00     0.050 A 
ATOM     28  C   UNL d   1      -0.398  -5.809  -0.712  0.00  0.00     0.017 A 
ATOM     29  C   UNL d   1       0.547  -4.802  -0.957  0.00  0.00     0.022 A 
BRANCH  25  30
ATOM     30  N   UNL d   1      -1.734  -1.888  -1.471  0.00  0.00    -0.114 N 
ATOM     31  O   UNL d   1      -1.578  -1.426  -2.611  0.00  0.00    -0.532 OA
ATOM     32  O   UNL d   1      -2.360  -1.336  -0.551  0.00  0.00    -0.532 OA
ENDBRANCH  25  30
BRANCH  27  33
ATOM     33  C   UNL d   1      -2.763  -6.620  -0.394  0.00  0.00     0.417 C 
ATOM     34  F   UNL d   1      -4.060  -6.215  -0.488  0.00  0.00    -0.166 F 
ATOM     35  F   UNL d   1      -2.642  -7.685  -1.233  0.00  0.00    -0.166 F 
ATOM     36  F   UNL d   1      -2.614  -7.114   0.865  0.00  0.00    -0.166 F 
ENDBRANCH  27  33
ENDBRANCH  23  24
ENDBRANCH   2  23
TORSDOF 9
