REMARK  3 active torsions:
REMARK  status: ('A' for Active; 'I' for Inactive)
REMARK    1  A    between atoms: C_2  and  C_1 
REMARK    2  A    between atoms: C_5  and  C_1 
REMARK    3  A    between atoms: O_7  and  N_3 
ROOT
ATOM      1  C   UNL d   1       1.601  -0.109  -0.805  0.00  0.00     0.046 C 
ATOM      2  N   UNL d   1       1.944  -1.343  -1.036  0.00  0.00    -0.272 N 
ATOM      3  HN  UNL d   1       2.863  -1.599  -1.399  1.00  0.00     0.194 HD
ENDROOT
BRANCH   1   4
ATOM      4  C   UNL d   1       2.702   0.965  -1.005  0.00  0.00     0.042 C 
ATOM      5  C   UNL d   1       3.932   0.820  -0.092  0.00  0.00    -0.009 C 
ATOM      6  C   UNL d   1       4.797  -0.246  -0.769  0.00  0.00     0.005 C 
ATOM      7  C   UNL d   1       3.656   0.525   1.374  0.00  0.00     0.011 C 
ATOM      8  C   UNL d   1       4.491  -0.132  -2.263  0.00  0.00     0.001 C 
ATOM      9  C   UNL d   1       3.339   0.869  -2.396  0.00  0.00     0.011 C 
ENDBRANCH   1   4
BRANCH   1  10
ATOM     10  C   UNL d   1       0.238   0.372  -0.378  0.00  0.00    -0.011 A 
ATOM     11  C   UNL d   1      -0.925  -0.242  -0.861  0.00  0.00     0.013 A 
ATOM     12  C   UNL d   1      -2.189   0.195  -0.452  0.00  0.00     0.001 A 
ATOM     13  C   UNL d   1      -2.306   1.278   0.414  0.00  0.00     0.000 A 
ATOM     14  C   UNL d   1      -1.159   1.921   0.875  0.00  0.00     0.001 A 
ATOM     15  C   UNL d   1       0.105   1.465   0.489  0.00  0.00     0.013 A 
ENDBRANCH   1  10
BRANCH   2  16
ATOM     16  O   UNL d   1       0.960  -2.287  -0.749  0.00  0.00    -0.290 OA
ATOM     17  H   UNL d   1       1.380  -3.118  -1.038  0.00  0.00     0.244 HD
ENDBRANCH   2  16
TORSDOF 3
