REMARK  7 active torsions:
REMARK  status: ('A' for Active; 'I' for Inactive)
REMARK    1  A    between atoms: N_5  and  C_1 
REMARK    2  A    between atoms: C_2  and  C_8 
REMARK    3  A    between atoms: C_3  and  N_6 
REMARK    4  A    between atoms: N_9  and  C_3 
REMARK    5  A    between atoms: C_4  and  C_13 
REMARK    6  A    between atoms: N_6  and  C_7 
REMARK    7  A    between atoms: C_17  and  N_9 
ROOT
ATOM      1  C   UNL d   1      -0.745   1.562   0.417  0.00  0.00     0.130 A 
ATOM      2  C   UNL d   1       0.613   1.259   0.709  0.00  0.00     0.078 A 
ATOM      3  N   UNL d   1      -1.726   0.674   0.696  0.00  0.00    -0.351 N 
ATOM      4  HN  UNL d   1      -2.700   0.884   0.479  1.00  0.00     0.166 HD
ATOM      5  C   UNL d   1       0.930   0.044   1.323  0.00  0.00     0.035 A 
ATOM      6  C   UNL d   1      -1.383  -0.498   1.270  0.00  0.00     0.090 A 
ATOM      7  C   UNL d   1      -0.085  -0.852   1.608  0.00  0.00     0.019 A 
ENDROOT
BRANCH   2   8
ATOM      8  N   UNL d   1       1.642   2.098   0.216  0.00  0.00    -0.330 N 
ATOM      9  H   UNL d   1       1.327   2.719  -0.528  0.00  0.00     0.168 HD
BRANCH   8  10
ATOM     10  C   UNL d   1       2.711   2.603   0.922  0.00  0.00     0.176 C 
ATOM     11  S   UNL d   1       2.913   2.606   2.583  0.00  0.00    -0.041 SA
BRANCH  10  12
ATOM     12  N   UNL d   1       3.618   3.308   0.167  0.00  0.00    -0.333 N 
ATOM     13  H   UNL d   1       4.170   3.975   0.696  0.00  0.00     0.168 HD
BRANCH  12  14
ATOM     14  C   UNL d   1       4.112   2.995  -1.117  0.00  0.00     0.035 A 
ATOM     15  C   UNL d   1       3.944   1.740  -1.709  0.00  0.00     0.045 A 
ATOM     16  C   UNL d   1       4.582   1.426  -2.921  0.00  0.00     0.050 A 
ATOM     17  C   UNL d   1       5.361   2.405  -3.555  0.00  0.00     0.016 A 
ATOM     18  C   UNL d   1       5.517   3.664  -2.978  0.00  0.00     0.003 A 
ATOM     19  C   UNL d   1       4.910   3.950  -1.754  0.00  0.00     0.029 A 
BRANCH  16  20
ATOM     20  C   UNL d   1       4.487   0.040  -3.511  0.00  0.00     0.417 C 
ATOM     21  F   UNL d   1       3.665  -0.796  -2.819  0.00  0.00    -0.166 F 
ATOM     22  F   UNL d   1       4.024   0.046  -4.791  0.00  0.00    -0.166 F 
ATOM     23  F   UNL d   1       5.698  -0.584  -3.555  0.00  0.00    -0.166 F 
ENDBRANCH  16  20
ENDBRANCH  12  14
ENDBRANCH  10  12
ENDBRANCH   8  10
ENDBRANCH   2   8
BRANCH   1  24
ATOM     24  N   UNL d   1      -1.074   2.794  -0.177  0.00  0.00    -0.365 N 
ATOM     25  C   UNL d   1      -0.724   3.994   0.588  0.00  0.00     0.125 C 
ATOM     26  C   UNL d   1      -1.933   4.665   1.261  0.00  0.00     0.033 C 
ATOM     27  C   UNL d   1      -3.142   4.800   0.330  0.00  0.00     0.096 C 
ATOM     28  C   UNL d   1      -3.469   3.416  -0.230  0.00  0.00     0.033 C 
ATOM     29  C   UNL d   1      -2.295   2.814  -0.990  0.00  0.00     0.125 C 
BRANCH  27  30
ATOM     30  C   UNL d   1      -2.932   5.862  -0.747  0.00  0.00     0.391 C 
ATOM     31  F   UNL d   1      -1.646   6.007  -1.115  0.00  0.00    -0.171 F 
ATOM     32  F   UNL d   1      -3.642   5.588  -1.867  0.00  0.00    -0.171 F 
ATOM     33  F   UNL d   1      -3.352   7.069  -0.298  0.00  0.00    -0.171 F 
ENDBRANCH  27  30
ENDBRANCH   1  24
TORSDOF 7
