REMARK  7 active torsions:
REMARK  status: ('A' for Active; 'I' for Inactive)
REMARK    1  A    between atoms: O_10  and  C_1 
REMARK    2  A    between atoms: C_2  and  O_9 
REMARK       I    between atoms: C_3  and  N_6 
REMARK       I    between atoms: N_7  and  C_3 
REMARK       I    between atoms: C_4  and  N_8 
REMARK       I    between atoms: N_5  and  C_4 
REMARK    3  A    between atoms: N_6  and  N_5 
REMARK    4  A    between atoms: C_19  and  N_7 
REMARK    5  A    between atoms: N_8  and  C_20 
REMARK    6  A    between atoms: O_9  and  C_21 
REMARK    7  A    between atoms: C_22  and  O_10 
ROOT
ATOM      1  C   UNL d   1       3.451   6.494  -0.645  0.00  0.00     0.339 C 
ATOM      2  N   UNL d   1       4.418   5.532  -0.617  0.00  0.00    -0.247 N 
ATOM      3  N   UNL d   1       3.587   7.481  -1.579  0.00  0.00    -0.308 N 
ATOM      4  O   UNL d   1       2.506   6.510   0.145  0.00  0.00    -0.245 OA
ATOM      5  H   UNL d   1       5.361   5.784  -0.901  0.00  0.00     0.192 HD
ATOM      6  H   UNL d   1       2.977   8.265  -1.384  0.00  0.00     0.170 HD
ENDROOT
BRANCH   2   7
ATOM      7  N   UNL d   1       4.368   4.520   0.367  0.00  0.00    -0.247 N 
ATOM      8  C   UNL d   1       5.373   3.571   0.274  0.00  0.00     0.339 C 
ATOM      9  N   UNL d   1       5.150   2.489   1.096  0.00  0.00    -0.308 N 
ATOM     10  O   UNL d   1       6.337   3.747  -0.464  0.00  0.00    -0.245 OA
ATOM     11  H   UNL d   1       4.422   2.600   1.791  0.00  0.00     0.170 HD
ATOM     12  H   UNL d   1       3.429   4.250   0.641  0.00  0.00     0.192 HD
BRANCH   9  13
ATOM     13  C   UNL d   1       5.926   1.312   1.165  0.00  0.00     0.036 A 
ATOM     14  C   UNL d   1       6.963   1.016   0.280  0.00  0.00     0.032 A 
ATOM     15  C   UNL d   1       7.707  -0.166   0.406  0.00  0.00     0.039 A 
ATOM     16  C   UNL d   1       7.426  -1.067   1.429  0.00  0.00     0.078 A 
ATOM     17  C   UNL d   1       6.367  -0.789   2.297  0.00  0.00     0.039 A 
ATOM     18  C   UNL d   1       5.621   0.388   2.169  0.00  0.00     0.032 A 
BRANCH  16  19
ATOM     19  O   UNL d   1       8.092  -2.228   1.695  0.00  0.00    -0.255 OA
BRANCH  19  20
ATOM     20  C   UNL d   1       9.251  -2.517   0.930  0.00  0.00     0.530 C 
ATOM     21  F   UNL d   1      10.133  -1.495   0.952  0.00  0.00    -0.144 F 
ATOM     22  F   UNL d   1       9.859  -3.601   1.463  0.00  0.00    -0.144 F 
ATOM     23  F   UNL d   1       8.923  -2.804  -0.347  0.00  0.00    -0.144 F 
ENDBRANCH  19  20
ENDBRANCH  16  19
ENDBRANCH   9  13
ENDBRANCH   2   7
BRANCH   3  24
ATOM     24  C   UNL d   1       4.364   7.556  -2.753  0.00  0.00     0.036 A 
ATOM     25  C   UNL d   1       4.961   6.459  -3.380  0.00  0.00     0.032 A 
ATOM     26  C   UNL d   1       5.719   6.619  -4.551  0.00  0.00     0.039 A 
ATOM     27  C   UNL d   1       5.892   7.882  -5.110  0.00  0.00     0.078 A 
ATOM     28  C   UNL d   1       5.254   8.972  -4.514  0.00  0.00     0.039 A 
ATOM     29  C   UNL d   1       4.491   8.812  -3.352  0.00  0.00     0.032 A 
BRANCH  27  30
ATOM     30  O   UNL d   1       6.634   8.195  -6.210  0.00  0.00    -0.255 OA
BRANCH  30  31
ATOM     31  C   UNL d   1       7.410   7.173  -6.811  0.00  0.00     0.530 C 
ATOM     32  F   UNL d   1       8.175   6.524  -5.908  0.00  0.00    -0.144 F 
ATOM     33  F   UNL d   1       8.233   7.737  -7.723  0.00  0.00    -0.144 F 
ATOM     34  F   UNL d   1       6.617   6.287  -7.450  0.00  0.00    -0.144 F 
ENDBRANCH  30  31
ENDBRANCH  27  30
ENDBRANCH   3  24
TORSDOF 7
