REMARK  4 active torsions:
REMARK  status: ('A' for Active; 'I' for Inactive)
REMARK    1  A    between atoms: C_4  and  C_14 
REMARK    2  A    between atoms: S_13  and  C_7 
REMARK    3  A    between atoms: C_21  and  S_13 
REMARK    4  A    between atoms: C_22  and  C_21 
ROOT
ATOM      1  C   UNL d   1       0.228  -0.742   0.259  0.00  0.00     0.075 A 
ATOM      2  N   UNL d   1       2.297   0.216   0.275  0.00  0.00    -0.263 N 
ATOM      3  HN  UNL d   1       3.308   0.348   0.294  1.00  0.00     0.194 HD
ATOM      4  C   UNL d   1       0.086   0.634   0.219  0.00  0.00     0.186 A 
ATOM      5  O   UNL d   1       1.323   1.203   0.241  0.00  0.00    -0.218 OA
ATOM      6  C   UNL d   1      -0.957  -1.474   0.273  0.00  0.00     0.087 A 
ATOM      7  C   UNL d   1       1.632  -0.948   0.279  0.00  0.00     0.046 A 
ATOM      8  N   UNL d   1      -1.058   1.327   0.170  0.00  0.00    -0.330 N 
ATOM      9  HN  UNL d   1      -1.111   2.345   0.139  1.00  0.00     0.168 HD
ATOM     10  N   UNL d   1      -2.142  -0.829   0.214  0.00  0.00    -0.346 N 
ATOM     11  HN  UNL d   1      -3.022  -1.344   0.206  1.00  0.00     0.167 HD
ATOM     12  C   UNL d   1      -2.125   0.520   0.165  0.00  0.00     0.183 A 
ATOM     13  C   UNL d   1       2.384  -2.226   0.277  0.00  0.00     0.071 C 
ENDROOT
BRANCH   6  14
ATOM     14  S   UNL d   1      -0.874  -3.222   0.463  0.00  0.00    -0.107 SA
BRANCH  14  15
ATOM     15  C   UNL d   1      -2.554  -3.760  -0.010  0.00  0.00     0.119 C 
BRANCH  15  16
ATOM     16  C   UNL d   1      -2.666  -5.275  -0.027  0.00  0.00    -0.049 A 
ATOM     17  C   UNL d   1      -3.779  -5.908   0.546  0.00  0.00     0.009 A 
ATOM     18  C   UNL d   1      -3.879  -7.304   0.563  0.00  0.00     0.017 A 
ATOM     19  C   UNL d   1      -2.870  -8.102   0.006  0.00  0.00     0.047 A 
ATOM     20  C   UNL d   1      -1.775  -7.473  -0.600  0.00  0.00     0.017 A 
ATOM     21  C   UNL d   1      -1.686  -6.080  -0.633  0.00  0.00     0.009 A 
BRANCH  19  22
ATOM     22  C   UNL d   1      -2.934  -9.608   0.052  0.00  0.00     0.417 C 
ATOM     23  F   UNL d   1      -4.080 -10.089   0.607  0.00  0.00    -0.166 F 
ATOM     24  F   UNL d   1      -2.854 -10.173  -1.185  0.00  0.00    -0.166 F 
ATOM     25  F   UNL d   1      -1.915 -10.151   0.775  0.00  0.00    -0.166 F 
ENDBRANCH  19  22
ENDBRANCH  15  16
ENDBRANCH  14  15
ENDBRANCH   6  14
TORSDOF 4
