REMARK  3 active torsions:
REMARK  status: ('A' for Active; 'I' for Inactive)
REMARK    1  A    between atoms: C_4  and  C_2 
REMARK    2  A    between atoms: C_10  and  C_3 
REMARK       I    between atoms: N_7  and  C_4 
REMARK    3  A    between atoms: C_12  and  N_7 
ROOT
ATOM      1  C   UNL d   1      -1.069   7.904  -0.036  0.00  0.00    -0.078 C 
ATOM      2  C   UNL d   1      -0.354   8.853   0.130  0.00  0.00     0.018 C 
ATOM      3  C   UNL d   1      -2.029   4.314  -0.422  0.00  0.00     0.036 A 
ATOM      4  C   UNL d   1      -1.885   6.736  -0.196  0.00  0.00     0.019 A 
ATOM      5  C   UNL d   1      -1.270   5.486  -0.338  0.00  0.00     0.050 A 
ATOM      6  C   UNL d   1      -4.044   5.672  -0.306  0.00  0.00     0.004 A 
ATOM      7  C   UNL d   1      -3.425   4.423  -0.433  0.00  0.00     0.029 A 
ATOM      8  C   UNL d   1      -3.272   6.829  -0.175  0.00  0.00     0.021 A 
ENDROOT
BRANCH   3   9
ATOM      9  N   UNL d   1      -1.461   3.018  -0.463  0.00  0.00    -0.322 N 
ATOM     10  C   UNL d   1      -0.135   2.693  -0.203  0.00  0.00     0.263 C 
ATOM     11  O   UNL d   1       0.733   3.525   0.056  0.00  0.00    -0.267 OA
ATOM     12  H   UNL d   1      -2.094   2.236  -0.578  0.00  0.00     0.169 HD
BRANCH  10  13
ATOM     13  C   UNL d   1       0.204   1.273  -0.199  0.00  0.00     0.073 A 
ATOM     14  S   UNL d   1      -0.909   0.013  -0.495  0.00  0.00    -0.088 SA
ATOM     15  C   UNL d   1       0.261  -1.222  -0.174  0.00  0.00    -0.009 A 
ATOM     16  C   UNL d   1       1.499  -0.652   0.065  0.00  0.00     0.017 A 
ATOM     17  C   UNL d   1       1.462   0.766   0.062  0.00  0.00     0.025 A 
BRANCH  15  18
ATOM     18  C   UNL d   1      -0.120  -2.710  -0.163  0.00  0.00    -0.018 C 
ATOM     19  C   UNL d   1      -0.477  -3.190  -1.581  0.00  0.00     0.020 C 
ATOM     20  C   UNL d   1       1.056  -3.578   0.344  0.00  0.00     0.020 C 
ATOM     21  C   UNL d   1      -1.309  -2.956   0.786  0.00  0.00     0.020 C 
ENDBRANCH  15  18
ENDBRANCH  10  13
ENDBRANCH   3   9
TORSDOF 3
