REMARK  2 active torsions:
REMARK  status: ('A' for Active; 'I' for Inactive)
REMARK    1  A    between atoms: C_9  and  C_6 
REMARK    2  A    between atoms: C_8  and  C_7 
ROOT
ATOM      1  O   UNL d   1      -1.093  -0.018  -0.013  0.00  0.00    -0.273 OA
ATOM      2  N   UNL d   1       1.034   0.673  -0.079  0.00  0.00    -0.277 N 
ATOM      3  HN  UNL d   1       1.850   1.283  -0.113  1.00  0.00     0.189 HD
ATOM      4  N   UNL d   1       1.036  -0.706  -0.035  0.00  0.00    -0.277 N 
ATOM      5  HN  UNL d   1       1.853  -1.316  -0.035  1.00  0.00     0.189 HD
ATOM      6  C   UNL d   1      -0.227  -1.081   0.005  0.00  0.00     0.174 A 
ATOM      7  C   UNL d   1      -0.230   1.047  -0.068  0.00  0.00     0.174 A 
ENDROOT
BRANCH   6   8
ATOM      8  C   UNL d   1      -0.803  -2.416   0.072  0.00  0.00     0.019 A 
ATOM      9  C   UNL d   1       0.038  -3.533   0.051  0.00  0.00     0.033 A 
ATOM     10  C   UNL d   1      -0.528  -4.794   0.134  0.00  0.00     0.088 A 
ATOM     11  N   UNL d   1      -1.856  -5.012   0.233  0.00  0.00    -0.375 N 
ATOM     12  C   UNL d   1      -2.653  -3.924   0.248  0.00  0.00     0.088 A 
ATOM     13  HN  UNL d   1      -2.239  -5.955   0.295  1.00  0.00     0.164 HD
ATOM     14  C   UNL d   1      -2.182  -2.624   0.169  0.00  0.00     0.033 A 
ENDBRANCH   6   8
BRANCH   7  15
ATOM     15  C   UNL d   1      -0.811   2.383  -0.119  0.00  0.00     0.017 A 
ATOM     16  C   UNL d   1       0.032   3.505  -0.136  0.00  0.00     0.016 A 
ATOM     17  C   UNL d   1      -0.496   4.796  -0.216  0.00  0.00     0.001 A 
ATOM     18  C   UNL d   1      -1.875   4.981  -0.280  0.00  0.00     0.000 A 
ATOM     19  C   UNL d   1      -2.727   3.879  -0.252  0.00  0.00     0.001 A 
ATOM     20  C   UNL d   1      -2.199   2.587  -0.170  0.00  0.00     0.016 A 
ENDBRANCH   7  15
TORSDOF 2
