REMARK  9 active torsions:
REMARK  status: ('A' for Active; 'I' for Inactive)
REMARK    1  A    between atoms: C_4  and  C_3 
REMARK    2  A    between atoms: C_7  and  O_15 
REMARK    3  A    between atoms: O_28  and  C_8 
REMARK    4  A    between atoms: C_10  and  O_27 
REMARK       I    between atoms: N_13  and  C_10 
REMARK    5  A    between atoms: C_11  and  C_18 
REMARK    6  A    between atoms: C_34  and  C_12 
REMARK    7  A    between atoms: C_25  and  N_13 
REMARK    8  A    between atoms: O_15  and  C_26 
REMARK    9  A    between atoms: O_27  and  C_34 
ROOT
ATOM      1  C   UNL d   1      -3.611  -1.540  -0.293  0.00  0.00    -0.065 C 
ATOM      2  C   UNL d   1      -4.641  -2.155  -0.289  0.00  0.00    -0.074 C 
ENDROOT
BRANCH   1   3
ATOM      3  C   UNL d   1      -2.381  -0.810  -0.204  0.00  0.00     0.018 A 
ATOM      4  C   UNL d   1      -2.393   0.580  -0.179  0.00  0.00     0.023 A 
ATOM      5  C   UNL d   1      -1.187   1.284  -0.089  0.00  0.00     0.032 A 
ATOM      6  C   UNL d   1       0.038   0.633  -0.040  0.00  0.00     0.045 A 
ATOM      7  C   UNL d   1       0.059  -0.776  -0.046  0.00  0.00     0.025 A 
ATOM      8  N   UNL d   1       1.156   1.374  -0.012  0.00  0.00    -0.352 N 
ATOM      9  C   UNL d   1       1.319  -1.411   0.001  0.00  0.00     0.082 A 
ATOM     10  C   UNL d   1      -1.164  -1.485  -0.119  0.00  0.00     0.037 A 
ATOM     11  C   UNL d   1       2.478  -0.641   0.014  0.00  0.00     0.072 A 
ATOM     12  C   UNL d   1       2.365   0.748  -0.006  0.00  0.00     0.119 A 
ATOM     13  HN  UNL d   1       1.101   2.392   0.005  1.00  0.00     0.166 HD
BRANCH   9  14
ATOM     14  O   UNL d   1       1.302  -2.784   0.009  0.00  0.00    -0.355 OA
ATOM     15  C   UNL d   1       2.547  -3.470   0.013  0.00  0.00     0.210 C 
ENDBRANCH   9  14
BRANCH  12  16
ATOM     16  C   UNL d   1       3.638   1.581  -0.070  0.00  0.00     0.432 C 
ATOM     17  F   UNL d   1       3.436   2.928  -0.071  0.00  0.00    -0.165 F 
ATOM     18  F   UNL d   1       4.480   1.330   0.975  0.00  0.00    -0.165 F 
ATOM     19  F   UNL d   1       4.370   1.315  -1.193  0.00  0.00    -0.165 F 
ENDBRANCH  12  16
ENDBRANCH   1   3
BRANCH   2  20
ATOM     20  C   UNL d   1      -5.886  -2.918  -0.116  0.00  0.00     0.274 C 
BRANCH  20  21
ATOM     21  O   UNL d   1      -6.526  -3.187  -1.372  0.00  0.00    -0.292 OA
BRANCH  21  22
ATOM     22  C   UNL d   1      -6.926  -4.469  -1.562  0.00  0.00     0.366 C 
ATOM     23  N   UNL d   1      -7.767  -4.702  -2.622  0.00  0.00    -0.303 N 
ATOM     24  H   UNL d   1      -8.010  -5.683  -2.669  0.00  0.00     0.171 HD
ATOM     25  O   UNL d   1      -6.615  -5.407  -0.832  0.00  0.00    -0.238 OA
BRANCH  23  26
ATOM     26  C   UNL d   1      -8.483  -3.837  -3.468  0.00  0.00     0.037 A 
ATOM     27  C   UNL d   1      -8.344  -2.454  -3.486  0.00  0.00     0.032 A 
ATOM     28  C   UNL d   1      -9.208  -1.670  -4.258  0.00  0.00     0.039 A 
ATOM     29  C   UNL d   1     -10.208  -2.244  -5.046  0.00  0.00     0.078 A 
ATOM     30  C   UNL d   1     -10.326  -3.628  -5.070  0.00  0.00     0.039 A 
ATOM     31  C   UNL d   1      -9.456  -4.418  -4.298  0.00  0.00     0.032 A 
BRANCH  29  32
ATOM     32  O   UNL d   1     -10.993  -1.331  -5.676  0.00  0.00    -0.255 OA
BRANCH  32  33
ATOM     33  C   UNL d   1     -11.760  -1.683  -6.814  0.00  0.00     0.530 C 
ATOM     34  F   UNL d   1     -11.347  -2.813  -7.422  0.00  0.00    -0.144 F 
ATOM     35  F   UNL d   1     -13.059  -1.814  -6.469  0.00  0.00    -0.144 F 
ATOM     36  F   UNL d   1     -11.663  -0.673  -7.709  0.00  0.00    -0.144 F 
ENDBRANCH  32  33
ENDBRANCH  29  32
ENDBRANCH  23  26
ENDBRANCH  21  22
ENDBRANCH  20  21
ENDBRANCH   2  20
TORSDOF 9
