REMARK  1 active torsions:
REMARK  status: ('A' for Active; 'I' for Inactive)
REMARK    1  A    between atoms: C_9  and  C_5 
ROOT
ATOM      1  C   UNL d   1       1.883   0.363   0.087  0.00  0.00     0.074 A 
ATOM      2  C   UNL d   1       1.593  -1.108   0.159  0.00  0.00     0.263 A 
ATOM      3  S   UNL d   1       0.605   1.539   0.048  0.00  0.00    -0.083 SA
ATOM      4  N   UNL d   1       0.310  -1.562   0.153  0.00  0.00    -0.321 N 
ATOM      5  C   UNL d   1       3.144   0.843   0.057  0.00  0.00     0.036 C 
ATOM      6  C   UNL d   1      -0.869  -0.824   0.082  0.00  0.00     0.052 A 
ATOM      7  C   UNL d   1      -0.870   0.565   0.019  0.00  0.00     0.032 A 
ATOM      8  O   UNL d   1       2.480  -1.961   0.228  0.00  0.00    -0.267 OA
ATOM      9  C   UNL d   1      -2.077  -1.535   0.077  0.00  0.00     0.031 A 
ATOM     10  C   UNL d   1      -2.100   1.238  -0.058  0.00  0.00     0.021 A 
ATOM     11  C   UNL d   1      -3.293  -0.858   0.005  0.00  0.00     0.002 A 
ATOM     12  C   UNL d   1      -3.305   0.531  -0.065  0.00  0.00     0.002 A 
ATOM     13  H   UNL d   1       0.253  -2.571   0.202  0.00  0.00     0.169 HD
ENDROOT
BRANCH   5  14
ATOM     14  C   UNL d   1       4.405   0.097   0.058  0.00  0.00    -0.035 A 
ATOM     15  C   UNL d   1       4.979  -0.310  -1.152  0.00  0.00     0.013 A 
ATOM     16  C   UNL d   1       6.219  -0.954  -1.160  0.00  0.00     0.024 A 
ATOM     17  C   UNL d   1       6.883  -1.191   0.042  0.00  0.00     0.034 A 
ATOM     18  C   UNL d   1       6.309  -0.809   1.254  0.00  0.00     0.024 A 
ATOM     19 CL   UNL d   1       8.432  -1.942   0.028  0.00  0.00    -0.084 Cl
ATOM     20  C   UNL d   1       5.069  -0.166   1.262  0.00  0.00     0.013 A 
ENDBRANCH   5  14
TORSDOF 1
