REMARK  3 active torsions:
REMARK  status: ('A' for Active; 'I' for Inactive)
REMARK    1  A    between atoms: N_2  and  C_1 
REMARK    2  A    between atoms: C_7  and  C_4 
REMARK    3  A    between atoms: O_11  and  C_7 
ROOT
ATOM      1  C   UNL d   1       0.123   1.169  -0.004  0.00  0.00     0.144 A 
ATOM      2  S   UNL d   1      -1.045  -0.063  -0.014  0.00  0.00    -0.060 SA
ATOM      3  C   UNL d   1       0.153  -1.294  -0.010  0.00  0.00     0.082 A 
ATOM      4  C   UNL d   1       1.412   0.681   0.004  0.00  0.00     0.045 A 
ATOM      5  C   UNL d   1       1.427  -0.747   0.001  0.00  0.00     0.028 A 
ENDROOT
BRANCH   3   6
ATOM      6  C   UNL d   1      -0.255  -2.688  -0.018  0.00  0.00     0.299 C 
ATOM      7  O   UNL d   1      -1.405  -3.111  -0.028  0.00  0.00    -0.259 OA
BRANCH   6   8
ATOM      8  O   UNL d   1       0.854  -3.487  -0.013  0.00  0.00    -0.322 OA
ATOM      9  C   UNL d   1       0.567  -4.886  -0.021  0.00  0.00     0.213 C 
ENDBRANCH   6   8
ENDBRANCH   3   6
BRANCH   1  10
ATOM     10  N   UNL d   1      -0.269   2.556  -0.006  0.00  0.00    -0.108 N 
ATOM     11  O   UNL d   1       0.652   3.385  -0.000  0.00  0.00    -0.531 OA
ATOM     12  O   UNL d   1      -1.476   2.826  -0.013  0.00  0.00    -0.531 OA
ENDBRANCH   1  10
TORSDOF 3
