REMARK  7 active torsions:
REMARK  status: ('A' for Active; 'I' for Inactive)
REMARK    1  A    between atoms: N_3  and  C_1 
REMARK    2  A    between atoms: N_4  and  C_1 
REMARK       I    between atoms: C_2  and  N_5 
REMARK    3  A    between atoms: O_10  and  C_2 
REMARK    4  A    between atoms: C_7  and  N_3 
REMARK    5  A    between atoms: N_5  and  N_4 
REMARK    6  A    between atoms: C_16  and  O_10 
REMARK    7  A    between atoms: O_12  and  C_11 
ROOT
ATOM      1  C   UNL d   1       1.007  -0.212  -0.051  0.00  0.00     0.191 C 
ATOM      2  S   UNL d   1       2.589  -0.747  -0.003  0.00  0.00    -0.039 SA
ENDROOT
BRANCH   1   3
ATOM      3  N   UNL d   1       0.399   0.738   0.747  0.00  0.00    -0.332 N 
ATOM      4  H   UNL d   1      -0.552   0.484   0.994  0.00  0.00     0.168 HD
BRANCH   3   5
ATOM      5  C   UNL d   1       1.011   1.741   1.523  0.00  0.00     0.036 A 
ATOM      6  C   UNL d   1       2.147   2.418   1.076  0.00  0.00     0.066 A 
ATOM      7  C   UNL d   1       2.719   3.438   1.838  0.00  0.00     0.070 A 
ATOM      8  C   UNL d   1       2.145   3.772   3.065  0.00  0.00     0.037 A 
ATOM      9  C   UNL d   1       0.996   3.116   3.510  0.00  0.00     0.005 A 
ATOM     10  C   UNL d   1       0.417   2.115   2.729  0.00  0.00     0.029 A 
BRANCH   7  11
ATOM     11  O   UNL d   1       3.818   4.176   1.490  0.00  0.00    -0.356 OA
ATOM     12  C   UNL d   1       4.414   3.877   0.232  0.00  0.00     0.210 C 
ENDBRANCH   7  11
ENDBRANCH   3   5
ENDBRANCH   1   3
BRANCH   1  13
ATOM     13  N   UNL d   1       0.158  -0.806  -0.951  0.00  0.00    -0.272 N 
ATOM     14  H   UNL d   1       0.534  -1.528  -1.568  0.00  0.00     0.189 HD
BRANCH  13  15
ATOM     15  N   UNL d   1      -1.035  -0.190  -1.367  0.00  0.00    -0.243 N 
ATOM     16  C   UNL d   1      -1.816  -0.902  -2.245  0.00  0.00     0.379 C 
ATOM     17  O   UNL d   1      -1.698  -2.102  -2.456  0.00  0.00    -0.237 OA
ATOM     18  H   UNL d   1      -1.012   0.816  -1.506  0.00  0.00     0.192 HD
BRANCH  16  19
ATOM     19  O   UNL d   1      -2.665  -0.070  -2.898  0.00  0.00    -0.303 OA
BRANCH  19  20
ATOM     20  C   UNL d   1      -3.422  -0.687  -3.951  0.00  0.00     0.176 C 
ATOM     21  C   UNL d   1      -2.629  -0.637  -5.245  0.00  0.00     0.034 C 
ENDBRANCH  19  20
ENDBRANCH  16  19
ENDBRANCH  13  15
ENDBRANCH   1  13
TORSDOF 7
