REMARK  4 active torsions:
REMARK  status: ('A' for Active; 'I' for Inactive)
REMARK    1  A    between atoms: S_12  and  C_2 
REMARK    2  A    between atoms: C_6  and  C_11 
REMARK    3  A    between atoms: C_17  and  S_12 
REMARK    4  A    between atoms: C_18  and  C_17 
ROOT
ATOM      1  C   UNL d   1       2.425  -0.790   0.015  0.00  0.00     0.085 A 
ATOM      2  C   UNL d   1       2.370   0.605   0.055  0.00  0.00     0.092 A 
ATOM      3  N   UNL d   1       1.198   1.282   0.052  0.00  0.00    -0.349 N 
ATOM      4  HN  UNL d   1       1.196   2.302   0.072  1.00  0.00     0.166 HD
ATOM      5  C   UNL d   1       1.209  -1.515   0.005  0.00  0.00    -0.026 A 
ATOM      6  C   UNL d   1      -0.022  -0.801   0.014  0.00  0.00    -0.002 A 
ATOM      7  C   UNL d   1       3.690  -1.467  -0.016  0.00  0.00     0.103 C 
ATOM      8  C   UNL d   1       0.041   0.608   0.022  0.00  0.00     0.043 A 
ATOM      9  N   UNL d   1       4.691  -2.053  -0.040  0.00  0.00    -0.191 NA
ATOM     10  C   UNL d   1       1.186  -3.028  -0.020  0.00  0.00     0.050 C 
ATOM     11  C   UNL d   1      -1.301  -1.414   0.006  0.00  0.00     0.014 A 
ATOM     12  C   UNL d   1      -1.138   1.341  -0.009  0.00  0.00     0.030 A 
ATOM     13  C   UNL d   1      -2.472  -0.657  -0.023  0.00  0.00     0.001 A 
ATOM     14  C   UNL d   1      -2.390   0.726  -0.038  0.00  0.00     0.002 A 
ENDROOT
BRANCH   2  15
ATOM     15  S   UNL d   1       3.841   1.644   0.062  0.00  0.00    -0.106 SA
BRANCH  15  16
ATOM     16  C   UNL d   1       3.186   3.112   0.916  0.00  0.00     0.119 C 
BRANCH  16  17
ATOM     17  C   UNL d   1       4.169   4.261   0.984  0.00  0.00    -0.048 A 
ATOM     18  C   UNL d   1       4.149   5.268   0.004  0.00  0.00     0.024 A 
ATOM     19  C   UNL d   1       4.978   6.399   0.105  0.00  0.00     0.048 A 
ATOM     20  C   UNL d   1       5.859   6.498   1.193  0.00  0.00     0.016 A 
ATOM     21  C   UNL d   1       5.909   5.489   2.154  0.00  0.00     0.001 A 
ATOM     22  C   UNL d   1       5.071   4.376   2.051  0.00  0.00     0.008 A 
BRANCH  19  23
ATOM     23  C   UNL d   1       4.914   7.512  -0.912  0.00  0.00     0.417 C 
ATOM     24  F   UNL d   1       3.999   7.300  -1.899  0.00  0.00    -0.166 F 
ATOM     25  F   UNL d   1       4.578   8.708  -0.349  0.00  0.00    -0.166 F 
ATOM     26  F   UNL d   1       6.103   7.719  -1.542  0.00  0.00    -0.166 F 
ENDBRANCH  19  23
ENDBRANCH  16  17
ENDBRANCH  15  16
ENDBRANCH   2  15
TORSDOF 4
