REMARK  2 active torsions:
REMARK  status: ('A' for Active; 'I' for Inactive)
REMARK    1  A    between atoms: C_3  and  C_1 
REMARK    2  A    between atoms: C_8  and  C_3 
ROOT
ATOM      1  C   UNL d   1       0.979  -0.014   0.048  0.00  0.00     0.114 C 
ATOM      2  C   UNL d   1       0.343  -0.245   1.222  0.00  0.00     0.061 C 
ATOM      3  C   UNL d   1       2.349  -0.381  -0.097  0.00  0.00     0.105 C 
ATOM      4  N   UNL d   1       3.463  -0.692  -0.222  0.00  0.00    -0.191 NA
ATOM      5  S   UNL d   1      -1.357   0.049   1.540  0.00  0.00    -0.120 SA
ATOM      6  S   UNL d   1       1.162  -0.951   2.617  0.00  0.00    -0.120 SA
ATOM      7  C   UNL d   1      -0.306  -1.814   3.241  0.00  0.00     0.090 C 
ATOM      8  C   UNL d   1      -1.488  -0.874   3.100  0.00  0.00     0.090 C 
ENDROOT
BRANCH   1   9
ATOM      9  C   UNL d   1       0.265   0.508  -1.179  0.00  0.00     0.179 C 
ATOM     10  O   UNL d   1      -0.937   0.260  -1.330  0.00  0.00    -0.291 OA
BRANCH   9  11
ATOM     11  C   UNL d   1       1.008   1.216  -2.352  0.00  0.00     0.015 C 
ATOM     12  C   UNL d   1       1.384   0.128  -3.370  0.00  0.00     0.023 C 
ATOM     13  C   UNL d   1       0.006   2.184  -3.028  0.00  0.00     0.023 C 
ATOM     14  C   UNL d   1       2.234   2.063  -1.988  0.00  0.00     0.023 C 
ENDBRANCH   9  11
ENDBRANCH   1   9
TORSDOF 2
