REMARK  8 active torsions:
REMARK  status: ('A' for Active; 'I' for Inactive)
REMARK    1  A    between atoms: N_10  and  C_1 
REMARK    2  A    between atoms: S_11  and  C_1 
REMARK    3  A    between atoms: C_2  and  C_12 
REMARK    4  A    between atoms: C_16  and  N_8 
REMARK    5  A    between atoms: C_12  and  S_11 
REMARK    6  A    between atoms: C_13  and  C_14 
REMARK    7  A    between atoms: O_20  and  C_13 
REMARK    8  A    between atoms: C_32  and  O_20 
ROOT
ATOM      1  C   UNL d   1       1.348  -0.467  -0.590  0.00  0.00     0.143 C 
ATOM      2  N   UNL d   1       1.045   0.739  -0.966  0.00  0.00    -0.337 N 
ATOM      3  HN  UNL d   1       0.203   0.906  -1.517  1.00  0.00     0.168 HD
ENDROOT
BRANCH   1   4
ATOM      4  N   UNL d   1       2.463  -0.842   0.145  0.00  0.00    -0.358 N 
ATOM      5  C   UNL d   1       2.320  -1.688   1.344  0.00  0.00     0.151 C 
ATOM      6  C   UNL d   1       3.592  -1.599   2.200  0.00  0.00     0.187 C 
ATOM      7  O   UNL d   1       4.752  -1.986   1.447  0.00  0.00    -0.388 OA
ATOM      8  C   UNL d   1       4.916  -1.121   0.312  0.00  0.00     0.187 C 
ATOM      9  C   UNL d   1       3.691  -1.161  -0.611  0.00  0.00     0.151 C 
ENDBRANCH   1   4
BRANCH   1  10
ATOM     10  S   UNL d   1       0.323  -1.811  -1.148  0.00  0.00    -0.089 SA
BRANCH  10  11
ATOM     11  C   UNL d   1      -1.322  -1.044  -1.334  0.00  0.00     0.122 C 
BRANCH  11  12
ATOM     12  C   UNL d   1      -2.475  -2.068  -1.270  0.00  0.00    -0.035 C 
ATOM     13  C   UNL d   1      -2.748  -2.737  -0.036  0.00  0.00    -0.048 C 
ATOM     14  C   UNL d   1      -3.752  -3.743   0.040  0.00  0.00    -0.049 C 
ATOM     15  C   UNL d   1      -1.967  -2.412   1.219  0.00  0.00     0.049 C 
ATOM     16  C   UNL d   1      -3.900  -4.578   1.296  0.00  0.00     0.049 C 
ATOM     17  C   UNL d   1      -4.645  -3.934  -1.037  0.00  0.00    -0.049 C 
ATOM     18  C   UNL d   1      -4.430  -3.243  -2.253  0.00  0.00    -0.049 C 
ATOM     19  C   UNL d   1      -5.810  -4.892  -0.866  0.00  0.00     0.049 C 
ATOM     20  C   UNL d   1      -3.316  -2.352  -2.391  0.00  0.00    -0.048 C 
ATOM     21  C   UNL d   1      -5.425  -3.450  -3.381  0.00  0.00     0.049 C 
ATOM     22  C   UNL d   1      -3.106  -1.706  -3.744  0.00  0.00     0.049 C 
ENDBRANCH  11  12
ENDBRANCH  10  11
ENDBRANCH   1  10
BRANCH   2  23
ATOM     23  C   UNL d   1       1.884   1.822  -0.609  0.00  0.00     0.034 A 
ATOM     24  C   UNL d   1       2.373   2.658  -1.621  0.00  0.00     0.030 A 
ATOM     25  C   UNL d   1       3.204   3.753  -1.322  0.00  0.00     0.020 A 
ATOM     26  C   UNL d   1       3.558   4.041   0.002  0.00  0.00     0.039 A 
ATOM     27  C   UNL d   1       3.063   3.216   1.021  0.00  0.00     0.020 A 
ATOM     28  C   UNL d   1       2.223   2.131   0.715  0.00  0.00     0.030 A 
BRANCH  26  29
ATOM     29  C   UNL d   1       4.448   5.211   0.276  0.00  0.00     0.293 C 
ATOM     30  O   UNL d   1       4.980   5.877  -0.600  0.00  0.00    -0.259 OA
BRANCH  29  31
ATOM     31  O   UNL d   1       4.572   5.407   1.611  0.00  0.00    -0.318 OA
BRANCH  31  32
ATOM     32  C   UNL d   1       5.453   6.462   2.035  0.00  0.00     0.174 C 
ATOM     33  C   UNL d   1       4.686   7.757   2.221  0.00  0.00     0.034 C 
ENDBRANCH  31  32
ENDBRANCH  29  31
ENDBRANCH  26  29
ENDBRANCH   2  23
TORSDOF 8
