REMARK  5 active torsions:
REMARK  status: ('A' for Active; 'I' for Inactive)
REMARK    1  A    between atoms: N_2  and  C_1 
REMARK    2  A    between atoms: N_6  and  C_1 
REMARK    3  A    between atoms: C_3  and  N_2 
REMARK    4  A    between atoms: C_4  and  C_12 
REMARK    5  A    between atoms: C_12  and  N_6 
ROOT
ATOM      1  C   UNL d   1       1.329   0.004   0.072  0.00  0.00     0.172 C 
ATOM      2  S   UNL d   1       2.949   0.204   0.436  0.00  0.00    -0.041 SA
ENDROOT
BRANCH   1   3
ATOM      3  N   UNL d   1       0.546   0.850  -0.671  0.00  0.00    -0.333 N 
ATOM      4  H   UNL d   1      -0.316   1.122  -0.221  0.00  0.00     0.168 HD
BRANCH   3   5
ATOM      5  C   UNL d   1       0.940   1.595  -1.806  0.00  0.00     0.040 A 
ATOM      6  C   UNL d   1       0.351   2.839  -2.092  0.00  0.00    -0.035 A 
ATOM      7  C   UNL d   1      -0.576   3.558  -1.151  0.00  0.00     0.050 C 
ATOM      8  C   UNL d   1       0.653   3.470  -3.315  0.00  0.00     0.009 A 
ATOM      9  C   UNL d   1       1.540   2.892  -4.222  0.00  0.00     0.001 A 
ATOM     10  C   UNL d   1       2.143   1.678  -3.922  0.00  0.00     0.002 A 
ATOM     11  C   UNL d   1       1.840   1.032  -2.722  0.00  0.00     0.030 A 
ENDBRANCH   3   5
ENDBRANCH   1   3
BRANCH   1  12
ATOM     12  N   UNL d   1       0.687  -1.077   0.606  0.00  0.00    -0.361 N 
ATOM     13  H   UNL d   1       1.329  -1.701   1.083  0.00  0.00     0.162 HD
BRANCH  12  14
ATOM     14  C   UNL d   1      -0.468  -1.717   0.000  0.00  0.00     0.187 C 
BRANCH  14  15
ATOM     15  C   UNL d   1      -0.785  -2.945   0.770  0.00  0.00     0.070 A 
ATOM     16  O   UNL d   1      -0.671  -4.132   0.105  0.00  0.00    -0.325 OA
ATOM     17  C   UNL d   1      -0.969  -5.116   0.993  0.00  0.00     0.142 A 
ATOM     18  C   UNL d   1      -1.272  -4.580   2.222  0.00  0.00     0.027 A 
ATOM     19  C   UNL d   1      -1.160  -3.176   2.079  0.00  0.00     0.036 A 
ENDBRANCH  14  15
ENDBRANCH  12  14
ENDBRANCH   1  12
TORSDOF 5
