REMARK  1 active torsions:
REMARK  status: ('A' for Active; 'I' for Inactive)
REMARK    1  A    between atoms: C_9  and  C_3 
ROOT
ATOM      1  N   UNL d   1      -0.293  -0.652   0.007  0.00  0.00    -0.237 N 
ATOM      2  C   UNL d   1      -0.244   0.752  -0.024  0.00  0.00     0.129 A 
ATOM      3  C   UNL d   1       0.896  -1.408   0.028  0.00  0.00     0.093 A 
ATOM      4  N   UNL d   1      -1.588  -1.084   0.015  0.00  0.00    -0.296 N 
ATOM      5  HN  UNL d   1      -1.916  -2.050   0.032  1.00  0.00     0.187 HD
ATOM      6  C   UNL d   1      -1.549   1.187  -0.028  0.00  0.00     0.076 A 
ATOM      7  N   UNL d   1       0.932   1.446  -0.039  0.00  0.00    -0.351 N 
ATOM      8  HN  UNL d   1       0.961   2.466  -0.063  1.00  0.00     0.166 HD
ATOM      9  C   UNL d   1      -2.334   0.021  -0.005  0.00  0.00     0.026 A 
ATOM     10  C   UNL d   1       2.076  -0.757   0.011  0.00  0.00     0.051 A 
ATOM     11  C   UNL d   1       2.010   0.725  -0.023  0.00  0.00     0.092 A 
ATOM     12  C   UNL d   1      -3.814  -0.077   0.001  0.00  0.00     0.070 C 
ENDROOT
BRANCH   3  13
ATOM     13  C   UNL d   1       0.912  -2.842   0.075  0.00  0.00     0.103 A 
ATOM     14  O   UNL d   1       2.084  -3.583   0.098  0.00  0.00    -0.320 OA
ATOM     15  C   UNL d   1       1.771  -4.899   0.156  0.00  0.00     0.142 A 
ATOM     16  C   UNL d   1       0.413  -5.067   0.171  0.00  0.00     0.027 A 
ATOM     17  C   UNL d   1      -0.133  -3.765   0.115  0.00  0.00     0.041 A 
ENDBRANCH   3  13
TORSDOF 1
