REMARK  8 active torsions:
REMARK  status: ('A' for Active; 'I' for Inactive)
REMARK    1  A    between atoms: C_8  and  C_3 
REMARK    2  A    between atoms: C_13  and  N_4 
REMARK    3  A    between atoms: C_14  and  C_5 
REMARK    4  A    between atoms: N_9  and  C_7 
REMARK    5  A    between atoms: C_11  and  C_7 
REMARK       I    between atoms: C_10  and  N_9 
REMARK    6  A    between atoms: C_16  and  C_10 
REMARK       I    between atoms: N_12  and  C_11 
REMARK    7  A    between atoms: C_18  and  N_12 
REMARK    8  A    between atoms: C_19  and  C_18 
ROOT
ATOM      1  C   UNL d   1      -1.983   2.727  -0.132  0.00  0.00     0.104 C 
ATOM      2  C   UNL d   1      -0.679   2.463  -0.296  0.00  0.00     0.050 C 
ENDROOT
BRANCH   1   3
ATOM      3  N   UNL d   1      -2.868   1.658   0.108  0.00  0.00    -0.318 N 
ATOM      4  C   UNL d   1      -2.621   0.358   0.501  0.00  0.00     0.256 C 
ATOM      5  O   UNL d   1      -1.512  -0.142   0.699  0.00  0.00    -0.267 OA
ATOM      6  H   UNL d   1      -3.838   1.971   0.054  0.00  0.00     0.169 HD
BRANCH   4   7
ATOM      7  C   UNL d   1      -3.815  -0.507   0.719  0.00  0.00     0.032 A 
ATOM      8  C   UNL d   1      -3.631  -1.894   0.654  0.00  0.00     0.017 A 
ATOM      9  C   UNL d   1      -4.704  -2.760   0.868  0.00  0.00     0.001 A 
ATOM     10  C   UNL d   1      -5.966  -2.242   1.148  0.00  0.00     0.000 A 
ATOM     11  C   UNL d   1      -6.157  -0.862   1.222  0.00  0.00     0.001 A 
ATOM     12  C   UNL d   1      -5.084   0.008   1.016  0.00  0.00     0.017 A 
ENDBRANCH   4   7
ENDBRANCH   1   3
BRANCH   1  13
ATOM     13  C   UNL d   1      -2.804   4.009  -0.162  0.00  0.00     0.268 C 
ATOM     14  N   UNL d   1      -2.265   5.253  -0.016  0.00  0.00    -0.351 N 
ATOM     15  H   UNL d   1      -1.275   5.399   0.131  0.00  0.00     0.163 HD
ATOM     16  O   UNL d   1      -4.034   3.857  -0.225  0.00  0.00    -0.266 OA
BRANCH  14  17
ATOM     17  C   UNL d   1      -3.200   6.351   0.183  0.00  0.00     0.161 C 
BRANCH  17  18
ATOM     18  C   UNL d   1      -2.589   7.722   0.213  0.00  0.00    -0.041 A 
ATOM     19  C   UNL d   1      -2.193   8.344  -0.977  0.00  0.00     0.009 A 
ATOM     20  C   UNL d   1      -1.655   9.631  -0.965  0.00  0.00     0.001 A 
ATOM     21  C   UNL d   1      -1.523  10.320   0.238  0.00  0.00     0.000 A 
ATOM     22  C   UNL d   1      -1.942   9.726   1.427  0.00  0.00     0.001 A 
ATOM     23  C   UNL d   1      -2.471   8.433   1.416  0.00  0.00     0.009 A 
ENDBRANCH  17  18
ENDBRANCH  14  17
ENDBRANCH   1  13
BRANCH   2  24
ATOM     24  C   UNL d   1       0.547   3.160  -0.481  0.00  0.00     0.013 C 
ATOM     25  C   UNL d   1       1.030   4.252  -1.248  0.00  0.00     0.070 C 
ATOM     26  N   UNL d   1       2.340   4.483  -0.963  0.00  0.00    -0.293 N 
ATOM     27  N   UNL d   1       2.740   3.390  -0.240  0.00  0.00    -0.266 N 
ATOM     28  HN  UNL d   1       2.901   5.292  -1.230  1.00  0.00     0.187 HD
ATOM     29  C   UNL d   1       1.685   2.551  -0.021  0.00  0.00     0.130 C 
BRANCH  25  30
ATOM     30  C   UNL d   1       0.282   4.964  -2.297  0.00  0.00    -0.007 A 
ATOM     31  C   UNL d   1      -0.709   4.267  -3.017  0.00  0.00     0.014 A 
ATOM     32  C   UNL d   1      -1.498   4.895  -3.979  0.00  0.00     0.001 A 
ATOM     33  C   UNL d   1      -1.270   6.228  -4.283  0.00  0.00     0.000 A 
ATOM     34  C   UNL d   1      -0.250   6.923  -3.628  0.00  0.00     0.001 A 
ATOM     35  C   UNL d   1       0.519   6.299  -2.632  0.00  0.00     0.014 A 
ENDBRANCH  25  30
BRANCH  27  36
ATOM     36  C   UNL d   1       4.056   3.157   0.276  0.00  0.00     0.056 A 
ATOM     37  C   UNL d   1       4.996   4.184   0.381  0.00  0.00     0.031 A 
ATOM     38  C   UNL d   1       6.221   3.938   1.028  0.00  0.00     0.002 A 
ATOM     39  C   UNL d   1       6.526   2.674   1.541  0.00  0.00     0.000 A 
ATOM     40  C   UNL d   1       5.616   1.637   1.399  0.00  0.00     0.002 A 
ATOM     41  C   UNL d   1       4.394   1.877   0.771  0.00  0.00     0.031 A 
ENDBRANCH  27  36
ENDBRANCH   2  24
TORSDOF 8
