REMARK  0 active torsions:
REMARK  status: ('A' for Active; 'I' for Inactive)
ROOT
ATOM      1  C   UNL d   1       0.015  -0.646   0.042  0.00  0.00    -0.023 A 
ATOM      2  C   UNL d   1       1.216   1.470   0.021  0.00  0.00     0.056 A 
ATOM      3  C   UNL d   1      -0.017   0.770   0.026  0.00  0.00    -0.005 A 
ATOM      4  N   UNL d   1       1.304   4.066   0.067  0.00  0.00    -0.191 NA
ATOM      5  C   UNL d   1       1.261   2.905   0.044  0.00  0.00     0.100 C 
ATOM      6  C   UNL d   1      -1.285   1.400   0.000  0.00  0.00     0.014 A 
ATOM      7  C   UNL d   1       1.251  -1.316   0.017  0.00  0.00     0.019 A 
ATOM      8  C   UNL d   1       2.435   0.777  -0.017  0.00  0.00     0.030 A 
ATOM      9  C   UNL d   1      -1.185  -1.375   0.066  0.00  0.00     0.019 A 
ATOM     10  C   UNL d   1       2.461  -0.617  -0.037  0.00  0.00    -0.060 A 
ATOM     11  C   UNL d   1      -2.430  -0.734   0.040  0.00  0.00    -0.061 A 
ATOM     12  C   UNL d   1      -2.468   0.659  -0.007  0.00  0.00     0.007 A 
ATOM     13  C   UNL d   1       3.756  -1.369  -0.140  0.00  0.00     0.048 C 
ATOM     14  C   UNL d   1      -3.706  -1.521   0.028  0.00  0.00     0.048 C 
ENDROOT
TORSDOF 0
