REMARK  1 active torsions:
REMARK  status: ('A' for Active; 'I' for Inactive)
REMARK    1  A    between atoms: C_11  and  C_4 
ROOT
ATOM      1  N   UNL d   1       0.261   0.672   0.005  0.00  0.00    -0.257 N 
ATOM      2  C   UNL d   1       0.138  -0.703   0.020  0.00  0.00     0.158 A 
ATOM      3  C   UNL d   1      -0.875   1.450  -0.012  0.00  0.00     0.256 A 
ATOM      4  C   UNL d   1       1.576   1.114   0.004  0.00  0.00     0.061 A 
ATOM      5  N   UNL d   1      -0.956  -1.384   0.023  0.00  0.00    -0.340 N 
ATOM      6  HN  UNL d   1      -0.959  -2.404   0.035  1.00  0.00     0.167 HD
ATOM      7  C   UNL d   1      -2.145   0.689  -0.006  0.00  0.00     0.099 A 
ATOM      8  S   UNL d   1       1.730  -1.443   0.035  0.00  0.00    -0.063 SA
ATOM      9  C   UNL d   1       2.483   0.123   0.019  0.00  0.00     0.084 A 
ATOM     10  C   UNL d   1      -2.118  -0.651   0.010  0.00  0.00     0.012 A 
ATOM     11  O   UNL d   1      -0.931   2.676  -0.032  0.00  0.00    -0.268 OA
ATOM     12  C   UNL d   1      -3.387  -1.458   0.011  0.00  0.00     0.068 C 
ENDROOT
BRANCH   4  13
ATOM     13  C   UNL d   1       1.976   2.522  -0.002  0.00  0.00    -0.008 A 
ATOM     14  C   UNL d   1       2.220   3.186  -1.212  0.00  0.00     0.015 A 
ATOM     15  C   UNL d   1       2.611   4.528  -1.214  0.00  0.00     0.024 A 
ATOM     16  C   UNL d   1       2.766   5.206  -0.007  0.00  0.00     0.034 A 
ATOM     17  C   UNL d   1       2.544   4.552   1.204  0.00  0.00     0.024 A 
ATOM     18 CL   UNL d   1       3.236   6.862  -0.010  0.00  0.00    -0.084 Cl
ATOM     19  C   UNL d   1       2.154   3.210   1.206  0.00  0.00     0.015 A 
ENDBRANCH   4  13
TORSDOF 1
