REMARK  6 active torsions:
REMARK  status: ('A' for Active; 'I' for Inactive)
REMARK    1  A    between atoms: C_16  and  N_1 
REMARK    2  A    between atoms: C_25  and  N_5 
REMARK    3  A    between atoms: C_11  and  C_7 
REMARK       I    between atoms: N_17  and  C_11 
REMARK       I    between atoms: C_13  and  N_18 
REMARK    4  A    between atoms: C_15  and  C_13 
REMARK    5  A    between atoms: C_28  and  C_16 
REMARK    6  A    between atoms: N_18  and  N_17 
ROOT
ATOM      1  N   UNL d   1      -0.707   1.179  -0.097  0.00  0.00    -0.261 N 
ATOM      2  C   UNL d   1      -1.406  -0.021  -0.241  0.00  0.00     0.332 C 
ATOM      3  C   UNL d   1       1.422   0.001  -0.084  0.00  0.00     0.082 C 
ATOM      4  C   UNL d   1       0.674   1.278  -0.011  0.00  0.00     0.266 C 
ATOM      5  N   UNL d   1      -0.643  -1.188  -0.096  0.00  0.00    -0.304 N 
ATOM      6  C   UNL d   1       2.842  -0.011  -0.096  0.00  0.00     0.091 A 
ATOM      7  C   UNL d   1       4.975  -0.085  -0.788  0.00  0.00     0.110 A 
ATOM      8  N   UNL d   1       3.625  -0.100  -1.162  0.00  0.00    -0.345 N 
ATOM      9  HN  UNL d   1       3.291  -0.169  -2.123  1.00  0.00     0.167 HD
ATOM     10  C   UNL d   1       0.737  -1.145  -0.096  0.00  0.00     0.116 C 
ATOM     11  S   UNL d   1       3.695   0.017   1.412  0.00  0.00    -0.081 SA
ATOM     12  C   UNL d   1       5.183  -0.040   0.578  0.00  0.00     0.087 A 
ATOM     13  O   UNL d   1      -2.614  -0.060  -0.483  0.00  0.00    -0.246 OA
ATOM     14  O   UNL d   1       1.277   2.344   0.113  0.00  0.00    -0.267 OA
ENDROOT
BRANCH   7  15
ATOM     15  C   UNL d   1       6.070  -0.110  -1.763  0.00  0.00     0.287 C 
ATOM     16  N   UNL d   1       5.664  -0.130  -3.078  0.00  0.00    -0.262 N 
ATOM     17  H   UNL d   1       4.677  -0.133  -3.337  0.00  0.00     0.190 HD
ATOM     18  O   UNL d   1       7.257  -0.096  -1.436  0.00  0.00    -0.264 OA
BRANCH  16  19
ATOM     19  N   UNL d   1       6.631  -0.099  -4.095  0.00  0.00    -0.263 N 
ATOM     20  C   UNL d   1       6.317  -0.552  -5.364  0.00  0.00     0.277 C 
ATOM     21  O   UNL d   1       5.185  -0.960  -5.626  0.00  0.00    -0.265 OA
ATOM     22  H   UNL d   1       7.591   0.101  -3.821  0.00  0.00     0.190 HD
BRANCH  20  23
ATOM     23  C   UNL d   1       7.391  -0.503  -6.351  0.00  0.00     0.074 A 
ATOM     24  S   UNL d   1       8.893   0.267  -6.040  0.00  0.00    -0.097 SA
ATOM     25  C   UNL d   1       9.467  -0.051  -7.622  0.00  0.00     0.050 A 
ATOM     26  C   UNL d   1       8.548  -0.751  -8.373  0.00  0.00     0.009 A 
ATOM     27  C   UNL d   1       7.352  -1.010  -7.635  0.00  0.00     0.025 A 
ENDBRANCH  20  23
ENDBRANCH  16  19
ENDBRANCH   7  15
BRANCH   1  28
ATOM     28  C   UNL d   1      -1.484   2.415  -0.034  0.00  0.00     0.175 C 
BRANCH  28  29
ATOM     29  C   UNL d   1      -2.058   2.649   1.351  0.00  0.00    -0.040 A 
ATOM     30  C   UNL d   1      -1.330   3.348   2.326  0.00  0.00     0.009 A 
ATOM     31  C   UNL d   1      -1.836   3.488   3.621  0.00  0.00     0.001 A 
ATOM     32  C   UNL d   1      -3.069   2.929   3.957  0.00  0.00     0.000 A 
ATOM     33  C   UNL d   1      -3.809   2.251   2.993  0.00  0.00     0.001 A 
ATOM     34  C   UNL d   1      -3.310   2.118   1.697  0.00  0.00     0.009 A 
ENDBRANCH  28  29
ENDBRANCH   1  28
BRANCH   5  35
ATOM     35  C   UNL d   1      -1.349  -2.491  -0.086  0.00  0.00     0.086 C 
ATOM     36  C   UNL d   1      -1.332  -3.147  -1.466  0.00  0.00     0.032 C 
ATOM     37  C   UNL d   1      -0.838  -3.461   0.990  0.00  0.00     0.032 C 
ENDBRANCH   5  35
TORSDOF 6
