REMARK  5 active torsions:
REMARK  status: ('A' for Active; 'I' for Inactive)
REMARK    1  A    between atoms: C_2  and  CA_1 
REMARK    2  A    between atoms: N_3  and  CA_1 
REMARK    3  A    between atoms: OXT_10  and  C_2 
REMARK       I    between atoms: C_4  and  N_3 
REMARK    4  A    between atoms: C_5  and  C_6 
REMARK    5  A    between atoms: C_11  and  C_8 
ROOT
ATOM      1  CA  UNL d   1       1.003  -0.460   0.058  0.00  0.00     0.109 C 
ATOM      2  C   UNL d   1       2.237   0.034  -0.181  0.00  0.00     0.037 C 
ENDROOT
BRANCH   1   3
ATOM      3  C   UNL d   1       0.338  -0.082   1.355  0.00  0.00     0.193 C 
ATOM      4  O   UNL d   1      -0.831   0.243   1.463  0.00  0.00    -0.645 OA
BRANCH   3   5
ATOM      5  OXT UNL d   1       1.192   0.007   2.413  0.00  0.00    -0.772 OA
ATOM      6  HXT UNL d   1       2.081  -0.356   2.266  0.00  0.00     0.167 HD
ENDBRANCH   3   5
ENDBRANCH   1   3
BRANCH   1   7
ATOM      7  N   UNL d   1       0.353  -1.220  -0.906  0.00  0.00    -0.322 N 
ATOM      8  C   UNL d   1      -0.833  -1.915  -0.817  0.00  0.00     0.218 C 
ATOM      9  O   UNL d   1      -1.509  -2.083   0.191  0.00  0.00    -0.274 OA
ATOM     10  C   UNL d   1      -1.232  -2.553  -2.132  0.00  0.00     0.117 C 
ATOM     11  H   UNL d   1       0.852  -1.345  -1.775  0.00  0.00     0.169 HD
ENDBRANCH   1   7
BRANCH   2  12
ATOM     12  C   UNL d   1       3.002  -0.125  -1.404  0.00  0.00     0.003 C 
ATOM     13  C   UNL d   1       4.345  -0.079  -1.442  0.00  0.00     0.011 C 
BRANCH  13  14
ATOM     14  C   UNL d   1       5.139  -0.193  -2.677  0.00  0.00    -0.036 A 
ATOM     15  C   UNL d   1       6.407   0.401  -2.712  0.00  0.00     0.011 A 
ATOM     16  C   UNL d   1       7.204   0.320  -3.857  0.00  0.00     0.001 A 
ATOM     17  C   UNL d   1       6.747  -0.366  -4.979  0.00  0.00     0.000 A 
ATOM     18  C   UNL d   1       5.498  -0.982  -4.953  0.00  0.00     0.001 A 
ATOM     19  C   UNL d   1       4.703  -0.904  -3.805  0.00  0.00     0.011 A 
ENDBRANCH  13  14
ENDBRANCH   2  12
TORSDOF 5
