REMARK  4 active torsions:
REMARK  status: ('A' for Active; 'I' for Inactive)
REMARK    1  A    between atoms: C_17  and  N_5 
REMARK    2  A    between atoms: N_13  and  N_9 
REMARK    3  A    between atoms: N_10  and  C_15 
REMARK    4  A    between atoms: C_23  and  C_20 
ROOT
ATOM      1  C   UNL d   1      -0.161  -0.686   0.045  0.00  0.00     0.145 A 
ATOM      2  C   UNL d   1      -0.232   0.685   0.016  0.00  0.00     0.097 A 
ATOM      3  N   UNL d   1       0.978  -1.424   0.135  0.00  0.00    -0.335 N 
ATOM      4  HN  UNL d   1       0.980  -2.443   0.175  1.00  0.00     0.168 HD
ATOM      5  N   UNL d   1      -1.476  -1.146  -0.043  0.00  0.00    -0.239 N 
ATOM      6  C   UNL d   1       0.967   1.475   0.088  0.00  0.00     0.282 A 
ATOM      7  N   UNL d   1      -2.348  -0.092  -0.157  0.00  0.00    -0.302 N 
ATOM      8  HN  UNL d   1      -3.362  -0.134  -0.260  1.00  0.00     0.186 HD
ATOM      9  N   UNL d   1       2.135   0.680   0.098  0.00  0.00    -0.215 N 
ATOM     10  C   UNL d   1      -1.583   1.000  -0.102  0.00  0.00     0.128 A 
ATOM     11  C   UNL d   1       2.064  -0.708   0.165  0.00  0.00     0.212 A 
ATOM     12  O   UNL d   1       0.931   2.701   0.124  0.00  0.00    -0.265 OA
ENDROOT
BRANCH   9  13
ATOM     13  N   UNL d   1       3.323   1.375   0.170  0.00  0.00    -0.301 N 
ATOM     14  C   UNL d   1       4.426   0.868  -0.272  0.00  0.00     0.119 C 
ATOM     15  HN  UNL d   1       3.332   2.309   0.580  1.00  0.00     0.186 HD
BRANCH  14  16
ATOM     16  C   UNL d   1       5.675   1.657  -0.189  0.00  0.00    -0.019 A 
ATOM     17  C   UNL d   1       5.647   2.947   0.362  0.00  0.00     0.015 A 
ATOM     18  C   UNL d   1       6.814   3.709   0.426  0.00  0.00     0.037 A 
ATOM     19  C   UNL d   1       8.011   3.174  -0.065  0.00  0.00     0.102 A 
ATOM     20  C   UNL d   1       8.044   1.884  -0.618  0.00  0.00     0.037 A 
ATOM     21  C   UNL d   1       6.870   1.123  -0.679  0.00  0.00     0.015 A 
BRANCH  19  22
ATOM     22  N   UNL d   1       9.240   3.975   0.002  0.00  0.00    -0.116 N 
ATOM     23  O   UNL d   1      10.279   3.468  -0.450  0.00  0.00    -0.532 OA
ATOM     24  O   UNL d   1       9.168   5.104   0.504  0.00  0.00    -0.532 OA
ENDBRANCH  19  22
ENDBRANCH  14  16
ENDBRANCH   9  13
BRANCH   5  25
ATOM     25  C   UNL d   1      -1.968  -2.486  -0.044  0.00  0.00     0.058 A 
ATOM     26  C   UNL d   1      -1.120  -3.580   0.169  0.00  0.00     0.031 A 
ATOM     27  C   UNL d   1      -1.623  -4.883   0.140  0.00  0.00     0.002 A 
ATOM     28  C   UNL d   1      -2.976  -5.106  -0.100  0.00  0.00     0.000 A 
ATOM     29  C   UNL d   1      -3.832  -4.025  -0.299  0.00  0.00     0.002 A 
ATOM     30  C   UNL d   1      -3.335  -2.719  -0.266  0.00  0.00     0.031 A 
ENDBRANCH   5  25
TORSDOF 4
