REMARK  5 active torsions:
REMARK  status: ('A' for Active; 'I' for Inactive)
REMARK    1  A    between atoms: C_3  and  C_1 
REMARK    2  A    between atoms: C_2  and  C_7 
REMARK    3  A    between atoms: C_4  and  N_9 
REMARK    4  A    between atoms: N_10  and  C_6 
REMARK    5  A    between atoms: N_9  and  N_10 
ROOT
ATOM      1  C   UNL d   1       0.375   0.487  -0.741  0.00  0.00     0.105 C 
ATOM      2  C   UNL d   1      -1.018   0.171  -0.578  0.00  0.00     0.104 C 
ATOM      3  C   UNL d   1       1.284  -0.481  -0.434  0.00  0.00     0.045 C 
ATOM      4  N   UNL d   1      -2.112  -0.155  -0.407  0.00  0.00    -0.191 NA
ATOM      5  C   UNL d   1       2.782  -0.322  -0.602  0.00  0.00     0.071 C 
ENDROOT
BRANCH   1   6
ATOM      6  C   UNL d   1       0.647   1.862  -1.302  0.00  0.00     0.117 C 
ATOM      7  S   UNL d   1      -0.316   2.680  -2.411  0.00  0.00    -0.059 SA
ATOM      8  N   UNL d   1       1.720   2.559  -0.828  0.00  0.00    -0.389 N 
ATOM      9  H   UNL d   1       2.338   2.251  -0.090  0.00  0.00     0.157 HD
ATOM     10  H   UNL d   1       1.857   3.501  -1.181  0.00  0.00     0.157 HD
ENDBRANCH   1   6
BRANCH   3  11
ATOM     11  N   UNL d   1       0.895  -1.752   0.035  0.00  0.00    -0.303 N 
ATOM     12  H   UNL d   1      -0.090  -1.831   0.315  0.00  0.00     0.186 HD
BRANCH  11  13
ATOM     13  N   UNL d   1       1.652  -2.808   0.460  0.00  0.00    -0.299 N 
ATOM     14  H   UNL d   1       2.669  -2.709   0.398  0.00  0.00     0.187 HD
BRANCH  13  15
ATOM     15  C   UNL d   1       1.306  -4.154   0.145  0.00  0.00     0.070 A 
ATOM     16  C   UNL d   1       0.453  -4.443  -0.932  0.00  0.00     0.048 A 
ATOM     17  C   UNL d   1       0.127  -5.766  -1.276  0.00  0.00     0.050 A 
ATOM     18  C   UNL d   1       0.639  -6.817  -0.500  0.00  0.00     0.018 A 
ATOM     19  C   UNL d   1       1.478  -6.549   0.584  0.00  0.00     0.027 A 
ATOM     20  C   UNL d   1       1.817  -5.229   0.896  0.00  0.00     0.062 A 
ATOM     21 CL   UNL d   1       2.869  -4.957   2.243  0.00  0.00    -0.082 Cl
BRANCH  17  22
ATOM     22  C   UNL d   1      -0.744  -6.063  -2.473  0.00  0.00     0.417 C 
ATOM     23  F   UNL d   1      -1.140  -4.950  -3.149  0.00  0.00    -0.166 F 
ATOM     24  F   UNL d   1      -0.109  -6.847  -3.389  0.00  0.00    -0.166 F 
ATOM     25  F   UNL d   1      -1.884  -6.727  -2.139  0.00  0.00    -0.166 F 
ENDBRANCH  17  22
ENDBRANCH  13  15
ENDBRANCH  11  13
ENDBRANCH   3  11
TORSDOF 5
