REMARK  2 active torsions:
REMARK  status: ('A' for Active; 'I' for Inactive)
REMARK    1  A    between atoms: C_13  and  N_1 
REMARK    2  A    between atoms: N_3  and  C_4 
ROOT
ATOM      1  N   UNL d   1       0.001   0.869   0.019  0.00  0.00    -0.251 N 
ATOM      2  C   UNL d   1      -1.129   0.081   0.110  0.00  0.00     0.255 A 
ATOM      3  C   UNL d   1      -0.726  -1.365   0.027  0.00  0.00     0.193 A 
ATOM      4  C   UNL d   1       1.142   0.098  -0.019  0.00  0.00     0.233 A 
ATOM      5  C   UNL d   1       0.784  -1.357   0.001  0.00  0.00     0.139 A 
ATOM      6  O   UNL d   1      -2.301   0.416   0.225  0.00  0.00    -0.270 OA
ATOM      7  O   UNL d   1       2.316   0.452  -0.028  0.00  0.00    -0.273 OA
ENDROOT
BRANCH   3   8
ATOM      8  N   UNL d   1      -1.343  -2.040  -1.105  0.00  0.00    -0.321 N 
ATOM      9  C   UNL d   1      -2.150  -3.164  -1.050  0.00  0.00     0.081 A 
ATOM     10  N   UNL d   1      -2.599  -3.473  -2.249  0.00  0.00    -0.344 N 
ATOM     11  C   UNL d   1      -2.504  -3.940   0.169  0.00  0.00     0.089 C 
ATOM     12  C   UNL d   1      -2.083  -2.542  -3.106  0.00  0.00     0.060 A 
ATOM     13  HN  UNL d   1      -3.211  -4.253  -2.490  1.00  0.00     0.167 HD
ATOM     14  C   UNL d   1      -1.263  -1.643  -2.430  0.00  0.00     0.063 A 
ATOM     15  C   UNL d   1      -2.277  -2.410  -4.489  0.00  0.00     0.032 A 
ATOM     16  C   UNL d   1      -0.595  -0.608  -3.104  0.00  0.00     0.032 A 
ATOM     17  C   UNL d   1      -0.796  -0.493  -4.485  0.00  0.00     0.002 A 
ATOM     18  C   UNL d   1      -1.629  -1.375  -5.169  0.00  0.00     0.002 A 
ENDBRANCH   3   8
BRANCH   1  19
ATOM     19  C   UNL d   1      -0.023   2.297  -0.087  0.00  0.00     0.045 A 
ATOM     20  C   UNL d   1      -1.174   3.041   0.226  0.00  0.00     0.030 A 
ATOM     21  C   UNL d   1      -1.228   4.428   0.042  0.00  0.00     0.002 A 
ATOM     22  C   UNL d   1      -0.126   5.109  -0.457  0.00  0.00     0.000 A 
ATOM     23  C   UNL d   1       1.036   4.405  -0.751  0.00  0.00     0.002 A 
ATOM     24  C   UNL d   1       1.086   3.017  -0.562  0.00  0.00     0.030 A 
ENDBRANCH   1  19
TORSDOF 2
