REMARK  9 active torsions:
REMARK  status: ('A' for Active; 'I' for Inactive)
REMARK    1  A    between atoms: S_16  and  C_1 
REMARK    2  A    between atoms: C_2  and  S_15 
REMARK    3  A    between atoms: C_25  and  N_3 
REMARK    4  A    between atoms: C_26  and  N_4 
REMARK    5  A    between atoms: O_28  and  C_9 
REMARK    6  A    between atoms: O_29  and  C_10 
REMARK    7  A    between atoms: S_15  and  C_21 
REMARK    8  A    between atoms: C_22  and  S_16 
REMARK    9  A    between atoms: S_27  and  C_23 
ROOT
ATOM      1  N   UNL d   1       3.313  -5.289   0.265  0.00  0.00    -0.331 N 
ATOM      2  HN  UNL d   1       4.178  -5.822   0.360  1.00  0.00     0.168 HD
ATOM      3  N   UNL d   1       1.355  -4.791  -0.976  0.00  0.00    -0.331 N 
ATOM      4  HN  UNL d   1       0.766  -4.960  -1.792  1.00  0.00     0.168 HD
ATOM      5  C   UNL d   1       2.935  -4.392   1.193  0.00  0.00     0.082 A 
ATOM      6  C   UNL d   1       1.018  -3.893  -0.033  0.00  0.00     0.082 A 
ATOM      7  C   UNL d   1       2.504  -5.450  -0.788  0.00  0.00     0.145 A 
ATOM      8  C   UNL d   1       1.777  -3.658   1.091  0.00  0.00     0.074 A 
ENDROOT
BRANCH   5   9
ATOM      9  S   UNL d   1       4.126  -4.071   2.472  0.00  0.00    -0.034 SA
BRANCH   9  10
ATOM     10  C   UNL d   1       3.349  -4.758   3.862  0.00  0.00     0.175 A 
ATOM     11  N   UNL d   1       4.002  -5.360   4.933  0.00  0.00    -0.255 N 
ATOM     12  C   UNL d   1       2.953  -5.742   5.765  0.00  0.00     0.245 A 
ATOM     13  N   UNL d   1       1.796  -5.452   5.217  0.00  0.00    -0.263 N 
ATOM     14  N   UNL d   1       2.044  -4.819   4.028  0.00  0.00    -0.276 N 
ATOM     15  HN  UNL d   1       0.877  -5.662   5.606  1.00  0.00     0.190 HD
ATOM     16  HN  UNL d   1       1.341  -4.457   3.384  1.00  0.00     0.189 HD
BRANCH  11  17
ATOM     17  C   UNL d   1       5.393  -5.589   5.169  0.00  0.00     0.045 A 
ATOM     18  C   UNL d   1       6.367  -4.689   4.721  0.00  0.00     0.030 A 
ATOM     19  C   UNL d   1       7.726  -4.956   4.917  0.00  0.00     0.002 A 
ATOM     20  C   UNL d   1       8.124  -6.111   5.582  0.00  0.00     0.000 A 
ATOM     21  C   UNL d   1       7.166  -7.000   6.059  0.00  0.00     0.002 A 
ATOM     22  C   UNL d   1       5.805  -6.747   5.852  0.00  0.00     0.030 A 
ENDBRANCH  11  17
BRANCH  12  23
ATOM     23  O   UNL d   1       3.047  -6.228   6.998  0.00  0.00    -0.331 OA
ATOM     24  H   UNL d   1       3.911  -5.980   7.361  0.00  0.00     0.221 HD
ENDBRANCH  12  23
ENDBRANCH   9  10
ENDBRANCH   5   9
BRANCH   7  25
ATOM     25  S   UNL d   1       3.038  -6.623  -2.012  0.00  0.00    -0.098 SA
ATOM     26  C   UNL d   1       1.803  -6.337  -3.301  0.00  0.00     0.099 C 
ENDBRANCH   7  25
BRANCH   6  27
ATOM     27  S   UNL d   1      -0.526  -3.044  -0.283  0.00  0.00    -0.034 SA
BRANCH  27  28
ATOM     28  C   UNL d   1       0.052  -1.610  -1.078  0.00  0.00     0.175 A 
ATOM     29  N   UNL d   1      -0.658  -0.859  -2.008  0.00  0.00    -0.255 N 
ATOM     30  C   UNL d   1       0.255   0.127  -2.376  0.00  0.00     0.245 A 
ATOM     31  N   UNL d   1       1.403  -0.051  -1.768  0.00  0.00    -0.263 N 
ATOM     32  N   UNL d   1       1.270  -1.129  -0.937  0.00  0.00    -0.276 N 
ATOM     33  HN  UNL d   1       2.244   0.514  -1.893  1.00  0.00     0.190 HD
ATOM     34  HN  UNL d   1       1.990  -1.498  -0.316  1.00  0.00     0.189 HD
BRANCH  29  35
ATOM     35  C   UNL d   1      -1.983  -1.009  -2.515  0.00  0.00     0.045 A 
ATOM     36  C   UNL d   1      -3.022  -1.484  -1.707  0.00  0.00     0.030 A 
ATOM     37  C   UNL d   1      -4.312  -1.625  -2.226  0.00  0.00     0.002 A 
ATOM     38  C   UNL d   1      -4.579  -1.282  -3.549  0.00  0.00     0.000 A 
ATOM     39  C   UNL d   1      -3.556  -0.798  -4.359  0.00  0.00     0.002 A 
ATOM     40  C   UNL d   1      -2.262  -0.665  -3.849  0.00  0.00     0.030 A 
ENDBRANCH  29  35
BRANCH  30  41
ATOM     41  O   UNL d   1       0.018   1.188  -3.139  0.00  0.00    -0.331 OA
ATOM     42  H   UNL d   1      -0.936   1.371  -3.125  0.00  0.00     0.221 HD
ENDBRANCH  30  41
ENDBRANCH  27  28
ENDBRANCH   6  27
TORSDOF 9
