REMARK  4 active torsions:
REMARK  status: ('A' for Active; 'I' for Inactive)
REMARK    1  A    between atoms: C_6  and  C_1 
REMARK    2  A    between atoms: C_11  and  C_4 
REMARK       I    between atoms: N_8  and  C_6 
REMARK    3  A    between atoms: N_9  and  N_8 
REMARK    4  A    between atoms: C_10  and  N_9 
ROOT
ATOM      1  C   UNL d   1      -0.056  -1.322   0.117  0.00  0.00     0.093 A 
ATOM      2  N   UNL d   1      -1.237   0.630  -0.006  0.00  0.00    -0.259 N 
ATOM      3  HN  UNL d   1      -1.998   1.308  -0.046  1.00  0.00     0.195 HD
ATOM      4  C   UNL d   1      -1.360  -0.701   0.141  0.00  0.00     0.083 A 
ATOM      5  O   UNL d   1       0.097   0.902  -0.092  0.00  0.00    -0.241 OA
ATOM      6  C   UNL d   1       0.810  -0.246  -0.010  0.00  0.00     0.090 A 
ATOM      7  C   UNL d   1       2.273  -0.050  -0.099  0.00  0.00     0.080 C 
ENDROOT
BRANCH   1   8
ATOM      8  C   UNL d   1       0.277  -2.738   0.173  0.00  0.00     0.271 C 
ATOM      9  N   UNL d   1       1.581  -3.053   0.523  0.00  0.00    -0.282 N 
ATOM     10  H   UNL d   1       2.305  -2.379   0.738  0.00  0.00     0.184 HD
ATOM     11  O   UNL d   1      -0.539  -3.628  -0.056  0.00  0.00    -0.266 OA
BRANCH   9  12
ATOM     12  N   UNL d   1       1.956  -4.408   0.581  0.00  0.00    -0.200 NA
ATOM     13  H   UNL d   1       1.136  -5.021   0.487  0.00  0.00     0.153 HD
BRANCH  12  14
ATOM     14  C   UNL d   1       2.763  -4.751   1.699  0.00  0.00     0.066 A 
ATOM     15  C   UNL d   1       3.660  -3.862   2.319  0.00  0.00     0.139 A 
ATOM     16  F   UNL d   1       3.726  -2.579   1.920  0.00  0.00    -0.204 F 
ATOM     17  C   UNL d   1       4.506  -4.266   3.351  0.00  0.00     0.044 A 
ATOM     18  C   UNL d   1       4.494  -5.594   3.771  0.00  0.00     0.003 A 
ATOM     19  C   UNL d   1       3.646  -6.507   3.149  0.00  0.00     0.002 A 
ATOM     20  C   UNL d   1       2.799  -6.091   2.114  0.00  0.00     0.028 A 
ENDBRANCH  12  14
ENDBRANCH   9  12
ENDBRANCH   1   8
BRANCH   4  21
ATOM     21  C   UNL d   1      -2.707  -1.260   0.328  0.00  0.00    -0.006 A 
ATOM     22  C   UNL d   1      -3.812  -0.634  -0.280  0.00  0.00     0.014 A 
ATOM     23  C   UNL d   1      -5.114  -1.089  -0.055  0.00  0.00     0.001 A 
ATOM     24  C   UNL d   1      -5.334  -2.183   0.776  0.00  0.00     0.000 A 
ATOM     25  C   UNL d   1      -4.252  -2.817   1.385  0.00  0.00     0.001 A 
ATOM     26  C   UNL d   1      -2.949  -2.351   1.170  0.00  0.00     0.014 A 
ENDBRANCH   4  21
TORSDOF 4
