REMARK  2 active torsions:
REMARK  status: ('A' for Active; 'I' for Inactive)
REMARK    1  A    between atoms: N_4  and  N_1 
REMARK       I    between atoms: C_3  and  N_4 
REMARK    2  A    between atoms: C_7  and  C_6 
ROOT
ATOM      1  N   UNL d   1       1.238   0.584  -0.201  0.00  0.00    -0.309 N 
ATOM      2  HN  UNL d   1       0.959   0.714  -1.173  1.00  0.00     0.186 HD
ATOM      3  C   UNL d   1       2.288  -0.102   0.111  0.00  0.00     0.118 C 
ENDROOT
BRANCH   1   4
ATOM      4  N   UNL d   1       0.526   1.122   0.814  0.00  0.00    -0.271 N 
ATOM      5  C   UNL d   1      -0.609   1.857   0.573  0.00  0.00     0.232 C 
ATOM      6  O   UNL d   1      -1.260   2.335   1.502  0.00  0.00    -0.272 OA
ATOM      7  C   UNL d   1      -1.020   2.056  -0.869  0.00  0.00     0.119 C 
ATOM      8  H   UNL d   1       0.798   0.987   1.781  0.00  0.00     0.190 HD
ENDBRANCH   1   4
BRANCH   3   9
ATOM      9  C   UNL d   1       3.095  -0.725  -0.956  0.00  0.00    -0.019 A 
ATOM     10  C   UNL d   1       2.730  -0.567  -2.300  0.00  0.00     0.013 A 
ATOM     11  C   UNL d   1       3.487  -1.171  -3.302  0.00  0.00     0.001 A 
ATOM     12  C   UNL d   1       4.604  -1.931  -2.962  0.00  0.00     0.000 A 
ATOM     13  C   UNL d   1       4.969  -2.085  -1.623  0.00  0.00     0.001 A 
ATOM     14  C   UNL d   1       4.218  -1.482  -0.614  0.00  0.00     0.013 A 
ENDBRANCH   3   9
TORSDOF 2
