REMARK  7 active torsions:
REMARK  status: ('A' for Active; 'I' for Inactive)
REMARK    1  A    between atoms: C_4  and  C_1 
REMARK    2  A    between atoms: C_2  and  N_5 
REMARK    3  A    between atoms: N_6  and  C_2 
REMARK    4  A    between atoms: N_5  and  C_3 
REMARK    5  A    between atoms: O_17  and  C_4 
REMARK    6  A    between atoms: C_7  and  N_6 
REMARK    7  A    between atoms: C_22  and  O_17 
ROOT
ATOM      1  N   UNL d   1       1.035   3.423   0.890  0.00  0.00    -0.332 N 
ATOM      2  H   UNL d   1       2.043   3.314   0.932  0.00  0.00     0.168 HD
ENDROOT
BRANCH   1   3
ATOM      3  C   UNL d   1       0.625   4.683   1.201  0.00  0.00     0.176 C 
ATOM      4  S   UNL d   1      -0.482   5.595   0.333  0.00  0.00    -0.041 SA
BRANCH   3   5
ATOM      5  N   UNL d   1       1.289   5.311   2.226  0.00  0.00    -0.333 N 
ATOM      6  H   UNL d   1       1.121   6.308   2.221  0.00  0.00     0.168 HD
BRANCH   5   7
ATOM      7  C   UNL d   1       1.992   4.790   3.344  0.00  0.00     0.040 A 
ATOM      8  C   UNL d   1       2.731   5.668   4.167  0.00  0.00    -0.034 A 
ATOM      9  C   UNL d   1       3.416   5.147   5.288  0.00  0.00     0.032 A 
ATOM     10  C   UNL d   1       2.905   7.143   3.913  0.00  0.00     0.050 C 
ATOM     11  C   UNL d   1       3.342   3.796   5.611  0.00  0.00     0.034 A 
ATOM     12  C   UNL d   1       2.584   2.939   4.828  0.00  0.00     0.026 A 
ATOM     13 CL   UNL d   1       4.176   3.194   6.988  0.00  0.00    -0.084 Cl
ATOM     14  C   UNL d   1       1.911   3.436   3.707  0.00  0.00     0.032 A 
ENDBRANCH   5   7
ENDBRANCH   3   5
ENDBRANCH   1   3
BRANCH   1  15
ATOM     15  C   UNL d   1       0.313   2.314   0.380  0.00  0.00     0.050 A 
ATOM     16  C   UNL d   1       1.004   1.218  -0.176  0.00  0.00     0.066 A 
ATOM     17  C   UNL d   1       0.344  -0.005  -0.384  0.00  0.00     0.026 A 
ATOM     18  C   UNL d   1      -1.016  -0.136  -0.078  0.00  0.00    -0.061 A 
ATOM     19  C   UNL d   1      -1.724   0.988   0.355  0.00  0.00     0.009 A 
ATOM     20  C   UNL d   1      -1.718  -1.454  -0.222  0.00  0.00     0.048 C 
ATOM     21  C   UNL d   1      -1.064   2.198   0.595  0.00  0.00     0.031 A 
BRANCH  16  22
ATOM     22  C   UNL d   1       2.442   1.287  -0.552  0.00  0.00     0.295 C 
ATOM     23  O   UNL d   1       3.220   0.354  -0.457  0.00  0.00    -0.259 OA
BRANCH  22  24
ATOM     24  O   UNL d   1       2.717   2.528  -1.021  0.00  0.00    -0.318 OA
BRANCH  24  25
ATOM     25  C   UNL d   1       4.080   2.851  -1.323  0.00  0.00     0.174 C 
ATOM     26  C   UNL d   1       4.264   2.990  -2.821  0.00  0.00     0.034 C 
ENDBRANCH  24  25
ENDBRANCH  22  24
ENDBRANCH  16  22
ENDBRANCH   1  15
TORSDOF 7
