REMARK  1 active torsions:
REMARK  status: ('A' for Active; 'I' for Inactive)
REMARK    1  A    between atoms: C_9  and  C_5 
ROOT
ATOM      1  N   UNL d   1      -0.310   0.684   0.039  0.00  0.00    -0.316 N 
ATOM      2  N   UNL d   1      -1.610  -1.131   0.097  0.00  0.00    -0.340 N 
ATOM      3  HN  UNL d   1      -1.928  -2.099   0.137  1.00  0.00     0.167 HD
ATOM      4  C   UNL d   1      -0.365  -0.702   0.075  0.00  0.00     0.111 A 
ATOM      5  C   UNL d   1      -2.395   0.004   0.053  0.00  0.00     0.060 A 
ATOM      6  C   UNL d   1      -1.604   1.133   0.025  0.00  0.00     0.128 A 
ATOM      7  C   UNL d   1       0.875   1.413   0.015  0.00  0.00     0.104 A 
ATOM      8  C   UNL d   1       0.877  -1.396   0.069  0.00  0.00     0.050 A 
ATOM      9  C   UNL d   1       2.054   0.761   0.020  0.00  0.00    -0.046 A 
ATOM     10  C   UNL d   1       2.033  -0.703   0.040  0.00  0.00     0.012 A 
ATOM     11  C   UNL d   1       3.383   1.449   0.008  0.00  0.00     0.049 C 
ENDROOT
BRANCH   5  12
ATOM     12  C   UNL d   1      -3.850  -0.030   0.007  0.00  0.00    -0.007 A 
ATOM     13  C   UNL d   1      -4.524  -1.260   0.076  0.00  0.00     0.022 A 
ATOM     14  C   UNL d   1      -5.927  -1.340  -0.022  0.00  0.00    -0.039 A 
ATOM     15  C   UNL d   1      -6.598  -2.684   0.013  0.00  0.00     0.050 C 
ATOM     16  C   UNL d   1      -6.655  -0.154  -0.189  0.00  0.00     0.040 A 
ATOM     17  C   UNL d   1      -6.001   1.077  -0.241  0.00  0.00     0.025 A 
ATOM     18 CL   UNL d   1      -8.375  -0.159  -0.353  0.00  0.00    -0.084 Cl
ATOM     19  C   UNL d   1      -4.609   1.138  -0.144  0.00  0.00     0.015 A 
ENDBRANCH   5  12
TORSDOF 1
