REMARK  3 active torsions:
REMARK  status: ('A' for Active; 'I' for Inactive)
REMARK    1  A    between atoms: C_10  and  C_4 
REMARK    2  A    between atoms: N_15  and  C_5 
REMARK    3  A    between atoms: O_18  and  C_16 
ROOT
ATOM      1  C   UNL d   1      -0.242  -0.587   0.029  0.00  0.00     0.173 A 
ATOM      2  C   UNL d   1      -0.292   0.782   0.097  0.00  0.00     0.032 A 
ATOM      3  C   UNL d   1       2.181   0.639  -0.127  0.00  0.00     0.080 A 
ATOM      4  C   UNL d   1       0.979   1.567   0.088  0.00  0.00     0.105 A 
ATOM      5  C   UNL d   1       2.064  -0.716  -0.213  0.00  0.00     0.140 A 
ATOM      6  O   UNL d   1       0.824  -1.366  -0.088  0.00  0.00    -0.279 OA
ATOM      7  N   UNL d   1      -1.521  -1.036   0.070  0.00  0.00    -0.279 N 
ATOM      8  N   UNL d   1      -2.421  -0.036   0.140  0.00  0.00    -0.303 N 
ATOM      9  HN  UNL d   1      -3.437  -0.111   0.180  1.00  0.00     0.186 HD
ATOM     10  C   UNL d   1      -1.677   1.083   0.145  0.00  0.00     0.033 A 
ATOM     11  C   UNL d   1       3.461   1.257  -0.232  0.00  0.00     0.100 C 
ATOM     12  N   UNL d   1       4.513   1.744  -0.292  0.00  0.00    -0.191 NA
ATOM     13  C   UNL d   1      -2.356   2.403   0.154  0.00  0.00     0.070 C 
ATOM     14  H   UNL d   1      -1.854  -1.993   0.039  0.00  0.00     0.189 HD
ENDROOT
BRANCH   5  15
ATOM     15  N   UNL d   1       3.100  -1.595  -0.428  0.00  0.00    -0.282 NA
ATOM     16  H   UNL d   1       4.032  -1.260  -0.194  0.00  0.00     0.126 HD
ATOM     17  H   UNL d   1       2.902  -2.526  -0.070  0.00  0.00     0.126 HD
ENDBRANCH   5  15
BRANCH   4  18
ATOM     18  C   UNL d   1       0.834   2.619  -1.000  0.00  0.00    -0.042 A 
ATOM     19  C   UNL d   1       0.631   2.263  -2.348  0.00  0.00     0.044 A 
ATOM     20  C   UNL d   1       0.511   3.240  -3.336  0.00  0.00     0.068 A 
ATOM     21  C   UNL d   1       0.602   4.586  -2.981  0.00  0.00     0.037 A 
ATOM     22  C   UNL d   1       0.819   4.958  -1.654  0.00  0.00     0.003 A 
ATOM     23  C   UNL d   1       0.938   3.980  -0.668  0.00  0.00     0.008 A 
BRANCH  20  24
ATOM     24  O   UNL d   1       0.302   3.006  -4.668  0.00  0.00    -0.356 OA
ATOM     25  C   UNL d   1       0.231   1.643  -5.072  0.00  0.00     0.210 C 
ENDBRANCH  20  24
ENDBRANCH   4  18
TORSDOF 3
