REMARK  7 active torsions:
REMARK  status: ('A' for Active; 'I' for Inactive)
REMARK       I    between atoms: N_2  and  C_1 
REMARK       I    between atoms: N_3  and  C_1 
REMARK    1  A    between atoms: C_8  and  N_2 
REMARK    2  A    between atoms: C_9  and  N_2 
REMARK    3  A    between atoms: C_4  and  N_3 
REMARK    4  A    between atoms: C_5  and  C_8 
REMARK    5  A    between atoms: C_6  and  C_5 
REMARK    6  A    between atoms: O_16  and  C_6 
REMARK    7  A    between atoms: C_17  and  C_9 
ROOT
ATOM      1  C   UNL d   1       0.877  -0.258  -0.434  0.00  0.00     0.323 C 
ATOM      2  N   UNL d   1       0.207   0.929  -0.792  0.00  0.00    -0.329 N 
ATOM      3  N   UNL d   1       0.253  -1.035   0.517  0.00  0.00    -0.309 N 
ATOM      4  O   UNL d   1       1.979  -0.525  -0.911  0.00  0.00    -0.247 OA
ATOM      5  H   UNL d   1      -0.625  -0.723   0.880  0.00  0.00     0.170 HD
ENDROOT
BRANCH   2   6
ATOM      6  C   UNL d   1      -1.042   1.430  -0.185  0.00  0.00     0.138 C 
BRANCH   6   7
ATOM      7  C   UNL d   1      -2.078   1.927  -1.190  0.00  0.00     0.130 C 
BRANCH   7   8
ATOM      8  C   UNL d   1      -3.299   2.409  -0.446  0.00  0.00     0.141 C 
ATOM      9  O   UNL d   1      -3.408   2.453   0.767  0.00  0.00    -0.650 OA
BRANCH   8  10
ATOM     10  O   UNL d   1      -4.299   2.799  -1.269  0.00  0.00    -0.776 OA
ATOM     11  H   UNL d   1      -4.088   2.712  -2.221  0.00  0.00     0.167 HD
ENDBRANCH   8  10
ENDBRANCH   7   8
ENDBRANCH   6   7
ENDBRANCH   2   6
BRANCH   2  12
ATOM     12  C   UNL d   1       1.056   1.951  -1.426  0.00  0.00     0.166 C 
BRANCH  12  13
ATOM     13  C   UNL d   1       1.102   1.987  -2.940  0.00  0.00    -0.040 A 
ATOM     14  C   UNL d   1       1.278   3.230  -3.577  0.00  0.00     0.009 A 
ATOM     15  C   UNL d   1       1.516   3.310  -4.951  0.00  0.00     0.001 A 
ATOM     16  C   UNL d   1       1.589   2.147  -5.712  0.00  0.00     0.000 A 
ATOM     17  C   UNL d   1       1.406   0.908  -5.100  0.00  0.00     0.001 A 
ATOM     18  C   UNL d   1       1.164   0.828  -3.724  0.00  0.00     0.009 A 
ENDBRANCH  12  13
ENDBRANCH   2  12
BRANCH   3  19
ATOM     19  C   UNL d   1       0.831  -2.076   1.278  0.00  0.00     0.037 A 
ATOM     20  C   UNL d   1       2.013  -2.739   0.949  0.00  0.00     0.036 A 
ATOM     21  C   UNL d   1       2.576  -3.674   1.831  0.00  0.00    -0.059 A 
ATOM     22  C   UNL d   1       3.882  -4.342   1.516  0.00  0.00     0.048 C 
ATOM     23  C   UNL d   1       1.946  -3.933   3.055  0.00  0.00     0.013 A 
ATOM     24  C   UNL d   1       0.763  -3.273   3.402  0.00  0.00    -0.059 A 
ATOM     25  C   UNL d   1       0.191  -2.382   2.489  0.00  0.00     0.036 A 
ATOM     26  C   UNL d   1       0.170  -3.462   4.766  0.00  0.00     0.048 C 
ENDBRANCH   3  19
TORSDOF 7
