REMARK  5 active torsions:
REMARK  status: ('A' for Active; 'I' for Inactive)
REMARK    1  A    between atoms: C_20  and  N_2 
REMARK    2  A    between atoms: N_4  and  C_10 
REMARK    3  A    between atoms: C_11  and  N_6 
REMARK    4  A    between atoms: C_23  and  C_20 
REMARK    5  A    between atoms: C_24  and  C_23 
ROOT
ATOM      1  C   UNL d   1       0.087   0.694  -0.004  0.00  0.00     0.036 A 
ATOM      2  N   UNL d   1      -1.123   1.377  -0.049  0.00  0.00    -0.380 N 
ATOM      3  C   UNL d   1       0.119  -0.715   0.047  0.00  0.00    -0.029 A 
ATOM      4  C   UNL d   1       1.318   1.365  -0.027  0.00  0.00     0.032 A 
ATOM      5  C   UNL d   1       1.349  -1.403   0.068  0.00  0.00     0.040 A 
ATOM      6  C   UNL d   1       2.567  -0.719   0.031  0.00  0.00     0.048 A 
ATOM      7  C   UNL d   1       2.535   0.676  -0.020  0.00  0.00     0.033 A 
ATOM      8  C   UNL d   1      -2.330   0.659   0.350  0.00  0.00     0.123 C 
ATOM      9  C   UNL d   1      -1.158  -1.520   0.084  0.00  0.00     0.042 C 
ATOM     10  C   UNL d   1      -2.377  -0.702  -0.322  0.00  0.00     0.024 C 
ENDROOT
BRANCH   6  11
ATOM     11  N   UNL d   1       3.763  -1.462  -0.026  0.00  0.00    -0.300 N 
ATOM     12  N   UNL d   1       4.668  -0.951   0.668  0.00  0.00    -0.300 N 
ATOM     13  HN  UNL d   1       4.543  -0.119   1.245  1.00  0.00     0.187 HD
ATOM     14  HN  UNL d   1       3.877  -2.317  -0.571  1.00  0.00     0.187 HD
BRANCH  12  15
ATOM     15  C   UNL d   1       5.881  -1.660   0.559  0.00  0.00     0.048 A 
ATOM     16  C   UNL d   1       7.078  -0.931   0.544  0.00  0.00     0.032 A 
ATOM     17  C   UNL d   1       8.315  -1.579   0.462  0.00  0.00     0.021 A 
ATOM     18  C   UNL d   1       8.361  -2.969   0.402  0.00  0.00     0.011 A 
ATOM     19  C   UNL d   1       7.184  -3.715   0.426  0.00  0.00     0.021 A 
ATOM     20 BR   UNL d   1      10.029  -3.852   0.297  0.00  0.00    -0.051 Br
ATOM     21  C   UNL d   1       5.952  -3.061   0.510  0.00  0.00     0.032 A 
ENDBRANCH  12  15
ENDBRANCH   6  11
BRANCH   2  22
ATOM     22  C   UNL d   1      -1.253   2.686  -0.695  0.00  0.00     0.123 C 
BRANCH  22  23
ATOM     23  C   UNL d   1      -0.951   2.602  -2.198  0.00  0.00     0.019 C 
BRANCH  23  24
ATOM     24  C   UNL d   1      -1.026   3.975  -2.865  0.00  0.00    -0.003 C 
ATOM     25  C   UNL d   1      -0.638   3.896  -4.334  0.00  0.00     0.005 C 
ENDBRANCH  23  24
ENDBRANCH  22  23
ENDBRANCH   2  22
TORSDOF 5
