REMARK  6 active torsions:
REMARK  status: ('A' for Active; 'I' for Inactive)
REMARK    1  A    between atoms: N_3  and  C_1 
REMARK    2  A    between atoms: C_2  and  S_6 
REMARK    3  A    between atoms: S_6  and  C_5 
REMARK    4  A    between atoms: S_17  and  C_7 
REMARK    5  A    between atoms: C_12  and  C_16 
REMARK    6  A    between atoms: C_16  and  S_17 
ROOT
ATOM      1  C   UNL d   1       5.447   1.710   0.246  0.00  0.00     0.135 A 
ATOM      2  S   UNL d   1       5.407   2.705   1.640  0.00  0.00    -0.037 SA
ATOM      3  C   UNL d   1       6.135   3.939   0.696  0.00  0.00     0.129 A 
ATOM      4  N   UNL d   1       5.993   2.275  -0.807  0.00  0.00    -0.286 N 
ATOM      5  HN  UNL d   1       6.108   1.812  -1.709  1.00  0.00     0.188 HD
ATOM      6  N   UNL d   1       6.394   3.572  -0.543  0.00  0.00    -0.287 N 
ATOM      7  HN  UNL d   1       6.840   4.178  -1.232  1.00  0.00     0.188 HD
ENDROOT
BRANCH   1   8
ATOM      8  S   UNL d   1       4.882   0.058   0.207  0.00  0.00    -0.043 SA
BRANCH   8   9
ATOM      9  C   UNL d   1       3.215   0.378  -0.335  0.00  0.00     0.110 A 
ATOM     10  C   UNL d   1       2.628  -0.178  -1.468  0.00  0.00     0.138 A 
ATOM     11  C   UNL d   1       1.302   0.119  -1.813  0.00  0.00     0.059 A 
ATOM     12  C   UNL d   1       0.583   0.967  -0.985  0.00  0.00     0.028 A 
ATOM     13  C   UNL d   1       1.210   1.481   0.138  0.00  0.00     0.108 A 
ATOM     14 BR   UNL d   1      -1.212   1.393  -1.367  0.00  0.00    -0.050 Br
ATOM     15  N   UNL d   1       2.497   1.205   0.475  0.00  0.00    -0.357 N 
ATOM     16  HN  UNL d   1       2.915   1.607   1.314  1.00  0.00     0.166 HD
BRANCH  10  17
ATOM     17  N   UNL d   1       3.347  -1.099  -2.308  0.00  0.00    -0.113 N 
ATOM     18  O   UNL d   1       3.696  -2.173  -1.803  0.00  0.00    -0.532 OA
ATOM     19  O   UNL d   1       3.490  -0.777  -3.494  0.00  0.00    -0.532 OA
ENDBRANCH  10  17
ENDBRANCH   8   9
ENDBRANCH   1   8
BRANCH   3  20
ATOM     20  S   UNL d   1       6.551   5.559   1.222  0.00  0.00    -0.099 SA
BRANCH  20  21
ATOM     21  C   UNL d   1       5.895   5.658   2.910  0.00  0.00     0.123 C 
BRANCH  21  22
ATOM     22  C   UNL d   1       6.107   7.032   3.512  0.00  0.00    -0.005 A 
ATOM     23  C   UNL d   1       5.141   8.049   3.370  0.00  0.00     0.042 A 
ATOM     24 CL   UNL d   1       3.662   7.802   2.505  0.00  0.00    -0.084 Cl
ATOM     25  C   UNL d   1       5.338   9.320   3.925  0.00  0.00     0.024 A 
ATOM     26  C   UNL d   1       6.504   9.606   4.630  0.00  0.00     0.003 A 
ATOM     27  C   UNL d   1       7.478   8.622   4.769  0.00  0.00     0.024 A 
ATOM     28  C   UNL d   1       7.284   7.351   4.215  0.00  0.00     0.042 A 
ATOM     29 CL   UNL d   1       8.562   6.205   4.437  0.00  0.00    -0.084 Cl
ENDBRANCH  21  22
ENDBRANCH  20  21
ENDBRANCH   3  20
TORSDOF 6
