REMARK  3 active torsions:
REMARK  status: ('A' for Active; 'I' for Inactive)
REMARK       I    between atoms: N_4  and  C_1 
REMARK       I    between atoms: N_9  and  C_1 
REMARK    1  A    between atoms: C_2  and  N_8 
REMARK    2  A    between atoms: C_5  and  N_4 
REMARK    3  A    between atoms: N_8  and  N_9 
ROOT
ATOM      1  C   UNL d   1       4.388   0.499   0.562  0.00  0.00     0.115 A 
ATOM      2  C   UNL d   1       5.382   1.087   1.350  0.00  0.00     0.084 A 
ATOM      3  C   UNL d   1       5.151   1.432   2.716  0.00  0.00     0.102 C 
ATOM      4  N   UNL d   1       4.995   1.686   3.838  0.00  0.00    -0.191 NA
ATOM      5  N   UNL d   1       4.620   0.177  -0.744  0.00  0.00    -0.355 N 
ATOM      6  HN  UNL d   1       3.885  -0.239  -1.317  1.00  0.00     0.166 HD
ATOM      7  C   UNL d   1       6.641   1.325   0.784  0.00  0.00     0.027 A 
ATOM      8  C   UNL d   1       5.843   0.422  -1.262  0.00  0.00     0.089 A 
ATOM      9  C   UNL d   1       6.878   0.987  -0.544  0.00  0.00     0.019 A 
ENDROOT
BRANCH   1  10
ATOM     10  N   UNL d   1       3.077   0.285   1.068  0.00  0.00    -0.202 NA
ATOM     11  H   UNL d   1       3.083  -0.170   1.980  0.00  0.00     0.149 HD
BRANCH  10  12
ATOM     12  N   UNL d   1       2.304  -0.464   0.143  0.00  0.00    -0.171 NA
ATOM     13  C   UNL d   1       0.956  -0.168   0.033  0.00  0.00     0.312 C 
ATOM     14  N   UNL d   1       0.343  -0.668  -1.098  0.00  0.00    -0.312 N 
ATOM     15  O   UNL d   1       0.324   0.523   0.826  0.00  0.00    -0.252 OA
ATOM     16  H   UNL d   1      -0.499  -0.161  -1.336  0.00  0.00     0.170 HD
ATOM     17  H   UNL d   1       2.789  -0.550  -0.753  0.00  0.00     0.152 HD
BRANCH  14  18
ATOM     18  C   UNL d   1       0.922  -1.524  -2.060  0.00  0.00     0.047 A 
ATOM     19  C   UNL d   1       0.855  -1.212  -3.442  0.00  0.00     0.001 A 
ATOM     20  C   UNL d   1       1.535  -2.062  -4.351  0.00  0.00    -0.024 A 
ATOM     21  C   UNL d   1       0.215  -0.063  -3.968  0.00  0.00     0.014 A 
ATOM     22  C   UNL d   1       1.552  -1.755  -5.721  0.00  0.00     0.012 A 
ATOM     23  C   UNL d   1       2.216  -3.196  -3.881  0.00  0.00     0.012 A 
ATOM     24  C   UNL d   1       0.912  -0.617  -6.209  0.00  0.00     0.001 A 
ATOM     25  C   UNL d   1       0.244   0.228  -5.333  0.00  0.00     0.001 A 
ATOM     26  C   UNL d   1       2.238  -3.508  -2.526  0.00  0.00     0.003 A 
ATOM     27  C   UNL d   1       1.592  -2.677  -1.621  0.00  0.00     0.030 A 
ENDBRANCH  14  18
ENDBRANCH  10  12
ENDBRANCH   1  10
TORSDOF 3
