REMARK  9 active torsions:
REMARK  status: ('A' for Active; 'I' for Inactive)
REMARK    1  A    between atoms: C_3  and  N_1 
REMARK    2  A    between atoms: N_2  and  C_7 
REMARK    3  A    between atoms: C_16  and  C_3 
REMARK    4  A    between atoms: C_17  and  C_3 
REMARK    5  A    between atoms: C_4  and  C_18 
REMARK       I    between atoms: N_13  and  C_4 
REMARK    6  A    between atoms: S_14  and  C_8 
REMARK    7  A    between atoms: N_9  and  N_13 
REMARK    8  A    between atoms: C_18  and  S_14 
REMARK    9  A    between atoms: C_22  and  C_21 
ROOT
ATOM      1  S   UNL d   1      -0.362  -1.460  -1.929  0.00  0.00    -0.151 SA
ENDROOT
BRANCH   1   2
ATOM      2  C   UNL d   1      -0.391  -1.040  -0.114  0.00  0.00     0.104 C 
ATOM      3  C   UNL d   1       0.926  -0.311   0.289  0.00  0.00     0.290 C 
ATOM      4  N   UNL d   1       0.277   0.957  -0.175  0.00  0.00     0.104 N 
ATOM      5  C   UNL d   1      -1.027   0.343   0.205  0.00  0.00     0.290 C 
BRANCH   4   6
ATOM      6  C   UNL d   1       0.662   2.105   0.669  0.00  0.00     0.289 C 
BRANCH   6   7
ATOM      7  C   UNL d   1       2.027   2.650   0.233  0.00  0.00    -0.021 A 
ATOM      8  C   UNL d   1       2.243   3.098  -1.084  0.00  0.00     0.010 A 
ATOM      9  C   UNL d   1       3.456   3.678  -1.457  0.00  0.00     0.001 A 
ATOM     10  C   UNL d   1       4.481   3.803  -0.524  0.00  0.00     0.000 A 
ATOM     11  C   UNL d   1       4.298   3.337   0.777  0.00  0.00     0.001 A 
ATOM     12  C   UNL d   1       3.080   2.764   1.155  0.00  0.00     0.010 A 
ENDBRANCH   6   7
BRANCH   6  13
ATOM     13  C   UNL d   1      -0.375   3.239   0.670  0.00  0.00    -0.021 A 
ATOM     14  C   UNL d   1      -0.511   4.042   1.815  0.00  0.00     0.010 A 
ATOM     15  C   UNL d   1      -1.428   5.093   1.845  0.00  0.00     0.001 A 
ATOM     16  C   UNL d   1      -2.219   5.360   0.730  0.00  0.00     0.000 A 
ATOM     17  C   UNL d   1      -2.085   4.588  -0.421  0.00  0.00     0.001 A 
ATOM     18  C   UNL d   1      -1.163   3.541  -0.455  0.00  0.00     0.010 A 
ENDBRANCH   6  13
ENDBRANCH   4   6
ENDBRANCH   1   2
BRANCH   1  19
ATOM     19  C   UNL d   1      -1.837  -2.505  -2.000  0.00  0.00     0.178 C 
BRANCH  19  20
ATOM     20  C   UNL d   1      -3.151  -1.756  -1.917  0.00  0.00     0.245 C 
ATOM     21  N   UNL d   1      -3.140  -0.458  -2.410  0.00  0.00    -0.270 N 
ATOM     22  H   UNL d   1      -2.261  -0.017  -2.671  0.00  0.00     0.190 HD
ATOM     23  O   UNL d   1      -4.156  -2.326  -1.490  0.00  0.00    -0.271 OA
BRANCH  21  24
ATOM     24  N   UNL d   1      -4.293   0.249  -2.370  0.00  0.00    -0.308 N 
ATOM     25  C   UNL d   1      -4.271   1.505  -2.654  0.00  0.00     0.118 C 
ATOM     26  HN  UNL d   1      -5.169  -0.208  -2.118  1.00  0.00     0.186 HD
BRANCH  25  27
ATOM     27  C   UNL d   1      -5.544   2.264  -2.633  0.00  0.00    -0.019 A 
ATOM     28  C   UNL d   1      -6.740   1.584  -2.347  0.00  0.00     0.015 A 
ATOM     29  C   UNL d   1      -7.958   2.264  -2.344  0.00  0.00     0.037 A 
ATOM     30  C   UNL d   1      -7.976   3.634  -2.623  0.00  0.00     0.102 A 
ATOM     31  C   UNL d   1      -6.783   4.323  -2.900  0.00  0.00     0.037 A 
ATOM     32  C   UNL d   1      -5.563   3.632  -2.904  0.00  0.00     0.015 A 
BRANCH  30  33
ATOM     33  N   UNL d   1      -9.259   4.349  -2.634  0.00  0.00    -0.116 N 
ATOM     34  O   UNL d   1     -10.286   3.700  -2.390  0.00  0.00    -0.532 OA
ATOM     35  O   UNL d   1      -9.239   5.561  -2.889  0.00  0.00    -0.532 OA
ENDBRANCH  30  33
ENDBRANCH  25  27
ENDBRANCH  21  24
ENDBRANCH  19  20
ENDBRANCH   1  19
TORSDOF 9
