REMARK  7 active torsions:
REMARK  status: ('A' for Active; 'I' for Inactive)
REMARK    1  A    between atoms: N_2  and  C_1 
REMARK    2  A    between atoms: S_9  and  C_3 
REMARK    3  A    between atoms: C_11  and  C_4 
REMARK       I    between atoms: C_6  and  N_10 
REMARK    4  A    between atoms: C_16  and  C_6 
REMARK    5  A    between atoms: C_13  and  S_9 
REMARK    6  A    between atoms: N_10  and  C_12 
REMARK    7  A    between atoms: O_22  and  C_11 
ROOT
ATOM      1  C   UNL d   1       0.240   3.992  -0.663  0.00  0.00     0.052 A 
ATOM      2  C   UNL d   1      -0.308   3.908   0.633  0.00  0.00     0.034 A 
ATOM      3  C   UNL d   1       0.849   5.200  -1.067  0.00  0.00     0.031 A 
ATOM      4  C   UNL d   1      -0.327   5.072   1.429  0.00  0.00     0.021 A 
ATOM      5  C   UNL d   1       0.835   6.333  -0.256  0.00  0.00     0.002 A 
ATOM      6  C   UNL d   1       0.216   6.278   0.982  0.00  0.00     0.002 A 
ENDROOT
BRANCH   2   7
ATOM      7  S   UNL d   1      -0.641   2.361   1.479  0.00  0.00    -0.068 SA
BRANCH   7   8
ATOM      8  C   UNL d   1      -2.384   2.428   1.869  0.00  0.00     0.108 A 
ATOM      9  C   UNL d   1      -3.268   1.373   1.662  0.00  0.00     0.137 A 
ATOM     10  C   UNL d   1      -4.604   1.462   2.085  0.00  0.00     0.058 A 
ATOM     11  C   UNL d   1      -5.031   2.612   2.742  0.00  0.00     0.057 A 
ATOM     12  C   UNL d   1      -4.106   3.630   2.919  0.00  0.00     0.106 A 
ATOM     13  N   UNL d   1      -2.810   3.558   2.505  0.00  0.00    -0.357 N 
ATOM     14  HN  UNL d   1      -2.170   4.336   2.666  1.00  0.00     0.166 HD
BRANCH   9  15
ATOM     15  N   UNL d   1      -2.840   0.115   1.093  0.00  0.00    -0.113 N 
ATOM     16  O   UNL d   1      -1.940  -0.500   1.678  0.00  0.00    -0.532 OA
ATOM     17  O   UNL d   1      -3.516  -0.333   0.154  0.00  0.00    -0.532 OA
ENDBRANCH   9  15
BRANCH  11  18
ATOM     18  C   UNL d   1      -6.392   2.780   3.294  0.00  0.00     0.294 C 
ATOM     19  O   UNL d   1      -6.797   3.817   3.800  0.00  0.00    -0.259 OA
BRANCH  18  20
ATOM     20  O   UNL d   1      -7.080   1.617   3.190  0.00  0.00    -0.322 OA
ATOM     21  C   UNL d   1      -8.389   1.643   3.765  0.00  0.00     0.213 C 
ENDBRANCH  18  20
ENDBRANCH  11  18
ENDBRANCH   7   8
ENDBRANCH   2   7
BRANCH   1  22
ATOM     22  N   UNL d   1       0.265   2.979  -1.661  0.00  0.00    -0.322 N 
ATOM     23  C   UNL d   1      -0.707   2.021  -1.901  0.00  0.00     0.256 C 
ATOM     24  O   UNL d   1      -1.700   1.800  -1.218  0.00  0.00    -0.267 OA
ATOM     25  H   UNL d   1       0.829   3.214  -2.466  0.00  0.00     0.169 HD
BRANCH  23  26
ATOM     26  C   UNL d   1      -0.595   1.364  -3.246  0.00  0.00     0.032 A 
ATOM     27  C   UNL d   1       0.625   1.232  -3.924  0.00  0.00     0.017 A 
ATOM     28  C   UNL d   1       0.638   0.878  -5.277  0.00  0.00     0.007 A 
ATOM     29  C   UNL d   1      -0.561   0.638  -5.960  0.00  0.00    -0.062 A 
ATOM     30  C   UNL d   1      -1.764   0.644  -5.245  0.00  0.00     0.007 A 
ATOM     31  C   UNL d   1      -0.551   0.415  -7.444  0.00  0.00     0.048 C 
ATOM     32  C   UNL d   1      -1.782   1.003  -3.896  0.00  0.00     0.017 A 
ENDBRANCH  23  26
ENDBRANCH   1  22
TORSDOF 7
