REMARK  6 active torsions:
REMARK  status: ('A' for Active; 'I' for Inactive)
REMARK    1  A    between atoms: N_2  and  C_1 
REMARK    2  A    between atoms: O_5  and  C_3 
REMARK    3  A    between atoms: C_8  and  O_5 
REMARK    4  A    between atoms: C_7  and  C_6 
REMARK    5  A    between atoms: O_19  and  C_7 
REMARK    6  A    between atoms: C_22  and  O_19 
ROOT
ATOM      1  C   UNL d   1       1.344  -0.091  -0.125  0.00  0.00     0.137 A 
ATOM      2  C   UNL d   1       0.516  -1.214  -0.046  0.00  0.00     0.109 A 
ATOM      3  C   UNL d   1       0.832   1.211  -0.042  0.00  0.00     0.056 A 
ATOM      4  C   UNL d   1      -0.546   1.391   0.118  0.00  0.00     0.042 A 
ATOM      5  C   UNL d   1      -0.852  -1.015   0.187  0.00  0.00     0.041 A 
ATOM      6  C   UNL d   1      -1.385   0.272   0.228  0.00  0.00     0.020 A 
ENDROOT
BRANCH   2   7
ATOM      7  O   UNL d   1       1.051  -2.479  -0.155  0.00  0.00    -0.307 OA
BRANCH   7   8
ATOM      8  C   UNL d   1       0.300  -3.446  -0.799  0.00  0.00     0.098 A 
ATOM      9  C   UNL d   1       0.300  -4.752  -0.294  0.00  0.00     0.069 A 
ATOM     10  C   UNL d   1      -0.474  -5.743  -0.904  0.00  0.00     0.050 A 
ATOM     11 CL   UNL d   1       1.214  -5.174   1.108  0.00  0.00    -0.081 Cl
ATOM     12  C   UNL d   1      -1.255  -5.422  -2.014  0.00  0.00     0.035 A 
ATOM     13  C   UNL d   1      -1.250  -4.131  -2.536  0.00  0.00     0.026 A 
ATOM     14 CL   UNL d   1      -2.232  -6.629  -2.753  0.00  0.00    -0.084 Cl
ATOM     15  C   UNL d   1      -0.447  -3.153  -1.951  0.00  0.00     0.041 A 
ENDBRANCH   7   8
ENDBRANCH   2   7
BRANCH   1  16
ATOM     16  N   UNL d   1       2.774  -0.248  -0.291  0.00  0.00    -0.113 N 
ATOM     17  O   UNL d   1       3.168  -0.797  -1.326  0.00  0.00    -0.532 OA
ATOM     18  O   UNL d   1       3.494   0.233   0.596  0.00  0.00    -0.532 OA
ENDBRANCH   1  16
BRANCH   4  19
ATOM     19  C   UNL d   1      -1.071   2.768   0.280  0.00  0.00     0.293 C 
ATOM     20  O   UNL d   1      -0.359   3.760   0.291  0.00  0.00    -0.259 OA
BRANCH  19  21
ATOM     21  O   UNL d   1      -2.393   2.721   0.557  0.00  0.00    -0.318 OA
BRANCH  21  22
ATOM     22  C   UNL d   1      -2.902   3.821   1.316  0.00  0.00     0.174 C 
ATOM     23  C   UNL d   1      -2.721   3.479   2.784  0.00  0.00     0.034 C 
ENDBRANCH  21  22
ENDBRANCH  19  21
ENDBRANCH   4  19
TORSDOF 6
