REMARK  2 active torsions:
REMARK  status: ('A' for Active; 'I' for Inactive)
REMARK    1  A    between atoms: O_11  and  C_5 
REMARK    2  A    between atoms: O_12  and  C_7 
ROOT
ATOM      1  C   UNL d   1      -0.125  -0.397  -0.016  0.00  0.00     0.019 A 
ATOM      2  C   UNL d   1       0.372   0.894  -0.003  0.00  0.00    -0.041 A 
ATOM      3  C   UNL d   1       0.683  -1.521  -0.017  0.00  0.00     0.055 A 
ATOM      4  C   UNL d   1      -1.578  -0.330  -0.022  0.00  0.00     0.160 A 
ATOM      5  C   UNL d   1       2.074  -1.342  -0.001  0.00  0.00     0.102 A 
ATOM      6  C   UNL d   1       1.741   1.089   0.013  0.00  0.00     0.047 A 
ATOM      7  C   UNL d   1       2.605  -0.026   0.016  0.00  0.00     0.102 A 
ATOM      8  C   UNL d   1      -0.709   1.926  -0.020  0.00  0.00     0.047 A 
ATOM      9  C   UNL d   1      -2.014   1.113   0.011  0.00  0.00     0.088 A 
ATOM     10  O   UNL d   1      -2.305  -1.308  -0.041  0.00  0.00    -0.292 OA
ENDROOT
BRANCH   5  11
ATOM     11  O   UNL d   1       2.951  -2.394  -0.003  0.00  0.00    -0.353 OA
ATOM     12  C   UNL d   1       2.428  -3.715  -0.026  0.00  0.00     0.210 C 
ENDBRANCH   5  11
BRANCH   7  13
ATOM     13  O   UNL d   1       3.923   0.360   0.038  0.00  0.00    -0.353 OA
ATOM     14  C   UNL d   1       4.934  -0.637   0.046  0.00  0.00     0.210 C 
ENDBRANCH   7  13
TORSDOF 2
