REMARK  6 active torsions:
REMARK  status: ('A' for Active; 'I' for Inactive)
REMARK    1  A    between atoms: C_6  and  C_1 
REMARK    2  A    between atoms: C_7  and  C_2 
REMARK    3  A    between atoms: N_10  and  C_3 
REMARK    4  A    between atoms: O_16  and  C_6 
REMARK    5  A    between atoms: C_15  and  C_8 
REMARK    6  A    between atoms: C_19  and  O_16 
ROOT
ATOM      1  C   UNL d   1       0.090   1.408  -0.465  0.00  0.00     0.084 A 
ATOM      2  C   UNL d   1      -1.284   1.222  -0.010  0.00  0.00    -0.000 A 
ATOM      3  C   UNL d   1       0.844   0.256  -0.285  0.00  0.00     0.085 A 
ATOM      4  C   UNL d   1      -1.463  -0.045   0.515  0.00  0.00     0.065 A 
ATOM      5  S   UNL d   1      -0.055  -0.998   0.446  0.00  0.00    -0.083 SA
ENDROOT
BRANCH   2   6
ATOM      6  C   UNL d   1      -2.406   2.171  -0.075  0.00  0.00    -0.024 A 
ATOM      7  C   UNL d   1      -2.548   3.035  -1.164  0.00  0.00     0.013 A 
ATOM      8  C   UNL d   1      -3.558   4.004  -1.191  0.00  0.00     0.013 A 
ATOM      9  C   UNL d   1      -4.511   4.108  -0.166  0.00  0.00    -0.026 A 
ATOM     10  C   UNL d   1      -4.400   3.188   0.891  0.00  0.00     0.013 A 
ATOM     11  C   UNL d   1      -3.357   2.250   0.948  0.00  0.00     0.013 A 
BRANCH   9  12
ATOM     12  C   UNL d   1      -5.566   5.152  -0.198  0.00  0.00    -0.026 A 
ATOM     13  C   UNL d   1      -6.090   5.708   0.985  0.00  0.00     0.012 A 
ATOM     14  C   UNL d   1      -7.071   6.706   0.954  0.00  0.00     0.001 A 
ATOM     15  C   UNL d   1      -7.544   7.183  -0.264  0.00  0.00     0.000 A 
ATOM     16  C   UNL d   1      -7.043   6.657  -1.449  0.00  0.00     0.001 A 
ATOM     17  C   UNL d   1      -6.074   5.649  -1.414  0.00  0.00     0.012 A 
ENDBRANCH   9  12
ENDBRANCH   2   6
BRANCH   1  18
ATOM     18  C   UNL d   1       0.637   2.650  -0.998  0.00  0.00     0.297 C 
ATOM     19  O   UNL d   1       0.262   3.761  -0.639  0.00  0.00    -0.259 OA
BRANCH  18  20
ATOM     20  O   UNL d   1       1.574   2.458  -1.984  0.00  0.00    -0.318 OA
BRANCH  20  21
ATOM     21  C   UNL d   1       2.040   3.660  -2.616  0.00  0.00     0.174 C 
ATOM     22  C   UNL d   1       3.078   4.352  -1.752  0.00  0.00     0.034 C 
ENDBRANCH  20  21
ENDBRANCH  18  20
ENDBRANCH   1  18
BRANCH   3  23
ATOM     23  N   UNL d   1       2.146   0.047  -0.586  0.00  0.00    -0.393 N 
ATOM     24  H   UNL d   1       2.605   0.648  -1.269  0.00  0.00     0.156 HD
ATOM     25  H   UNL d   1       2.500  -0.904  -0.577  0.00  0.00     0.156 HD
ENDBRANCH   3  23
TORSDOF 6
