REMARK  9 active torsions:
REMARK  status: ('A' for Active; 'I' for Inactive)
REMARK    1  A    between atoms: C_8  and  C_1 
REMARK    2  A    between atoms: O_10  and  C_2 
REMARK       I    between atoms: C_3  and  N_5 
REMARK    3  A    between atoms: C_6  and  C_3 
REMARK    4  A    between atoms: C_4  and  C_13 
REMARK    5  A    between atoms: N_5  and  C_7 
REMARK    6  A    between atoms: O_27  and  C_8 
REMARK    7  A    between atoms: C_12  and  C_9 
REMARK    8  A    between atoms: C_14  and  O_10 
REMARK    9  A    between atoms: O_26  and  C_12 
ROOT
ATOM      1  C   UNL d   1       1.944   3.496   0.708  0.00  0.00     0.070 A 
ATOM      2  C   UNL d   1       2.431   5.790   0.035  0.00  0.00     0.050 A 
ATOM      3  C   UNL d   1       2.531   3.035  -0.485  0.00  0.00     0.102 A 
ATOM      4  C   UNL d   1       1.889   4.875   0.958  0.00  0.00     0.048 A 
ATOM      5  C   UNL d   1       3.117   5.306  -1.086  0.00  0.00     0.019 A 
ATOM      6  C   UNL d   1       3.172   3.942  -1.339  0.00  0.00     0.040 A 
ENDROOT
BRANCH   1   7
ATOM      7  N   UNL d   1       1.630   2.583   1.746  0.00  0.00    -0.320 N 
ATOM      8  C   UNL d   1       0.355   2.450   2.283  0.00  0.00     0.257 C 
ATOM      9  O   UNL d   1      -0.671   2.955   1.844  0.00  0.00    -0.267 OA
ATOM     10  H   UNL d   1       2.340   2.599   2.481  0.00  0.00     0.169 HD
BRANCH   8  11
ATOM     11  C   UNL d   1       0.260   1.452   3.393  0.00  0.00     0.049 A 
ATOM     12  C   UNL d   1       0.942   1.533   4.619  0.00  0.00     0.053 A 
ATOM     13  C   UNL d   1       0.925   0.443   5.508  0.00  0.00     0.019 A 
ATOM     14  C   UNL d   1       0.198  -0.704   5.203  0.00  0.00     0.001 A 
ATOM     15  C   UNL d   1      -0.549  -0.756   4.029  0.00  0.00     0.001 A 
ATOM     16  C   UNL d   1      -0.526   0.318   3.131  0.00  0.00     0.018 A 
BRANCH  12  17
ATOM     17  C   UNL d   1       1.736   2.712   4.990  0.00  0.00     0.177 C 
ATOM     18  O   UNL d   1       2.517   3.235   4.214  0.00  0.00    -0.646 OA
BRANCH  17  19
ATOM     19  O   UNL d   1       1.543   3.128   6.248  0.00  0.00    -0.773 OA
ATOM     20  H   UNL d   1       0.823   2.685   6.747  0.00  0.00     0.167 HD
ENDBRANCH  17  19
ENDBRANCH  12  17
ENDBRANCH   8  11
ENDBRANCH   1   7
BRANCH   3  21
ATOM     21  O   UNL d   1       2.523   1.688  -0.791  0.00  0.00    -0.307 OA
BRANCH  21  22
ATOM     22  C   UNL d   1       2.489   1.278  -2.094  0.00  0.00     0.099 A 
ATOM     23  C   UNL d   1       3.338   0.297  -2.572  0.00  0.00     0.114 A 
ATOM     24  S   UNL d   1       3.018  -0.051  -4.226  0.00  0.00    -0.093 SA
ATOM     25  C   UNL d   1       1.851   1.191  -4.336  0.00  0.00     0.053 A 
ATOM     26  C   UNL d   1       1.636   1.801  -3.120  0.00  0.00     0.046 A 
BRANCH  23  27
ATOM     27  C   UNL d   1       4.449  -0.379  -1.937  0.00  0.00     0.302 C 
ATOM     28  O   UNL d   1       4.991  -1.409  -2.320  0.00  0.00    -0.259 OA
BRANCH  27  29
ATOM     29  O   UNL d   1       4.898   0.369  -0.887  0.00  0.00    -0.322 OA
ATOM     30  C   UNL d   1       6.160  -0.032  -0.360  0.00  0.00     0.213 C 
ENDBRANCH  27  29
ENDBRANCH  23  27
ENDBRANCH  21  22
ENDBRANCH   3  21
BRANCH   2  31
ATOM     31  C   UNL d   1       2.298   7.282   0.204  0.00  0.00     0.417 C 
ATOM     32  F   UNL d   1       1.564   7.659   1.284  0.00  0.00    -0.166 F 
ATOM     33  F   UNL d   1       3.504   7.903   0.328  0.00  0.00    -0.166 F 
ATOM     34  F   UNL d   1       1.699   7.860  -0.877  0.00  0.00    -0.166 F 
ENDBRANCH   2  31
TORSDOF 9
