REMARK  5 active torsions:
REMARK  status: ('A' for Active; 'I' for Inactive)
REMARK    1  A    between atoms: C_2  and  N_1 
REMARK    2  A    between atoms: N_10  and  C_3 
REMARK    3  A    between atoms: N_19  and  C_4 
REMARK       I    between atoms: C_5  and  N_11 
REMARK       I    between atoms: N_12  and  C_5 
REMARK    4  A    between atoms: N_11  and  N_10 
REMARK    5  A    between atoms: C_17  and  N_12 
ROOT
ATOM      1  N   UNL d   1       1.598  -0.401  -2.632  0.00  0.00    -0.184 NA
ATOM      2  H   UNL d   1       1.846  -0.293  -3.627  0.00  0.00     0.154 HD
ENDROOT
BRANCH   1   3
ATOM      3  C   UNL d   1       0.723   0.619  -2.174  0.00  0.00     0.136 A 
ATOM      4  C   UNL d   1      -0.268   1.157  -2.984  0.00  0.00     0.180 A 
ATOM      5  C   UNL d   1      -1.144   2.105  -2.479  0.00  0.00     0.117 A 
ATOM      6  N   UNL d   1      -1.041   2.477  -1.188  0.00  0.00    -0.341 N 
ATOM      7  C   UNL d   1      -0.087   1.894  -0.448  0.00  0.00     0.183 A 
ATOM      8  HN  UNL d   1      -1.666   3.177  -0.789  1.00  0.00     0.167 HD
ATOM      9  N   UNL d   1       0.794   0.979  -0.872  0.00  0.00    -0.340 N 
ATOM     10  HN  UNL d   1       1.487   0.573  -0.243  1.00  0.00     0.167 HD
BRANCH   4  11
ATOM     11  N   UNL d   1      -0.368   0.752  -4.347  0.00  0.00    -0.109 N 
ATOM     12  O   UNL d   1      -0.942  -0.322  -4.569  0.00  0.00    -0.532 OA
ATOM     13  O   UNL d   1       0.142   1.487  -5.202  0.00  0.00    -0.532 OA
ENDBRANCH   4  11
BRANCH   5  14
ATOM     14  N   UNL d   1      -2.090   2.752  -3.289  0.00  0.00    -0.281 NA
ATOM     15  C   UNL d   1      -2.937   3.733  -2.628  0.00  0.00     0.114 C 
ATOM     16  H   UNL d   1      -2.636   2.100  -3.849  0.00  0.00     0.128 HD
ENDBRANCH   5  14
ENDBRANCH   1   3
BRANCH   1  17
ATOM     17  N   UNL d   1       2.804  -0.443  -1.884  0.00  0.00    -0.267 N 
ATOM     18  C   UNL d   1       3.947  -0.655  -2.646  0.00  0.00     0.335 C 
ATOM     19  N   UNL d   1       5.065  -0.838  -1.865  0.00  0.00    -0.308 N 
ATOM     20  O   UNL d   1       3.893  -0.638  -3.871  0.00  0.00    -0.246 OA
ATOM     21  H   UNL d   1       4.965  -0.589  -0.893  0.00  0.00     0.170 HD
ATOM     22  H   UNL d   1       2.707  -0.868  -0.970  0.00  0.00     0.186 HD
BRANCH  19  23
ATOM     23  C   UNL d   1       6.357  -1.189  -2.309  0.00  0.00     0.038 A 
ATOM     24  C   UNL d   1       6.654  -1.555  -3.625  0.00  0.00     0.053 A 
ATOM     25  C   UNL d   1       7.955  -1.919  -3.975  0.00  0.00     0.036 A 
ATOM     26 CL   UNL d   1       8.309  -2.379  -5.597  0.00  0.00    -0.084 Cl
ATOM     27  C   UNL d   1       8.973  -1.923  -3.025  0.00  0.00     0.024 A 
ATOM     28  C   UNL d   1       8.687  -1.558  -1.712  0.00  0.00     0.004 A 
ATOM     29  C   UNL d   1       7.385  -1.194  -1.356  0.00  0.00     0.029 A 
ENDBRANCH  19  23
ENDBRANCH   1  17
TORSDOF 5
