REMARK  6 active torsions:
REMARK  status: ('A' for Active; 'I' for Inactive)
REMARK       I    between atoms: N_2  and  C_1 
REMARK       I    between atoms: N_6  and  C_1 
REMARK    1  A    between atoms: C_4  and  N_2 
REMARK    2  A    between atoms: N_3  and  C_5 
REMARK    3  A    between atoms: C_9  and  N_6 
REMARK    4  A    between atoms: O_10  and  C_11 
REMARK    5  A    between atoms: C_12  and  O_10 
REMARK    6  A    between atoms: C_19  and  C_12 
ROOT
ATOM      1  C   UNL d   1       0.881   0.203  -0.065  0.00  0.00     0.325 C 
ATOM      2  N   UNL d   1       0.195   0.395  -1.240  0.00  0.00    -0.307 N 
ATOM      3  N   UNL d   1       0.095   0.164   1.065  0.00  0.00    -0.309 N 
ATOM      4  O   UNL d   1       2.100   0.201   0.070  0.00  0.00    -0.247 OA
ATOM      5  H   UNL d   1      -0.584   1.021  -1.095  0.00  0.00     0.170 HD
ATOM      6  H   UNL d   1       0.641   0.347   1.901  0.00  0.00     0.170 HD
ENDROOT
BRANCH   2   7
ATOM      7  C   UNL d   1       0.836   0.510  -2.499  0.00  0.00     0.063 A 
ATOM      8  C   UNL d   1       1.697  -0.479  -3.045  0.00  0.00     0.057 A 
ATOM      9  C   UNL d   1       2.293  -0.168  -4.285  0.00  0.00     0.031 A 
ATOM     10  C   UNL d   1       2.058   1.041  -4.951  0.00  0.00     0.002 A 
ATOM     11  C   UNL d   1       1.195   1.978  -4.406  0.00  0.00     0.002 A 
ATOM     12  C   UNL d   1       0.568   1.704  -3.196  0.00  0.00     0.032 A 
BRANCH   8  13
ATOM     13  N   UNL d   1       1.962  -1.694  -2.421  0.00  0.00    -0.375 N 
ATOM     14  C   UNL d   1       3.181  -2.463  -2.719  0.00  0.00     0.149 C 
ATOM     15  C   UNL d   1       3.562  -3.296  -1.482  0.00  0.00     0.187 C 
ATOM     16  O   UNL d   1       2.483  -4.144  -1.046  0.00  0.00    -0.388 OA
ATOM     17  C   UNL d   1       1.321  -3.347  -0.744  0.00  0.00     0.187 C 
ATOM     18  C   UNL d   1       0.859  -2.564  -1.985  0.00  0.00     0.149 C 
ENDBRANCH   8  13
ENDBRANCH   2   7
BRANCH   3  19
ATOM     19  C   UNL d   1      -1.278  -0.091   1.234  0.00  0.00     0.036 A 
ATOM     20  C   UNL d   1      -2.063  -0.747   0.284  0.00  0.00     0.032 A 
ATOM     21  C   UNL d   1      -3.426  -0.959   0.508  0.00  0.00     0.039 A 
ATOM     22  C   UNL d   1      -4.026  -0.495   1.674  0.00  0.00     0.069 A 
ATOM     23  C   UNL d   1      -3.240   0.099   2.659  0.00  0.00     0.039 A 
ATOM     24  C   UNL d   1      -1.869   0.293   2.442  0.00  0.00     0.032 A 
BRANCH  22  25
ATOM     25  O   UNL d   1      -5.376  -0.691   1.760  0.00  0.00    -0.347 OA
BRANCH  25  26
ATOM     26  C   UNL d   1      -6.085   0.338   2.453  0.00  0.00     0.214 C 
BRANCH  26  27
ATOM     27  C   UNL d   1      -7.489   0.435   1.902  0.00  0.00    -0.034 A 
ATOM     28  C   UNL d   1      -8.366  -0.655   1.983  0.00  0.00     0.009 A 
ATOM     29  C   UNL d   1      -9.671  -0.551   1.496  0.00  0.00     0.001 A 
ATOM     30  C   UNL d   1     -10.111   0.641   0.921  0.00  0.00     0.000 A 
ATOM     31  C   UNL d   1      -9.244   1.726   0.826  0.00  0.00     0.001 A 
ATOM     32  C   UNL d   1      -7.942   1.627   1.313  0.00  0.00     0.009 A 
ENDBRANCH  26  27
ENDBRANCH  25  26
ENDBRANCH  22  25
ENDBRANCH   3  19
TORSDOF 6
