REMARK  1 active torsions:
REMARK  status: ('A' for Active; 'I' for Inactive)
REMARK    1  A    between atoms: C_7  and  C_1 
ROOT
ATOM      1  C   UNL d   1      -2.364   0.026   0.119  0.00  0.00     0.060 A 
ATOM      2  N   UNL d   1      -0.277  -0.434   0.622  0.00  0.00    -0.316 N 
ATOM      3  N   UNL d   1      -1.611   1.096  -0.312  0.00  0.00    -0.340 N 
ATOM      4  HN  UNL d   1      -1.949   1.946  -0.762  1.00  0.00     0.167 HD
ATOM      5  C   UNL d   1      -0.363   0.792  -0.022  0.00  0.00     0.111 A 
ATOM      6  C   UNL d   1      -1.551  -0.931   0.697  0.00  0.00     0.128 A 
ATOM      7  C   UNL d   1       0.918  -0.987   1.081  0.00  0.00     0.104 A 
ATOM      8  C   UNL d   1       0.857   1.488  -0.247  0.00  0.00     0.050 A 
ATOM      9  C   UNL d   1       2.072  -0.319   0.892  0.00  0.00    -0.046 A 
ATOM     10  C   UNL d   1       2.020   0.963   0.187  0.00  0.00     0.012 A 
ATOM     11  C   UNL d   1       3.404  -0.811   1.363  0.00  0.00     0.049 C 
ENDROOT
BRANCH   1  12
ATOM     12  C   UNL d   1      -3.816  -0.072  -0.006  0.00  0.00    -0.002 A 
ATOM     13  C   UNL d   1      -4.537   0.480  -1.084  0.00  0.00    -0.049 A 
ATOM     14  C   UNL d   1      -5.944   0.345  -1.111  0.00  0.00     0.014 A 
ATOM     15  C   UNL d   1      -3.915   1.238  -2.227  0.00  0.00     0.049 C 
ATOM     16  C   UNL d   1      -6.638  -0.355  -0.119  0.00  0.00    -0.061 A 
ATOM     17  C   UNL d   1      -5.919  -0.900   0.942  0.00  0.00     0.007 A 
ATOM     18  C   UNL d   1      -8.127  -0.500  -0.204  0.00  0.00     0.048 C 
ATOM     19  C   UNL d   1      -4.531  -0.755   0.998  0.00  0.00     0.015 A 
ENDBRANCH   1  12
TORSDOF 1
