REMARK  4 active torsions:
REMARK  status: ('A' for Active; 'I' for Inactive)
REMARK    1  A    between atoms: C_4  and  C_1 
REMARK    2  A    between atoms: N_2  and  C_3 
REMARK       I    between atoms: N_11  and  C_4 
REMARK    3  A    between atoms: N_6  and  N_11 
REMARK    4  A    between atoms: C_16  and  C_15 
ROOT
ATOM      1  C   UNL d   1       2.533  -0.169  -0.035  0.00  0.00     0.272 C 
ATOM      2  N   UNL d   1       3.083  -1.436  -0.147  0.00  0.00    -0.266 N 
ATOM      3  O   UNL d   1       3.200   0.861   0.071  0.00  0.00    -0.266 OA
ATOM      4  H   UNL d   1       2.514  -2.280  -0.203  0.00  0.00     0.190 HD
ENDROOT
BRANCH   1   5
ATOM      5  C   UNL d   1       1.046  -0.029   0.011  0.00  0.00     0.067 A 
ATOM      6  C   UNL d   1       0.105  -0.779  -0.701  0.00  0.00     0.118 A 
ATOM      7  C   UNL d   1      -1.273  -0.497  -0.631  0.00  0.00     0.037 A 
ATOM      8  C   UNL d   1      -1.725   0.557   0.161  0.00  0.00     0.009 A 
ATOM      9  C   UNL d   1      -0.812   1.338   0.875  0.00  0.00    -0.061 A 
ATOM     10  C   UNL d   1       0.559   1.042   0.791  0.00  0.00     0.026 A 
ATOM     11  C   UNL d   1      -1.303   2.489   1.706  0.00  0.00     0.048 C 
BRANCH   6  12
ATOM     12  N   UNL d   1       0.489  -1.862  -1.573  0.00  0.00    -0.115 N 
ATOM     13  O   UNL d   1       1.035  -2.841  -1.039  0.00  0.00    -0.532 OA
ATOM     14  O   UNL d   1       0.201  -1.762  -2.770  0.00  0.00    -0.532 OA
ENDBRANCH   6  12
ENDBRANCH   1   5
BRANCH   2  15
ATOM     15  N   UNL d   1       4.442  -1.562  -0.209  0.00  0.00    -0.308 N 
ATOM     16  C   UNL d   1       4.902  -2.764  -0.344  0.00  0.00     0.120 C 
ATOM     17  HN  UNL d   1       5.060  -0.752  -0.153  1.00  0.00     0.186 HD
BRANCH  16  18
ATOM     18  C   UNL d   1       6.350  -3.017  -0.443  0.00  0.00    -0.004 A 
ATOM     19  C   UNL d   1       6.816  -4.314  -0.600  0.00  0.00     0.100 A 
ATOM     20  N   UNL d   1       8.128  -4.632  -0.725  0.00  0.00    -0.374 N 
ATOM     21  C   UNL d   1       9.007  -3.605  -0.689  0.00  0.00     0.087 A 
ATOM     22  HN  UNL d   1       8.437  -5.598  -0.839  1.00  0.00     0.164 HD
ATOM     23  C   UNL d   1       8.637  -2.278  -0.528  0.00  0.00     0.018 A 
ATOM     24  C   UNL d   1       7.282  -1.980  -0.401  0.00  0.00     0.015 A 
ENDBRANCH  16  18
ENDBRANCH   2  15
TORSDOF 4
