REMARK  5 active torsions:
REMARK  status: ('A' for Active; 'I' for Inactive)
REMARK    1  A    between atoms: C_4  and  S_1 
REMARK    2  A    between atoms: N_10  and  S_1 
REMARK    3  A    between atoms: C_2  and  C_9 
REMARK       I    between atoms: C_3  and  N_8 
REMARK       I    between atoms: N_7  and  C_3 
REMARK    4  A    between atoms: C_19  and  N_7 
REMARK    5  A    between atoms: N_8  and  C_20 
ROOT
ATOM      1  C   UNL d   1       0.047  -6.293  -2.232  0.00  0.00     0.325 C 
ATOM      2  N   UNL d   1       1.161  -6.153  -1.417  0.00  0.00    -0.309 N 
ATOM      3  N   UNL d   1      -0.643  -5.096  -2.357  0.00  0.00    -0.309 N 
ATOM      4  O   UNL d   1      -0.287  -7.344  -2.763  0.00  0.00    -0.247 OA
ATOM      5  H   UNL d   1       1.180  -5.351  -0.806  0.00  0.00     0.170 HD
ATOM      6  H   UNL d   1      -0.224  -4.282  -1.937  0.00  0.00     0.170 HD
ENDROOT
BRANCH   3   7
ATOM      7  C   UNL d   1      -1.890  -4.906  -3.001  0.00  0.00     0.036 A 
ATOM      8  C   UNL d   1      -2.590  -5.929  -3.651  0.00  0.00     0.031 A 
ATOM      9  C   UNL d   1      -3.880  -5.717  -4.145  0.00  0.00     0.027 A 
ATOM     10  C   UNL d   1      -4.472  -4.464  -4.007  0.00  0.00     0.074 A 
ATOM     11  C   UNL d   1      -3.766  -3.410  -3.426  0.00  0.00     0.027 A 
ATOM     12  C   UNL d   1      -2.474  -3.633  -2.929  0.00  0.00     0.031 A 
BRANCH  10  13
ATOM     13  S   UNL d   1      -6.171  -4.273  -4.477  0.00  0.00     0.239 S 
ATOM     14  O   UNL d   1      -6.534  -2.882  -4.312  0.00  0.00    -0.206 OA
ATOM     15  O   UNL d   1      -6.924  -5.346  -3.881  0.00  0.00    -0.206 OA
BRANCH  13  16
ATOM     16  N   UNL d   1      -6.128  -4.518  -6.142  0.00  0.00    -0.225 NA
ATOM     17  H   UNL d   1      -5.211  -4.785  -6.493  0.00  0.00     0.136 HD
ATOM     18  H   UNL d   1      -6.483  -3.679  -6.603  0.00  0.00     0.136 HD
ENDBRANCH  13  16
ENDBRANCH  10  13
ENDBRANCH   3   7
BRANCH   2  19
ATOM     19  C   UNL d   1       2.152  -7.138  -1.194  0.00  0.00     0.036 A 
ATOM     20  C   UNL d   1       2.276  -8.291  -1.973  0.00  0.00     0.030 A 
ATOM     21  C   UNL d   1       3.296  -9.215  -1.731  0.00  0.00     0.018 A 
ATOM     22  C   UNL d   1       4.225  -9.001  -0.707  0.00  0.00     0.048 A 
ATOM     23  C   UNL d   1       4.098  -7.850   0.083  0.00  0.00     0.018 A 
ATOM     24  C   UNL d   1       3.073  -6.925  -0.161  0.00  0.00     0.030 A 
BRANCH  22  25
ATOM     25  C   UNL d   1       5.338  -9.996  -0.493  0.00  0.00     0.417 C 
ATOM     26  F   UNL d   1       6.202  -9.642   0.499  0.00  0.00    -0.166 F 
ATOM     27  F   UNL d   1       4.878 -11.235  -0.165  0.00  0.00    -0.166 F 
ATOM     28  F   UNL d   1       6.103 -10.165  -1.608  0.00  0.00    -0.166 F 
ENDBRANCH  22  25
ENDBRANCH   2  19
TORSDOF 5
