REMARK  2 active torsions:
REMARK  status: ('A' for Active; 'I' for Inactive)
REMARK    1  A    between atoms: C_3  and  N_1 
REMARK    2  A    between atoms: N_2  and  C_5 
ROOT
ATOM      1  C   UNL d   1       0.611   0.051  -1.415  0.00  0.00     0.103 A 
ATOM      2  C   UNL d   1      -1.023   0.639  -3.660  0.00  0.00     0.030 A 
ATOM      3  C   UNL d   1      -0.149   1.217  -1.433  0.00  0.00     0.038 A 
ATOM      4  C   UNL d   1       0.587  -0.818  -2.507  0.00  0.00     0.038 A 
ATOM      5  C   UNL d   1      -0.942   1.502  -2.551  0.00  0.00     0.032 A 
ATOM      6  C   UNL d   1      -0.221  -0.514  -3.612  0.00  0.00     0.032 A 
ENDROOT
BRANCH   2   7
ATOM      7  N   UNL d   1      -1.891   0.909  -4.716  0.00  0.00    -0.381 N 
ATOM      8  C   UNL d   1      -2.456  -0.178  -5.521  0.00  0.00     0.123 C 
ATOM      9  C   UNL d   1      -3.985  -0.229  -5.440  0.00  0.00     0.020 C 
ATOM     10  C   UNL d   1      -4.553   0.076  -4.052  0.00  0.00     0.002 C 
ATOM     11  C   UNL d   1      -5.134   1.485  -3.901  0.00  0.00     0.000 C 
ATOM     12  C   UNL d   1      -4.193   2.692  -3.989  0.00  0.00     0.002 C 
ATOM     13  C   UNL d   1      -3.385   2.847  -5.279  0.00  0.00     0.020 C 
ATOM     14  C   UNL d   1      -1.966   2.270  -5.253  0.00  0.00     0.123 C 
ENDBRANCH   2   7
BRANCH   1  15
ATOM     15  N   UNL d   1       1.439  -0.267  -0.245  0.00  0.00    -0.116 N 
ATOM     16  O   UNL d   1       1.430   0.533   0.701  0.00  0.00    -0.532 OA
ATOM     17  O   UNL d   1       2.097  -1.315  -0.273  0.00  0.00    -0.532 OA
ENDBRANCH   1  15
TORSDOF 2
