REMARK  3 active torsions:
REMARK  status: ('A' for Active; 'I' for Inactive)
REMARK    1  A    between atoms: N_4  and  C_1 
REMARK    2  A    between atoms: C_8  and  C_7 
REMARK    3  A    between atoms: O_12  and  C_11 
ROOT
ATOM      1  N   UNL d   1       0.238  -2.584  -0.661  0.00  0.00    -0.346 N 
ATOM      2  HN  UNL d   1      -0.480  -2.928  -1.298  1.00  0.00     0.167 HD
ATOM      3  C   UNL d   1       0.974  -3.381   0.049  0.00  0.00     0.104 C 
ENDROOT
BRANCH   3   4
ATOM      4  C   UNL d   1       0.810  -4.848  -0.035  0.00  0.00     0.012 A 
ATOM      5  C   UNL d   1      -0.119  -5.451  -0.891  0.00  0.00     0.077 A 
ATOM      6  C   UNL d   1      -0.234  -6.838  -0.939  0.00  0.00     0.037 A 
ATOM      7  C   UNL d   1       0.573  -7.631  -0.123  0.00  0.00     0.003 A 
ATOM      8  C   UNL d   1       1.499  -7.037   0.736  0.00  0.00     0.001 A 
ATOM      9  C   UNL d   1       1.622  -5.646   0.779  0.00  0.00     0.015 A 
BRANCH   5  10
ATOM     10  O   UNL d   1      -0.955  -4.742  -1.710  0.00  0.00    -0.360 OA
ATOM     11  H   UNL d   1      -0.783  -3.789  -1.550  0.00  0.00     0.217 HD
ENDBRANCH   5  10
ENDBRANCH   3   4
BRANCH   1  12
ATOM     12  C   UNL d   1       0.491  -1.259  -0.497  0.00  0.00     0.148 A 
ATOM     13  N   UNL d   1       1.364  -0.685   0.307  0.00  0.00    -0.346 N 
ATOM     14  C   UNL d   1       1.319   0.688   0.172  0.00  0.00     0.097 A 
ATOM     15  HN  UNL d   1       1.987  -1.186   0.941  1.00  0.00     0.167 HD
ATOM     16  C   UNL d   1       0.406   1.166  -0.739  0.00  0.00     0.070 A 
ATOM     17  S   UNL d   1      -0.431  -0.145  -1.451  0.00  0.00    -0.064 SA
ENDBRANCH   1  12
TORSDOF 3
