REMARK  1 active torsions:
REMARK  status: ('A' for Active; 'I' for Inactive)
REMARK    1  A    between atoms: C_8  and  N_5 
ROOT
ATOM      1  C   UNL d   1      -0.484  -0.993  -0.388  0.00  0.00     0.146 C 
ATOM      2  S   UNL d   1       1.263  -1.041  -0.665  0.00  0.00    -0.057 SA
ATOM      3  N   UNL d   1      -0.879   0.296  -0.150  0.00  0.00    -0.357 N 
ATOM      4  C   UNL d   1       1.424   0.669  -0.335  0.00  0.00     0.004 C 
ATOM      5  N   UNL d   1      -1.325  -1.979  -0.407  0.00  0.00    -0.336 N 
ATOM      6  HN  UNL d   1      -2.306  -1.785  -0.204  1.00  0.00     0.168 HD
ATOM      7  C   UNL d   1       0.071   1.368  -0.415  0.00  0.00     0.058 C 
ATOM      8  C   UNL d   1       2.601   1.181   0.052  0.00  0.00     0.029 C 
ATOM      9  C   UNL d   1      -0.128   2.476   0.622  0.00  0.00     0.044 C 
ATOM     10  C   UNL d   1      -0.161   1.920  -1.829  0.00  0.00     0.044 C 
ATOM     11  H   UNL d   1      -1.871   0.473  -0.236  0.00  0.00     0.162 HD
ENDROOT
BRANCH   5  12
ATOM     12  C   UNL d   1      -0.949  -3.303  -0.693  0.00  0.00     0.040 A 
ATOM     13  C   UNL d   1      -1.650  -4.033  -1.670  0.00  0.00    -0.035 A 
ATOM     14  C   UNL d   1      -1.264  -5.356  -1.963  0.00  0.00     0.015 A 
ATOM     15  C   UNL d   1      -2.866  -3.480  -2.361  0.00  0.00     0.050 C 
ATOM     16  C   UNL d   1      -0.192  -5.963  -1.302  0.00  0.00    -0.061 A 
ATOM     17  C   UNL d   1       0.454  -5.261  -0.287  0.00  0.00     0.009 A 
ATOM     18  C   UNL d   1       0.209  -7.367  -1.643  0.00  0.00     0.048 C 
ATOM     19  C   UNL d   1       0.060  -3.957   0.027  0.00  0.00     0.030 A 
ENDBRANCH   5  12
TORSDOF 1
