REMARK  3 active torsions:
REMARK  status: ('A' for Active; 'I' for Inactive)
REMARK    1  A    between atoms: C_8  and  N_1 
REMARK    2  A    between atoms: C_7  and  C_2 
REMARK    3  A    between atoms: O_11  and  C_7 
ROOT
ATOM      1  N   UNL d   1      -0.258  -1.123   0.107  0.00  0.00    -0.260 N 
ATOM      2  C   UNL d   1      -0.321   1.098  -0.092  0.00  0.00     0.085 C 
ATOM      3  N   UNL d   1       1.010  -0.700   0.345  0.00  0.00    -0.297 N 
ATOM      4  HN  UNL d   1       1.803  -1.263   0.651  1.00  0.00     0.187 HD
ATOM      5  C   UNL d   1      -1.118  -0.045  -0.055  0.00  0.00     0.049 C 
ATOM      6  C   UNL d   1       0.998   0.610   0.092  0.00  0.00     0.041 C 
ATOM      7  C   UNL d   1      -2.604  -0.147  -0.074  0.00  0.00     0.071 C 
ATOM      8  C   UNL d   1       2.288   1.345   0.044  0.00  0.00     0.071 C 
ENDROOT
BRANCH   1   9
ATOM      9  C   UNL d   1      -0.521  -2.523   0.063  0.00  0.00     0.056 A 
ATOM     10  C   UNL d   1       0.324  -3.394   0.768  0.00  0.00     0.031 A 
ATOM     11  C   UNL d   1       0.089  -4.771   0.755  0.00  0.00     0.002 A 
ATOM     12  C   UNL d   1      -0.966  -5.290   0.010  0.00  0.00     0.000 A 
ATOM     13  C   UNL d   1      -1.787  -4.436  -0.724  0.00  0.00     0.002 A 
ATOM     14  C   UNL d   1      -1.570  -3.054  -0.697  0.00  0.00     0.031 A 
ENDBRANCH   1   9
BRANCH   2  15
ATOM     15  C   UNL d   1      -0.788   2.460  -0.283  0.00  0.00     0.180 C 
ATOM     16  O   UNL d   1      -1.764   2.754  -0.960  0.00  0.00    -0.646 OA
BRANCH  15  17
ATOM     17  O   UNL d   1      -0.081   3.405   0.387  0.00  0.00    -0.773 OA
ATOM     18  H   UNL d   1       0.533   3.022   1.038  0.00  0.00     0.167 HD
ENDBRANCH  15  17
ENDBRANCH   2  15
TORSDOF 3
