REMARK  4 active torsions:
REMARK  status: ('A' for Active; 'I' for Inactive)
REMARK    1  A    between atoms: C_3  and  C_1 
REMARK    2  A    between atoms: C_4  and  C_2 
REMARK    3  A    between atoms: O_8  and  C_3 
REMARK    4  A    between atoms: O_7  and  C_4 
ROOT
ATOM      1  C   UNL d   1       1.274  -0.097   0.233  0.00  0.00     0.098 C 
ATOM      2  C   UNL d   1       0.353  -1.256  -0.166  0.00  0.00     0.098 C 
ATOM      3  C   UNL d   1       0.509   1.134  -0.237  0.00  0.00     0.016 C 
ATOM      4  C   UNL d   1      -1.067  -0.699  -0.012  0.00  0.00     0.016 C 
ATOM      5  C   UNL d   1      -0.929   0.816   0.136  0.00  0.00     0.002 C 
ENDROOT
BRANCH   1   6
ATOM      6  C   UNL d   1       2.626  -0.242  -0.427  0.00  0.00     0.144 C 
ATOM      7  O   UNL d   1       2.931   0.257  -1.499  0.00  0.00    -0.650 OA
BRANCH   6   8
ATOM      8  O   UNL d   1       3.472  -1.034   0.270  0.00  0.00    -0.776 OA
ATOM      9  H   UNL d   1       3.071  -1.461   1.064  0.00  0.00     0.167 HD
ENDBRANCH   6   8
ENDBRANCH   1   6
BRANCH   2  10
ATOM     10  C   UNL d   1       0.610  -2.457   0.710  0.00  0.00     0.144 C 
ATOM     11  O   UNL d   1       1.520  -2.506   1.531  0.00  0.00    -0.650 OA
BRANCH  10  12
ATOM     12  O   UNL d   1      -0.200  -3.501   0.456  0.00  0.00    -0.776 OA
ATOM     13  H   UNL d   1      -0.834  -3.357  -0.274  0.00  0.00     0.167 HD
ENDBRANCH  10  12
ENDBRANCH   2  10
TORSDOF 4
