REMARK  3 active torsions:
REMARK  status: ('A' for Active; 'I' for Inactive)
REMARK    1  A    between atoms: C_16  and  N_3 
REMARK    2  A    between atoms: C_19  and  C_10 
REMARK    3  A    between atoms: C_20  and  C_15 
ROOT
ATOM      1  C   UNL d   1      -1.269   0.889   0.110  0.00  0.00     0.103 A 
ATOM      2  C   UNL d   1      -0.817  -0.396   0.240  0.00  0.00     0.073 A 
ATOM      3  N   UNL d   1      -3.541   0.142   0.116  0.00  0.00    -0.229 N 
ATOM      4  C   UNL d   1      -2.671   1.252   0.082  0.00  0.00     0.275 C 
ATOM      5  C   UNL d   1       0.614  -0.526   0.096  0.00  0.00     0.041 A 
ATOM      6  C   UNL d   1      -3.107  -1.175   0.329  0.00  0.00     0.334 C 
ATOM      7  N   UNL d   1      -1.756  -1.383   0.436  0.00  0.00    -0.306 N 
ATOM      8  S   UNL d   1      -0.001   2.001  -0.025  0.00  0.00    -0.062 SA
ATOM      9  C   UNL d   1       1.158   0.750  -0.005  0.00  0.00     0.103 A 
ATOM     10  C   UNL d   1       1.534  -1.619   0.011  0.00  0.00     0.018 A 
ATOM     11  N   UNL d   1       3.315   0.028  -0.164  0.00  0.00    -0.298 N 
ATOM     12  HN  UNL d   1       4.314   0.226  -0.227  1.00  0.00     0.187 HD
ATOM     13  N   UNL d   1       2.465   1.034  -0.110  0.00  0.00    -0.292 N 
ATOM     14  HN  UNL d   1       2.791   2.000  -0.147  1.00  0.00     0.187 HD
ATOM     15  C   UNL d   1       2.901  -1.268  -0.138  0.00  0.00     0.070 A 
ATOM     16  O   UNL d   1      -3.049   2.421  -0.009  0.00  0.00    -0.266 OA
ATOM     17  O   UNL d   1      -3.839  -2.159   0.455  0.00  0.00    -0.246 OA
ATOM     18  H   UNL d   1      -1.475  -2.335   0.637  0.00  0.00     0.171 HD
ENDROOT
BRANCH   3  19
ATOM     19  C   UNL d   1      -4.950   0.353  -0.015  0.00  0.00     0.047 A 
ATOM     20  C   UNL d   1      -5.708  -0.417  -0.916  0.00  0.00     0.032 A 
ATOM     21  C   UNL d   1      -7.088  -0.225  -1.035  0.00  0.00     0.026 A 
ATOM     22  C   UNL d   1      -7.725   0.717  -0.231  0.00  0.00     0.034 A 
ATOM     23  C   UNL d   1      -6.987   1.481   0.677  0.00  0.00     0.026 A 
ATOM     24 CL   UNL d   1      -9.425   0.940  -0.357  0.00  0.00    -0.084 Cl
ATOM     25  C   UNL d   1      -5.607   1.310   0.772  0.00  0.00     0.032 A 
ENDBRANCH   3  19
BRANCH  10  26
ATOM     26  C   UNL d   1       1.024  -3.008   0.043  0.00  0.00    -0.023 A 
ATOM     27  C   UNL d   1       0.020  -3.432  -0.849  0.00  0.00     0.012 A 
ATOM     28  C   UNL d   1      -0.502  -4.727  -0.801  0.00  0.00     0.001 A 
ATOM     29  C   UNL d   1       0.045  -5.661   0.071  0.00  0.00     0.000 A 
ATOM     30  C   UNL d   1       1.088  -5.290   0.914  0.00  0.00     0.001 A 
ATOM     31  C   UNL d   1       1.545  -3.968   0.929  0.00  0.00     0.012 A 
ENDBRANCH  10  26
BRANCH  15  32
ATOM     32  C   UNL d   1       4.025  -2.232  -0.285  0.00  0.00    -0.007 A 
ATOM     33  C   UNL d   1       3.924  -3.407  -1.052  0.00  0.00     0.014 A 
ATOM     34  C   UNL d   1       4.954  -4.354  -1.089  0.00  0.00     0.001 A 
ATOM     35  C   UNL d   1       6.144  -4.113  -0.414  0.00  0.00     0.000 A 
ATOM     36  C   UNL d   1       6.308  -2.923   0.287  0.00  0.00     0.001 A 
ATOM     37  C   UNL d   1       5.261  -1.997   0.355  0.00  0.00     0.014 A 
ENDBRANCH  15  32
TORSDOF 3
