REMARK  5 active torsions:
REMARK  status: ('A' for Active; 'I' for Inactive)
REMARK       I    between atoms: N_4  and  C_1 
REMARK       I    between atoms: N_5  and  C_1 
REMARK    1  A    between atoms: C_2  and  O_7 
REMARK    2  A    between atoms: N_3  and  C_6 
REMARK    3  A    between atoms: C_15  and  N_4 
REMARK    4  A    between atoms: C_14  and  N_5 
REMARK    5  A    between atoms: O_7  and  C_16 
ROOT
ATOM      1  C   UNL d   1       1.060   0.653   2.111  0.00  0.00     0.325 C 
ATOM      2  N   UNL d   1       2.347   0.802   1.623  0.00  0.00    -0.309 N 
ATOM      3  N   UNL d   1       0.207   0.128   1.153  0.00  0.00    -0.309 N 
ATOM      4  O   UNL d   1       0.707   0.967   3.238  0.00  0.00    -0.247 OA
ATOM      5  H   UNL d   1       2.444   0.762   0.620  0.00  0.00     0.170 HD
ATOM      6  H   UNL d   1       0.623  -0.483   0.469  0.00  0.00     0.170 HD
ENDROOT
BRANCH   2   7
ATOM      7  C   UNL d   1       3.428   1.360   2.346  0.00  0.00     0.036 A 
ATOM      8  C   UNL d   1       3.429   1.524   3.735  0.00  0.00     0.032 A 
ATOM      9  C   UNL d   1       4.483   2.170   4.390  0.00  0.00     0.039 A 
ATOM     10  C   UNL d   1       5.546   2.682   3.658  0.00  0.00     0.078 A 
ATOM     11  C   UNL d   1       5.596   2.443   2.282  0.00  0.00     0.039 A 
ATOM     12  C   UNL d   1       4.548   1.788   1.627  0.00  0.00     0.032 A 
BRANCH  10  13
ATOM     13  O   UNL d   1       6.601   3.376   4.164  0.00  0.00    -0.255 OA
BRANCH  13  14
ATOM     14  C   UNL d   1       6.396   4.207   5.301  0.00  0.00     0.530 C 
ATOM     15  F   UNL d   1       5.099   4.418   5.612  0.00  0.00    -0.144 F 
ATOM     16  F   UNL d   1       7.020   3.667   6.370  0.00  0.00    -0.144 F 
ATOM     17  F   UNL d   1       6.957   5.413   5.053  0.00  0.00    -0.144 F 
ENDBRANCH  13  14
ENDBRANCH  10  13
ENDBRANCH   2   7
BRANCH   3  18
ATOM     18  C   UNL d   1      -1.201   0.094   1.274  0.00  0.00     0.036 A 
ATOM     19  C   UNL d   1      -1.905   0.928   2.142  0.00  0.00     0.032 A 
ATOM     20  C   UNL d   1      -3.298   0.847   2.247  0.00  0.00     0.031 A 
ATOM     21  C   UNL d   1      -4.045  -0.057   1.487  0.00  0.00     0.030 A 
ATOM     22  C   UNL d   1      -3.323  -0.865   0.594  0.00  0.00     0.031 A 
ATOM     23  C   UNL d   1      -1.924  -0.790   0.477  0.00  0.00     0.032 A 
BRANCH  21  24
ATOM     24  N   UNL d   1      -5.412  -0.193   1.637  0.00  0.00    -0.381 N 
ATOM     25  C   UNL d   1      -6.099   0.205   2.868  0.00  0.00     0.123 C 
ATOM     26  C   UNL d   1      -7.106  -0.886   3.236  0.00  0.00     0.020 C 
ATOM     27  C   UNL d   1      -8.053  -1.197   2.078  0.00  0.00     0.003 C 
ATOM     28  C   UNL d   1      -7.283  -1.489   0.788  0.00  0.00     0.020 C 
ATOM     29  C   UNL d   1      -6.283  -0.377   0.475  0.00  0.00     0.123 C 
ENDBRANCH  21  24
ENDBRANCH   3  18
TORSDOF 5
