REMARK  4 active torsions:
REMARK  status: ('A' for Active; 'I' for Inactive)
REMARK    1  A    between atoms: C_7  and  N_1 
REMARK    2  A    between atoms: C_5  and  C_11 
REMARK    3  A    between atoms: C_8  and  C_7 
REMARK       I    between atoms: N_13  and  C_8 
REMARK    4  A    between atoms: C_20  and  N_13 
ROOT
ATOM      1  C   UNL d   1       3.672  -2.386   0.387  0.00  0.00     0.240 C 
ATOM      2  N   UNL d   1       4.287  -1.152   0.520  0.00  0.00    -0.326 N 
ATOM      3  O   UNL d   1       4.236  -3.478   0.430  0.00  0.00    -0.271 OA
ATOM      4  H   UNL d   1       3.678  -0.370   0.752  0.00  0.00     0.169 HD
ENDROOT
BRANCH   1   5
ATOM      5  C   UNL d   1       2.176  -2.300   0.072  0.00  0.00     0.239 C 
BRANCH   5   6
ATOM      6  N   UNL d   1       1.306  -1.901   1.144  0.00  0.00    -0.268 N 
ATOM      7  C   UNL d   1       0.195  -2.591   1.570  0.00  0.00     0.374 A 
ATOM      8  O   UNL d   1      -0.567  -1.828   2.468  0.00  0.00    -0.257 OA
ATOM      9  O   UNL d   1      -0.141  -3.711   1.213  0.00  0.00    -0.237 OA
ATOM     10  C   UNL d   1       0.149  -0.652   2.515  0.00  0.00     0.125 A 
ATOM     11  C   UNL d   1       1.283  -0.669   1.737  0.00  0.00     0.146 A 
ATOM     12  C   UNL d   1      -0.179   0.477   3.227  0.00  0.00     0.043 A 
ATOM     13  N   UNL d   1       2.159   0.336   1.598  0.00  0.00    -0.350 N 
ATOM     14  C   UNL d   1       1.849   1.432   2.339  0.00  0.00     0.090 A 
ATOM     15  HN  UNL d   1       2.979   0.283   0.995  1.00  0.00     0.166 HD
ATOM     16  C   UNL d   1       0.708   1.551   3.143  0.00  0.00     0.020 A 
ENDBRANCH   5   6
ENDBRANCH   1   5
BRANCH   2  17
ATOM     17  C   UNL d   1       5.669  -0.884   0.413  0.00  0.00     0.034 A 
ATOM     18  C   UNL d   1       6.601  -1.826  -0.028  0.00  0.00     0.030 A 
ATOM     19  C   UNL d   1       7.943  -1.471  -0.213  0.00  0.00     0.018 A 
ATOM     20  C   UNL d   1       8.379  -0.166   0.041  0.00  0.00     0.048 A 
ATOM     21  C   UNL d   1       7.449   0.770   0.516  0.00  0.00     0.018 A 
ATOM     22  C   UNL d   1       6.105   0.414   0.693  0.00  0.00     0.030 A 
BRANCH  20  23
ATOM     23  C   UNL d   1       9.812   0.237  -0.210  0.00  0.00     0.417 C 
ATOM     24  F   UNL d   1      10.569  -0.751  -0.764  0.00  0.00    -0.166 F 
ATOM     25  F   UNL d   1       9.909   1.298  -1.059  0.00  0.00    -0.166 F 
ATOM     26  F   UNL d   1      10.459   0.611   0.928  0.00  0.00    -0.166 F 
ENDBRANCH  20  23
ENDBRANCH   2  17
TORSDOF 4
