REMARK  6 active torsions:
REMARK  status: ('A' for Active; 'I' for Inactive)
REMARK    1  A    between atoms: N_2  and  S_1 
REMARK    2  A    between atoms: C_6  and  S_1 
REMARK       I    between atoms: C_4  and  N_2 
REMARK    3  A    between atoms: C_3  and  C_7 
REMARK       I    between atoms: N_11  and  C_4 
REMARK    4  A    between atoms: S_8  and  C_5 
REMARK    5  A    between atoms: C_7  and  N_11 
REMARK    6  A    between atoms: C_16  and  S_8 
ROOT
ATOM      1  C   UNL d   1       2.096  -0.042  -2.843  0.00  0.00     0.165 C 
ENDROOT
BRANCH   1   2
ATOM      2  C   UNL d   1       2.949   0.769  -3.813  0.00  0.00    -0.002 A 
ATOM      3  C   UNL d   1       3.735   1.850  -3.319  0.00  0.00     0.015 A 
ATOM      4  C   UNL d   1       4.455   2.680  -4.200  0.00  0.00     0.019 A 
ATOM      5  C   UNL d   1       4.411   2.479  -5.572  0.00  0.00     0.003 A 
ATOM      6  C   UNL d   1       3.651   1.436  -6.077  0.00  0.00     0.024 A 
ATOM      7  C   UNL d   1       2.922   0.597  -5.219  0.00  0.00     0.043 A 
ATOM      8 CL   UNL d   1       2.027  -0.625  -6.051  0.00  0.00    -0.084 Cl
BRANCH   3   9
ATOM      9  S   UNL d   1       4.014   2.163  -1.575  0.00  0.00    -0.090 SA
BRANCH   9  10
ATOM     10  C   UNL d   1       2.901   3.473  -1.095  0.00  0.00     0.005 A 
ATOM     11  C   UNL d   1       2.924   3.832   0.264  0.00  0.00     0.020 A 
ATOM     12  C   UNL d   1       2.084   4.831   0.764  0.00  0.00     0.025 A 
ATOM     13  C   UNL d   1       1.212   5.487  -0.097  0.00  0.00     0.034 A 
ATOM     14  C   UNL d   1       1.181   5.154  -1.449  0.00  0.00     0.025 A 
ATOM     15 CL   UNL d   1       0.166   6.709   0.514  0.00  0.00    -0.084 Cl
ATOM     16  C   UNL d   1       2.025   4.150  -1.948  0.00  0.00     0.020 A 
ENDBRANCH   9  10
ENDBRANCH   3   9
ENDBRANCH   1   2
BRANCH   1  17
ATOM     17  N   UNL d   1       1.947  -1.450  -3.132  0.00  0.00    -0.343 N 
ATOM     18  C   UNL d   1       0.773  -1.976  -3.573  0.00  0.00     0.308 C 
ATOM     19  N   UNL d   1       0.841  -3.308  -3.998  0.00  0.00    -0.131 NA
ATOM     20  O   UNL d   1      -0.252  -1.345  -3.762  0.00  0.00    -0.253 OA
ATOM     21  H   UNL d   1       0.009  -3.509  -4.555  0.00  0.00     0.150 HD
ATOM     22  H   UNL d   1       2.730  -2.070  -2.993  0.00  0.00     0.164 HD
BRANCH  19  23
ATOM     23  S   UNL d   1       0.947  -4.557  -2.887  0.00  0.00     0.249 S 
ATOM     24  O   UNL d   1      -0.219  -5.380  -3.112  0.00  0.00    -0.205 OA
ATOM     25  O   UNL d   1       1.270  -4.006  -1.589  0.00  0.00    -0.205 OA
BRANCH  23  26
ATOM     26  C   UNL d   1       2.353  -5.510  -3.396  0.00  0.00     0.075 A 
ATOM     27  C   UNL d   1       3.131  -5.178  -4.506  0.00  0.00     0.025 A 
ATOM     28  C   UNL d   1       4.266  -5.947  -4.798  0.00  0.00     0.008 A 
ATOM     29  C   UNL d   1       4.622  -7.038  -3.990  0.00  0.00    -0.062 A 
ATOM     30  C   UNL d   1       3.818  -7.369  -2.894  0.00  0.00     0.008 A 
ATOM     31  C   UNL d   1       5.870  -7.821  -4.281  0.00  0.00     0.048 C 
ATOM     32  C   UNL d   1       2.686  -6.610  -2.598  0.00  0.00     0.025 A 
ENDBRANCH  23  26
ENDBRANCH  19  23
ENDBRANCH   1  17
TORSDOF 6
