REMARK  0 active torsions:
REMARK  status: ('A' for Active; 'I' for Inactive)
ROOT
ATOM      1  S   UNL d   1       2.314   1.410  -0.200  0.00  0.00     0.011 SA
ATOM      2  N   UNL d   1       3.041  -0.017   0.170  0.00  0.00    -0.281 N 
ATOM      3  O   UNL d   1       2.942   2.639   0.655  0.00  0.00    -0.234 OA
ATOM      4  C   UNL d   1       2.295  -1.192   0.164  0.00  0.00     0.265 C 
ATOM      5  C   UNL d   1       2.827   2.012  -1.712  0.00  0.00     0.046 A 
ATOM      6  C   UNL d   1       0.619   1.346   0.013  0.00  0.00     0.042 A 
ATOM      7  C   UNL d   1       3.495   3.656  -0.082  0.00  0.00     0.306 A 
ATOM      8  C   UNL d   1       3.463   3.228  -1.505  0.00  0.00     0.059 A 
ATOM      9  C   UNL d   1       0.793  -1.137   0.084  0.00  0.00     0.045 A 
ATOM     10  C   UNL d   1       0.045   0.069   0.064  0.00  0.00     0.009 A 
ATOM     11  O   UNL d   1       2.840  -2.296   0.214  0.00  0.00    -0.267 OA
ATOM     12  O   UNL d   1       3.929   4.709   0.343  0.00  0.00    -0.258 OA
ATOM     13  C   UNL d   1       4.484  -0.116   0.107  0.00  0.00     0.169 C 
ATOM     14  C   UNL d   1      -1.370   0.007   0.082  0.00  0.00    -0.024 A 
ATOM     15  C   UNL d   1      -0.121   2.526   0.070  0.00  0.00     0.022 A 
ATOM     16  C   UNL d   1       0.118  -2.369   0.059  0.00  0.00     0.018 A 
ATOM     17  C   UNL d   1       2.728   1.393  -2.936  0.00  0.00     0.022 A 
ATOM     18  C   UNL d   1       4.033   3.894  -2.575  0.00  0.00     0.019 A 
ATOM     19  C   UNL d   1      -1.507   2.444   0.129  0.00  0.00     0.002 A 
ATOM     20  C   UNL d   1      -1.273  -2.420   0.035  0.00  0.00     0.002 A 
ATOM     21  C   UNL d   1      -2.010  -1.239   0.059  0.00  0.00     0.012 A 
ATOM     22  C   UNL d   1      -2.125   1.194   0.118  0.00  0.00     0.012 A 
ATOM     23  C   UNL d   1       3.956   3.294  -3.840  0.00  0.00     0.001 A 
ATOM     24  C   UNL d   1       3.308   2.053  -4.017  0.00  0.00     0.002 A 
ENDROOT
TORSDOF 0
