REMARK  4 active torsions:
REMARK  status: ('A' for Active; 'I' for Inactive)
REMARK    1  A    between atoms: C_4  and  C_1 
REMARK    2  A    between atoms: C_7  and  C_1 
REMARK    3  A    between atoms: O_9  and  N_2 
REMARK    4  A    between atoms: O_12  and  C_8 
ROOT
ATOM      1  C   UNL d   1       0.199   1.169   0.458  0.00  0.00    -0.011 A 
ATOM      2  C   UNL d   1       0.563   2.520   0.421  0.00  0.00     0.016 A 
ATOM      3  C   UNL d   1      -0.945   0.789   1.165  0.00  0.00     0.016 A 
ATOM      4  C   UNL d   1      -1.369   3.098   1.769  0.00  0.00     0.068 A 
ATOM      5  C   UNL d   1      -1.730   1.751   1.808  0.00  0.00     0.037 A 
ATOM      6  C   UNL d   1      -0.224   3.481   1.070  0.00  0.00     0.037 A 
ENDROOT
BRANCH   1   7
ATOM      7  C   UNL d   1       1.016   0.104  -0.211  0.00  0.00     0.045 C 
ATOM      8  N   UNL d   1       1.081  -1.048   0.398  0.00  0.00    -0.272 N 
ATOM      9  HN  UNL d   1       0.617  -1.240   1.285  1.00  0.00     0.194 HD
BRANCH   8  10
ATOM     10  O   UNL d   1       1.847  -1.990  -0.284  0.00  0.00    -0.290 OA
ATOM     11  H   UNL d   1       1.794  -2.768   0.303  0.00  0.00     0.244 HD
ENDBRANCH   8  10
BRANCH   7  12
ATOM     12  C   UNL d   1       1.675   0.445  -1.561  0.00  0.00     0.030 C 
ATOM     13  C   UNL d   1       3.198   0.336  -1.502  0.00  0.00     0.016 C 
ATOM     14  C   UNL d   1       1.077  -0.370  -2.707  0.00  0.00     0.016 C 
ENDBRANCH   7  12
ENDBRANCH   1   7
BRANCH   4  15
ATOM     15  O   UNL d   1      -2.223   3.942   2.422  0.00  0.00    -0.356 OA
ATOM     16  C   UNL d   1      -1.674   5.181   2.853  0.00  0.00     0.210 C 
ENDBRANCH   4  15
TORSDOF 4
