REMARK  7 active torsions:
REMARK  status: ('A' for Active; 'I' for Inactive)
REMARK       I    between atoms: N_2  and  C_1 
REMARK       I    between atoms: N_5  and  C_1 
REMARK    1  A    between atoms: C_3  and  N_2 
REMARK    2  A    between atoms: O_6  and  C_4 
REMARK    3  A    between atoms: C_8  and  N_5 
REMARK    4  A    between atoms: C_11  and  O_6 
REMARK    5  A    between atoms: O_9  and  C_10 
REMARK    6  A    between atoms: C_12  and  O_9 
REMARK    7  A    between atoms: C_17  and  C_12 
ROOT
ATOM      1  C   UNL d   1       0.850  -0.001  -0.544  0.00  0.00     0.303 C 
ATOM      2  N   UNL d   1       0.224  -1.206  -0.768  0.00  0.00    -0.208 NA
ATOM      3  N   UNL d   1      -0.003   1.064  -0.330  0.00  0.00    -0.313 N 
ATOM      4  O   UNL d   1       2.054   0.205  -0.668  0.00  0.00    -0.253 OA
ATOM      5  H   UNL d   1      -0.645  -1.020  -1.249  0.00  0.00     0.138 HD
ATOM      6  H   UNL d   1       0.460   1.951  -0.488  0.00  0.00     0.170 HD
ENDROOT
BRANCH   2   7
ATOM      7  C   UNL d   1       0.919  -2.318  -1.294  0.00  0.00     0.050 A 
ATOM      8  C   UNL d   1       1.754  -3.149  -0.526  0.00  0.00     0.097 A 
ATOM      9  C   UNL d   1       2.208  -4.351  -1.102  0.00  0.00     0.039 A 
ATOM     10  C   UNL d   1       1.937  -4.661  -2.436  0.00  0.00     0.003 A 
ATOM     11  C   UNL d   1       1.165  -3.800  -3.206  0.00  0.00     0.002 A 
ATOM     12  C   UNL d   1       0.632  -2.652  -2.626  0.00  0.00     0.027 A 
BRANCH   8  13
ATOM     13  O   UNL d   1       2.004  -2.815   0.794  0.00  0.00    -0.309 OA
BRANCH  13  14
ATOM     14  C   UNL d   1       3.106  -3.368   1.417  0.00  0.00     0.076 A 
ATOM     15  C   UNL d   1       4.383  -3.352   0.843  0.00  0.00     0.037 A 
ATOM     16  C   UNL d   1       5.445  -3.996   1.481  0.00  0.00     0.003 A 
ATOM     17  C   UNL d   1       5.248  -4.606   2.719  0.00  0.00     0.000 A 
ATOM     18  C   UNL d   1       3.991  -4.563   3.326  0.00  0.00     0.003 A 
ATOM     19  C   UNL d   1       2.920  -3.943   2.676  0.00  0.00     0.037 A 
ENDBRANCH  13  14
ENDBRANCH   8  13
ENDBRANCH   2   7
BRANCH   3  20
ATOM     20  C   UNL d   1      -1.371   1.101   0.015  0.00  0.00     0.036 A 
ATOM     21  C   UNL d   1      -2.034   0.033   0.621  0.00  0.00     0.032 A 
ATOM     22  C   UNL d   1      -3.404   0.107   0.900  0.00  0.00     0.039 A 
ATOM     23  C   UNL d   1      -4.129   1.257   0.584  0.00  0.00     0.069 A 
ATOM     24  C   UNL d   1      -3.457   2.354   0.047  0.00  0.00     0.039 A 
ATOM     25  C   UNL d   1      -2.082   2.278  -0.233  0.00  0.00     0.032 A 
BRANCH  23  26
ATOM     26  O   UNL d   1      -5.472   1.421   0.801  0.00  0.00    -0.347 OA
BRANCH  26  27
ATOM     27  C   UNL d   1      -6.250   0.220   0.739  0.00  0.00     0.214 C 
BRANCH  27  28
ATOM     28  C   UNL d   1      -7.724   0.508   0.914  0.00  0.00    -0.034 A 
ATOM     29  C   UNL d   1      -8.675  -0.289   0.257  0.00  0.00     0.009 A 
ATOM     30  C   UNL d   1     -10.040  -0.097   0.478  0.00  0.00     0.001 A 
ATOM     31  C   UNL d   1     -10.472   0.890   1.362  0.00  0.00     0.000 A 
ATOM     32  C   UNL d   1      -9.539   1.685   2.024  0.00  0.00     0.001 A 
ATOM     33  C   UNL d   1      -8.173   1.492   1.807  0.00  0.00     0.009 A 
ENDBRANCH  27  28
ENDBRANCH  26  27
ENDBRANCH  23  26
ENDBRANCH   3  20
TORSDOF 7
