REMARK  1 active torsions:
REMARK  status: ('A' for Active; 'I' for Inactive)
REMARK    1  A    between atoms: S_4  and  N_3 
ROOT
ATOM      1  N   UNL d   1      -2.787  -1.968  -1.274  0.00  0.00    -0.322 N 
ATOM      2  C   UNL d   1      -3.051  -1.199  -0.093  0.00  0.00     0.235 A 
ATOM      3  N   UNL d   1      -4.292  -1.670   0.500  0.00  0.00    -0.284 N 
ATOM      4  C   UNL d   1      -1.456  -2.307  -1.394  0.00  0.00     0.256 A 
ATOM      5  C   UNL d   1      -1.728  -1.141   0.595  0.00  0.00     0.000 A 
ATOM      6  C   UNL d   1      -0.781  -1.810  -0.187  0.00  0.00     0.042 A 
ATOM      7  O   UNL d   1      -0.907  -2.853  -2.333  0.00  0.00    -0.267 OA
ATOM      8  C   UNL d   1      -3.744  -1.883  -2.346  0.00  0.00     0.130 C 
ATOM      9  C   UNL d   1      -5.427  -1.510  -0.453  0.00  0.00     0.139 C 
ATOM     10  C   UNL d   1      -5.144  -2.166  -1.816  0.00  0.00     0.041 C 
ATOM     11  C   UNL d   1      -1.317  -0.371   1.670  0.00  0.00     0.012 A 
ATOM     12  C   UNL d   1       0.575  -1.783   0.089  0.00  0.00     0.018 A 
ATOM     13  C   UNL d   1       0.055  -0.301   1.950  0.00  0.00     0.001 A 
ATOM     14  C   UNL d   1       0.991  -1.011   1.172  0.00  0.00     0.001 A 
ENDROOT
BRANCH   3  15
ATOM     15  S   UNL d   1      -4.361  -2.931   1.605  0.00  0.00     0.226 S 
ATOM     16  O   UNL d   1      -3.110  -3.015   2.326  0.00  0.00    -0.206 OA
ATOM     17  O   UNL d   1      -5.608  -2.790   2.319  0.00  0.00    -0.206 OA
ATOM     18  C   UNL d   1      -4.518  -4.404   0.604  0.00  0.00     0.186 C 
ENDBRANCH   3  15
TORSDOF 1
