REMARK  8 active torsions:
REMARK  status: ('A' for Active; 'I' for Inactive)
REMARK    1  A    between atoms: C_2  and  S_1 
REMARK    2  A    between atoms: N_9  and  S_1 
REMARK       I    between atoms: C_7  and  N_8 
REMARK    3  A    between atoms: N_8  and  C_10 
REMARK    4  A    between atoms: C_22  and  N_9 
REMARK    5  A    between atoms: C_16  and  O_20 
REMARK    6  A    between atoms: C_19  and  C_22 
REMARK    7  A    between atoms: C_25  and  C_19 
REMARK    8  A    between atoms: O_20  and  C_25 
ROOT
ATOM      1  C   UNL d   1       0.633   2.366  -0.726  0.00  0.00     0.079 A 
ATOM      2  N   UNL d   1      -0.949   1.746  -5.824  0.00  0.00    -0.191 NA
ATOM      3  C   UNL d   1      -0.598   1.873  -4.725  0.00  0.00     0.099 C 
ATOM      4  C   UNL d   1      -0.286   1.363  -1.045  0.00  0.00     0.027 A 
ATOM      5  C   UNL d   1       1.164   3.199  -1.716  0.00  0.00     0.027 A 
ATOM      6  C   UNL d   1      -0.167   2.033  -3.369  0.00  0.00     0.044 A 
ATOM      7  C   UNL d   1       0.763   3.029  -3.041  0.00  0.00     0.024 A 
ATOM      8  C   UNL d   1      -0.684   1.199  -2.371  0.00  0.00     0.024 A 
ENDROOT
BRANCH   1   9
ATOM      9  S   UNL d   1       1.092   2.626   0.964  0.00  0.00     0.258 S 
ATOM     10  O   UNL d   1       0.502   1.589   1.778  0.00  0.00    -0.201 OA
ATOM     11  O   UNL d   1       0.898   4.030   1.244  0.00  0.00    -0.201 OA
BRANCH   9  12
ATOM     12  N   UNL d   1       2.758   2.384   0.923  0.00  0.00    -0.315 N 
ATOM     13  H   UNL d   1       3.201   3.148   1.434  0.00  0.00     0.172 HD
BRANCH  12  14
ATOM     14  C   UNL d   1       3.266   1.017   1.126  0.00  0.00     0.134 C 
BRANCH  14  15
ATOM     15  C   UNL d   1       4.795   0.989   1.035  0.00  0.00     0.047 C 
BRANCH  15  16
ATOM     16  C   UNL d   1       5.411   1.835   2.141  0.00  0.00     0.177 C 
BRANCH  16  17
ATOM     17  O   UNL d   1       6.844   1.782   2.128  0.00  0.00    -0.351 OA
BRANCH  17  18
ATOM     18  C   UNL d   1       7.397   2.614   3.077  0.00  0.00     0.070 A 
ATOM     19  C   UNL d   1       6.774   2.900   4.296  0.00  0.00     0.066 A 
ATOM     20  C   UNL d   1       7.298   3.823   5.196  0.00  0.00     0.037 A 
ATOM     21  C   UNL d   1       8.533   4.405   4.901  0.00  0.00     0.029 A 
ATOM     22  C   UNL d   1       9.204   4.076   3.714  0.00  0.00     0.005 A 
ATOM     23  C   UNL d   1       8.632   3.188   2.797  0.00  0.00     0.037 A 
BRANCH  20  24
ATOM     24  N   UNL d   1       6.614   4.201   6.376  0.00  0.00    -0.327 N 
ATOM     25  C   UNL d   1       5.356   3.769   6.775  0.00  0.00     0.218 C 
ATOM     26  O   UNL d   1       4.626   2.975   6.192  0.00  0.00    -0.274 OA
ATOM     27  C   UNL d   1       4.884   4.378   8.068  0.00  0.00     0.117 C 
ATOM     28  H   UNL d   1       7.074   4.894   6.952  0.00  0.00     0.169 HD
ENDBRANCH  20  24
ENDBRANCH  17  18
ENDBRANCH  16  17
ENDBRANCH  15  16
ENDBRANCH  14  15
ENDBRANCH  12  14
ENDBRANCH   9  12
ENDBRANCH   1   9
TORSDOF 8
