REMARK  4 active torsions:
REMARK  status: ('A' for Active; 'I' for Inactive)
REMARK    1  A    between atoms: C_8  and  C_1 
REMARK    2  A    between atoms: N_7  and  C_2 
REMARK    3  A    between atoms: C_11  and  C_3 
REMARK       I    between atoms: C_9  and  N_7 
REMARK    4  A    between atoms: C_10  and  C_9 
ROOT
ATOM      1  C   UNL d   1       1.562   0.818   0.208  0.00  0.00     0.147 A 
ATOM      2  C   UNL d   1       0.223  -0.974   0.252  0.00  0.00     0.138 A 
ATOM      3  C   UNL d   1       1.557  -0.610   0.149  0.00  0.00     0.053 A 
ATOM      4  N   UNL d   1       0.305   1.291   0.322  0.00  0.00    -0.292 N 
ATOM      5  HN  UNL d   1       0.013   2.268   0.361  1.00  0.00     0.187 HD
ATOM      6  N   UNL d   1      -0.483   0.200   0.373  0.00  0.00    -0.280 N 
ATOM      7  C   UNL d   1      -1.909   0.414   0.301  0.00  0.00     0.179 C 
ENDROOT
BRANCH   2   8
ATOM      8  N   UNL d   1      -0.214  -2.290   0.181  0.00  0.00    -0.305 N 
ATOM      9  C   UNL d   1      -1.213  -2.847   1.042  0.00  0.00     0.281 C 
ATOM     10  O   UNL d   1      -1.753  -2.158   1.896  0.00  0.00    -0.265 OA
ATOM     11  H   UNL d   1       0.345  -2.957  -0.347  0.00  0.00     0.170 HD
BRANCH   9  12
ATOM     12  C   UNL d   1      -1.401  -4.259   0.841  0.00  0.00     0.142 A 
ATOM     13  O   UNL d   1      -0.768  -4.865  -0.215  0.00  0.00    -0.317 OA
ATOM     14  C   UNL d   1      -1.108  -6.181  -0.182  0.00  0.00     0.143 A 
ATOM     15  C   UNL d   1      -1.931  -6.439   0.888  0.00  0.00     0.027 A 
ATOM     16  C   UNL d   1      -2.123  -5.201   1.548  0.00  0.00     0.045 A 
ENDBRANCH   9  12
ENDBRANCH   2   8
BRANCH   3  17
ATOM     17  C   UNL d   1       2.667  -1.551   0.107  0.00  0.00    -0.020 A 
ATOM     18  C   UNL d   1       3.677  -1.431  -0.853  0.00  0.00     0.012 A 
ATOM     19  C   UNL d   1       4.765  -2.308  -0.843  0.00  0.00     0.001 A 
ATOM     20  C   UNL d   1       4.842  -3.323   0.110  0.00  0.00     0.000 A 
ATOM     21  C   UNL d   1       3.836  -3.459   1.063  0.00  0.00     0.001 A 
ATOM     22  C   UNL d   1       2.760  -2.571   1.069  0.00  0.00     0.012 A 
ENDBRANCH   3  17
BRANCH   1  23
ATOM     23  C   UNL d   1       2.749   1.751   0.145  0.00  0.00     0.434 C 
ATOM     24  F   UNL d   1       3.906   1.153   0.532  0.00  0.00    -0.165 F 
ATOM     25  F   UNL d   1       2.954   2.201  -1.122  0.00  0.00    -0.165 F 
ATOM     26  F   UNL d   1       2.603   2.845   0.938  0.00  0.00    -0.165 F 
ENDBRANCH   1  23
TORSDOF 4
