REMARK  6 active torsions:
REMARK  status: ('A' for Active; 'I' for Inactive)
REMARK    1  A    between atoms: N_6  and  C_1 
REMARK       I    between atoms: C_7  and  N_6 
REMARK    2  A    between atoms: C_8  and  C_7 
REMARK    3  A    between atoms: C_11  and  C_10 
REMARK    4  A    between atoms: O_20  and  C_11 
REMARK    5  A    between atoms: C_16  and  C_15 
REMARK    6  A    between atoms: C_23  and  C_16 
ROOT
ATOM      1  C   UNL d   1       1.391  -1.386  -0.173  0.00  0.00     0.098 C 
ATOM      2  C   UNL d   1       1.355  -0.002  -0.105  0.00  0.00     0.085 C 
ATOM      3  C   UNL d   1      -0.888  -0.519   0.136  0.00  0.00    -0.007 C 
ATOM      4  C   UNL d   1       0.039   0.502   0.177  0.00  0.00    -0.021 C 
ATOM      5  S   UNL d   1      -0.169  -2.048   0.024  0.00  0.00    -0.075 SA
ATOM      6  C   UNL d   1       2.480   0.845  -0.388  0.00  0.00     0.103 C 
ATOM      7  C   UNL d   1      -2.372  -0.332   0.140  0.00  0.00     0.052 C 
ATOM      8  N   UNL d   1       3.341   1.571  -0.666  0.00  0.00    -0.191 NA
ATOM      9  C   UNL d   1      -0.367   1.940   0.335  0.00  0.00     0.042 C 
ATOM     10  C   UNL d   1      -2.740   1.089  -0.372  0.00  0.00    -0.002 C 
ATOM     11  C   UNL d   1      -1.891   2.119   0.432  0.00  0.00     0.010 C 
ENDROOT
BRANCH   1  12
ATOM     12  N   UNL d   1       2.509  -2.208  -0.336  0.00  0.00    -0.316 N 
ATOM     13  C   UNL d   1       2.487  -3.554  -0.644  0.00  0.00     0.257 C 
ATOM     14  O   UNL d   1       1.479  -4.201  -0.921  0.00  0.00    -0.267 OA
ATOM     15  H   UNL d   1       3.405  -1.732  -0.236  0.00  0.00     0.169 HD
BRANCH  13  16
ATOM     16  C   UNL d   1       3.780  -4.330  -0.668  0.00  0.00     0.049 A 
ATOM     17  C   UNL d   1       5.069  -3.859  -0.957  0.00  0.00     0.053 A 
ATOM     18  C   UNL d   1       6.159  -4.754  -1.018  0.00  0.00     0.019 A 
ATOM     19  C   UNL d   1       5.968  -6.124  -0.823  0.00  0.00     0.001 A 
ATOM     20  C   UNL d   1       4.704  -6.607  -0.536  0.00  0.00     0.001 A 
ATOM     21  C   UNL d   1       3.623  -5.718  -0.454  0.00  0.00     0.018 A 
BRANCH  17  22
ATOM     22  C   UNL d   1       5.389  -2.435  -1.158  0.00  0.00     0.177 C 
ATOM     23  O   UNL d   1       4.992  -1.569  -0.396  0.00  0.00    -0.646 OA
BRANCH  22  24
ATOM     24  O   UNL d   1       6.144  -2.190  -2.243  0.00  0.00    -0.773 OA
ATOM     25  H   UNL d   1       6.321  -2.953  -2.826  0.00  0.00     0.167 HD
ENDBRANCH  22  24
ENDBRANCH  17  22
ENDBRANCH  13  16
ENDBRANCH   1  12
BRANCH  10  26
ATOM     26  C   UNL d   1      -2.768   1.281  -1.950  0.00  0.00    -0.044 C 
ATOM     27  C   UNL d   1      -3.171   2.738  -2.280  0.00  0.00     0.015 C 
ATOM     28  C   UNL d   1      -1.417   1.028  -2.658  0.00  0.00     0.015 C 
BRANCH  26  29
ATOM     29  C   UNL d   1      -3.780   0.307  -2.636  0.00  0.00     0.004 C 
ATOM     30  C   UNL d   1      -5.246   0.472  -2.262  0.00  0.00     0.006 C 
ENDBRANCH  26  29
ENDBRANCH  10  26
TORSDOF 6
