REMARK  3 active torsions:
REMARK  status: ('A' for Active; 'I' for Inactive)
REMARK    1  A    between atoms: C_6  and  N_1 
REMARK    2  A    between atoms: C_11  and  C_6 
REMARK    3  A    between atoms: C_12  and  C_11 
ROOT
ATOM      1  N   UNL d   1       0.065  -1.610   0.054  0.00  0.00    -0.345 N 
ATOM      2  C   UNL d   1       1.183  -0.792   0.018  0.00  0.00     0.046 A 
ATOM      3  C   UNL d   1      -1.095  -0.847   0.051  0.00  0.00     0.046 A 
ATOM      4  C   UNL d   1      -0.702   0.493   0.041  0.00  0.00     0.003 A 
ATOM      5  C   UNL d   1       0.725   0.528   0.035  0.00  0.00     0.003 A 
ATOM      6  C   UNL d   1      -2.453  -1.213   0.040  0.00  0.00     0.030 A 
ATOM      7  C   UNL d   1       2.557  -1.087  -0.031  0.00  0.00     0.030 A 
ATOM      8  C   UNL d   1      -1.695   1.497   0.028  0.00  0.00     0.014 A 
ATOM      9  C   UNL d   1       1.665   1.582   0.023  0.00  0.00     0.014 A 
ATOM     10  C   UNL d   1       3.031   1.292  -0.002  0.00  0.00     0.001 A 
ATOM     11  C   UNL d   1       3.469  -0.026  -0.029  0.00  0.00     0.002 A 
ATOM     12  C   UNL d   1      -3.416  -0.198   0.021  0.00  0.00     0.002 A 
ATOM     13  C   UNL d   1      -3.045   1.140   0.015  0.00  0.00     0.001 A 
ENDROOT
BRANCH   1  14
ATOM     14  C   UNL d   1       0.093  -3.064  -0.004  0.00  0.00     0.129 C 
BRANCH  14  15
ATOM     15  C   UNL d   1       0.777  -3.783   1.162  0.00  0.00     0.020 C 
BRANCH  15  16
ATOM     16  C   UNL d   1       0.196  -3.461   2.537  0.00  0.00    -0.003 C 
ATOM     17  C   UNL d   1       0.944  -4.227   3.621  0.00  0.00     0.005 C 
ENDBRANCH  15  16
ENDBRANCH  14  15
ENDBRANCH   1  14
TORSDOF 3
