REMARK  5 active torsions:
REMARK  status: ('A' for Active; 'I' for Inactive)
REMARK    1  A    between atoms: S_12  and  C_5 
REMARK       I    between atoms: C_9  and  N_14 
REMARK    2  A    between atoms: C_10  and  C_9 
REMARK    3  A    between atoms: C_11  and  C_22 
REMARK       I    between atoms: N_15  and  C_11 
REMARK    4  A    between atoms: C_22  and  S_12 
REMARK    5  A    between atoms: N_14  and  N_15 
ROOT
ATOM      1  C   UNL d   1       2.668  -4.293  -0.150  0.00  0.00     0.245 C 
ATOM      2  N   UNL d   1       1.794  -5.339  -0.368  0.00  0.00    -0.267 N 
ATOM      3  O   UNL d   1       3.880  -4.495  -0.022  0.00  0.00    -0.271 OA
ATOM      4  H   UNL d   1       0.785  -5.233  -0.464  0.00  0.00     0.190 HD
ENDROOT
BRANCH   1   5
ATOM      5  C   UNL d   1       2.095  -2.883  -0.179  0.00  0.00     0.186 C 
BRANCH   5   6
ATOM      6  S   UNL d   1       0.469  -2.761   0.626  0.00  0.00    -0.083 SA
BRANCH   6   7
ATOM      7  C   UNL d   1       0.237  -1.041   0.651  0.00  0.00     0.163 A 
ATOM      8  N   UNL d   1      -0.850  -0.431   1.224  0.00  0.00    -0.314 N 
ATOM      9  C   UNL d   1      -0.623   0.919   1.105  0.00  0.00     0.158 A 
ATOM     10  C   UNL d   1      -2.015  -1.087   1.755  0.00  0.00     0.160 C 
ATOM     11  N   UNL d   1       0.492   1.103   0.422  0.00  0.00    -0.281 N 
ATOM     12  C   UNL d   1      -1.438   1.975   1.625  0.00  0.00     0.120 A 
ATOM     13  N   UNL d   1       1.039  -0.134   0.150  0.00  0.00    -0.278 N 
ATOM     14  HN  UNL d   1       0.881   2.003   0.143  1.00  0.00     0.188 HD
ATOM     15  HN  UNL d   1       1.911  -0.310  -0.349  1.00  0.00     0.189 HD
ATOM     16  O   UNL d   1      -2.253   1.832   2.723  0.00  0.00    -0.319 OA
ATOM     17  C   UNL d   1      -1.550   3.281   1.172  0.00  0.00     0.043 A 
ATOM     18  C   UNL d   1      -2.863   3.022   2.951  0.00  0.00     0.142 A 
ATOM     19  C   UNL d   1      -2.473   3.948   2.016  0.00  0.00     0.027 A 
ENDBRANCH   6   7
ENDBRANCH   5   6
ENDBRANCH   1   5
BRANCH   2  20
ATOM     20  N   UNL d   1       2.308  -6.645  -0.360  0.00  0.00    -0.263 N 
ATOM     21  C   UNL d   1       1.467  -7.713  -0.625  0.00  0.00     0.271 C 
ATOM     22  O   UNL d   1       0.263  -7.565  -0.814  0.00  0.00    -0.266 OA
ATOM     23  H   UNL d   1       3.300  -6.736  -0.144  0.00  0.00     0.190 HD
BRANCH  21  24
ATOM     24  C   UNL d   1       2.127  -9.059  -0.686  0.00  0.00     0.044 A 
ATOM     25  C   UNL d   1       1.505 -10.238  -0.175  0.00  0.00    -0.010 A 
ATOM     26  C   UNL d   1       2.197 -11.473  -0.314  0.00  0.00    -0.025 A 
ATOM     27  C   UNL d   1       0.248 -10.279   0.476  0.00  0.00     0.013 A 
ATOM     28  C   UNL d   1       1.632 -12.665   0.170  0.00  0.00     0.012 A 
ATOM     29  C   UNL d   1       3.453 -11.514  -0.936  0.00  0.00     0.012 A 
ATOM     30  C   UNL d   1       0.390 -12.667   0.798  0.00  0.00     0.001 A 
ATOM     31  C   UNL d   1      -0.302 -11.475   0.952  0.00  0.00     0.001 A 
ATOM     32  C   UNL d   1       4.043 -10.358  -1.434  0.00  0.00     0.002 A 
ATOM     33  C   UNL d   1       3.384  -9.138  -1.317  0.00  0.00     0.018 A 
ENDBRANCH  21  24
ENDBRANCH   2  20
TORSDOF 5
