REMARK  4 active torsions:
REMARK  status: ('A' for Active; 'I' for Inactive)
REMARK    1  A    between atoms: C_6  and  C_1 
REMARK    2  A    between atoms: C_7  and  O_11 
REMARK       I    between atoms: N_10  and  C_7 
REMARK    3  A    between atoms: O_11  and  N_8 
REMARK    4  A    between atoms: C_14  and  N_10 
ROOT
ATOM      1  C   UNL d   1       3.550   0.144  -0.236  0.00  0.00     0.046 C 
ATOM      2  N   UNL d   1       4.422  -0.827  -0.340  0.00  0.00    -0.259 N 
ATOM      3  HN  UNL d   1       5.406  -0.723  -0.586  1.00  0.00     0.194 HD
ATOM      4  C   UNL d   1       2.090  -0.116   0.134  0.00  0.00     0.071 C 
ENDROOT
BRANCH   2   5
ATOM      5  O   UNL d   1       3.761  -2.048  -0.052  0.00  0.00    -0.181 OA
BRANCH   5   6
ATOM      6  C   UNL d   1       4.521  -3.191  -0.179  0.00  0.00     0.387 C 
ATOM      7  N   UNL d   1       5.805  -2.987  -0.628  0.00  0.00    -0.301 N 
ATOM      8  H   UNL d   1       6.007  -2.013  -0.816  0.00  0.00     0.171 HD
ATOM      9  O   UNL d   1       4.008  -4.268   0.105  0.00  0.00    -0.236 OA
BRANCH   7  10
ATOM     10  C   UNL d   1       6.800  -3.966  -0.831  0.00  0.00     0.036 A 
ATOM     11  C   UNL d   1       6.607  -5.330  -0.578  0.00  0.00     0.029 A 
ATOM     12  C   UNL d   1       7.638  -6.253  -0.783  0.00  0.00     0.002 A 
ATOM     13  C   UNL d   1       8.877  -5.824  -1.245  0.00  0.00     0.000 A 
ATOM     14  C   UNL d   1       9.080  -4.471  -1.506  0.00  0.00     0.002 A 
ATOM     15  C   UNL d   1       8.048  -3.546  -1.303  0.00  0.00     0.029 A 
ENDBRANCH   7  10
ENDBRANCH   5   6
ENDBRANCH   2   5
BRANCH   1  16
ATOM     16  C   UNL d   1       3.948   1.523  -0.511  0.00  0.00     0.036 A 
ATOM     17  S   UNL d   1       2.858   2.524  -1.376  0.00  0.00    -0.087 SA
ATOM     18  C   UNL d   1       3.903   3.876  -1.338  0.00  0.00     0.016 A 
ATOM     19  C   UNL d   1       3.648   5.152  -1.879  0.00  0.00     0.019 A 
ATOM     20  C   UNL d   1       5.101   3.571  -0.691  0.00  0.00    -0.012 A 
ATOM     21  C   UNL d   1       4.633   6.137  -1.788  0.00  0.00     0.001 A 
ATOM     22  C   UNL d   1       5.840   5.863  -1.165  0.00  0.00     0.001 A 
ATOM     23  C   UNL d   1       6.078   4.599  -0.612  0.00  0.00     0.013 A 
ATOM     24  C   UNL d   1       5.116   2.203  -0.191  0.00  0.00    -0.031 A 
ATOM     25  C   UNL d   1       6.266   1.649   0.592  0.00  0.00     0.050 C 
ENDBRANCH   1  16
TORSDOF 4
