REMARK  6 active torsions:
REMARK  status: ('A' for Active; 'I' for Inactive)
REMARK    1  A    between atoms: S_5  and  C_18 
REMARK    2  A    between atoms: C_19  and  S_5 
REMARK    3  A    between atoms: C_6  and  C_14 
REMARK    4  A    between atoms: C_15  and  C_7 
REMARK    5  A    between atoms: C_14  and  C_19 
REMARK    6  A    between atoms: C_18  and  C_15 
ROOT
ATOM      1  S   UNL d   1      -6.134  -1.432   0.018  0.00  0.00     0.145 S 
ATOM      2  O   UNL d   1      -6.556  -0.876   1.290  0.00  0.00    -0.228 OA
ATOM      3  O   UNL d   1      -6.571  -0.826  -1.226  0.00  0.00    -0.228 OA
ENDROOT
BRANCH   1   4
ATOM      4  C   UNL d   1      -4.353  -1.486   0.005  0.00  0.00     0.147 C 
BRANCH   4   5
ATOM      5  C   UNL d   1      -3.787  -0.081   0.159  0.00  0.00     0.091 C 
BRANCH   5   6
ATOM      6  C   UNL d   1      -2.296  -0.068   0.153  0.00  0.00     0.083 A 
ATOM      7  N   UNL d   1      -1.490  -1.103   0.029  0.00  0.00    -0.344 N 
ATOM      8  C   UNL d   1      -0.215  -0.589   0.082  0.00  0.00     0.060 A 
ATOM      9  HN  UNL d   1      -1.756  -2.081  -0.082  1.00  0.00     0.167 HD
ATOM     10  C   UNL d   1      -0.243   0.792   0.241  0.00  0.00     0.060 A 
ATOM     11  C   UNL d   1       1.022  -1.244  -0.001  0.00  0.00     0.032 A 
ATOM     12  C   UNL d   1       0.909   1.578   0.324  0.00  0.00     0.032 A 
ATOM     13  N   UNL d   1      -1.579   1.097   0.286  0.00  0.00    -0.344 N 
ATOM     14  C   UNL d   1       2.135   0.907   0.238  0.00  0.00     0.002 A 
ATOM     15  C   UNL d   1       2.195  -0.480   0.079  0.00  0.00     0.002 A 
ATOM     16  H   UNL d   1      -1.968   2.022   0.399  0.00  0.00     0.167 HD
ENDBRANCH   5   6
ENDBRANCH   4   5
ENDBRANCH   1   4
BRANCH   1  17
ATOM     17  C   UNL d   1      -6.609  -3.147  -0.009  0.00  0.00     0.147 C 
BRANCH  17  18
ATOM     18  C   UNL d   1      -8.126  -3.273   0.004  0.00  0.00     0.091 C 
BRANCH  18  19
ATOM     19  C   UNL d   1      -8.563  -4.699  -0.007  0.00  0.00     0.083 A 
ATOM     20  N   UNL d   1      -7.788  -5.764  -0.025  0.00  0.00    -0.344 N 
ATOM     21  C   UNL d   1      -8.639  -6.842  -0.025  0.00  0.00     0.060 A 
ATOM     22  HN  UNL d   1      -6.768  -5.784  -0.035  1.00  0.00     0.167 HD
ATOM     23  C   UNL d   1      -8.349  -8.214  -0.041  0.00  0.00     0.032 A 
ATOM     24  C   UNL d   1      -9.966  -6.427  -0.007  0.00  0.00     0.060 A 
ATOM     25  C   UNL d   1      -9.413  -9.125  -0.038  0.00  0.00     0.002 A 
ATOM     26  C   UNL d   1     -10.737  -8.679  -0.019  0.00  0.00     0.002 A 
ATOM     27  C   UNL d   1     -11.045  -7.313  -0.004  0.00  0.00     0.032 A 
ATOM     28  N   UNL d   1      -9.890  -5.058   0.004  0.00  0.00    -0.344 N 
ATOM     29  H   UNL d   1     -10.675  -4.423   0.017  0.00  0.00     0.167 HD
ENDBRANCH  18  19
ENDBRANCH  17  18
ENDBRANCH   1  17
TORSDOF 6
