REMARK  7 active torsions:
REMARK  status: ('A' for Active; 'I' for Inactive)
REMARK    1  A    between atoms: S_2  and  C_1 
REMARK    2  A    between atoms: N_13  and  S_2 
REMARK    3  A    between atoms: C_21  and  N_13 
REMARK    4  A    between atoms: C_14  and  C_23 
REMARK    5  A    between atoms: C_24  and  C_21 
REMARK    6  A    between atoms: S_22  and  C_24 
REMARK    7  A    between atoms: C_23  and  S_22 
ROOT
ATOM      1  S   UNL d   1      -1.119  -3.239  -0.034  0.00  0.00     0.243 S 
ATOM      2  O   UNL d   1      -0.458  -4.008   0.992  0.00  0.00    -0.206 OA
ATOM      3  O   UNL d   1      -1.098  -1.792  -0.032  0.00  0.00    -0.206 OA
ENDROOT
BRANCH   1   4
ATOM      4  C   UNL d   1      -0.487  -3.766  -1.578  0.00  0.00     0.105 A 
ATOM      5  C   UNL d   1      -1.004  -3.295  -2.795  0.00  0.00     0.108 A 
ATOM      6  C   UNL d   1      -0.457  -3.728  -4.074  0.00  0.00     0.086 A 
ATOM      7  N   UNL d   1      -2.015  -2.453  -3.044  0.00  0.00    -0.238 N 
ATOM      8  N   UNL d   1      -1.135  -3.117  -5.051  0.00  0.00    -0.239 N 
ATOM      9  C   UNL d   1       0.607  -4.645  -4.168  0.00  0.00     0.034 A 
ATOM     10  O   UNL d   1      -2.081  -2.329  -4.419  0.00  0.00    -0.156 OA
ATOM     11  HN  UNL d   1      -0.985  -3.212  -6.056  1.00  0.00     0.197 HD
ATOM     12  C   UNL d   1       1.096  -5.116  -2.934  0.00  0.00     0.004 A 
ATOM     13  C   UNL d   1       0.571  -4.698  -1.684  0.00  0.00     0.027 A 
ATOM     14  HN  UNL d   1      -2.615  -1.996  -2.358  1.00  0.00     0.197 HD
ENDBRANCH   1   4
BRANCH   1  15
ATOM     15  N   UNL d   1      -2.734  -3.752  -0.087  0.00  0.00    -0.215 NA
ATOM     16  H   UNL d   1      -3.221  -3.335  -0.891  0.00  0.00     0.140 HD
BRANCH  15  17
ATOM     17  C   UNL d   1      -2.942  -5.217   0.025  0.00  0.00     0.114 C 
BRANCH  17  18
ATOM     18  C   UNL d   1      -4.429  -5.586  -0.046  0.00  0.00     0.089 C 
BRANCH  18  19
ATOM     19  S   UNL d   1      -5.054  -5.021  -1.666  0.00  0.00    -0.161 SA
BRANCH  19  20
ATOM     20  C   UNL d   1      -6.793  -5.574  -1.599  0.00  0.00     0.139 C 
BRANCH  20  21
ATOM     21  C   UNL d   1      -7.467  -5.135  -2.854  0.00  0.00     0.061 A 
ATOM     22  O   UNL d   1      -7.966  -6.112  -3.667  0.00  0.00    -0.326 OA
ATOM     23  C   UNL d   1      -8.498  -5.490  -4.753  0.00  0.00     0.142 A 
ATOM     24  C   UNL d   1      -8.355  -4.127  -4.649  0.00  0.00     0.027 A 
ATOM     25  C   UNL d   1      -7.688  -3.895  -3.423  0.00  0.00     0.035 A 
ENDBRANCH  20  21
ENDBRANCH  19  20
ENDBRANCH  18  19
ENDBRANCH  17  18
ENDBRANCH  15  17
ENDBRANCH   1  15
TORSDOF 7
