REMARK  4 active torsions:
REMARK  status: ('A' for Active; 'I' for Inactive)
REMARK    1  A    between atoms: N_2  and  C_1 
REMARK    2  A    between atoms: O_5  and  C_1 
REMARK    3  A    between atoms: C_4  and  N_2 
REMARK    4  A    between atoms: C_9  and  O_5 
ROOT
ATOM      1  N   UNL d   1       0.509   1.103  -0.617  0.00  0.00    -0.353 N 
ATOM      2  H   UNL d   1       0.765   0.213  -1.033  0.00  0.00     0.163 HD
ENDROOT
BRANCH   1   3
ATOM      3  C   UNL d   1      -0.012   1.008   0.644  0.00  0.00     0.210 C 
ATOM      4  S   UNL d   1      -0.804   2.157   1.546  0.00  0.00    -0.033 SA
BRANCH   3   5
ATOM      5  O   UNL d   1       0.101  -0.201   1.255  0.00  0.00    -0.328 OA
BRANCH   5   6
ATOM      6  C   UNL d   1       1.193  -1.116   0.998  0.00  0.00     0.173 C 
ATOM      7  C   UNL d   1       2.544  -0.505   1.331  0.00  0.00     0.034 C 
ENDBRANCH   5   6
ENDBRANCH   3   5
ENDBRANCH   1   3
BRANCH   1   8
ATOM      8  C   UNL d   1       0.797   2.284  -1.456  0.00  0.00     0.022 C 
ATOM      9  C   UNL d   1       1.673   3.293  -0.693  0.00  0.00     0.037 C 
ATOM     10  C   UNL d   1       1.585   1.794  -2.691  0.00  0.00     0.037 C 
ATOM     11  C   UNL d   1      -0.489   2.959  -1.958  0.00  0.00     0.037 C 
ENDBRANCH   1   8
TORSDOF 4
