REMARK  3 active torsions:
REMARK  status: ('A' for Active; 'I' for Inactive)
REMARK    1  A    between atoms: C_9  and  N_1 
REMARK    2  A    between atoms: C_10  and  C_4 
REMARK    3  A    between atoms: C_6  and  C_10 
ROOT
ATOM      1  N   UNL d   1       0.181  -1.206  -0.120  0.00  0.00    -0.262 N 
ATOM      2  C   UNL d   1       1.026  -0.110  -0.110  0.00  0.00     0.153 A 
ATOM      3  C   UNL d   1      -1.179  -0.949  -0.064  0.00  0.00     0.271 A 
ATOM      4  C   UNL d   1      -1.422   0.510   0.078  0.00  0.00     0.077 A 
ATOM      5  S   UNL d   1       0.071   1.367   0.030  0.00  0.00    -0.054 SA
ATOM      6  S   UNL d   1       2.689  -0.056  -0.275  0.00  0.00    -0.052 SA
ATOM      7  O   UNL d   1      -2.077  -1.790  -0.106  0.00  0.00    -0.266 OA
ENDROOT
BRANCH   4   8
ATOM      8  C   UNL d   1      -2.615   1.104   0.214  0.00  0.00     0.042 C 
BRANCH   8   9
ATOM      9  C   UNL d   1      -3.890   0.416   0.214  0.00  0.00     0.039 A 
ATOM     10  C   UNL d   1      -4.843   0.694  -0.890  0.00  0.00     0.197 A 
ATOM     11  C   UNL d   1      -6.062  -0.156  -0.967  0.00  0.00     0.055 A 
ATOM     12  O   UNL d   1      -4.585   1.587  -1.688  0.00  0.00    -0.286 OA
ATOM     13  C   UNL d   1      -7.027  -0.051  -1.988  0.00  0.00    -0.044 A 
ATOM     14  C   UNL d   1      -6.235  -1.111   0.046  0.00  0.00     0.090 A 
ATOM     15  C   UNL d   1      -8.140  -0.916  -1.951  0.00  0.00     0.014 A 
ATOM     16  C   UNL d   1      -7.000   0.931  -3.128  0.00  0.00     0.049 C 
ATOM     17  C   UNL d   1      -8.300  -1.879  -0.947  0.00  0.00    -0.059 A 
ATOM     18  C   UNL d   1      -7.333  -1.975   0.050  0.00  0.00     0.045 A 
ATOM     19  C   UNL d   1      -9.511  -2.763  -0.942  0.00  0.00     0.048 C 
ATOM     20  O   UNL d   1      -5.378  -1.260   1.109  0.00  0.00    -0.321 OA
ATOM     21  C   UNL d   1      -4.242  -0.499   1.125  0.00  0.00     0.158 A 
ENDBRANCH   8   9
ENDBRANCH   4   8
BRANCH   1  22
ATOM     22  C   UNL d   1       0.622  -2.555  -0.134  0.00  0.00     0.050 A 
ATOM     23  C   UNL d   1       0.255  -3.443  -1.163  0.00  0.00    -0.034 A 
ATOM     24  C   UNL d   1       0.679  -4.781  -1.082  0.00  0.00     0.015 A 
ATOM     25  C   UNL d   1      -0.555  -3.046  -2.369  0.00  0.00     0.050 C 
ATOM     26  C   UNL d   1       1.410  -5.250   0.017  0.00  0.00    -0.061 A 
ATOM     27  C   UNL d   1       1.744  -4.365   1.042  0.00  0.00     0.009 A 
ATOM     28  C   UNL d   1       1.849  -6.683   0.063  0.00  0.00     0.048 C 
ATOM     29  C   UNL d   1       1.369  -3.024   0.959  0.00  0.00     0.031 A 
ENDBRANCH   1  22
TORSDOF 3
