REMARK  4 active torsions:
REMARK  status: ('A' for Active; 'I' for Inactive)
REMARK    1  A    between atoms: C_7  and  C_1 
REMARK    2  A    between atoms: N_17  and  C_2 
REMARK    3  A    between atoms: N_6  and  C_11 
REMARK    4  A    between atoms: C_13  and  C_7 
ROOT
ATOM      1  C   UNL d   1       2.467   0.034   0.002  0.00  0.00     0.085 A 
ATOM      2  C   UNL d   1       1.615   1.129  -0.023  0.00  0.00     0.060 A 
ATOM      3  C   UNL d   1       0.211   0.773   0.026  0.00  0.00     0.031 A 
ATOM      4  S   UNL d   1       1.593  -1.415   0.223  0.00  0.00    -0.065 SA
ATOM      5  C   UNL d   1       0.101  -0.615   0.104  0.00  0.00     0.088 A 
ATOM      6  N   UNL d   1      -1.023  -1.357   0.114  0.00  0.00    -0.354 N 
ATOM      7  HN  UNL d   1      -1.007  -2.375   0.168  1.00  0.00     0.166 HD
ATOM      8  C   UNL d   1      -1.021   1.492   0.001  0.00  0.00    -0.045 A 
ATOM      9  C   UNL d   1      -2.209   0.729   0.007  0.00  0.00     0.032 A 
ATOM     10  C   UNL d   1      -2.164  -0.657   0.048  0.00  0.00     0.006 A 
ATOM     11  C   UNL d   1      -1.198   2.986  -0.030  0.00  0.00     0.049 C 
ATOM     12  C   UNL d   1      -3.441  -1.446   0.028  0.00  0.00     0.068 C 
ENDROOT
BRANCH   1  13
ATOM     13  C   UNL d   1       3.925   0.043  -0.041  0.00  0.00     0.201 C 
ATOM     14  O   UNL d   1       4.594   1.003   0.348  0.00  0.00    -0.286 OA
BRANCH  13  15
ATOM     15  C   UNL d   1       4.691  -1.115  -0.595  0.00  0.00     0.015 A 
ATOM     16  C   UNL d   1       5.931  -1.435  -0.023  0.00  0.00     0.018 A 
ATOM     17  C   UNL d   1       6.673  -2.520  -0.501  0.00  0.00     0.037 A 
ATOM     18  C   UNL d   1       6.171  -3.285  -1.563  0.00  0.00     0.102 A 
ATOM     19  C   UNL d   1       4.950  -2.953  -2.164  0.00  0.00     0.037 A 
ATOM     20  C   UNL d   1       4.223  -1.857  -1.691  0.00  0.00     0.018 A 
BRANCH  18  21
ATOM     21  N   UNL d   1       6.930  -4.444  -2.055  0.00  0.00    -0.116 N 
ATOM     22  O   UNL d   1       8.017  -4.689  -1.513  0.00  0.00    -0.532 OA
ATOM     23  O   UNL d   1       6.437  -5.104  -2.978  0.00  0.00    -0.532 OA
ENDBRANCH  18  21
ENDBRANCH  13  15
ENDBRANCH   1  13
BRANCH   2  24
ATOM     24  N   UNL d   1       2.110   2.387  -0.125  0.00  0.00    -0.397 N 
ATOM     25  H   UNL d   1       3.112   2.532   0.041  0.00  0.00     0.156 HD
ATOM     26  H   UNL d   1       1.579   3.200   0.159  0.00  0.00     0.156 HD
ENDBRANCH   2  24
TORSDOF 4
