REMARK  2 active torsions:
REMARK  status: ('A' for Active; 'I' for Inactive)
REMARK    1  A    between atoms: C_14  and  C_5 
REMARK    2  A    between atoms: C_13  and  C_6 
ROOT
ATOM      1  N   UNL d   1       1.221   1.409  -0.041  0.00  0.00    -0.352 N 
ATOM      2  HN  UNL d   1       1.198   2.427  -0.112  1.00  0.00     0.166 HD
ATOM      3  N   UNL d   1       1.270  -1.389   0.146  0.00  0.00    -0.352 N 
ATOM      4  HN  UNL d   1       1.283  -2.408   0.196  1.00  0.00     0.166 HD
ATOM      5  C   UNL d   1       2.406   0.733  -0.034  0.00  0.00     0.071 A 
ATOM      6  C   UNL d   1       2.430  -0.669   0.104  0.00  0.00     0.071 A 
ATOM      7  C   UNL d   1       0.087   0.697   0.047  0.00  0.00     0.060 A 
ATOM      8  C   UNL d   1       0.104  -0.706   0.119  0.00  0.00     0.060 A 
ATOM      9  C   UNL d   1      -1.127   1.370   0.078  0.00  0.00     0.039 A 
ATOM     10  C   UNL d   1      -1.113  -1.380   0.179  0.00  0.00     0.039 A 
ATOM     11  C   UNL d   1      -2.354   0.697   0.181  0.00  0.00    -0.054 A 
ATOM     12  C   UNL d   1      -2.349  -0.704   0.224  0.00  0.00    -0.054 A 
ATOM     13  C   UNL d   1      -3.618   1.506   0.272  0.00  0.00     0.049 C 
ATOM     14  C   UNL d   1      -3.604  -1.529   0.314  0.00  0.00     0.049 C 
ENDROOT
BRANCH   5  15
ATOM     15  C   UNL d   1       3.579   1.623  -0.195  0.00  0.00    -0.007 A 
ATOM     16  C   UNL d   1       3.616   2.868   0.459  0.00  0.00     0.014 A 
ATOM     17  C   UNL d   1       4.713   3.731   0.333  0.00  0.00     0.007 A 
ATOM     18  C   UNL d   1       5.813   3.364  -0.443  0.00  0.00    -0.062 A 
ATOM     19  C   UNL d   1       5.791   2.140  -1.112  0.00  0.00     0.007 A 
ATOM     20  C   UNL d   1       6.972   4.307  -0.601  0.00  0.00     0.048 C 
ATOM     21  C   UNL d   1       4.677   1.296  -1.009  0.00  0.00     0.014 A 
ENDBRANCH   5  15
BRANCH   6  22
ATOM     22  C   UNL d   1       3.662  -1.488   0.205  0.00  0.00    -0.007 A 
ATOM     23  C   UNL d   1       4.753  -1.097   1.007  0.00  0.00     0.015 A 
ATOM     24  C   UNL d   1       5.982  -1.762   0.938  0.00  0.00     0.024 A 
ATOM     25  C   UNL d   1       6.118  -2.873   0.113  0.00  0.00     0.034 A 
ATOM     26  C   UNL d   1       5.026  -3.347  -0.608  0.00  0.00     0.024 A 
ATOM     27 CL   UNL d   1       7.647  -3.646  -0.033  0.00  0.00    -0.084 Cl
ATOM     28  C   UNL d   1       3.807  -2.660  -0.557  0.00  0.00     0.015 A 
ENDBRANCH   6  22
TORSDOF 2
