REMARK  4 active torsions:
REMARK  status: ('A' for Active; 'I' for Inactive)
REMARK    1  A    between atoms: C_4  and  C_1 
REMARK       I    between atoms: N_13  and  C_4 
REMARK    2  A    between atoms: C_5  and  O_10 
REMARK    3  A    between atoms: O_10  and  C_16 
REMARK    4  A    between atoms: C_24  and  N_13 
ROOT
ATOM      1  N   UNL d   1       0.890  -3.537  -1.943  0.00  0.00    -0.344 N 
ATOM      2  HN  UNL d   1       0.146  -3.286  -2.594  1.00  0.00     0.167 HD
ATOM      3  C   UNL d   1       0.897  -4.723  -1.314  0.00  0.00     0.149 A 
ATOM      4  C   UNL d   1       2.932  -2.932  -0.765  0.00  0.00     0.050 A 
ATOM      5  C   UNL d   1       1.909  -2.688  -1.679  0.00  0.00     0.119 A 
ATOM      6  C   UNL d   1       1.878  -5.088  -0.403  0.00  0.00     0.059 A 
ATOM      7  C   UNL d   1       2.916  -4.179  -0.135  0.00  0.00     0.035 A 
ENDROOT
BRANCH   3   8
ATOM      8  O   UNL d   1      -0.207  -5.509  -1.545  0.00  0.00    -0.276 OA
BRANCH   8   9
ATOM      9  C   UNL d   1       0.002  -6.538  -2.437  0.00  0.00     0.163 A 
ATOM     10  C   UNL d   1       0.189  -6.319  -3.814  0.00  0.00     0.042 A 
ATOM     11  C   UNL d   1       0.452  -7.481  -4.548  0.00  0.00     0.049 A 
ATOM     12  C   UNL d   1       0.134  -5.072  -4.492  0.00  0.00     0.020 A 
ATOM     13  C   UNL d   1       0.758  -7.366  -5.899  0.00  0.00     0.054 A 
ATOM     14  N   UNL d   1       0.421  -8.702  -4.003  0.00  0.00    -0.351 N 
ATOM     15  C   UNL d   1       0.778  -6.128  -6.540  0.00  0.00     0.036 A 
ATOM     16  C   UNL d   1       0.445  -4.976  -5.846  0.00  0.00     0.025 A 
ATOM     17 CL   UNL d   1       1.212  -6.029  -8.202  0.00  0.00    -0.084 Cl
ATOM     18  C   UNL d   1       0.138  -8.784  -2.697  0.00  0.00     0.182 A 
ATOM     19  HN  UNL d   1       0.606  -9.537  -4.560  1.00  0.00     0.166 HD
ATOM     20  N   UNL d   1      -0.053  -7.758  -1.867  0.00  0.00    -0.332 N 
ATOM     21  HN  UNL d   1      -0.229  -7.887  -0.871  1.00  0.00     0.168 HD
ENDBRANCH   8   9
ENDBRANCH   3   8
BRANCH   4  22
ATOM     22  N   UNL d   1       3.948  -1.992  -0.453  0.00  0.00    -0.321 N 
ATOM     23  C   UNL d   1       3.916  -0.646  -0.818  0.00  0.00     0.264 C 
ATOM     24  O   UNL d   1       2.945  -0.153  -1.388  0.00  0.00    -0.267 OA
ATOM     25  H   UNL d   1       4.708  -2.294   0.146  0.00  0.00     0.169 HD
BRANCH  23  26
ATOM     26  C   UNL d   1       5.071   0.175  -0.478  0.00  0.00     0.096 A 
ATOM     27  S   UNL d   1       6.306  -0.367   0.570  0.00  0.00    -0.082 SA
ATOM     28  C   UNL d   1       7.162   1.128   0.484  0.00  0.00     0.017 A 
ATOM     29  C   UNL d   1       8.358   1.467   1.149  0.00  0.00     0.020 A 
ATOM     30  C   UNL d   1       6.520   2.034  -0.361  0.00  0.00     0.004 A 
ATOM     31  C   UNL d   1       8.909   2.738   0.954  0.00  0.00     0.001 A 
ATOM     32  C   UNL d   1       8.292   3.654   0.117  0.00  0.00     0.001 A 
ATOM     33  C   UNL d   1       7.109   3.314  -0.539  0.00  0.00     0.014 A 
ATOM     34  C   UNL d   1       5.322   1.464  -0.912  0.00  0.00     0.068 A 
ATOM     35 CL   UNL d   1       4.346   2.375  -2.007  0.00  0.00    -0.082 Cl
ENDBRANCH  23  26
ENDBRANCH   4  22
TORSDOF 4
