REMARK  5 active torsions:
REMARK  status: ('A' for Active; 'I' for Inactive)
REMARK    1  A    between atoms: N_8  and  C_2 
REMARK    2  A    between atoms: C_5  and  N_8 
REMARK    3  A    between atoms: N_10  and  C_5 
REMARK    4  A    between atoms: C_17  and  N_10 
REMARK    5  A    between atoms: C_19  and  C_14 
ROOT
ATOM      1  C   UNL d   1       4.409   3.642  -1.388  0.00  0.00     0.172 C 
ATOM      2  S   UNL d   1       5.770   3.648  -2.360  0.00  0.00    -0.041 SA
ENDROOT
BRANCH   1   3
ATOM      3  N   UNL d   1       3.636   2.515  -1.400  0.00  0.00    -0.362 N 
ATOM      4  H   UNL d   1       4.044   1.805  -1.999  0.00  0.00     0.162 HD
BRANCH   3   5
ATOM      5  C   UNL d   1       2.801   2.013  -0.303  0.00  0.00     0.089 C 
ATOM      6  C   UNL d   1       3.645   1.254   0.760  0.00  0.00     0.017 C 
ATOM      7  C   UNL d   1       2.733   0.883   1.960  0.00  0.00     0.018 A 
ATOM      8  C   UNL d   1       3.843  -0.102   0.069  0.00  0.00     0.012 C 
ATOM      9  C   UNL d   1       1.841  -0.253   1.389  0.00  0.00     0.001 A 
ATOM     10  C   UNL d   1       3.426   0.231   3.117  0.00  0.00    -0.025 A 
ATOM     11  C   UNL d   1       2.103  -1.507   2.238  0.00  0.00     0.032 A 
ATOM     12  C   UNL d   1       2.340  -0.357  -0.068  0.00  0.00    -0.007 C 
ATOM     13  C   UNL d   1       3.074  -1.051   3.272  0.00  0.00    -0.030 A 
ATOM     14  C   UNL d   1       1.862   0.902  -0.825  0.00  0.00     0.030 C 
ENDBRANCH   3   5
ENDBRANCH   1   3
BRANCH   1  15
ATOM     15  N   UNL d   1       3.931   4.681  -0.642  0.00  0.00    -0.333 N 
ATOM     16  H   UNL d   1       2.951   4.882  -0.794  0.00  0.00     0.168 HD
BRANCH  15  17
ATOM     17  C   UNL d   1       4.679   5.658   0.042  0.00  0.00     0.034 A 
ATOM     18  C   UNL d   1       4.122   6.924   0.236  0.00  0.00     0.030 A 
ATOM     19  C   UNL d   1       4.763   7.861   1.055  0.00  0.00     0.010 A 
ATOM     20  C   UNL d   1       5.939   7.524   1.741  0.00  0.00    -0.055 A 
ATOM     21  C   UNL d   1       6.521   6.275   1.488  0.00  0.00     0.010 A 
ATOM     22  C   UNL d   1       5.900   5.351   0.643  0.00  0.00     0.030 A 
BRANCH  20  23
ATOM     23  C   UNL d   1       6.571   8.425   2.791  0.00  0.00     0.010 C 
ATOM     24  C   UNL d   1       7.703   9.270   2.209  0.00  0.00     0.015 C 
ATOM     25  C   UNL d   1       5.561   9.312   3.528  0.00  0.00     0.015 C 
ENDBRANCH  20  23
ENDBRANCH  15  17
ENDBRANCH   1  15
TORSDOF 5
