REMARK  4 active torsions:
REMARK  status: ('A' for Active; 'I' for Inactive)
REMARK    1  A    between atoms: C_5  and  CA_1 
REMARK    2  A    between atoms: C_8  and  C_2 
REMARK    3  A    between atoms: OXT_12  and  C_5 
REMARK    4  A    between atoms: O_16  and  C_13 
ROOT
ATOM      1  CA  UNL d   1      -0.805  -0.999  -0.313  0.00  0.00     0.143 A 
ATOM      2  C   UNL d   1       0.533  -1.146   0.005  0.00  0.00     0.120 A 
ATOM      3  N   UNL d   1      -1.214   0.306  -0.042  0.00  0.00    -0.339 N 
ATOM      4  HN  UNL d   1      -2.133   0.724  -0.185  1.00  0.00     0.167 HD
ATOM      5  C   UNL d   1      -0.129   0.865   0.445  0.00  0.00     0.234 A 
ATOM      6  O   UNL d   1       0.962   0.057   0.512  0.00  0.00    -0.303 OA
ENDROOT
BRANCH   2   7
ATOM      7  C   UNL d   1       1.526  -2.204  -0.074  0.00  0.00     0.001 A 
ATOM      8  C   UNL d   1       1.516  -3.101  -1.149  0.00  0.00     0.017 A 
ATOM      9  C   UNL d   1       2.398  -4.184  -1.195  0.00  0.00     0.037 A 
ATOM     10  C   UNL d   1       3.316  -4.381  -0.167  0.00  0.00     0.068 A 
ATOM     11  C   UNL d   1       3.388  -3.451   0.871  0.00  0.00     0.037 A 
ATOM     12  C   UNL d   1       2.496  -2.373   0.922  0.00  0.00     0.017 A 
BRANCH  10  13
ATOM     13  O   UNL d   1       4.198  -5.424  -0.102  0.00  0.00    -0.356 OA
ATOM     14  C   UNL d   1       3.739  -6.633  -0.704  0.00  0.00     0.210 C 
ENDBRANCH  10  13
ENDBRANCH   2   7
BRANCH   1  15
ATOM     15  C   UNL d   1      -1.743  -1.980  -0.836  0.00  0.00     0.196 C 
ATOM     16  O   UNL d   1      -1.506  -3.158  -1.048  0.00  0.00    -0.645 OA
BRANCH  15  17
ATOM     17  OXT UNL d   1      -2.966  -1.432  -1.077  0.00  0.00    -0.772 OA
ATOM     18  HXT UNL d   1      -2.926  -0.483  -0.820  0.00  0.00     0.167 HD
ENDBRANCH  15  17
ENDBRANCH   1  15
TORSDOF 4
