REMARK  0 active torsions:
REMARK  status: ('A' for Active; 'I' for Inactive)
ROOT
ATOM      1  C   UNL d   1       0.739   0.509   0.000  0.00  0.00     0.062 A 
ATOM      2  C   UNL d   1      -0.672   0.589  -0.007  0.00  0.00     0.083 A 
ATOM      3  N   UNL d   1      -1.643   1.573  -0.027  0.00  0.00    -0.292 N 
ATOM      4  C   UNL d   1       1.309  -0.739   0.006  0.00  0.00     0.136 A 
ATOM      5  N   UNL d   1       2.931   0.874   0.001  0.00  0.00    -0.301 N 
ATOM      6  HN  UNL d   1       3.851   1.315   0.002  1.00  0.00     0.187 HD
ATOM      7  C   UNL d   1      -1.294  -0.687   0.004  0.00  0.00     0.078 A 
ATOM      8  N   UNL d   1       2.649  -0.456   0.005  0.00  0.00    -0.280 N 
ATOM      9  C   UNL d   1       1.726   1.484  -0.003  0.00  0.00     0.038 A 
ATOM     10  N   UNL d   1      -2.882   0.892   0.004  0.00  0.00    -0.263 N 
ATOM     11  C   UNL d   1      -2.725  -0.497   0.004  0.00  0.00     0.274 A 
ATOM     12  N   UNL d   1       0.718  -1.948   0.011  0.00  0.00    -0.349 N 
ATOM     13  HN  UNL d   1       1.244  -2.822   0.013  1.00  0.00     0.167 HD
ATOM     14  C   UNL d   1      -0.630  -1.902   0.011  0.00  0.00     0.109 A 
ATOM     15  O   UNL d   1      -3.655  -1.294   0.001  0.00  0.00    -0.266 OA
ATOM     16  C   UNL d   1      -1.679   3.006   0.017  0.00  0.00     0.178 C 
ATOM     17  C   UNL d   1       3.732  -1.405   0.004  0.00  0.00     0.179 C 
ATOM     18  C   UNL d   1       1.711   2.959  -0.006  0.00  0.00     0.071 C 
ATOM     19  H   UNL d   1      -3.773   1.369  -0.033  0.00  0.00     0.190 HD
ENDROOT
TORSDOF 0
