REMARK  6 active torsions:
REMARK  status: ('A' for Active; 'I' for Inactive)
REMARK    1  A    between atoms: N_4  and  C_1 
REMARK    2  A    between atoms: C_3  and  C_18 
REMARK    3  A    between atoms: C_6  and  N_4 
REMARK    4  A    between atoms: N_17  and  C_6 
REMARK    5  A    between atoms: O_22  and  C_9 
REMARK    6  A    between atoms: N_12  and  N_17 
ROOT
ATOM      1  N   UNL d   1      -3.749  -2.314   1.947  0.00  0.00    -0.277 N 
ATOM      2  H   UNL d   1      -4.174  -3.167   2.300  0.00  0.00     0.189 HD
ENDROOT
BRANCH   1   3
ATOM      3  N   UNL d   1      -3.492  -1.289   2.811  0.00  0.00    -0.309 N 
ATOM      4  C   UNL d   1      -4.122  -1.310   3.941  0.00  0.00     0.121 C 
ATOM      5  HN  UNL d   1      -2.835  -0.545   2.578  1.00  0.00     0.186 HD
BRANCH   4   6
ATOM      6  C   UNL d   1      -3.717  -0.364   5.006  0.00  0.00     0.017 A 
ATOM      7  C   UNL d   1      -4.452  -0.226   6.178  0.00  0.00     0.099 A 
ATOM      8  C   UNL d   1      -3.987   0.630   7.186  0.00  0.00     0.069 A 
ATOM      9 CL   UNL d   1      -4.880   0.820   8.650  0.00  0.00    -0.081 Cl
ATOM     10  C   UNL d   1      -2.790   1.330   7.030  0.00  0.00     0.050 A 
ATOM     11  C   UNL d   1      -2.059   1.179   5.856  0.00  0.00     0.036 A 
ATOM     12  C   UNL d   1      -2.518   0.342   4.845  0.00  0.00     0.039 A 
ATOM     13 CL   UNL d   1      -0.565   2.007   5.656  0.00  0.00    -0.084 Cl
BRANCH   7  14
ATOM     14  O   UNL d   1      -5.617  -0.929   6.341  0.00  0.00    -0.358 OA
ATOM     15  H   UNL d   1      -5.988  -0.698   7.217  0.00  0.00     0.217 HD
ENDBRANCH   7  14
ENDBRANCH   4   6
ENDBRANCH   1   3
BRANCH   1  16
ATOM     16  C   UNL d   1      -2.951  -2.425   0.812  0.00  0.00     0.187 C 
ATOM     17  S   UNL d   1      -2.772  -3.918   0.106  0.00  0.00    -0.040 SA
BRANCH  16  18
ATOM     18  N   UNL d   1      -2.424  -1.206   0.451  0.00  0.00    -0.356 N 
ATOM     19  H   UNL d   1      -2.674  -0.575   1.206  0.00  0.00     0.162 HD
BRANCH  18  20
ATOM     20  C   UNL d   1      -1.287  -0.777  -0.420  0.00  0.00     0.040 C 
ATOM     21  C   UNL d   1      -1.234   0.832  -0.564  0.00  0.00    -0.019 C 
ATOM     22  C   UNL d   1       0.114   1.176   0.161  0.00  0.00    -0.004 C 
ATOM     23  C   UNL d   1      -1.266   1.369  -2.010  0.00  0.00     0.018 C 
ATOM     24  C   UNL d   1      -2.389   1.575   0.159  0.00  0.00     0.018 C 
ATOM     25  C   UNL d   1       0.152   0.153   1.299  0.00  0.00     0.012 C 
ATOM     26  C   UNL d   1       1.348   0.725  -0.643  0.00  0.00     0.006 C 
ATOM     27  C   UNL d   1       0.055  -1.050   0.350  0.00  0.00     0.014 C 
ATOM     28  C   UNL d   1       1.300  -0.803  -0.525  0.00  0.00     0.007 C 
ATOM     29  C   UNL d   1      -1.354  -1.493  -1.778  0.00  0.00     0.039 C 
ENDBRANCH  18  20
ENDBRANCH  16  18
ENDBRANCH   1  16
TORSDOF 6
