REMARK  4 active torsions:
REMARK  status: ('A' for Active; 'I' for Inactive)
REMARK    1  A    between atoms: C_3  and  CA_1 
REMARK    2  A    between atoms: N_4  and  CA_1 
REMARK    3  A    between atoms: C_5  and  C_2 
REMARK    4  A    between atoms: OXT_10  and  C_3 
REMARK       I    between atoms: C_6  and  N_4 
ROOT
ATOM      1  CA  UNL d   1       1.151  -0.094   0.037  0.00  0.00     0.110 C 
ATOM      2  C   UNL d   1       0.459  -0.007   1.195  0.00  0.00     0.049 C 
ENDROOT
BRANCH   1   3
ATOM      3  C   UNL d   1       0.489   0.038  -1.302  0.00  0.00     0.193 C 
ATOM      4  O   UNL d   1       1.145   0.334  -2.294  0.00  0.00    -0.645 OA
BRANCH   3   5
ATOM      5  OXT UNL d   1      -0.828  -0.229  -1.358  0.00  0.00    -0.772 OA
ATOM      6  HXT UNL d   1      -1.201  -0.645  -0.561  0.00  0.00     0.167 HD
ENDBRANCH   3   5
ENDBRANCH   1   3
BRANCH   1   7
ATOM      7  N   UNL d   1       2.538  -0.142  -0.045  0.00  0.00    -0.322 N 
ATOM      8  C   UNL d   1       3.320  -1.142   0.501  0.00  0.00     0.218 C 
ATOM      9  O   UNL d   1       2.900  -2.140   1.078  0.00  0.00    -0.274 OA
ATOM     10  C   UNL d   1       4.792  -0.912   0.280  0.00  0.00     0.117 C 
ATOM     11  H   UNL d   1       2.886   0.184  -0.944  0.00  0.00     0.169 HD
ENDBRANCH   1   7
BRANCH   2  12
ATOM     12  C   UNL d   1       1.077   0.121   2.525  0.00  0.00    -0.016 A 
ATOM     13  C   UNL d   1       1.453   1.360   3.070  0.00  0.00     0.021 A 
ATOM     14 BR   UNL d   1       1.022   3.007   2.221  0.00  0.00    -0.050 Br
ATOM     15  C   UNL d   1       2.157   1.420   4.277  0.00  0.00     0.020 A 
ATOM     16  C   UNL d   1       2.480   0.245   4.955  0.00  0.00     0.001 A 
ATOM     17  C   UNL d   1       2.061  -0.984   4.453  0.00  0.00     0.001 A 
ATOM     18  C   UNL d   1       1.347  -1.044   3.256  0.00  0.00     0.013 A 
ENDBRANCH   2  12
TORSDOF 4
