REMARK  2 active torsions:
REMARK  status: ('A' for Active; 'I' for Inactive)
REMARK    1  A    between atoms: C_2  and  C_1 
REMARK    2  A    between atoms: N_9  and  C_1 
ROOT
ATOM      1  C   UNL d   1       0.344   0.374  -1.241  0.00  0.00     0.002 A 
ATOM      2  C   UNL d   1      -0.799   1.185  -1.171  0.00  0.00     0.027 A 
ATOM      3  C   UNL d   1      -1.551   1.480  -2.321  0.00  0.00    -0.025 A 
ATOM      4  C   UNL d   1       0.751  -0.121  -2.485  0.00  0.00     0.015 A 
ATOM      5  C   UNL d   1      -1.138   0.965  -3.571  0.00  0.00    -0.026 A 
ATOM      6  C   UNL d   1       0.019   0.175  -3.638  0.00  0.00     0.013 A 
ATOM      7  C   UNL d   1      -2.709   2.273  -2.255  0.00  0.00     0.012 A 
ATOM      8  C   UNL d   1      -1.894   1.256  -4.718  0.00  0.00     0.012 A 
ATOM      9  C   UNL d   1      -3.452   2.547  -3.404  0.00  0.00     0.001 A 
ATOM     10  C   UNL d   1      -3.046   2.039  -4.633  0.00  0.00     0.001 A 
ENDROOT
BRANCH   1  11
ATOM     11  C   UNL d   1       1.099   0.043   0.002  0.00  0.00     0.104 C 
ATOM     12  S   UNL d   1       2.751  -0.190   0.106  0.00  0.00    -0.060 SA
BRANCH  11  13
ATOM     13  N   UNL d   1       0.359  -0.092   1.150  0.00  0.00    -0.390 N 
ATOM     14  H   UNL d   1      -0.653  -0.090   1.167  0.00  0.00     0.157 HD
ATOM     15  H   UNL d   1       0.837  -0.369   2.001  0.00  0.00     0.157 HD
ENDBRANCH  11  13
ENDBRANCH   1  11
TORSDOF 2
