REMARK  2 active torsions:
REMARK  status: ('A' for Active; 'I' for Inactive)
REMARK    1  A    between atoms: C_5  and  C_1 
REMARK    2  A    between atoms: N_11  and  C_2 
ROOT
ATOM      1  C   UNL d   1       0.285   1.265   0.059  0.00  0.00     0.028 A 
ATOM      2  C   UNL d   1      -0.074   0.622  -1.127  0.00  0.00     0.091 A 
ATOM      3  N   UNL d   1      -0.626  -0.605  -1.179  0.00  0.00    -0.343 N 
ATOM      4  HN  UNL d   1      -0.861  -1.050  -2.067  1.00  0.00     0.167 HD
ATOM      5  N   UNL d   1      -0.571  -0.713   1.198  0.00  0.00    -0.361 N 
ATOM      6  HN  UNL d   1      -0.773  -1.219   2.060  1.00  0.00     0.166 HD
ATOM      7  C   UNL d   1      -0.851  -1.211  -0.009  0.00  0.00     0.181 A 
ATOM      8  C   UNL d   1      -0.002   0.511   1.193  0.00  0.00     0.104 A 
ENDROOT
BRANCH   1   9
ATOM      9  C   UNL d   1       0.907   2.607   0.166  0.00  0.00    -0.021 A 
ATOM     10  C   UNL d   1       0.556   3.493   1.203  0.00  0.00     0.013 A 
ATOM     11  C   UNL d   1       1.157   4.752   1.329  0.00  0.00     0.007 A 
ATOM     12  C   UNL d   1       2.118   5.176   0.409  0.00  0.00    -0.062 A 
ATOM     13  C   UNL d   1       2.476   4.315  -0.629  0.00  0.00     0.007 A 
ATOM     14  C   UNL d   1       2.762   6.522   0.558  0.00  0.00     0.048 C 
ATOM     15  C   UNL d   1       1.888   3.049  -0.739  0.00  0.00     0.013 A 
ENDBRANCH   1   9
BRANCH   2  16
ATOM     16  N   UNL d   1       0.130   1.193  -2.389  0.00  0.00    -0.288 NA
ATOM     17  H   UNL d   1      -0.279   2.119  -2.442  0.00  0.00     0.125 HD
ATOM     18  H   UNL d   1      -0.266   0.554  -3.073  0.00  0.00     0.125 HD
ENDBRANCH   2  16
TORSDOF 2
