REMARK  8 active torsions:
REMARK  status: ('A' for Active; 'I' for Inactive)
REMARK    1  A    between atoms: N_5  and  C_1 
REMARK    2  A    between atoms: C_4  and  C_6 
REMARK    3  A    between atoms: C_16  and  N_7 
REMARK    4  A    between atoms: S_12  and  C_22 
REMARK    5  A    between atoms: C_23  and  S_12 
REMARK    6  A    between atoms: C_19  and  C_16 
REMARK    7  A    between atoms: C_22  and  C_19 
REMARK    8  A    between atoms: O_24  and  C_19 
ROOT
ATOM      1  N   UNL d   1       0.446   2.539  -0.335  0.00  0.00    -0.214 N 
ATOM      2  N   UNL d   1       0.804   5.463  -0.010  0.00  0.00     0.094 N 
ATOM      3  C   UNL d   1      -0.292   3.256   0.710  0.00  0.00     0.171 C 
ATOM      4  C   UNL d   1       1.727   3.142  -0.711  0.00  0.00     0.171 C 
ATOM      5  C   UNL d   1      -0.458   4.742   0.312  0.00  0.00     0.293 C 
ATOM      6  C   UNL d   1       1.542   4.656  -1.018  0.00  0.00     0.293 C 
ENDROOT
BRANCH   1   7
ATOM      7  C   UNL d   1       0.371   1.157  -0.282  0.00  0.00     0.680 A 
ATOM      8  N   UNL d   1      -0.705   0.611   0.305  0.00  0.00    -0.186 N 
ATOM      9  C   UNL d   1      -0.856  -0.738   0.293  0.00  0.00     0.133 A 
ATOM     10  HN  UNL d   1      -1.402   1.203   0.756  1.00  0.00     0.184 HD
ATOM     11  C   UNL d   1       0.082  -1.563  -0.294  0.00  0.00     0.052 A 
ATOM     12  C   UNL d   1       1.159  -0.927  -0.858  0.00  0.00     0.108 A 
ATOM     13  N   UNL d   1       1.321   0.408  -0.862  0.00  0.00    -0.202 N 
ATOM     14  HN  UNL d   1       2.139   0.838  -1.293  1.00  0.00     0.183 HD
BRANCH   9  15
ATOM     15  C   UNL d   1      -2.093  -1.341   0.928  0.00  0.00     0.433 C 
ATOM     16  F   UNL d   1      -2.959  -0.425   1.449  0.00  0.00    -0.165 F 
ATOM     17  F   UNL d   1      -2.825  -2.083   0.046  0.00  0.00    -0.165 F 
ATOM     18  F   UNL d   1      -1.790  -2.189   1.954  0.00  0.00    -0.165 F 
ENDBRANCH   9  15
ENDBRANCH   1   7
BRANCH   2  19
ATOM     19  C   UNL d   1       1.568   5.715   1.221  0.00  0.00     0.304 C 
BRANCH  19  20
ATOM     20  C   UNL d   1       2.849   6.577   1.114  0.00  0.00     0.156 C 
BRANCH  20  21
ATOM     21  C   UNL d   1       2.617   7.989   0.535  0.00  0.00     0.113 C 
BRANCH  21  22
ATOM     22  S   UNL d   1       4.245   8.835   0.365  0.00  0.00    -0.127 SA
BRANCH  22  23
ATOM     23  C   UNL d   1       3.874  10.472  -0.246  0.00  0.00     0.000 A 
ATOM     24  C   UNL d   1       2.604  10.950  -0.572  0.00  0.00     0.018 A 
ATOM     25  C   UNL d   1       2.437  12.255  -1.054  0.00  0.00     0.001 A 
ATOM     26  C   UNL d   1       3.537  13.097  -1.214  0.00  0.00     0.000 A 
ATOM     27  C   UNL d   1       4.810  12.638  -0.891  0.00  0.00     0.001 A 
ATOM     28  C   UNL d   1       4.974  11.334  -0.412  0.00  0.00     0.018 A 
ENDBRANCH  22  23
ENDBRANCH  21  22
ENDBRANCH  20  21
BRANCH  20  29
ATOM     29  O   UNL d   1       3.394   6.659   2.446  0.00  0.00    -0.393 OA
ATOM     30  H   UNL d   1       2.845   7.278   2.958  0.00  0.00     0.210 HD
ENDBRANCH  20  29
ENDBRANCH  19  20
ENDBRANCH   2  19
TORSDOF 8
