REMARK  3 active torsions:
REMARK  status: ('A' for Active; 'I' for Inactive)
REMARK    1  A    between atoms: C_7  and  N_1 
REMARK    2  A    between atoms: N_4  and  N_2 
REMARK    3  A    between atoms: N_5  and  C_13 
ROOT
ATOM      1  N   UNL d   1      -1.681   3.627  -4.464  0.00  0.00    -0.244 N 
ATOM      2  HN  UNL d   1      -1.357   2.762  -4.897  1.00  0.00     0.208 HD
ATOM      3  N   UNL d   1      -1.708   3.792  -3.230  0.00  0.00    -0.287 N 
ATOM      4  HN  UNL d   1      -2.158   4.581  -2.766  1.00  0.00     0.188 HD
ENDROOT
BRANCH   3   5
ATOM      5  C   UNL d   1      -1.039   2.748  -2.555  0.00  0.00     0.049 A 
ATOM      6  C   UNL d   1      -0.339   3.063  -1.380  0.00  0.00     0.033 A 
ATOM      7  C   UNL d   1       0.411   2.094  -0.701  0.00  0.00     0.038 A 
ATOM      8  C   UNL d   1       0.459   0.787  -1.200  0.00  0.00     0.103 A 
ATOM      9  C   UNL d   1      -0.272   0.439  -2.341  0.00  0.00     0.038 A 
ATOM     10  C   UNL d   1      -1.021   1.416  -3.005  0.00  0.00     0.033 A 
BRANCH   8  11
ATOM     11  N   UNL d   1       1.297  -0.220  -0.537  0.00  0.00    -0.116 N 
ATOM     12  O   UNL d   1       1.335  -1.354  -1.031  0.00  0.00    -0.532 OA
ATOM     13  O   UNL d   1       1.926   0.130   0.474  0.00  0.00    -0.532 OA
ENDBRANCH   8  11
ENDBRANCH   3   5
BRANCH   1  14
ATOM     14  N   UNL d   1      -2.116   4.691  -5.188  0.00  0.00    -0.309 N 
ATOM     15  C   UNL d   1      -2.237   4.522  -6.628  0.00  0.00     0.170 C 
ATOM     16  C   UNL d   1      -3.704   4.641  -7.046  0.00  0.00     0.189 C 
ATOM     17  O   UNL d   1      -4.272   5.880  -6.582  0.00  0.00    -0.388 OA
ATOM     18  C   UNL d   1      -4.209   5.965  -5.145  0.00  0.00     0.189 C 
ATOM     19  C   UNL d   1      -2.764   5.877  -4.641  0.00  0.00     0.170 C 
ENDBRANCH   1  14
TORSDOF 3
