REMARK  4 active torsions:
REMARK  status: ('A' for Active; 'I' for Inactive)
REMARK    1  A    between atoms: N_4  and  S_1 
REMARK    2  A    between atoms: C_5  and  S_1 
REMARK    3  A    between atoms: N_2  and  C_3 
REMARK    4  A    between atoms: C_10  and  N_4 
ROOT
ATOM      1  N   UNL d   1       0.540   1.591   0.298  0.00  0.00    -0.281 N 
ATOM      2  H   UNL d   1      -0.410   1.745  -0.038  0.00  0.00     0.179 HD
ENDROOT
BRANCH   1   3
ATOM      3  S   UNL d   1       1.087   0.027  -0.055  0.00  0.00     0.263 S 
ATOM      4  O   UNL d   1       2.526  -0.010   0.098  0.00  0.00    -0.200 OA
ATOM      5  O   UNL d   1       0.449  -0.349  -1.298  0.00  0.00    -0.200 OA
BRANCH   3   6
ATOM      6  C   UNL d   1       0.372  -0.982   1.232  0.00  0.00     0.079 A 
ATOM      7  C   UNL d   1      -0.889  -1.558   1.046  0.00  0.00     0.026 A 
ATOM      8  C   UNL d   1      -1.415  -2.399   2.032  0.00  0.00     0.008 A 
ATOM      9  C   UNL d   1      -0.685  -2.676   3.197  0.00  0.00    -0.062 A 
ATOM     10  C   UNL d   1       0.576  -2.090   3.369  0.00  0.00     0.008 A 
ATOM     11  C   UNL d   1      -1.238  -3.619   4.226  0.00  0.00     0.048 C 
ATOM     12  C   UNL d   1       1.109  -1.254   2.387  0.00  0.00     0.026 A 
ENDBRANCH   3   6
ENDBRANCH   1   3
BRANCH   1  13
ATOM     13  C   UNL d   1       0.906   2.170   1.542  0.00  0.00     0.045 A 
ATOM     14  C   UNL d   1       2.116   2.847   1.659  0.00  0.00     0.066 A 
ATOM     15  C   UNL d   1       2.501   3.332   2.916  0.00  0.00     0.111 A 
ATOM     16  C   UNL d   1       1.712   3.132   4.066  0.00  0.00    -0.029 A 
ATOM     17  C   UNL d   1       0.496   2.454   3.910  0.00  0.00     0.011 A 
ATOM     18  C   UNL d   1       2.109   3.615   5.434  0.00  0.00     0.050 C 
ATOM     19  C   UNL d   1       0.090   1.987   2.657  0.00  0.00     0.031 A 
BRANCH  15  20
ATOM     20  N   UNL d   1       3.754   4.069   2.990  0.00  0.00    -0.115 N 
ATOM     21  O   UNL d   1       3.852   5.078   2.282  0.00  0.00    -0.532 OA
ATOM     22  O   UNL d   1       4.627   3.631   3.750  0.00  0.00    -0.532 OA
ENDBRANCH  15  20
ENDBRANCH   1  13
TORSDOF 4
