REMARK  4 active torsions:
REMARK  status: ('A' for Active; 'I' for Inactive)
REMARK    1  A    between atoms: C_2  and  S_1 
REMARK    2  A    between atoms: C_10  and  S_1 
REMARK    3  A    between atoms: C_5  and  C_2 
REMARK    4  A    between atoms: C_3  and  C_4 
ROOT
ATOM      1  C   UNL d   1       1.506  -3.213  -3.967  0.00  0.00     0.064 A 
ATOM      2  C   UNL d   1       0.935  -2.194  -1.454  0.00  0.00     0.045 A 
ATOM      3  N   UNL d   1       0.004  -2.091  -2.445  0.00  0.00    -0.366 N 
ATOM      4  HN  UNL d   1      -0.896  -1.645  -2.271  1.00  0.00     0.165 HD
ATOM      5  C   UNL d   1       2.166  -2.816  -1.671  0.00  0.00     0.058 A 
ATOM      6  C   UNL d   1       2.450  -3.322  -2.942  0.00  0.00     0.043 A 
ATOM      7  C   UNL d   1       0.304  -2.596  -3.664  0.00  0.00     0.104 A 
ATOM      8 CL   UNL d   1       3.341  -3.036  -0.432  0.00  0.00    -0.082 Cl
ENDROOT
BRANCH   2   9
ATOM      9  C   UNL d   1       0.512  -1.631  -0.133  0.00  0.00     0.204 C 
BRANCH   9  10
ATOM     10  S   UNL d   1       1.041   0.054   0.023  0.00  0.00     0.180 S 
ATOM     11  O   UNL d   1       2.489   0.112  -0.069  0.00  0.00    -0.222 OA
ATOM     12  O   UNL d   1       0.381   0.605   1.195  0.00  0.00    -0.222 OA
BRANCH  10  13
ATOM     13  C   UNL d   1       0.403   0.951  -1.380  0.00  0.00     0.059 A 
ATOM     14  C   UNL d   1      -0.842   1.584  -1.293  0.00  0.00     0.025 A 
ATOM     15  C   UNL d   1      -1.287   2.374  -2.357  0.00  0.00     0.025 A 
ATOM     16  C   UNL d   1      -0.487   2.532  -3.490  0.00  0.00     0.034 A 
ATOM     17  C   UNL d   1       0.758   1.909  -3.571  0.00  0.00     0.025 A 
ATOM     18 CL   UNL d   1      -1.030   3.523  -4.788  0.00  0.00    -0.084 Cl
ATOM     19  C   UNL d   1       1.212   1.124  -2.510  0.00  0.00     0.025 A 
ENDBRANCH  10  13
ENDBRANCH   9  10
ENDBRANCH   2   9
BRANCH   1  20
ATOM     20  C   UNL d   1       1.739  -3.738  -5.350  0.00  0.00     0.418 C 
ATOM     21  F   UNL d   1       2.960  -4.316  -5.512  0.00  0.00    -0.166 F 
ATOM     22  F   UNL d   1       0.827  -4.682  -5.707  0.00  0.00    -0.166 F 
ATOM     23  F   UNL d   1       1.657  -2.761  -6.293  0.00  0.00    -0.166 F 
ENDBRANCH   1  20
TORSDOF 4
