REMARK  4 active torsions:
REMARK  status: ('A' for Active; 'I' for Inactive)
REMARK    1  A    between atoms: C_2  and  C_1 
REMARK    2  A    between atoms: C_3  and  C_2 
REMARK    3  A    between atoms: N_8  and  C_4 
REMARK    4  A    between atoms: C_9  and  N_8 
ROOT
ATOM      1  C   UNL d   1       0.927   0.036  -0.086  0.00  0.00     0.112 C 
ATOM      2  C   UNL d   1       0.257   1.134   0.317  0.00  0.00     0.116 C 
ATOM      3  C   UNL d   1       0.223  -1.093  -0.586  0.00  0.00     0.105 C 
ATOM      4  N   UNL d   1      -0.394  -1.981  -1.008  0.00  0.00    -0.191 NA
ENDROOT
BRANCH   1   5
ATOM      5  C   UNL d   1       2.429   0.057  -0.054  0.00  0.00     0.227 C 
ATOM      6  O   UNL d   1       3.013   1.143  -0.026  0.00  0.00    -0.284 OA
BRANCH   5   7
ATOM      7  C   UNL d   1       3.165  -1.199  -0.043  0.00  0.00     0.126 A 
ATOM      8  O   UNL d   1       2.500  -2.385   0.105  0.00  0.00    -0.319 OA
ATOM      9  C   UNL d   1       3.415  -3.382   0.063  0.00  0.00     0.142 A 
ATOM     10  C   UNL d   1       4.678  -2.864  -0.074  0.00  0.00     0.027 A 
ATOM     11  C   UNL d   1       4.521  -1.456  -0.129  0.00  0.00     0.043 A 
ENDBRANCH   5   7
ENDBRANCH   1   5
BRANCH   2  12
ATOM     12  N   UNL d   1      -1.107   1.288   0.426  0.00  0.00    -0.351 N 
ATOM     13  H   UNL d   1      -1.669   0.447   0.547  0.00  0.00     0.166 HD
BRANCH  12  14
ATOM     14  C   UNL d   1      -1.843   2.396   0.836  0.00  0.00     0.104 A 
ATOM     15  N   UNL d   1      -3.039   2.113   1.393  0.00  0.00    -0.352 N 
ATOM     16  C   UNL d   1      -3.810   3.146   1.799  0.00  0.00     0.089 A 
ATOM     17  HN  UNL d   1      -3.352   1.149   1.504  1.00  0.00     0.166 HD
ATOM     18  C   UNL d   1      -3.456   4.473   1.653  0.00  0.00     0.017 A 
ATOM     19  C   UNL d   1      -2.232   4.756   1.063  0.00  0.00     0.005 A 
ATOM     20  C   UNL d   1      -1.410   3.706   0.659  0.00  0.00     0.048 A 
ENDBRANCH  12  14
ENDBRANCH   2  12
TORSDOF 4
