REMARK  7 active torsions:
REMARK  status: ('A' for Active; 'I' for Inactive)
REMARK    1  A    between atoms: C_10  and  C_1 
REMARK    2  A    between atoms: N_8  and  C_2 
REMARK    3  A    between atoms: N_6  and  C_11 
REMARK       I    between atoms: C_7  and  N_8 
REMARK       I    between atoms: N_13  and  C_7 
REMARK    4  A    between atoms: O_25  and  C_10 
REMARK    5  A    between atoms: C_24  and  N_13 
REMARK    6  A    between atoms: C_16  and  C_17 
REMARK    7  A    between atoms: C_31  and  O_25 
ROOT
ATOM      1  C   UNL d   1       2.016  -0.915   0.105  0.00  0.00     0.138 C 
ATOM      2  C   UNL d   1       1.027  -1.909  -0.014  0.00  0.00     0.082 C 
ATOM      3  N   UNL d   1       1.387   0.266  -0.289  0.00  0.00    -0.344 N 
ATOM      4  C   UNL d   1      -0.257  -1.194  -0.241  0.00  0.00     0.022 A 
ATOM      5  C   UNL d   1       0.017   0.167  -0.242  0.00  0.00     0.047 A 
ATOM      6  C   UNL d   1      -1.623  -1.554  -0.441  0.00  0.00     0.052 A 
ATOM      7  C   UNL d   1      -2.612  -0.538  -0.575  0.00  0.00     0.103 A 
ATOM      8  C   UNL d   1      -0.959   1.181  -0.301  0.00  0.00     0.033 A 
ATOM      9  C   UNL d   1      -2.287   0.814  -0.465  0.00  0.00     0.038 A 
ATOM     10  C   UNL d   1       2.013   1.486  -0.775  0.00  0.00     0.157 C 
ENDROOT
BRANCH   2  11
ATOM     11  N   UNL d   1       1.029  -3.306   0.122  0.00  0.00    -0.305 N 
ATOM     12  C   UNL d   1       1.886  -4.366   0.237  0.00  0.00     0.325 C 
ATOM     13  N   UNL d   1       3.175  -4.282  -0.207  0.00  0.00    -0.309 N 
ATOM     14  O   UNL d   1       1.381  -5.427   0.621  0.00  0.00    -0.247 OA
ATOM     15  H   UNL d   1       3.320  -3.574  -0.910  0.00  0.00     0.170 HD
ATOM     16  H   UNL d   1       0.089  -3.679   0.218  0.00  0.00     0.171 HD
BRANCH  13  17
ATOM     17  C   UNL d   1       4.113  -5.375  -0.186  0.00  0.00     0.036 A 
ATOM     18  C   UNL d   1       4.964  -5.560  -1.274  0.00  0.00     0.030 A 
ATOM     19  C   UNL d   1       5.948  -6.581  -1.290  0.00  0.00     0.010 A 
ATOM     20  C   UNL d   1       6.163  -7.443  -0.197  0.00  0.00    -0.051 A 
ATOM     21  C   UNL d   1       5.311  -7.239   0.905  0.00  0.00     0.010 A 
ATOM     22  C   UNL d   1       4.293  -6.238   0.906  0.00  0.00     0.030 A 
BRANCH  20  23
ATOM     23  C   UNL d   1       7.285  -8.521  -0.255  0.00  0.00    -0.024 C 
ATOM     24  C   UNL d   1       7.445  -9.374   1.030  0.00  0.00     0.019 C 
ATOM     25  C   UNL d   1       7.031  -9.527  -1.405  0.00  0.00     0.019 C 
ATOM     26  C   UNL d   1       8.665  -7.865  -0.512  0.00  0.00     0.019 C 
ENDBRANCH  20  23
ENDBRANCH  13  17
ENDBRANCH   2  11
BRANCH   1  27
ATOM     27  C   UNL d   1       3.412  -0.859   0.540  0.00  0.00     0.312 C 
ATOM     28  O   UNL d   1       4.122   0.145   0.421  0.00  0.00    -0.258 OA
BRANCH  27  29
ATOM     29  O   UNL d   1       3.845  -1.989   1.144  0.00  0.00    -0.317 OA
BRANCH  29  30
ATOM     30  C   UNL d   1       5.230  -1.948   1.572  0.00  0.00     0.175 C 
ATOM     31  C   UNL d   1       6.133  -2.486   0.477  0.00  0.00     0.034 C 
ENDBRANCH  29  30
ENDBRANCH  27  29
ENDBRANCH   1  27
BRANCH   7  32
ATOM     32  N   UNL d   1      -4.012  -0.888  -0.868  0.00  0.00    -0.116 N 
ATOM     33  O   UNL d   1      -4.276  -2.082  -1.054  0.00  0.00    -0.532 OA
ATOM     34  O   UNL d   1      -4.846   0.034  -0.924  0.00  0.00    -0.532 OA
ENDBRANCH   7  32
TORSDOF 7
