REMARK  5 active torsions:
REMARK  status: ('A' for Active; 'I' for Inactive)
REMARK    1  A    between atoms: N_2  and  S_1 
REMARK    2  A    between atoms: C_4  and  S_1 
REMARK    3  A    between atoms: C_3  and  N_2 
REMARK    4  A    between atoms: C_18  and  N_2 
REMARK    5  A    between atoms: C_16  and  C_18 
ROOT
ATOM      1  N   UNL d   1       2.865   3.886  -2.879  0.00  0.00    -0.197 NA
ATOM      2  C   UNL d   1       2.652   2.800  -2.543  0.00  0.00     0.060 C 
ATOM      3  C   UNL d   1       2.370   1.423  -2.094  0.00  0.00     0.139 C 
ENDROOT
BRANCH   3   4
ATOM      4  C   UNL d   1       0.863   1.225  -1.918  0.00  0.00     0.122 C 
BRANCH   4   5
ATOM      5  N   UNL d   1       0.415  -0.194  -1.495  0.00  0.00    -0.201 NA
BRANCH   5   6
ATOM      6  S   UNL d   1       1.065  -0.487   0.143  0.00  0.00     0.244 S 
ATOM      7  O   UNL d   1       0.445   0.504   0.999  0.00  0.00    -0.206 OA
ATOM      8  O   UNL d   1       2.506  -0.556   0.027  0.00  0.00    -0.206 OA
BRANCH   6   9
ATOM      9  C   UNL d   1       0.577  -2.086   0.722  0.00  0.00     0.074 C 
ATOM     10  C   UNL d   1       1.099  -3.232   0.117  0.00  0.00     0.026 C 
ATOM     11  C   UNL d   1       0.593  -4.488   0.467  0.00  0.00     0.020 C 
ATOM     12  C   UNL d   1      -0.371  -4.591   1.470  0.00  0.00     0.011 C 
ATOM     13  C   UNL d   1      -0.799  -3.457   2.162  0.00  0.00     0.020 C 
ATOM     14 BR   UNL d   1      -1.139  -6.272   1.863  0.00  0.00    -0.051 Br
ATOM     15  C   UNL d   1      -0.319  -2.198   1.794  0.00  0.00     0.026 C 
ENDBRANCH   6   9
ENDBRANCH   5   6
BRANCH   5  16
ATOM     16  C   UNL d   1      -1.121  -0.340  -1.655  0.00  0.00     0.075 C 
ATOM     17  C   UNL d   1      -1.637  -1.785  -1.508  0.00  0.00     0.029 C 
ATOM     18  C   UNL d   1      -1.371  -2.766  -2.681  0.00  0.00    -0.046 C 
ATOM     19  C   UNL d   1       0.109  -3.073  -2.975  0.00  0.00     0.015 C 
ATOM     20  C   UNL d   1      -2.066  -4.103  -2.349  0.00  0.00     0.015 C 
ATOM     21  C   UNL d   1      -1.991  -2.159  -3.947  0.00  0.00     0.013 C 
ATOM     22  C   UNL d   1      -1.437  -0.751  -4.213  0.00  0.00    -0.016 C 
ATOM     23  C   UNL d   1      -1.712   0.171  -3.008  0.00  0.00     0.025 C 
ATOM     24  C   UNL d   1      -2.060  -0.218  -5.503  0.00  0.00     0.010 C 
ENDBRANCH   5  16
ENDBRANCH   4   5
ENDBRANCH   3   4
TORSDOF 5
