REMARK  7 active torsions:
REMARK  status: ('A' for Active; 'I' for Inactive)
REMARK    1  A    between atoms: C_7  and  C_1 
REMARK    2  A    between atoms: C_9  and  C_2 
REMARK    3  A    between atoms: N_5  and  C_6 
REMARK       I    between atoms: N_12  and  C_9 
REMARK       I    between atoms: C_11  and  N_14 
REMARK    4  A    between atoms: C_21  and  C_11 
REMARK    5  A    between atoms: N_14  and  N_12 
REMARK    6  A    between atoms: C_15  and  S_16 
REMARK    7  A    between atoms: S_16  and  C_21 
ROOT
ATOM      1  C   UNL d   1      -0.007  -2.620  -0.173  0.00  0.00     0.275 C 
ATOM      2  N   UNL d   1      -0.965  -3.621  -0.237  0.00  0.00    -0.263 N 
ATOM      3  O   UNL d   1       1.168  -2.989  -0.121  0.00  0.00    -0.266 OA
ATOM      4  H   UNL d   1      -0.580  -4.548  -0.399  0.00  0.00     0.190 HD
ENDROOT
BRANCH   2   5
ATOM      5  N   UNL d   1      -2.336  -3.460  -0.434  0.00  0.00    -0.267 N 
ATOM      6  C   UNL d   1      -2.849  -3.228  -1.697  0.00  0.00     0.245 C 
ATOM      7  O   UNL d   1      -2.134  -2.977  -2.666  0.00  0.00    -0.271 OA
ATOM      8  H   UNL d   1      -2.950  -3.876   0.265  0.00  0.00     0.190 HD
BRANCH   6   9
ATOM      9  C   UNL d   1      -4.379  -3.232  -1.810  0.00  0.00     0.184 C 
BRANCH   9  10
ATOM     10  S   UNL d   1      -5.215  -3.961  -0.344  0.00  0.00    -0.118 SA
BRANCH  10  11
ATOM     11  C   UNL d   1      -6.905  -4.339  -0.833  0.00  0.00     0.034 A 
ATOM     12  C   UNL d   1      -7.708  -3.816  -1.856  0.00  0.00     0.119 A 
ATOM     13  C   UNL d   1      -9.034  -4.243  -2.079  0.00  0.00     0.037 A 
ATOM     14  C   UNL d   1      -9.598  -5.203  -1.248  0.00  0.00     0.003 A 
ATOM     15  C   UNL d   1      -8.842  -5.727  -0.204  0.00  0.00     0.002 A 
ATOM     16  C   UNL d   1      -7.521  -5.303  -0.003  0.00  0.00     0.021 A 
BRANCH  12  17
ATOM     17  N   UNL d   1      -7.254  -2.759  -2.713  0.00  0.00    -0.114 N 
ATOM     18  O   UNL d   1      -7.182  -1.622  -2.223  0.00  0.00    -0.532 OA
ATOM     19  O   UNL d   1      -6.977  -3.063  -3.883  0.00  0.00    -0.532 OA
ENDBRANCH  12  17
ENDBRANCH  10  11
ENDBRANCH   9  10
ENDBRANCH   6   9
ENDBRANCH   2   5
BRANCH   1  20
ATOM     20  C   UNL d   1      -0.357  -1.210  -0.185  0.00  0.00     0.094 A 
ATOM     21  C   UNL d   1       0.469  -0.115  -0.651  0.00  0.00     0.085 A 
ATOM     22  N   UNL d   1      -0.204   1.042  -0.550  0.00  0.00    -0.259 N 
ATOM     23  O   UNL d   1      -1.389   0.760   0.064  0.00  0.00    -0.241 OA
ATOM     24  HN  UNL d   1       0.110   1.958  -0.871  1.00  0.00     0.195 HD
ATOM     25  C   UNL d   1      -1.479  -0.569   0.312  0.00  0.00     0.090 A 
ATOM     26  C   UNL d   1      -2.703  -0.941   1.046  0.00  0.00     0.080 C 
BRANCH  21  27
ATOM     27  C   UNL d   1       1.815  -0.103  -1.246  0.00  0.00     0.015 A 
ATOM     28  C   UNL d   1       2.789   0.856  -0.896  0.00  0.00     0.046 A 
ATOM     29 CL   UNL d   1       2.587   1.999   0.393  0.00  0.00    -0.083 Cl
ATOM     30  C   UNL d   1       4.018   0.908  -1.572  0.00  0.00     0.025 A 
ATOM     31  C   UNL d   1       4.309  -0.008  -2.579  0.00  0.00     0.002 A 
ATOM     32  C   UNL d   1       3.373  -0.985  -2.909  0.00  0.00     0.001 A 
ATOM     33  C   UNL d   1       2.135  -1.026  -2.257  0.00  0.00     0.015 A 
ENDBRANCH  21  27
ENDBRANCH   1  20
TORSDOF 7
