REMARK  2 active torsions:
REMARK  status: ('A' for Active; 'I' for Inactive)
REMARK       I    between atoms: C_2  and  N_1 
REMARK    1  A    between atoms: C_3  and  N_1 
REMARK    2  A    between atoms: C_5  and  C_3 
ROOT
ATOM      1  C   UNL d   1       2.495  -0.051   0.043  0.00  0.00     0.113 C 
ATOM      2  C   UNL d   1       3.060  -1.129  -0.888  0.00  0.00     0.037 C 
ENDROOT
BRANCH   1   3
ATOM      3  N   UNL d   1       1.042  -0.026  -0.011  0.00  0.00    -0.353 N 
ATOM      4  C   UNL d   1       0.362   0.566  -1.046  0.00  0.00     0.214 C 
ATOM      5  O   UNL d   1       0.910   1.144  -1.980  0.00  0.00    -0.274 OA
ATOM      6  C   UNL d   1      -1.135   0.441  -0.959  0.00  0.00     0.117 C 
ATOM      7  H   UNL d   1       0.535  -0.507   0.719  0.00  0.00     0.163 HD
ENDBRANCH   1   3
BRANCH   1   8
ATOM      8  C   UNL d   1       2.943  -0.199   1.487  0.00  0.00    -0.036 A 
ATOM      9  C   UNL d   1       3.108  -1.450   2.103  0.00  0.00     0.009 A 
ATOM     10  C   UNL d   1       3.521  -1.543   3.434  0.00  0.00     0.001 A 
ATOM     11  C   UNL d   1       3.758  -0.388   4.174  0.00  0.00     0.000 A 
ATOM     12  C   UNL d   1       3.574   0.862   3.588  0.00  0.00     0.001 A 
ATOM     13  C   UNL d   1       3.165   0.956   2.256  0.00  0.00     0.009 A 
ENDBRANCH   1   8
TORSDOF 2
