REMARK  1 active torsions:
REMARK  status: ('A' for Active; 'I' for Inactive)
REMARK    1  A    between atoms: C_6  and  C_1 
ROOT
ATOM      1  C   UNL d   1      -2.403  -0.124  -0.070  0.00  0.00     0.043 A 
ATOM      2  N   UNL d   1      -1.579   0.981  -0.055  0.00  0.00    -0.355 N 
ATOM      3  C   UNL d   1      -1.566  -1.227  -0.025  0.00  0.00     0.044 A 
ATOM      4  C   UNL d   1      -0.254   0.616  -0.036  0.00  0.00     0.043 A 
ATOM      5  C   UNL d   1      -0.218  -0.776  -0.016  0.00  0.00    -0.007 A 
ATOM      6  C   UNL d   1       0.902   1.404  -0.033  0.00  0.00     0.030 A 
ATOM      7  C   UNL d   1       1.033  -1.422   0.006  0.00  0.00     0.014 A 
ATOM      8  C   UNL d   1       2.200  -0.650   0.003  0.00  0.00     0.001 A 
ATOM      9  C   UNL d   1       2.133   0.741  -0.016  0.00  0.00     0.002 A 
ATOM     10  H   UNL d   1      -1.901   1.938  -0.047  0.00  0.00     0.166 HD
ENDROOT
BRANCH   1  11
ATOM     11  C   UNL d   1      -3.863  -0.033  -0.100  0.00  0.00    -0.009 A 
ATOM     12  C   UNL d   1      -4.508   1.016  -0.772  0.00  0.00     0.015 A 
ATOM     13  C   UNL d   1      -5.903   1.105  -0.785  0.00  0.00     0.024 A 
ATOM     14  C   UNL d   1      -6.664   0.142  -0.128  0.00  0.00     0.034 A 
ATOM     15  C   UNL d   1      -6.043  -0.914   0.533  0.00  0.00     0.024 A 
ATOM     16 CL   UNL d   1      -8.380   0.258  -0.135  0.00  0.00    -0.084 Cl
ATOM     17  C   UNL d   1      -4.647  -1.001   0.544  0.00  0.00     0.015 A 
ENDBRANCH   1  11
TORSDOF 1
