REMARK  5 active torsions:
REMARK  status: ('A' for Active; 'I' for Inactive)
REMARK    1  A    between atoms: C_4  and  C_1 
REMARK    2  A    between atoms: N_6  and  C_2 
REMARK    3  A    between atoms: O_14  and  C_4 
REMARK    4  A    between atoms: C_7  and  C_5 
REMARK       I    between atoms: C_8  and  N_6 
REMARK    5  A    between atoms: O_15  and  C_7 
ROOT
ATOM      1  C   UNL d   1       1.456  -0.186   0.136  0.00  0.00     0.067 A 
ATOM      2  C   UNL d   1       0.619  -1.316   0.115  0.00  0.00     0.051 A 
ATOM      3  C   UNL d   1       0.888   1.101   0.180  0.00  0.00     0.037 A 
ATOM      4  C   UNL d   1      -0.501   1.275   0.201  0.00  0.00     0.040 A 
ATOM      5  C   UNL d   1      -0.772  -1.130   0.111  0.00  0.00     0.031 A 
ATOM      6  C   UNL d   1      -1.331   0.155   0.154  0.00  0.00     0.020 A 
ENDROOT
BRANCH   2   7
ATOM      7  N   UNL d   1       1.161  -2.623   0.081  0.00  0.00    -0.327 N 
ATOM      8  C   UNL d   1       0.598  -3.704   0.735  0.00  0.00     0.218 C 
ATOM      9  O   UNL d   1      -0.364  -3.651   1.495  0.00  0.00    -0.274 OA
ATOM     10  C   UNL d   1       1.266  -5.014   0.419  0.00  0.00     0.117 C 
ATOM     11  H   UNL d   1       2.149  -2.696  -0.172  0.00  0.00     0.169 HD
ENDBRANCH   2   7
BRANCH   1  12
ATOM     12  C   UNL d   1       2.935  -0.341   0.192  0.00  0.00     0.295 C 
ATOM     13  O   UNL d   1       3.528  -1.333  -0.198  0.00  0.00    -0.259 OA
BRANCH  12  14
ATOM     14  O   UNL d   1       3.475   0.750   0.782  0.00  0.00    -0.322 OA
ATOM     15  C   UNL d   1       4.895   0.767   0.942  0.00  0.00     0.213 C 
ENDBRANCH  12  14
ENDBRANCH   1  12
BRANCH   4  16
ATOM     16  C   UNL d   1      -1.025   2.664   0.300  0.00  0.00     0.292 C 
ATOM     17  O   UNL d   1      -0.308   3.648   0.333  0.00  0.00    -0.259 OA
BRANCH  16  18
ATOM     18  O   UNL d   1      -2.380   2.668   0.371  0.00  0.00    -0.323 OA
ATOM     19  C   UNL d   1      -2.938   3.967   0.541  0.00  0.00     0.213 C 
ENDBRANCH  16  18
ENDBRANCH   4  16
TORSDOF 5
