REMARK  5 active torsions:
REMARK  status: ('A' for Active; 'I' for Inactive)
REMARK    1  A    between atoms: C_2  and  N_1 
REMARK    2  A    between atoms: C_6  and  C_4 
REMARK    3  A    between atoms: C_9  and  C_6 
REMARK    4  A    between atoms: S_8  and  C_9 
REMARK    5  A    between atoms: C_11  and  S_8 
ROOT
ATOM      1  C   UNL d   1       0.172   3.926  -2.986  0.00  0.00     0.169 C 
ATOM      2  O   UNL d   1       0.349   2.928  -3.686  0.00  0.00    -0.291 OA
ENDROOT
BRANCH   1   3
ATOM      3  C   UNL d   1       0.795   3.961  -1.621  0.00  0.00     0.013 A 
ATOM      4  C   UNL d   1       1.563   2.856  -1.216  0.00  0.00     0.051 A 
ATOM      5  C   UNL d   1       2.164   2.846   0.051  0.00  0.00     0.103 A 
ATOM      6  C   UNL d   1       2.009   3.932   0.922  0.00  0.00     0.036 A 
ATOM      7  C   UNL d   1       1.246   5.027   0.519  0.00  0.00     0.003 A 
ATOM      8  C   UNL d   1       0.641   5.042  -0.743  0.00  0.00     0.015 A 
BRANCH   5   9
ATOM      9  N   UNL d   1       2.967   1.691   0.473  0.00  0.00    -0.116 N 
ATOM     10  O   UNL d   1       3.155   0.787  -0.351  0.00  0.00    -0.532 OA
ATOM     11  O   UNL d   1       3.413   1.692   1.630  0.00  0.00    -0.532 OA
ENDBRANCH   5   9
ENDBRANCH   1   3
BRANCH   1  12
ATOM     12  C   UNL d   1      -0.643   5.102  -3.497  0.00  0.00     0.163 C 
BRANCH  12  13
ATOM     13  S   UNL d   1      -2.341   4.986  -2.849  0.00  0.00    -0.122 SA
BRANCH  13  14
ATOM     14  C   UNL d   1      -3.216   6.170  -3.862  0.00  0.00     0.001 A 
ATOM     15  C   UNL d   1      -4.505   5.834  -4.291  0.00  0.00     0.019 A 
ATOM     16  C   UNL d   1      -5.280   6.744  -5.018  0.00  0.00     0.008 A 
ATOM     17  C   UNL d   1      -4.782   8.014  -5.321  0.00  0.00    -0.062 A 
ATOM     18  C   UNL d   1      -3.489   8.349  -4.903  0.00  0.00     0.008 A 
ATOM     19  C   UNL d   1      -5.636   8.991  -6.075  0.00  0.00     0.048 C 
ATOM     20  C   UNL d   1      -2.713   7.436  -4.176  0.00  0.00     0.019 A 
ENDBRANCH  13  14
ENDBRANCH  12  13
ENDBRANCH   1  12
TORSDOF 5
