REMARK  6 active torsions:
REMARK  status: ('A' for Active; 'I' for Inactive)
REMARK    1  A    between atoms: C_2  and  S_1 
REMARK    2  A    between atoms: N_4  and  S_1 
REMARK    3  A    between atoms: C_11  and  N_4 
REMARK    4  A    between atoms: C_25  and  N_4 
REMARK    5  A    between atoms: C_16  and  C_11 
REMARK    6  A    between atoms: C_24  and  C_25 
ROOT
ATOM      1  N   UNL d   1       2.946   0.817  -5.226  0.00  0.00    -0.197 NA
ATOM      2  C   UNL d   1       2.671   0.366  -4.193  0.00  0.00     0.060 C 
ATOM      3  C   UNL d   1       2.307  -0.189  -2.883  0.00  0.00     0.139 C 
ENDROOT
BRANCH   3   4
ATOM      4  C   UNL d   1       0.836   0.098  -2.586  0.00  0.00     0.122 C 
BRANCH   4   5
ATOM      5  N   UNL d   1       0.330  -0.581  -1.342  0.00  0.00    -0.199 NA
BRANCH   5   6
ATOM      6  S   UNL d   1       1.007  -0.004   0.118  0.00  0.00     0.246 S 
ATOM      7  O   UNL d   1       2.431  -0.256   0.099  0.00  0.00    -0.206 OA
ATOM      8  O   UNL d   1       0.530   1.347   0.328  0.00  0.00    -0.206 OA
BRANCH   6   9
ATOM      9  C   UNL d   1       0.333  -1.011   1.385  0.00  0.00     0.104 A 
ATOM     10  C   UNL d   1       0.538  -2.408   1.431  0.00  0.00     0.090 A 
ATOM     11  N   UNL d   1       1.189  -3.179   0.545  0.00  0.00    -0.309 N 
ATOM     12  C   UNL d   1      -0.034  -3.210   2.578  0.00  0.00     0.068 A 
ATOM     13  S   UNL d   1       1.141  -4.733   1.123  0.00  0.00     0.068 SA
ATOM     14  HN  UNL d   1       1.629  -2.868  -0.320  1.00  0.00     0.176 HD
ATOM     15  N   UNL d   1       0.239  -4.520   2.499  0.00  0.00    -0.310 N 
ATOM     16  HN  UNL d   1      -0.052  -5.244   3.156  1.00  0.00     0.176 HD
ATOM     17  C   UNL d   1      -0.780  -2.585   3.608  0.00  0.00     0.032 A 
ATOM     18  C   UNL d   1      -0.953  -1.195   3.500  0.00  0.00     0.004 A 
ATOM     19  C   UNL d   1      -0.416  -0.436   2.436  0.00  0.00     0.027 A 
ENDBRANCH   6   9
ENDBRANCH   5   6
BRANCH   5  20
ATOM     20  C   UNL d   1      -1.154  -0.771  -1.379  0.00  0.00     0.172 C 
BRANCH  20  21
ATOM     21  C   UNL d   1      -1.926   0.475  -1.128  0.00  0.00     0.066 A 
ATOM     22  O   UNL d   1      -1.787   1.480  -2.041  0.00  0.00    -0.326 OA
ATOM     23  C   UNL d   1      -2.502   2.537  -1.580  0.00  0.00     0.142 A 
ATOM     24  C   UNL d   1      -3.143   2.211  -0.409  0.00  0.00     0.027 A 
ATOM     25  C   UNL d   1      -2.790   0.869  -0.127  0.00  0.00     0.036 A 
ENDBRANCH  20  21
ENDBRANCH   5  20
ENDBRANCH   4   5
ENDBRANCH   3   4
TORSDOF 6
