REMARK  4 active torsions:
REMARK  status: ('A' for Active; 'I' for Inactive)
REMARK    1  A    between atoms: C_9  and  C_2 
REMARK    2  A    between atoms: S_11  and  C_9 
REMARK    3  A    between atoms: C_14  and  S_11 
REMARK    4  A    between atoms: O_15  and  C_12 
ROOT
ATOM      1  C   UNL d   1      -0.050   0.406   0.018  0.00  0.00     0.092 A 
ATOM      2  C   UNL d   1       1.142  -1.764   0.034  0.00  0.00    -0.030 A 
ATOM      3  O   UNL d   1       1.183   1.088  -0.014  0.00  0.00    -0.275 OA
ATOM      4  C   UNL d   1       2.377   0.398  -0.041  0.00  0.00     0.288 A 
ATOM      5  C   UNL d   1      -0.119  -0.994   0.049  0.00  0.00     0.005 A 
ATOM      6  C   UNL d   1       2.291  -1.068  -0.034  0.00  0.00     0.091 A 
ATOM      7  C   UNL d   1      -1.182   1.226   0.008  0.00  0.00     0.074 A 
ATOM      8  C   UNL d   1      -1.401  -1.561   0.077  0.00  0.00     0.017 A 
ATOM      9  O   UNL d   1       3.463   0.964  -0.076  0.00  0.00    -0.260 OA
ATOM     10  C   UNL d   1      -2.431   0.631   0.030  0.00  0.00     0.068 A 
ATOM     11  C   UNL d   1      -2.549  -0.753   0.063  0.00  0.00     0.037 A 
ENDROOT
BRANCH   2  12
ATOM     12  C   UNL d   1       1.182  -3.279   0.037  0.00  0.00     0.119 C 
BRANCH  12  13
ATOM     13  S   UNL d   1       1.909  -3.878   1.609  0.00  0.00    -0.125 SA
BRANCH  13  14
ATOM     14  C   UNL d   1       2.362  -5.575   1.259  0.00  0.00     0.000 A 
ATOM     15  C   UNL d   1       1.804  -6.356   0.242  0.00  0.00     0.018 A 
ATOM     16  C   UNL d   1       2.188  -7.693   0.079  0.00  0.00     0.001 A 
ATOM     17  C   UNL d   1       3.131  -8.265   0.931  0.00  0.00     0.000 A 
ATOM     18  C   UNL d   1       3.697  -7.500   1.946  0.00  0.00     0.001 A 
ATOM     19  C   UNL d   1       3.314  -6.165   2.107  0.00  0.00     0.018 A 
ENDBRANCH  13  14
ENDBRANCH  12  13
ENDBRANCH   2  12
BRANCH  10  20
ATOM     20  O   UNL d   1      -3.574   1.372   0.019  0.00  0.00    -0.361 OA
ATOM     21  H   UNL d   1      -3.337   2.317   0.008  0.00  0.00     0.217 HD
ENDBRANCH  10  20
TORSDOF 4
