REMARK  7 active torsions:
REMARK  status: ('A' for Active; 'I' for Inactive)
REMARK    1  A    between atoms: O_14  and  C_1 
REMARK    2  A    between atoms: C_2  and  N_10 
REMARK    3  A    between atoms: N_12  and  C_2 
REMARK    4  A    between atoms: O_15  and  C_3 
REMARK    5  A    between atoms: O_16  and  C_4 
REMARK    6  A    between atoms: N_10  and  N_5 
REMARK    7  A    between atoms: C_13  and  C_11 
ROOT
ATOM      1  C   UNL d   1       1.329  -0.360  -0.066  0.00  0.00     0.135 A 
ATOM      2  C   UNL d   1       0.372  -1.399   0.060  0.00  0.00     0.105 A 
ATOM      3  C   UNL d   1       0.893   0.975  -0.151  0.00  0.00     0.105 A 
ATOM      4  C   UNL d   1      -0.996  -1.113  -0.020  0.00  0.00     0.052 A 
ATOM      5  C   UNL d   1      -0.480   1.241  -0.173  0.00  0.00     0.052 A 
ATOM      6  C   UNL d   1      -1.418   0.209  -0.126  0.00  0.00    -0.014 A 
ENDROOT
BRANCH   6   7
ATOM      7  C   UNL d   1      -2.861   0.510  -0.165  0.00  0.00     0.118 C 
ATOM      8  N   UNL d   1      -3.262   1.734  -0.281  0.00  0.00    -0.309 N 
ATOM      9  HN  UNL d   1      -2.593   2.502  -0.343  1.00  0.00     0.186 HD
BRANCH   8  10
ATOM     10  N   UNL d   1      -4.600   1.969  -0.317  0.00  0.00    -0.277 N 
ATOM     11  H   UNL d   1      -5.237   1.188  -0.250  0.00  0.00     0.189 HD
BRANCH  10  12
ATOM     12  C   UNL d   1      -5.080   3.272  -0.453  0.00  0.00     0.186 C 
ATOM     13  S   UNL d   1      -4.101   4.630  -0.561  0.00  0.00    -0.040 SA
BRANCH  12  14
ATOM     14  N   UNL d   1      -6.464   3.297  -0.489  0.00  0.00    -0.370 N 
ATOM     15  C   UNL d   1      -7.307   4.471  -0.635  0.00  0.00     0.148 C 
ATOM     16  H   UNL d   1      -6.950   2.416  -0.428  0.00  0.00     0.161 HD
ENDBRANCH  12  14
ENDBRANCH  10  12
ENDBRANCH   8  10
ENDBRANCH   6   7
BRANCH   3  17
ATOM     17  O   UNL d   1       1.625   2.128  -0.217  0.00  0.00    -0.353 OA
ATOM     18  C   UNL d   1       3.039   2.067  -0.204  0.00  0.00     0.210 C 
ENDBRANCH   3  17
BRANCH   2  19
ATOM     19  O   UNL d   1       0.852  -2.671   0.278  0.00  0.00    -0.353 OA
ATOM     20  C   UNL d   1      -0.064  -3.621   0.810  0.00  0.00     0.210 C 
ENDBRANCH   2  19
BRANCH   1  21
ATOM     21  O   UNL d   1       2.673  -0.623   0.031  0.00  0.00    -0.351 OA
ATOM     22  C   UNL d   1       3.177  -1.534  -0.947  0.00  0.00     0.210 C 
ENDBRANCH   1  21
TORSDOF 7
