REMARK  7 active torsions:
REMARK  status: ('A' for Active; 'I' for Inactive)
REMARK    1  A    between atoms: C_2  and  CA_1 
REMARK    2  A    between atoms: N_3  and  CA_1 
REMARK    3  A    between atoms: C_6  and  CA_1 
REMARK    4  A    between atoms: OXT_13  and  C_2 
REMARK       I    between atoms: C_4  and  N_3 
REMARK    5  A    between atoms: C_5  and  O_8 
REMARK    6  A    between atoms: C_11  and  C_6 
REMARK    7  A    between atoms: O_8  and  C_12 
ROOT
ATOM      1  C   UNL d   1       2.540   0.032   0.030  0.00  0.00     0.074 C 
ENDROOT
BRANCH   1   2
ATOM      2  CA  UNL d   1       1.068  -0.286  -0.301  0.00  0.00     0.186 C 
BRANCH   2   3
ATOM      3  C   UNL d   1       0.081   0.769   0.238  0.00  0.00     0.163 C 
ATOM      4  O   UNL d   1      -0.202   1.810  -0.335  0.00  0.00    -0.648 OA
BRANCH   3   5
ATOM      5  OXT UNL d   1      -0.471   0.448   1.431  0.00  0.00    -0.775 OA
ATOM      6  HXT UNL d   1      -0.347  -0.483   1.693  0.00  0.00     0.167 HD
ENDBRANCH   3   5
ENDBRANCH   2   3
BRANCH   2   7
ATOM      7  N   UNL d   1       0.833  -0.437  -1.735  0.00  0.00    -0.347 N 
ATOM      8  C   UNL d   1      -0.237  -1.196  -2.155  0.00  0.00     0.214 C 
ATOM      9  O   UNL d   1      -0.920  -1.867  -1.387  0.00  0.00    -0.274 OA
ATOM     10  C   UNL d   1      -0.500  -1.136  -3.634  0.00  0.00     0.117 C 
ATOM     11  H   UNL d   1       1.062   0.374  -2.304  0.00  0.00     0.163 HD
ENDBRANCH   2   7
ENDBRANCH   1   2
BRANCH   1  12
ATOM     12  C   UNL d   1       3.096   1.277  -0.626  0.00  0.00    -0.056 A 
ATOM     13  C   UNL d   1       2.737   2.542  -0.140  0.00  0.00     0.010 A 
ATOM     14  C   UNL d   1       3.102   3.698  -0.825  0.00  0.00     0.038 A 
ATOM     15  C   UNL d   1       3.849   3.595  -1.993  0.00  0.00     0.079 A 
ATOM     16  C   UNL d   1       4.312   2.356  -2.432  0.00  0.00     0.038 A 
ATOM     17  C   UNL d   1       3.928   1.195  -1.753  0.00  0.00     0.010 A 
BRANCH  15  18
ATOM     18  O   UNL d   1       4.218   4.725  -2.741  0.00  0.00    -0.279 OA
BRANCH  18  19
ATOM     19  C   UNL d   1       3.229   5.660  -3.047  0.00  0.00     0.260 C 
ATOM     20  O   UNL d   1       2.050   5.622  -2.725  0.00  0.00    -0.265 OA
ATOM     21  C   UNL d   1       3.832   6.783  -3.838  0.00  0.00     0.126 C 
ENDBRANCH  18  19
ENDBRANCH  15  18
ENDBRANCH   1  12
TORSDOF 7
