REMARK  7 active torsions:
REMARK  status: ('A' for Active; 'I' for Inactive)
REMARK    1  A    between atoms: C_7  and  C_1 
REMARK    2  A    between atoms: N_5  and  C_2 
REMARK    3  A    between atoms: C_3  and  C_8 
REMARK       I    between atoms: C_4  and  N_6 
REMARK    4  A    between atoms: C_9  and  C_4 
REMARK    5  A    between atoms: C_10  and  N_5 
REMARK    6  A    between atoms: N_6  and  C_11 
REMARK    7  A    between atoms: O_21  and  C_7 
ROOT
ATOM      1  C   UNL d   1       3.030  -0.539  -0.528  0.00  0.00     0.059 A 
ATOM      2  C   UNL d   1       3.697  -0.082   0.625  0.00  0.00     0.061 A 
ATOM      3  C   UNL d   1       5.052   0.289   0.563  0.00  0.00     0.032 A 
ATOM      4  C   UNL d   1       3.810  -0.762  -1.681  0.00  0.00     0.032 A 
ATOM      5  C   UNL d   1       5.795   0.071  -0.593  0.00  0.00     0.002 A 
ATOM      6  C   UNL d   1       5.181  -0.488  -1.706  0.00  0.00     0.002 A 
ENDROOT
BRANCH   2   7
ATOM      7  N   UNL d   1       3.144  -0.087   1.928  0.00  0.00    -0.321 N 
ATOM      8  C   UNL d   1       2.406  -1.155   2.424  0.00  0.00     0.256 C 
ATOM      9  O   UNL d   1       2.051  -2.152   1.806  0.00  0.00    -0.267 OA
ATOM     10  H   UNL d   1       3.665   0.435   2.619  0.00  0.00     0.169 HD
BRANCH   8  11
ATOM     11  C   UNL d   1       2.181  -1.121   3.898  0.00  0.00     0.033 A 
ATOM     12  C   UNL d   1       2.079   0.081   4.613  0.00  0.00     0.033 A 
ATOM     13  C   UNL d   1       1.950   0.065   6.013  0.00  0.00     0.048 A 
ATOM     14  C   UNL d   1       1.898  -1.171   6.679  0.00  0.00     0.016 A 
ATOM     15  C   UNL d   1       1.973  -2.367   5.967  0.00  0.00     0.002 A 
ATOM     16  C   UNL d   1       2.114  -2.342   4.580  0.00  0.00     0.017 A 
BRANCH  13  17
ATOM     17  C   UNL d   1       1.880   1.347   6.807  0.00  0.00     0.417 C 
ATOM     18  F   UNL d   1       2.033   2.463   6.042  0.00  0.00    -0.166 F 
ATOM     19  F   UNL d   1       0.695   1.496   7.459  0.00  0.00    -0.166 F 
ATOM     20  F   UNL d   1       2.848   1.417   7.761  0.00  0.00    -0.166 F 
ENDBRANCH  13  17
ENDBRANCH   8  11
ENDBRANCH   2   7
BRANCH   1  21
ATOM     21  N   UNL d   1       1.632  -0.693  -0.668  0.00  0.00    -0.356 N 
ATOM     22  H   UNL d   1       1.367  -1.472  -1.275  0.00  0.00     0.166 HD
BRANCH  21  23
ATOM     23  C   UNL d   1       0.584   0.173  -0.375  0.00  0.00     0.032 C 
ATOM     24  C   UNL d   1      -0.703  -0.028  -0.726  0.00  0.00     0.050 C 
ATOM     25  C   UNL d   1      -1.705   1.012  -0.347  0.00  0.00     0.121 C 
ATOM     26  S   UNL d   1      -0.819   2.205   0.679  0.00  0.00    -0.158 SA
ATOM     27  C   UNL d   1       0.814   1.486   0.336  0.00  0.00     0.132 C 
BRANCH  24  28
ATOM     28  C   UNL d   1      -1.165  -1.204  -1.502  0.00  0.00     0.291 C 
ATOM     29  O   UNL d   1      -0.419  -2.010  -2.039  0.00  0.00    -0.260 OA
BRANCH  28  30
ATOM     30  O   UNL d   1      -2.521  -1.221  -1.545  0.00  0.00    -0.323 OA
ATOM     31  C   UNL d   1      -3.110  -2.326  -2.234  0.00  0.00     0.213 C 
ENDBRANCH  28  30
ENDBRANCH  24  28
ENDBRANCH  21  23
ENDBRANCH   1  21
TORSDOF 7
