REMARK  3 active torsions:
REMARK  status: ('A' for Active; 'I' for Inactive)
REMARK    1  A    between atoms: C_2  and  S_1 
REMARK    2  A    between atoms: N_3  and  S_1 
REMARK    3  A    between atoms: C_14  and  N_3 
ROOT
ATOM      1  N   UNL d   1       2.298  -2.804  -7.425  0.00  0.00    -0.191 NA
ATOM      2  C   UNL d   1       2.007  -2.522  -6.337  0.00  0.00     0.099 C 
ATOM      3  C   UNL d   1       0.879  -1.553  -2.373  0.00  0.00     0.042 A 
ATOM      4  C   UNL d   1       1.636  -2.180  -4.993  0.00  0.00     0.044 A 
ATOM      5  C   UNL d   1       2.014  -2.330  -2.601  0.00  0.00     0.031 A 
ATOM      6  C   UNL d   1       0.122  -1.086  -3.448  0.00  0.00     0.031 A 
ATOM      7  C   UNL d   1       2.392  -2.646  -3.912  0.00  0.00     0.025 A 
ATOM      8  C   UNL d   1       0.505  -1.391  -4.757  0.00  0.00     0.025 A 
ENDROOT
BRANCH   3   9
ATOM      9  N   UNL d   1       0.428  -1.319  -1.055  0.00  0.00    -0.281 N 
ATOM     10  H   UNL d   1      -0.300  -1.899  -0.645  0.00  0.00     0.179 HD
BRANCH   9  11
ATOM     11  S   UNL d   1       1.045  -0.087  -0.107  0.00  0.00     0.263 S 
ATOM     12  O   UNL d   1       0.324  -0.145   1.147  0.00  0.00    -0.200 OA
ATOM     13  O   UNL d   1       2.492  -0.140  -0.147  0.00  0.00    -0.200 OA
BRANCH  11  14
ATOM     14  C   UNL d   1       0.511   1.377  -0.967  0.00  0.00     0.080 A 
ATOM     15  C   UNL d   1      -0.742   1.937  -0.677  0.00  0.00     0.035 A 
ATOM     16  C   UNL d   1      -1.130   3.049  -1.405  0.00  0.00    -0.021 A 
ATOM     17  C   UNL d   1      -2.360   3.870  -1.312  0.00  0.00     0.068 C 
ATOM     18  C   UNL d   1      -0.288   3.605  -2.360  0.00  0.00     0.075 A 
ATOM     19  C   UNL d   1      -2.217   4.661  -2.614  0.00  0.00     0.180 C 
ATOM     20  O   UNL d   1      -0.820   4.701  -2.989  0.00  0.00    -0.350 OA
ATOM     21  C   UNL d   1       0.967   3.096  -2.623  0.00  0.00     0.039 A 
ATOM     22  C   UNL d   1       1.373   1.963  -1.916  0.00  0.00     0.028 A 
ENDBRANCH  11  14
ENDBRANCH   9  11
ENDBRANCH   3   9
TORSDOF 3
