REMARK  3 active torsions:
REMARK  status: ('A' for Active; 'I' for Inactive)
REMARK    1  A    between atoms: C_6  and  C_2 
REMARK    2  A    between atoms: C_17  and  N_5 
REMARK    3  A    between atoms: C_15  and  C_12 
ROOT
ATOM      1  N   UNL d   1      -0.685   1.210   0.059  0.00  0.00    -0.270 N 
ATOM      2  C   UNL d   1       1.431  -0.018  -0.038  0.00  0.00     0.094 A 
ATOM      3  C   UNL d   1      -1.438   0.035   0.062  0.00  0.00     0.335 A 
ATOM      4  C   UNL d   1       0.699   1.276  -0.029  0.00  0.00     0.266 A 
ATOM      5  N   UNL d   1      -0.692  -1.156  -0.018  0.00  0.00    -0.274 N 
ATOM      6  C   UNL d   1       0.692  -1.137  -0.076  0.00  0.00     0.123 A 
ATOM      7  O   UNL d   1      -2.670   0.069   0.086  0.00  0.00    -0.246 OA
ATOM      8  O   UNL d   1       1.295   2.348  -0.129  0.00  0.00    -0.267 OA
ATOM      9  C   UNL d   1      -1.391   2.479   0.039  0.00  0.00     0.164 C 
ENDROOT
BRANCH   2  10
ATOM     10  C   UNL d   1       2.860  -0.021  -0.007  0.00  0.00     0.145 A 
ATOM     11  N   UNL d   1       3.538  -1.066  -0.602  0.00  0.00    -0.318 N 
ATOM     12  C   UNL d   1       4.798  -0.768  -0.363  0.00  0.00     0.182 A 
ATOM     13  HN  UNL d   1       3.158  -1.870  -1.102  1.00  0.00     0.169 HD
ATOM     14  O   UNL d   1       4.943   0.379   0.365  0.00  0.00    -0.217 OA
ATOM     15  N   UNL d   1       3.660   0.858   0.612  0.00  0.00    -0.242 N 
ATOM     16  HN  UNL d   1       3.391   1.687   1.142  1.00  0.00     0.196 HD
BRANCH  12  17
ATOM     17  C   UNL d   1       6.013  -1.482  -0.732  0.00  0.00     0.017 A 
ATOM     18  C   UNL d   1       5.916  -2.657  -1.495  0.00  0.00     0.017 A 
ATOM     19  C   UNL d   1       7.059  -3.383  -1.843  0.00  0.00     0.025 A 
ATOM     20  C   UNL d   1       8.313  -2.938  -1.433  0.00  0.00     0.034 A 
ATOM     21  C   UNL d   1       8.433  -1.768  -0.685  0.00  0.00     0.025 A 
ATOM     22 CL   UNL d   1       9.718  -3.839  -1.844  0.00  0.00    -0.084 Cl
ATOM     23  C   UNL d   1       7.287  -1.042  -0.339  0.00  0.00     0.017 A 
ENDBRANCH  12  17
ENDBRANCH   2  10
BRANCH   5  24
ATOM     24  C   UNL d   1      -1.402  -2.405  -0.034  0.00  0.00     0.043 A 
ATOM     25  C   UNL d   1      -1.086  -3.396  -0.972  0.00  0.00     0.030 A 
ATOM     26  C   UNL d   1      -1.817  -4.587  -1.017  0.00  0.00     0.002 A 
ATOM     27  C   UNL d   1      -2.840  -4.817  -0.098  0.00  0.00     0.000 A 
ATOM     28  C   UNL d   1      -3.138  -3.857   0.864  0.00  0.00     0.002 A 
ATOM     29  C   UNL d   1      -2.430  -2.653   0.890  0.00  0.00     0.030 A 
ENDBRANCH   5  24
TORSDOF 3
