REMARK  6 active torsions:
REMARK  status: ('A' for Active; 'I' for Inactive)
REMARK    1  A    between atoms: C_3  and  S_1 
REMARK    2  A    between atoms: N_12  and  S_1 
REMARK    3  A    between atoms: C_2  and  C_14 
REMARK    4  A    between atoms: C_22  and  C_6 
REMARK    5  A    between atoms: C_9  and  C_8 
REMARK    6  A    between atoms: C_14  and  N_12 
ROOT
ATOM      1  N   UNL d   1       0.407   1.397   0.772  0.00  0.00    -0.311 N 
ATOM      2  H   UNL d   1       0.453   0.407   0.537  0.00  0.00     0.172 HD
ENDROOT
BRANCH   1   3
ATOM      3  S   UNL d   1       0.528   2.350  -0.609  0.00  0.00     0.265 S 
ATOM      4  O   UNL d   1      -0.142   1.629  -1.670  0.00  0.00    -0.200 OA
ATOM      5  O   UNL d   1       0.211   3.722  -0.299  0.00  0.00    -0.200 OA
BRANCH   3   6
ATOM      6  C   UNL d   1       2.239   2.394  -1.095  0.00  0.00     0.120 A 
ATOM      7  S   UNL d   1       2.955   0.891  -1.474  0.00  0.00    -0.074 SA
ATOM      8  C   UNL d   1       4.469   1.613  -1.820  0.00  0.00     0.042 A 
ATOM      9  C   UNL d   1       4.422   2.983  -1.645  0.00  0.00     0.024 A 
ATOM     10  C   UNL d   1       3.138   3.434  -1.224  0.00  0.00     0.034 A 
BRANCH   8  11
ATOM     11  C   UNL d   1       5.618   0.843  -2.212  0.00  0.00     0.117 A 
ATOM     12  O   UNL d   1       6.851   1.416  -2.398  0.00  0.00    -0.237 OA
ATOM     13  N   UNL d   1       7.785   0.449  -2.725  0.00  0.00    -0.272 N 
ATOM     14  C   UNL d   1       7.109  -0.699  -2.748  0.00  0.00     0.117 A 
ATOM     15  HN  UNL d   1       8.779   0.586  -2.909  1.00  0.00     0.194 HD
ATOM     16  C   UNL d   1       5.750  -0.512  -2.449  0.00  0.00     0.059 A 
ENDBRANCH   8  11
ENDBRANCH   3   6
ENDBRANCH   1   3
BRANCH   1  17
ATOM     17  C   UNL d   1       1.108   1.791   1.993  0.00  0.00     0.176 C 
BRANCH  17  18
ATOM     18  C   UNL d   1       0.542   3.025   2.581  0.00  0.00     0.021 A 
ATOM     19  C   UNL d   1      -0.806   3.337   2.967  0.00  0.00     0.075 A 
ATOM     20  N   UNL d   1      -0.878   4.607   3.403  0.00  0.00    -0.260 N 
ATOM     21  O   UNL d   1       0.391   5.128   3.321  0.00  0.00    -0.242 OA
ATOM     22  HN  UNL d   1      -1.714   5.090   3.732  1.00  0.00     0.195 HD
ATOM     23  C   UNL d   1       1.239   4.186   2.848  0.00  0.00     0.083 A 
ATOM     24  C   UNL d   1       2.652   4.585   2.701  0.00  0.00     0.079 C 
BRANCH  19  25
ATOM     25  C   UNL d   1      -2.010   2.499   2.935  0.00  0.00    -0.007 A 
ATOM     26  C   UNL d   1      -3.261   3.069   2.648  0.00  0.00     0.014 A 
ATOM     27  C   UNL d   1      -4.420   2.286   2.631  0.00  0.00     0.001 A 
ATOM     28  C   UNL d   1      -4.344   0.922   2.897  0.00  0.00     0.000 A 
ATOM     29  C   UNL d   1      -3.113   0.344   3.190  0.00  0.00     0.001 A 
ATOM     30  C   UNL d   1      -1.956   1.127   3.217  0.00  0.00     0.014 A 
ENDBRANCH  19  25
ENDBRANCH  17  18
ENDBRANCH   1  17
TORSDOF 6
