REMARK  4 active torsions:
REMARK  status: ('A' for Active; 'I' for Inactive)
REMARK    1  A    between atoms: N_6  and  C_4 
REMARK    2  A    between atoms: S_9  and  C_4 
REMARK    3  A    between atoms: C_7  and  N_6 
REMARK    4  A    between atoms: S_11  and  C_10 
ROOT
ATOM      1  N   UNL d   1       1.036  -0.209  -0.058  0.00  0.00    -0.274 N 
ATOM      2  HN  UNL d   1       0.466   0.506   0.394  1.00  0.00     0.180 HD
ATOM      3  C   UNL d   1       0.448  -1.302  -0.541  0.00  0.00     0.183 C 
ATOM      4  C   UNL d   1       2.316  -0.036  -0.150  0.00  0.00     0.153 C 
ATOM      5  N   UNL d   1      -0.099  -2.239  -0.951  0.00  0.00    -0.172 NA
ENDROOT
BRANCH   4   6
ATOM      6  N   UNL d   1       2.992   1.049   0.350  0.00  0.00    -0.336 N 
ATOM      7  H   UNL d   1       3.982   1.097   0.151  0.00  0.00     0.168 HD
BRANCH   6   8
ATOM      8  C   UNL d   1       2.488   2.062   1.187  0.00  0.00     0.035 A 
ATOM      9  C   UNL d   1       1.391   1.868   2.043  0.00  0.00     0.048 A 
ATOM     10  C   UNL d   1       0.843   2.915   2.795  0.00  0.00     0.002 A 
ATOM     11  C   UNL d   1       1.406   4.189   2.668  0.00  0.00     0.018 A 
ATOM     12  C   UNL d   1       2.496   4.405   1.826  0.00  0.00     0.004 A 
ATOM     13  C   UNL d   1       3.034   3.347   1.094  0.00  0.00     0.029 A 
BRANCH  10  14
ATOM     14  S   UNL d   1      -0.542   2.751   3.918  0.00  0.00    -0.134 SA
ATOM     15  C   UNL d   1      -0.976   0.992   3.810  0.00  0.00     0.095 C 
ENDBRANCH  10  14
ENDBRANCH   6   8
ENDBRANCH   4   6
BRANCH   4  16
ATOM     16  S   UNL d   1       3.416  -1.169  -0.943  0.00  0.00    -0.098 SA
ATOM     17  C   UNL d   1       3.228  -0.621  -2.656  0.00  0.00     0.099 C 
ENDBRANCH   4  16
TORSDOF 4
