REMARK  3 active torsions:
REMARK  status: ('A' for Active; 'I' for Inactive)
REMARK    1  A    between atoms: C_11  and  C_2 
REMARK    2  A    between atoms: C_13  and  C_10 
REMARK    3  A    between atoms: C_14  and  C_12 
ROOT
ATOM      1  N   UNL d   1       0.286   0.620   0.005  0.00  0.00    -0.235 N 
ATOM      2  C   UNL d   1      -0.830   1.445   0.005  0.00  0.00     0.144 A 
ATOM      3  C   UNL d   1       0.135  -0.772   0.025  0.00  0.00     0.130 A 
ATOM      4  N   UNL d   1       1.595   0.959  -0.005  0.00  0.00    -0.295 N 
ATOM      5  HN  UNL d   1       1.983   1.902  -0.013  1.00  0.00     0.187 HD
ATOM      6  N   UNL d   1      -1.087  -1.378   0.058  0.00  0.00    -0.340 N 
ATOM      7  HN  UNL d   1      -1.178  -2.394   0.090  1.00  0.00     0.167 HD
ATOM      8  C   UNL d   1      -2.061   0.896   0.017  0.00  0.00     0.067 A 
ATOM      9  C   UNL d   1       1.403  -1.299   0.007  0.00  0.00     0.077 A 
ATOM     10  C   UNL d   1       2.277  -0.190  -0.003  0.00  0.00     0.037 A 
ATOM     11  C   UNL d   1      -2.131  -0.600   0.049  0.00  0.00     0.046 A 
ENDROOT
BRANCH  11  12
ATOM     12  C   UNL d   1      -3.490  -1.213   0.117  0.00  0.00    -0.009 A 
ATOM     13  C   UNL d   1      -3.646  -2.406   0.837  0.00  0.00     0.015 A 
ATOM     14  C   UNL d   1      -4.902  -3.009   0.943  0.00  0.00     0.024 A 
ATOM     15  C   UNL d   1      -6.003  -2.424   0.321  0.00  0.00     0.034 A 
ATOM     16  C   UNL d   1      -5.856  -1.249  -0.414  0.00  0.00     0.024 A 
ATOM     17 CL   UNL d   1      -7.552  -3.159   0.456  0.00  0.00    -0.084 Cl
ATOM     18  C   UNL d   1      -4.599  -0.644  -0.522  0.00  0.00     0.015 A 
ENDBRANCH  11  12
BRANCH   2  19
ATOM     19  C   UNL d   1      -0.639   2.917   0.006  0.00  0.00     0.434 C 
ATOM     20  F   UNL d   1       0.632   3.376  -0.011  0.00  0.00    -0.165 F 
ATOM     21  F   UNL d   1      -1.262   3.479  -1.067  0.00  0.00    -0.165 F 
ATOM     22  F   UNL d   1      -1.230   3.471   1.102  0.00  0.00    -0.165 F 
ENDBRANCH   2  19
BRANCH  10  23
ATOM     23  C   UNL d   1       3.797  -0.200  -0.013  0.00  0.00    -0.007 C 
ATOM     24  C   UNL d   1       4.385   1.228   0.013  0.00  0.00     0.021 C 
ATOM     25  C   UNL d   1       4.327  -0.954   1.224  0.00  0.00     0.021 C 
ATOM     26  C   UNL d   1       4.309  -0.903  -1.285  0.00  0.00     0.021 C 
ENDBRANCH  10  23
TORSDOF 3
