REMARK  6 active torsions:
REMARK  status: ('A' for Active; 'I' for Inactive)
REMARK    1  A    between atoms: C_17  and  C_1 
REMARK       I    between atoms: C_7  and  N_9 
REMARK    2  A    between atoms: C_11  and  C_7 
REMARK    3  A    between atoms: C_8  and  C_19 
REMARK       I    between atoms: N_10  and  C_8 
REMARK    4  A    between atoms: N_9  and  N_10 
REMARK    5  A    between atoms: S_16  and  C_17 
REMARK    6  A    between atoms: C_19  and  S_16 
ROOT
ATOM      1  C   UNL d   1      -4.687   4.061   0.872  0.00  0.00     0.245 C 
ATOM      2  N   UNL d   1      -3.889   4.456   1.924  0.00  0.00    -0.267 N 
ATOM      3  O   UNL d   1      -5.899   3.879   1.005  0.00  0.00    -0.271 OA
ATOM      4  H   UNL d   1      -2.870   4.419   1.863  0.00  0.00     0.190 HD
ENDROOT
BRANCH   1   5
ATOM      5  C   UNL d   1      -4.010   3.995  -0.487  0.00  0.00     0.178 C 
BRANCH   5   6
ATOM      6  S   UNL d   1      -2.277   3.427  -0.445  0.00  0.00    -0.155 SA
BRANCH   6   7
ATOM      7  C   UNL d   1      -2.523   1.682   0.051  0.00  0.00     0.114 C 
BRANCH   7   8
ATOM      8  C   UNL d   1      -1.214   0.885   0.024  0.00  0.00    -0.036 C 
ATOM      9  C   UNL d   1      -0.278   1.009   1.092  0.00  0.00    -0.048 C 
ATOM     10  C   UNL d   1       0.990   0.382   0.997  0.00  0.00    -0.049 C 
ATOM     11  C   UNL d   1      -0.620   1.831   2.317  0.00  0.00     0.049 C 
ATOM     12  C   UNL d   1       2.072   0.635   2.028  0.00  0.00     0.049 C 
ATOM     13  C   UNL d   1       1.253  -0.531  -0.058  0.00  0.00    -0.049 C 
ATOM     14  C   UNL d   1       0.287  -0.740  -1.079  0.00  0.00    -0.049 C 
ATOM     15  C   UNL d   1       2.574  -1.280  -0.054  0.00  0.00     0.049 C 
ATOM     16  C   UNL d   1      -0.914   0.022  -1.077  0.00  0.00    -0.048 C 
ATOM     17  C   UNL d   1       0.588  -1.777  -2.140  0.00  0.00     0.049 C 
ATOM     18  C   UNL d   1      -1.914  -0.080  -2.209  0.00  0.00     0.049 C 
ENDBRANCH   7   8
ENDBRANCH   6   7
ENDBRANCH   5   6
ENDBRANCH   1   5
BRANCH   2  19
ATOM     19  N   UNL d   1      -4.450   4.519   3.207  0.00  0.00    -0.263 N 
ATOM     20  C   UNL d   1      -3.648   4.200   4.286  0.00  0.00     0.270 C 
ATOM     21  O   UNL d   1      -2.473   3.876   4.175  0.00  0.00    -0.266 OA
ATOM     22  H   UNL d   1      -5.468   4.513   3.255  0.00  0.00     0.190 HD
BRANCH  20  23
ATOM     23  C   UNL d   1      -4.291   4.268   5.628  0.00  0.00     0.033 A 
ATOM     24  C   UNL d   1      -3.826   3.413   6.636  0.00  0.00     0.019 A 
ATOM     25  C   UNL d   1      -4.354   3.495   7.929  0.00  0.00     0.025 A 
ATOM     26  C   UNL d   1      -5.337   4.440   8.215  0.00  0.00     0.034 A 
ATOM     27  C   UNL d   1      -5.806   5.296   7.220  0.00  0.00     0.025 A 
ATOM     28 CL   UNL d   1      -5.958   4.567   9.815  0.00  0.00    -0.084 Cl
ATOM     29  C   UNL d   1      -5.285   5.211   5.923  0.00  0.00     0.019 A 
ENDBRANCH  20  23
ENDBRANCH   2  19
TORSDOF 6
