REMARK  4 active torsions:
REMARK  status: ('A' for Active; 'I' for Inactive)
REMARK    1  A    between atoms: N_4  and  C_1 
REMARK    2  A    between atoms: O_16  and  C_7 
REMARK    3  A    between atoms: O_17  and  C_9 
REMARK    4  A    between atoms: C_14  and  C_10 
ROOT
ATOM      1  C   UNL d   1      -0.285  -6.772  -0.928  0.00  0.00     0.102 A 
ATOM      2  C   UNL d   1       0.506  -7.608  -0.123  0.00  0.00     0.099 A 
ATOM      3  C   UNL d   1      -0.099  -5.388  -0.854  0.00  0.00     0.052 A 
ATOM      4  C   UNL d   1       1.468  -7.083   0.740  0.00  0.00     0.040 A 
ATOM      5  C   UNL d   1       0.865  -4.860   0.014  0.00  0.00    -0.018 A 
ATOM      6  C   UNL d   1       1.648  -5.703   0.808  0.00  0.00     0.016 A 
ENDROOT
BRANCH   5   7
ATOM      7  C   UNL d   1       1.036  -3.392   0.087  0.00  0.00     0.101 C 
ATOM      8  N   UNL d   1       1.911  -2.861   0.877  0.00  0.00    -0.346 N 
ATOM      9  HN  UNL d   1       2.521  -3.426   1.468  1.00  0.00     0.167 HD
BRANCH   8  10
ATOM     10  C   UNL d   1       1.968  -1.505   0.872  0.00  0.00     0.148 A 
ATOM     11  N   UNL d   1       1.248  -0.654   0.166  0.00  0.00    -0.346 N 
ATOM     12  C   UNL d   1       1.604   0.646   0.463  0.00  0.00     0.097 A 
ATOM     13  HN  UNL d   1       0.528  -0.920  -0.507  1.00  0.00     0.167 HD
ATOM     14  C   UNL d   1       2.601   0.791   1.399  0.00  0.00     0.070 A 
ATOM     15  S   UNL d   1       3.120  -0.751   1.925  0.00  0.00    -0.064 SA
ENDBRANCH   8  10
ENDBRANCH   5   7
BRANCH   1  16
ATOM     16  O   UNL d   1      -1.195  -7.401  -1.736  0.00  0.00    -0.353 OA
ATOM     17  C   UNL d   1      -2.008  -6.590  -2.572  0.00  0.00     0.210 C 
ENDBRANCH   1  16
BRANCH   2  18
ATOM     18  O   UNL d   1       0.324  -8.964  -0.188  0.00  0.00    -0.358 OA
ATOM     19  H   UNL d   1       0.926  -9.397   0.437  0.00  0.00     0.217 HD
ENDBRANCH   2  18
TORSDOF 4
