REMARK  6 active torsions:
REMARK  status: ('A' for Active; 'I' for Inactive)
REMARK    1  A    between atoms: C_2  and  C_1 
REMARK       I    between atoms: N_11  and  C_1 
REMARK    2  A    between atoms: O_18  and  C_5 
REMARK    3  A    between atoms: O_19  and  C_7 
REMARK    4  A    between atoms: C_20  and  N_11 
REMARK    5  A    between atoms: C_15  and  C_21 
REMARK    6  A    between atoms: C_21  and  C_20 
ROOT
ATOM      1  C   UNL d   1       0.976  -0.029   0.257  0.00  0.00     0.251 C 
ATOM      2  O   UNL d   1       0.369  -1.010   0.679  0.00  0.00    -0.268 OA
ATOM      3  N   UNL d   1       2.351   0.016   0.131  0.00  0.00    -0.357 N 
ATOM      4  H   UNL d   1       2.769   0.708  -0.477  0.00  0.00     0.162 HD
ENDROOT
BRANCH   3   5
ATOM      5  C   UNL d   1       3.127  -1.150   0.516  0.00  0.00     0.127 C 
BRANCH   5   6
ATOM      6  C   UNL d   1       4.638  -0.956   0.382  0.00  0.00     0.058 C 
BRANCH   6   7
ATOM      7  C   UNL d   1       5.367  -2.206   0.814  0.00  0.00    -0.054 A 
ATOM      8  C   UNL d   1       5.596  -3.246  -0.100  0.00  0.00     0.046 A 
ATOM      9  C   UNL d   1       6.167  -4.464   0.306  0.00  0.00     0.102 A 
ATOM     10  C   UNL d   1       6.565  -4.620   1.643  0.00  0.00     0.101 A 
ATOM     11  C   UNL d   1       6.335  -3.580   2.553  0.00  0.00     0.040 A 
ATOM     12  C   UNL d   1       5.743  -2.384   2.147  0.00  0.00     0.010 A 
BRANCH   9  13
ATOM     13  O   UNL d   1       6.356  -5.504  -0.567  0.00  0.00    -0.353 OA
ATOM     14  C   UNL d   1       5.400  -5.620  -1.616  0.00  0.00     0.210 C 
ENDBRANCH   9  13
BRANCH  10  15
ATOM     15  O   UNL d   1       7.111  -5.733   2.229  0.00  0.00    -0.353 OA
ATOM     16  C   UNL d   1       7.907  -6.574   1.407  0.00  0.00     0.210 C 
ENDBRANCH  10  15
ENDBRANCH   6   7
ENDBRANCH   5   6
ENDBRANCH   3   5
BRANCH   1  17
ATOM     17  C   UNL d   1       0.212   1.176  -0.157  0.00  0.00     0.033 A 
ATOM     18  C   UNL d   1       0.747   2.463  -0.036  0.00  0.00     0.042 A 
ATOM     19  C   UNL d   1      -0.042   3.577  -0.346  0.00  0.00     0.056 A 
ATOM     20 CL   UNL d   1       0.670   5.139  -0.144  0.00  0.00    -0.083 Cl
ATOM     21  C   UNL d   1      -1.363   3.409  -0.783  0.00  0.00     0.055 A 
ATOM     22  C   UNL d   1      -1.892   2.122  -0.909  0.00  0.00     0.026 A 
ATOM     23 CL   UNL d   1      -2.394   4.742  -1.158  0.00  0.00    -0.083 Cl
ATOM     24  C   UNL d   1      -1.109   1.009  -0.591  0.00  0.00     0.019 A 
ENDBRANCH   1  17
TORSDOF 6
