REMARK  4 active torsions:
REMARK  status: ('A' for Active; 'I' for Inactive)
REMARK    1  A    between atoms: N_2  and  C_1 
REMARK    2  A    between atoms: C_3  and  N_2 
REMARK    3  A    between atoms: C_10  and  N_5 
REMARK    4  A    between atoms: C_9  and  C_10 
ROOT
ATOM      1  C   UNL d   1       1.197   0.185   0.148  0.00  0.00     0.172 C 
ATOM      2  S   UNL d   1       0.268  -1.118  -0.315  0.00  0.00    -0.041 SA
ATOM      3  N   UNL d   1       2.544   0.135  -0.018  0.00  0.00    -0.363 N 
ATOM      4  H   UNL d   1       2.840  -0.735  -0.447  0.00  0.00     0.162 HD
ENDROOT
BRANCH   1   5
ATOM      5  N   UNL d   1       0.628   1.240   0.780  0.00  0.00    -0.332 N 
ATOM      6  H   UNL d   1      -0.244   1.032   1.262  0.00  0.00     0.168 HD
BRANCH   5   7
ATOM      7  C   UNL d   1       0.816   2.620   0.517  0.00  0.00     0.056 A 
ATOM      8  C   UNL d   1       0.262   3.566   1.396  0.00  0.00     0.060 A 
ATOM      9 CL   UNL d   1      -0.529   3.072   2.854  0.00  0.00    -0.082 Cl
ATOM     10  C   UNL d   1       0.365   4.933   1.131  0.00  0.00     0.026 A 
ATOM     11  C   UNL d   1       0.998   5.370  -0.031  0.00  0.00     0.002 A 
ATOM     12  C   UNL d   1       1.542   4.441  -0.917  0.00  0.00     0.002 A 
ATOM     13  C   UNL d   1       1.462   3.071  -0.641  0.00  0.00     0.031 A 
ENDBRANCH   5   7
ENDBRANCH   1   5
BRANCH   3  14
ATOM     14  C   UNL d   1       3.521   0.729   0.885  0.00  0.00     0.162 C 
BRANCH  14  15
ATOM     15  C   UNL d   1       3.796  -0.158   2.068  0.00  0.00    -0.025 A 
ATOM     16  C   UNL d   1       4.858  -1.057   2.065  0.00  0.00     0.096 A 
ATOM     17  N   UNL d   1       5.160  -1.887   3.091  0.00  0.00    -0.375 N 
ATOM     18  C   UNL d   1       4.358  -1.828   4.173  0.00  0.00     0.087 A 
ATOM     19  HN  UNL d   1       5.955  -2.525   3.047  1.00  0.00     0.164 HD
ATOM     20  C   UNL d   1       3.271  -0.979   4.279  0.00  0.00     0.018 A 
ATOM     21  C   UNL d   1       2.986  -0.134   3.209  0.00  0.00     0.011 A 
ENDBRANCH  14  15
ENDBRANCH   3  14
TORSDOF 4
