REMARK  6 active torsions:
REMARK  status: ('A' for Active; 'I' for Inactive)
REMARK    1  A    between atoms: C_7  and  C_1 
REMARK    2  A    between atoms: C_6  and  N_2 
REMARK    3  A    between atoms: O_19  and  C_5 
REMARK    4  A    between atoms: C_8  and  C_9 
REMARK    5  A    between atoms: O_20  and  C_8 
REMARK    6  A    between atoms: C_23  and  O_20 
ROOT
ATOM      1  N   UNL d   1       0.767   4.324  -0.090  0.00  0.00    -0.364 N 
ATOM      2  HN  UNL d   1      -0.020   3.676  -0.091  1.00  0.00     0.165 HD
ATOM      3  C   UNL d   1       1.987   3.896  -0.178  0.00  0.00     0.102 C 
ENDROOT
BRANCH   1   4
ATOM      4  C   UNL d   1       0.564   5.719   0.005  0.00  0.00     0.054 A 
ATOM      5  C   UNL d   1       1.200   6.591  -0.891  0.00  0.00     0.049 A 
ATOM      6  C   UNL d   1       0.994   7.976  -0.834  0.00  0.00     0.041 A 
ATOM      7  C   UNL d   1       0.116   8.502   0.118  0.00  0.00     0.019 A 
ATOM      8  C   UNL d   1      -0.551   7.648   1.000  0.00  0.00     0.027 A 
ATOM      9  C   UNL d   1      -0.330   6.267   0.941  0.00  0.00     0.060 A 
ATOM     10 CL   UNL d   1      -1.200   5.260   2.045  0.00  0.00    -0.082 Cl
BRANCH   6  11
ATOM     11  C   UNL d   1       1.632   8.901  -1.807  0.00  0.00     0.293 C 
ATOM     12  O   UNL d   1       1.384  10.093  -1.868  0.00  0.00    -0.259 OA
BRANCH  11  13
ATOM     13  O   UNL d   1       2.447   8.204  -2.636  0.00  0.00    -0.318 OA
BRANCH  13  14
ATOM     14  C   UNL d   1       2.853   8.883  -3.831  0.00  0.00     0.174 C 
ATOM     15  C   UNL d   1       1.800   8.636  -4.897  0.00  0.00     0.034 C 
ENDBRANCH  13  14
ENDBRANCH  11  13
ENDBRANCH   6  11
ENDBRANCH   1   4
BRANCH   3  16
ATOM     16  C   UNL d   1       2.304   2.462  -0.320  0.00  0.00     0.016 A 
ATOM     17  C   UNL d   1       3.602   2.068  -0.660  0.00  0.00     0.099 A 
ATOM     18  C   UNL d   1       3.901   0.708  -0.787  0.00  0.00     0.069 A 
ATOM     19 CL   UNL d   1       5.498   0.206  -1.209  0.00  0.00    -0.081 Cl
ATOM     20  C   UNL d   1       2.917  -0.256  -0.577  0.00  0.00     0.050 A 
ATOM     21  C   UNL d   1       1.625   0.148  -0.245  0.00  0.00     0.036 A 
ATOM     22  C   UNL d   1       1.308   1.500  -0.119  0.00  0.00     0.039 A 
ATOM     23 CL   UNL d   1       0.408  -1.041   0.015  0.00  0.00    -0.084 Cl
BRANCH  17  24
ATOM     24  O   UNL d   1       4.565   3.019  -0.881  0.00  0.00    -0.358 OA
ATOM     25  H   UNL d   1       5.390   2.557  -1.126  0.00  0.00     0.217 HD
ENDBRANCH  17  24
ENDBRANCH   3  16
TORSDOF 6
