REMARK  6 active torsions:
REMARK  status: ('A' for Active; 'I' for Inactive)
REMARK       I    between atoms: C_2  and  N_1 
REMARK    1  A    between atoms: C_5  and  C_2 
REMARK    2  A    between atoms: C_7  and  C_6 
REMARK    3  A    between atoms: C_11  and  C_9 
REMARK    4  A    between atoms: O_19  and  C_11 
REMARK    5  A    between atoms: O_20  and  C_13 
REMARK    6  A    between atoms: O_21  and  C_15 
ROOT
ATOM      1  N   UNL d   1      -2.397   0.719  -0.353  0.00  0.00    -0.339 N 
ATOM      2  C   UNL d   1      -3.347   1.184  -1.286  0.00  0.00     0.255 C 
ATOM      3  C   UNL d   1       0.033   0.619   0.087  0.00  0.00    -0.026 A 
ATOM      4  C   UNL d   1      -1.226   1.453   0.132  0.00  0.00     0.117 C 
ATOM      5  C   UNL d   1       0.003  -0.773  -0.012  0.00  0.00    -0.045 A 
ATOM      6  C   UNL d   1       1.260   1.297   0.114  0.00  0.00     0.049 A 
ATOM      7  C   UNL d   1      -2.534  -0.627   0.209  0.00  0.00     0.131 C 
ATOM      8  C   UNL d   1       2.467   0.615   0.011  0.00  0.00     0.102 A 
ATOM      9  C   UNL d   1       1.221  -1.470  -0.074  0.00  0.00     0.047 A 
ATOM     10  C   UNL d   1       2.453  -0.789  -0.055  0.00  0.00     0.102 A 
ATOM     11  O   UNL d   1      -4.394   0.578  -1.503  0.00  0.00    -0.267 OA
ATOM     12  C   UNL d   1      -1.316  -1.501  -0.148  0.00  0.00     0.059 C 
ATOM     13  C   UNL d   1      -1.458   1.998   1.553  0.00  0.00     0.037 C 
ENDROOT
BRANCH   2  14
ATOM     14  C   UNL d   1      -3.085   2.418  -2.109  0.00  0.00     0.043 A 
ATOM     15  C   UNL d   1      -3.227   2.442  -3.533  0.00  0.00    -0.009 A 
ATOM     16  C   UNL d   1      -2.909   3.659  -4.181  0.00  0.00     0.013 A 
ATOM     17  C   UNL d   1      -2.507   4.801  -3.482  0.00  0.00     0.001 A 
ATOM     18  C   UNL d   1      -2.414   4.769  -2.102  0.00  0.00     0.001 A 
ATOM     19  C   UNL d   1      -2.749   3.602  -1.423  0.00  0.00     0.018 A 
BRANCH  15  20
ATOM     20  C   UNL d   1      -3.655   1.275  -4.379  0.00  0.00    -0.008 A 
ATOM     21  C   UNL d   1      -4.589   1.328  -5.455  0.00  0.00     0.048 A 
ATOM     22  C   UNL d   1      -4.910   0.160  -6.183  0.00  0.00     0.019 A 
ATOM     23  C   UNL d   1      -4.344  -1.068  -5.868  0.00  0.00     0.001 A 
ATOM     24  C   UNL d   1      -3.411  -1.144  -4.841  0.00  0.00     0.001 A 
ATOM     25  C   UNL d   1      -3.068   0.014  -4.124  0.00  0.00     0.013 A 
BRANCH  21  26
ATOM     26  C   UNL d   1      -5.263   2.549  -5.984  0.00  0.00     0.177 C 
ATOM     27  O   UNL d   1      -5.433   2.726  -7.181  0.00  0.00    -0.646 OA
BRANCH  26  28
ATOM     28  O   UNL d   1      -5.741   3.405  -5.062  0.00  0.00    -0.773 OA
ATOM     29  H   UNL d   1      -5.578   3.135  -4.132  0.00  0.00     0.167 HD
ENDBRANCH  26  28
ENDBRANCH  21  26
ENDBRANCH  15  20
ENDBRANCH   2  14
BRANCH   8  30
ATOM     30  O   UNL d   1       3.679   1.266   0.003  0.00  0.00    -0.353 OA
ATOM     31  C   UNL d   1       3.664   2.603  -0.497  0.00  0.00     0.210 C 
ENDBRANCH   8  30
BRANCH  10  32
ATOM     32  O   UNL d   1       3.677  -1.407  -0.124  0.00  0.00    -0.353 OA
ATOM     33  C   UNL d   1       3.684  -2.828  -0.165  0.00  0.00     0.210 C 
ENDBRANCH  10  32
TORSDOF 6
