REMARK  8 active torsions:
REMARK  status: ('A' for Active; 'I' for Inactive)
REMARK    1  A    between atoms: O_8  and  C_1 
REMARK    2  A    between atoms: O_10  and  N_2 
REMARK    3  A    between atoms: C_4  and  O_10 
REMARK       I    between atoms: N_9  and  C_4 
REMARK    4  A    between atoms: C_5  and  C_13 
REMARK    5  A    between atoms: N_17  and  C_5 
REMARK    6  A    between atoms: C_18  and  O_8 
REMARK    7  A    between atoms: C_19  and  N_9 
REMARK    8  A    between atoms: O_31  and  C_24 
ROOT
ATOM      1  N   UNL d   1      -5.229  -5.699   0.987  0.00  0.00    -0.244 N 
ATOM      2  HN  UNL d   1      -6.203  -5.900   1.211  1.00  0.00     0.196 HD
ATOM      3  C   UNL d   1      -4.797  -4.954   0.000  0.00  0.00     0.109 C 
ENDROOT
BRANCH   3   4
ATOM      4  C   UNL d   1      -5.762  -4.293  -0.942  0.00  0.00     0.004 A 
ATOM      5  C   UNL d   1      -7.064  -3.971  -0.544  0.00  0.00     0.017 A 
ATOM      6  C   UNL d   1      -7.901  -3.221  -1.391  0.00  0.00     0.038 A 
ATOM      7  C   UNL d   1      -7.458  -2.842  -2.659  0.00  0.00     0.076 A 
ATOM      8  C   UNL d   1      -6.165  -3.193  -3.063  0.00  0.00     0.038 A 
ATOM      9  C   UNL d   1      -5.323  -3.915  -2.215  0.00  0.00     0.017 A 
BRANCH   7  10
ATOM     10  O   UNL d   1      -8.129  -2.101  -3.599  0.00  0.00    -0.307 OA
BRANCH  10  11
ATOM     11  C   UNL d   1      -9.475  -1.831  -3.539  0.00  0.00     0.122 A 
ATOM     12  C   UNL d   1      -9.848  -0.497  -3.762  0.00  0.00     0.085 A 
ATOM     13 CL   UNL d   1      -8.688   0.772  -3.903  0.00  0.00    -0.080 Cl
ATOM     14  C   UNL d   1     -11.195  -0.192  -3.915  0.00  0.00     0.114 A 
ATOM     15  N   UNL d   1     -12.183  -1.111  -3.846  0.00  0.00    -0.372 N 
ATOM     16  C   UNL d   1     -11.798  -2.392  -3.646  0.00  0.00     0.114 A 
ATOM     17  HN  UNL d   1     -13.166  -0.853  -3.940  1.00  0.00     0.164 HD
ATOM     18  C   UNL d   1     -10.475  -2.809  -3.511  0.00  0.00     0.085 A 
ATOM     19 CL   UNL d   1     -10.173  -4.501  -3.418  0.00  0.00    -0.080 Cl
ENDBRANCH  10  11
ENDBRANCH   7  10
ENDBRANCH   3   4
BRANCH   3  20
ATOM     20  N   UNL d   1      -3.454  -4.702  -0.204  0.00  0.00    -0.286 NA
ATOM     21  H   UNL d   1      -2.884  -4.973   0.594  0.00  0.00     0.125 HD
ATOM     22  H   UNL d   1      -3.222  -3.771  -0.532  0.00  0.00     0.125 HD
ENDBRANCH   3  20
BRANCH   1  23
ATOM     23  O   UNL d   1      -4.090  -6.176   1.687  0.00  0.00    -0.179 OA
BRANCH  23  24
ATOM     24  C   UNL d   1      -4.350  -7.004   2.759  0.00  0.00     0.387 C 
ATOM     25  N   UNL d   1      -5.676  -7.173   3.067  0.00  0.00    -0.301 N 
ATOM     26  H   UNL d   1      -6.288  -6.673   2.432  0.00  0.00     0.171 HD
ATOM     27  O   UNL d   1      -3.394  -7.494   3.359  0.00  0.00    -0.236 OA
BRANCH  25  28
ATOM     28  C   UNL d   1      -6.218  -7.976   4.090  0.00  0.00     0.037 A 
ATOM     29  C   UNL d   1      -5.442  -8.729   4.981  0.00  0.00     0.032 A 
ATOM     30  C   UNL d   1      -6.033  -9.556   5.946  0.00  0.00     0.039 A 
ATOM     31  C   UNL d   1      -7.416  -9.653   6.037  0.00  0.00     0.068 A 
ATOM     32  C   UNL d   1      -8.201  -8.867   5.188  0.00  0.00     0.039 A 
ATOM     33  C   UNL d   1      -7.609  -8.034   4.223  0.00  0.00     0.032 A 
BRANCH  31  34
ATOM     34  O   UNL d   1      -8.110 -10.463   6.891  0.00  0.00    -0.356 OA
ATOM     35  C   UNL d   1      -7.351 -11.405   7.644  0.00  0.00     0.210 C 
ENDBRANCH  31  34
ENDBRANCH  25  28
ENDBRANCH  23  24
ENDBRANCH   1  23
TORSDOF 8
