REMARK  8 active torsions:
REMARK  status: ('A' for Active; 'I' for Inactive)
REMARK    1  A    between atoms: C_6  and  S_1 
REMARK    2  A    between atoms: N_13  and  S_1 
REMARK    3  A    between atoms: S_2  and  C_5 
REMARK    4  A    between atoms: N_12  and  S_2 
REMARK    5  A    between atoms: C_22  and  N_12 
REMARK    6  A    between atoms: C_23  and  N_12 
REMARK    7  A    between atoms: C_24  and  N_13 
REMARK    8  A    between atoms: C_25  and  N_13 
ROOT
ATOM      1  C   UNL d   1      -1.300   4.171  -4.398  0.00  0.00    -0.041 A 
ATOM      2  C   UNL d   1      -0.495   2.562  -2.907  0.00  0.00    -0.041 A 
ATOM      3  C   UNL d   1      -1.658   6.234  -5.533  0.00  0.00     0.075 C 
ATOM      4  C   UNL d   1       0.552   1.531  -1.033  0.00  0.00     0.075 A 
ATOM      5  C   UNL d   1      -0.504   4.820  -3.431  0.00  0.00    -0.019 A 
ATOM      6  C   UNL d   1      -0.055   3.831  -2.474  0.00  0.00    -0.019 A 
ATOM      7  C   UNL d   1      -1.326   2.680  -4.162  0.00  0.00     0.078 A 
ATOM      8  C   UNL d   1      -0.154   1.406  -2.234  0.00  0.00     0.033 A 
ATOM      9  C   UNL d   1      -1.942   4.872  -5.398  0.00  0.00     0.033 C 
ATOM     10  C   UNL d   1      -0.281   6.184  -3.513  0.00  0.00     0.014 C 
ATOM     11  C   UNL d   1       0.678   3.957  -1.307  0.00  0.00     0.014 A 
ATOM     12  C   UNL d   1       0.970   2.797  -0.572  0.00  0.00     0.026 A 
ATOM     13  C   UNL d   1      -0.845   6.891  -4.586  0.00  0.00     0.026 C 
ENDROOT
BRANCH   3  14
ATOM     14  S   UNL d   1      -2.496   7.181  -6.790  0.00  0.00     0.243 S 
ATOM     15  O   UNL d   1      -3.905   6.835  -6.689  0.00  0.00    -0.206 OA
ATOM     16  O   UNL d   1      -2.060   8.552  -6.633  0.00  0.00    -0.206 OA
BRANCH  14  17
ATOM     17  N   UNL d   1      -1.948   6.618  -8.365  0.00  0.00    -0.207 NA
BRANCH  17  18
ATOM     18  C   UNL d   1      -2.073   5.124  -8.527  0.00  0.00     0.103 C 
ATOM     19  C   UNL d   1      -1.595   4.553  -9.853  0.00  0.00     0.021 C 
ENDBRANCH  17  18
BRANCH  17  20
ATOM     20  C   UNL d   1      -2.700   7.324  -9.475  0.00  0.00     0.103 C 
ATOM     21  C   UNL d   1      -2.458   8.820  -9.558  0.00  0.00     0.021 C 
ENDBRANCH  17  20
ENDBRANCH  14  17
ENDBRANCH   3  14
BRANCH   4  22
ATOM     22  S   UNL d   1       1.109   0.062  -0.204  0.00  0.00     0.243 S 
ATOM     23  O   UNL d   1       1.924   0.473   0.917  0.00  0.00    -0.206 OA
ATOM     24  O   UNL d   1       1.654  -0.785  -1.238  0.00  0.00    -0.206 OA
BRANCH  22  25
ATOM     25  N   UNL d   1      -0.292  -0.723   0.439  0.00  0.00    -0.207 NA
BRANCH  25  26
ATOM     26  C   UNL d   1      -1.304  -1.156  -0.571  0.00  0.00     0.103 C 
ATOM     27  C   UNL d   1      -2.528  -1.854  -0.000  0.00  0.00     0.021 C 
ENDBRANCH  25  26
BRANCH  25  28
ATOM     28  C   UNL d   1       0.056  -1.755   1.473  0.00  0.00     0.103 C 
ATOM     29  C   UNL d   1       0.963  -2.866   0.961  0.00  0.00     0.021 C 
ENDBRANCH  25  28
ENDBRANCH  22  25
ENDBRANCH   4  22
TORSDOF 8
