REMARK  3 active torsions:
REMARK  status: ('A' for Active; 'I' for Inactive)
REMARK    1  A    between atoms: C_6  and  C_2 
REMARK       I    between atoms: N_8  and  C_6 
REMARK    2  A    between atoms: C_13  and  N_8 
REMARK    3  A    between atoms: C_14  and  C_13 
ROOT
ATOM      1  N   UNL d   1      -1.654  -0.974  -0.072  0.00  0.00    -0.351 N 
ATOM      2  C   UNL d   1      -2.474   0.130  -0.200  0.00  0.00     0.102 A 
ATOM      3  C   UNL d   1      -0.324  -0.609  -0.045  0.00  0.00     0.049 A 
ATOM      4  C   UNL d   1      -0.303   0.785  -0.048  0.00  0.00    -0.006 A 
ATOM      5  C   UNL d   1      -1.650   1.233  -0.096  0.00  0.00     0.049 A 
ATOM      6  C   UNL d   1       0.849  -1.389  -0.029  0.00  0.00    -0.034 A 
ATOM      7  C   UNL d   1       0.933   1.454  -0.041  0.00  0.00     0.020 A 
ATOM      8  C   UNL d   1       2.069  -0.681  -0.063  0.00  0.00     0.015 A 
ATOM      9  C   UNL d   1       2.123   0.717  -0.078  0.00  0.00    -0.061 A 
ATOM     10  C   UNL d   1       0.879  -2.890  -0.024  0.00  0.00     0.050 C 
ATOM     11  C   UNL d   1       3.434   1.441  -0.164  0.00  0.00     0.048 C 
ATOM     12  H   UNL d   1      -1.997  -1.925  -0.082  0.00  0.00     0.166 HD
ENDROOT
BRANCH   2  13
ATOM     13  C   UNL d   1      -3.902   0.003  -0.406  0.00  0.00     0.268 C 
ATOM     14  N   UNL d   1      -4.548   1.177  -0.713  0.00  0.00    -0.351 N 
ATOM     15  H   UNL d   1      -4.035   2.044  -0.727  0.00  0.00     0.163 HD
ATOM     16  O   UNL d   1      -4.474  -1.078  -0.339  0.00  0.00    -0.266 OA
BRANCH  14  17
ATOM     17  C   UNL d   1      -5.978   1.243  -0.917  0.00  0.00     0.161 C 
BRANCH  17  18
ATOM     18  C   UNL d   1      -6.373   2.062  -2.125  0.00  0.00    -0.041 A 
ATOM     19  C   UNL d   1      -5.631   2.045  -3.315  0.00  0.00     0.009 A 
ATOM     20  C   UNL d   1      -6.068   2.753  -4.441  0.00  0.00     0.001 A 
ATOM     21  C   UNL d   1      -7.261   3.472  -4.395  0.00  0.00     0.000 A 
ATOM     22  C   UNL d   1      -8.016   3.487  -3.225  0.00  0.00     0.001 A 
ATOM     23  C   UNL d   1      -7.577   2.786  -2.100  0.00  0.00     0.009 A 
ENDBRANCH  17  18
ENDBRANCH  14  17
ENDBRANCH   2  13
TORSDOF 3
