REMARK  4 active torsions:
REMARK  status: ('A' for Active; 'I' for Inactive)
REMARK    1  A    between atoms: C_8  and  C_3 
REMARK    2  A    between atoms: C_17  and  C_12 
REMARK    3  A    between atoms: C_14  and  O_18 
REMARK    4  A    between atoms: O_18  and  C_24 
ROOT
ATOM      1  N   UNL d   1       0.594   0.781   0.020  0.00  0.00    -0.302 N 
ATOM      2  C   UNL d   1      -0.119  -0.388   0.007  0.00  0.00     0.123 A 
ATOM      3  C   UNL d   1      -0.055   2.091  -0.080  0.00  0.00     0.249 C 
ATOM      4  N   UNL d   1       0.692  -1.430  -0.003  0.00  0.00    -0.340 N 
ATOM      5  HN  UNL d   1       0.432  -2.415  -0.035  1.00  0.00     0.167 HD
ATOM      6  N   UNL d   1      -1.510   2.088   0.188  0.00  0.00    -0.362 N 
ATOM      7  C   UNL d   1      -1.571  -0.362  -0.001  0.00  0.00     0.035 A 
ATOM      8  C   UNL d   1       1.931   0.486   0.069  0.00  0.00     0.065 A 
ATOM      9  C   UNL d   1      -2.222   0.885   0.044  0.00  0.00     0.044 A 
ATOM     10  C   UNL d   1       1.960  -0.905   0.039  0.00  0.00     0.061 A 
ATOM     11  C   UNL d   1      -2.308  -1.555  -0.039  0.00  0.00     0.017 A 
ATOM     12  C   UNL d   1       3.089   1.271   0.114  0.00  0.00     0.032 A 
ATOM     13  C   UNL d   1      -3.621   0.903   0.110  0.00  0.00     0.030 A 
ATOM     14  C   UNL d   1       3.196  -1.566   0.046  0.00  0.00     0.032 A 
ATOM     15  C   UNL d   1      -3.700  -1.513  -0.001  0.00  0.00     0.001 A 
ATOM     16  C   UNL d   1       4.312   0.593   0.128  0.00  0.00     0.002 A 
ATOM     17  C   UNL d   1       4.370  -0.803   0.094  0.00  0.00     0.002 A 
ATOM     18  C   UNL d   1      -4.357  -0.288   0.081  0.00  0.00     0.002 A 
ATOM     19  H   UNL d   1      -1.986   2.896  -0.201  0.00  0.00     0.162 HD
ENDROOT
BRANCH   3  20
ATOM     20  C   UNL d   1       0.311   2.703  -1.407  0.00  0.00     0.096 A 
ATOM     21  O   UNL d   1       0.937   3.919  -1.382  0.00  0.00    -0.310 OA
ATOM     22  C   UNL d   1       1.219   4.268  -2.677  0.00  0.00     0.086 A 
ATOM     23  C   UNL d   1       0.775   3.269  -3.522  0.00  0.00     0.041 A 
ATOM     24  C   UNL d   1       0.169   2.279  -2.712  0.00  0.00     0.040 A 
BRANCH  22  25
ATOM     25  C   UNL d   1       1.857   5.567  -2.886  0.00  0.00    -0.002 A 
ATOM     26  C   UNL d   1       2.175   6.408  -1.810  0.00  0.00     0.017 A 
ATOM     27  C   UNL d   1       2.703   7.691  -2.018  0.00  0.00     0.038 A 
ATOM     28  C   UNL d   1       2.971   8.140  -3.307  0.00  0.00     0.078 A 
ATOM     29  C   UNL d   1       2.660   7.310  -4.386  0.00  0.00     0.038 A 
ATOM     30  C   UNL d   1       2.118   6.036  -4.180  0.00  0.00     0.017 A 
BRANCH  28  31
ATOM     31  O   UNL d   1       3.479   9.352  -3.655  0.00  0.00    -0.255 OA
BRANCH  31  32
ATOM     32  C   UNL d   1       4.288  10.076  -2.741  0.00  0.00     0.530 C 
ATOM     33  F   UNL d   1       4.718   9.352  -1.687  0.00  0.00    -0.144 F 
ATOM     34  F   UNL d   1       5.381  10.519  -3.403  0.00  0.00    -0.144 F 
ATOM     35  F   UNL d   1       3.608  11.150  -2.287  0.00  0.00    -0.144 F 
ENDBRANCH  31  32
ENDBRANCH  28  31
ENDBRANCH  22  25
ENDBRANCH   3  20
TORSDOF 4
