REMARK  8 active torsions:
REMARK  status: ('A' for Active; 'I' for Inactive)
REMARK    1  A    between atoms: C_3  and  N_1 
REMARK       I    between atoms: C_2  and  N_5 
REMARK    2  A    between atoms: C_13  and  C_2 
REMARK    3  A    between atoms: C_14  and  C_3 
REMARK    4  A    between atoms: C_15  and  C_3 
REMARK    5  A    between atoms: C_4  and  C_16 
REMARK       I    between atoms: N_9  and  C_4 
REMARK    6  A    between atoms: N_5  and  N_9 
REMARK    7  A    between atoms: S_10  and  C_8 
REMARK    8  A    between atoms: C_16  and  S_10 
ROOT
ATOM      1  N   UNL d   1       0.307   0.907  -0.213  0.00  0.00     0.104 N 
ATOM      2  C   UNL d   1      -1.009   0.285   0.090  0.00  0.00     0.290 C 
ATOM      3  C   UNL d   1       0.953  -0.340   0.303  0.00  0.00     0.290 C 
ATOM      4  C   UNL d   1      -0.339  -1.104  -0.096  0.00  0.00     0.104 C 
ENDROOT
BRANCH   4   5
ATOM      5  S   UNL d   1      -0.223  -1.688  -1.854  0.00  0.00    -0.151 SA
BRANCH   5   6
ATOM      6  C   UNL d   1      -1.757  -2.650  -1.935  0.00  0.00     0.178 C 
BRANCH   6   7
ATOM      7  C   UNL d   1      -1.942  -3.400  -3.255  0.00  0.00     0.245 C 
ATOM      8  N   UNL d   1      -0.860  -3.463  -4.106  0.00  0.00    -0.267 N 
ATOM      9  H   UNL d   1      -0.018  -2.906  -3.962  0.00  0.00     0.190 HD
ATOM     10  O   UNL d   1      -3.007  -3.964  -3.522  0.00  0.00    -0.271 OA
BRANCH   8  11
ATOM     11  N   UNL d   1      -1.038  -4.058  -5.367  0.00  0.00    -0.263 N 
ATOM     12  C   UNL d   1       0.037  -4.137  -6.231  0.00  0.00     0.270 C 
ATOM     13  O   UNL d   1       1.140  -3.665  -5.977  0.00  0.00    -0.266 OA
ATOM     14  H   UNL d   1      -1.896  -4.586  -5.487  0.00  0.00     0.190 HD
BRANCH  12  15
ATOM     15  C   UNL d   1      -0.200  -4.871  -7.512  0.00  0.00     0.033 A 
ATOM     16  C   UNL d   1      -1.476  -4.977  -8.083  0.00  0.00     0.017 A 
ATOM     17  C   UNL d   1      -1.655  -5.678  -9.280  0.00  0.00     0.001 A 
ATOM     18  C   UNL d   1      -0.564  -6.269  -9.915  0.00  0.00     0.000 A 
ATOM     19  C   UNL d   1       0.710  -6.153  -9.362  0.00  0.00     0.001 A 
ATOM     20  C   UNL d   1       0.894  -5.451  -8.169  0.00  0.00     0.017 A 
ENDBRANCH  12  15
ENDBRANCH   8  11
ENDBRANCH   6   7
ENDBRANCH   5   6
ENDBRANCH   4   5
BRANCH   1  21
ATOM     21  C   UNL d   1       0.657   2.067   0.637  0.00  0.00     0.289 C 
BRANCH  21  22
ATOM     22  C   UNL d   1       2.023   2.628   0.215  0.00  0.00    -0.021 A 
ATOM     23  C   UNL d   1       2.242   3.076  -1.102  0.00  0.00     0.010 A 
ATOM     24  C   UNL d   1       3.453   3.664  -1.470  0.00  0.00     0.001 A 
ATOM     25  C   UNL d   1       4.471   3.801  -0.531  0.00  0.00     0.000 A 
ATOM     26  C   UNL d   1       4.284   3.337   0.770  0.00  0.00     0.001 A 
ATOM     27  C   UNL d   1       3.069   2.754   1.143  0.00  0.00     0.010 A 
ENDBRANCH  21  22
BRANCH  21  28
ATOM     28  C   UNL d   1      -0.382   3.199   0.646  0.00  0.00    -0.021 A 
ATOM     29  C   UNL d   1      -0.500   4.011   1.791  0.00  0.00     0.010 A 
ATOM     30  C   UNL d   1      -1.402   5.075   1.825  0.00  0.00     0.001 A 
ATOM     31  C   UNL d   1      -2.197   5.351   0.716  0.00  0.00     0.000 A 
ATOM     32  C   UNL d   1      -2.082   4.569  -0.432  0.00  0.00     0.001 A 
ATOM     33  C   UNL d   1      -1.176   3.507  -0.470  0.00  0.00     0.010 A 
ENDBRANCH  21  28
ENDBRANCH   1  21
TORSDOF 8
