REMARK  5 active torsions:
REMARK  status: ('A' for Active; 'I' for Inactive)
REMARK    1  A    between atoms: C_3  and  C_12 
REMARK    2  A    between atoms: O_10  and  C_3 
REMARK    3  A    between atoms: C_16  and  C_9 
REMARK    4  A    between atoms: C_12  and  C_13 
REMARK    5  A    between atoms: C_13  and  C_16 
ROOT
ATOM      1  C   UNL d   1       0.009   0.681   0.024  0.00  0.00     0.102 A 
ATOM      2  C   UNL d   1      -0.011  -0.714  -0.031  0.00  0.00     0.102 A 
ATOM      3  O   UNL d   1       1.167   1.416   0.045  0.00  0.00    -0.346 OA
ATOM      4  C   UNL d   1      -1.187   1.397   0.070  0.00  0.00     0.046 A 
ATOM      5  O   UNL d   1       1.124  -1.483  -0.049  0.00  0.00    -0.346 OA
ATOM      6  C   UNL d   1      -1.227  -1.391  -0.078  0.00  0.00     0.040 A 
ATOM      7  C   UNL d   1      -2.419   0.727   0.019  0.00  0.00    -0.055 A 
ATOM      8  C   UNL d   1      -2.426  -0.674  -0.049  0.00  0.00     0.010 A 
ATOM      9  C   UNL d   1       2.293   0.625  -0.352  0.00  0.00     0.202 C 
ATOM     10  C   UNL d   1       2.274  -0.725   0.345  0.00  0.00     0.202 C 
ENDROOT
BRANCH   7  11
ATOM     11  C   UNL d   1      -3.719   1.494   0.055  0.00  0.00     0.039 C 
BRANCH  11  12
ATOM     12  C   UNL d   1      -3.888   2.510  -1.079  0.00  0.00     0.015 C 
BRANCH  12  13
ATOM     13  C   UNL d   1      -3.889   1.875  -2.472  0.00  0.00     0.110 C 
BRANCH  13  14
ATOM     14  C   UNL d   1      -4.088   2.916  -3.551  0.00  0.00     0.139 C 
ATOM     15  O   UNL d   1      -4.260   4.108  -3.359  0.00  0.00    -0.650 OA
BRANCH  14  16
ATOM     16  O   UNL d   1      -4.064   2.380  -4.793  0.00  0.00    -0.776 OA
ATOM     17  H   UNL d   1      -3.908   1.417  -4.801  0.00  0.00     0.167 HD
ENDBRANCH  14  16
ENDBRANCH  13  14
ENDBRANCH  12  13
ENDBRANCH  11  12
ENDBRANCH   7  11
TORSDOF 5
