REMARK  3 active torsions:
REMARK  status: ('A' for Active; 'I' for Inactive)
REMARK       I    between atoms: N_2  and  C_1 
REMARK       I    between atoms: N_4  and  C_1 
REMARK    1  A    between atoms: C_17  and  N_4 
REMARK    2  A    between atoms: C_18  and  N_4 
REMARK    3  A    between atoms: C_6  and  N_5 
ROOT
ATOM      1  C   UNL d   1       1.090   0.003  -0.256  0.00  0.00     0.321 C 
ATOM      2  N   UNL d   1       0.516   0.830  -1.215  0.00  0.00    -0.331 N 
ATOM      3  N   UNL d   1       2.268  -0.724  -0.483  0.00  0.00    -0.326 N 
ATOM      4  N   UNL d   1      -0.697   2.770  -2.980  0.00  0.00    -0.377 N 
ATOM      5  O   UNL d   1       0.555  -0.035   0.853  0.00  0.00    -0.247 OA
ATOM      6  C   UNL d   1       0.620   0.800  -2.677  0.00  0.00     0.147 C 
ATOM      7  C   UNL d   1      -0.694   1.597  -0.783  0.00  0.00     0.147 C 
ATOM      8  C   UNL d   1       0.631   2.224  -3.243  0.00  0.00     0.143 C 
ATOM      9  C   UNL d   1      -0.926   2.947  -1.532  0.00  0.00     0.143 C 
ENDROOT
BRANCH   4  10
ATOM     10  C   UNL d   1      -1.378   3.437  -3.987  0.00  0.00     0.044 A 
ATOM     11  C   UNL d   1      -1.540   2.888  -5.312  0.00  0.00     0.017 A 
ATOM     12  C   UNL d   1      -2.201   3.679  -6.281  0.00  0.00     0.046 A 
ATOM     13  C   UNL d   1      -1.116   1.594  -5.724  0.00  0.00     0.018 A 
ATOM     14  C   UNL d   1      -2.343   3.206  -7.580  0.00  0.00     0.054 A 
ATOM     15  N   UNL d   1      -2.715   4.884  -6.011  0.00  0.00    -0.365 N 
ATOM     16  C   UNL d   1      -1.861   1.956  -7.963  0.00  0.00     0.036 A 
ATOM     17  C   UNL d   1      -1.247   1.140  -7.034  0.00  0.00     0.025 A 
ATOM     18 CL   UNL d   1      -2.043   1.416  -9.584  0.00  0.00    -0.084 Cl
ATOM     19  C   UNL d   1      -2.599   5.353  -4.755  0.00  0.00     0.090 A 
ATOM     20  HN  UNL d   1      -3.181   5.431  -6.736  1.00  0.00     0.165 HD
ATOM     21  C   UNL d   1      -1.951   4.684  -3.735  0.00  0.00     0.047 A 
ENDBRANCH   4  10
BRANCH   3  22
ATOM     22  C   UNL d   1       2.861  -1.399   0.705  0.00  0.00     0.081 C 
ATOM     23  C   UNL d   1       3.328  -0.413   1.780  0.00  0.00     0.032 C 
ATOM     24  C   UNL d   1       1.979  -2.518   1.269  0.00  0.00     0.032 C 
ENDBRANCH   3  22
BRANCH   3  25
ATOM     25  C   UNL d   1       3.074  -0.742  -1.725  0.00  0.00     0.081 C 
ATOM     26  C   UNL d   1       3.738   0.618  -1.972  0.00  0.00     0.032 C 
ATOM     27  C   UNL d   1       4.139  -1.837  -1.897  0.00  0.00     0.032 C 
ENDBRANCH   3  25
TORSDOF 3
