REMARK  4 active torsions:
REMARK  status: ('A' for Active; 'I' for Inactive)
REMARK    1  A    between atoms: N_8  and  S_1 
REMARK    2  A    between atoms: C_12  and  S_1 
REMARK    3  A    between atoms: C_2  and  C_11 
REMARK    4  A    between atoms: C_15  and  N_8 
ROOT
ATOM      1  C   UNL d   1       1.429   0.298  -5.422  0.00  0.00    -0.002 A 
ATOM      2  C   UNL d   1       0.860  -0.393  -2.751  0.00  0.00     0.042 A 
ATOM      3  C   UNL d   1       2.414   0.393  -4.426  0.00  0.00     0.016 A 
ATOM      4  C   UNL d   1       0.151  -0.152  -5.048  0.00  0.00     0.016 A 
ATOM      5  C   UNL d   1      -0.127  -0.509  -3.725  0.00  0.00     0.031 A 
ATOM      6  C   UNL d   1       2.130   0.065  -3.096  0.00  0.00     0.031 A 
ENDROOT
BRANCH   1   7
ATOM      7  C   UNL d   1       1.779   0.612  -6.819  0.00  0.00     0.085 A 
ATOM      8  N   UNL d   1       2.986   0.464  -7.328  0.00  0.00    -0.349 N 
ATOM      9  C   UNL d   1       2.976   0.760  -8.682  0.00  0.00     0.050 A 
ATOM     10  HN  UNL d   1       3.809   0.173  -6.801  1.00  0.00     0.166 HD
ATOM     11  C   UNL d   1       4.070   0.651  -9.564  0.00  0.00     0.031 A 
ATOM     12  C   UNL d   1       1.752   1.192  -9.189  0.00  0.00     0.034 A 
ATOM     13  C   UNL d   1       3.905   0.958 -10.920  0.00  0.00     0.009 A 
ATOM     14  C   UNL d   1       2.670   1.385 -11.415  0.00  0.00    -0.061 A 
ATOM     15  C   UNL d   1       1.577   1.515 -10.546  0.00  0.00     0.028 A 
ATOM     16  C   UNL d   1       2.517   1.690 -12.878  0.00  0.00     0.048 C 
ATOM     17  S   UNL d   1       0.602   1.232  -7.913  0.00  0.00    -0.070 SA
ENDBRANCH   1   7
BRANCH   2  18
ATOM     18  N   UNL d   1       0.585  -0.818  -1.425  0.00  0.00    -0.281 N 
ATOM     19  H   UNL d   1       0.860  -0.205  -0.660  0.00  0.00     0.179 HD
BRANCH  18  20
ATOM     20  S   UNL d   1       0.779  -2.455  -1.038  0.00  0.00     0.263 S 
ATOM     21  O   UNL d   1      -0.039  -3.254  -1.923  0.00  0.00    -0.200 OA
ATOM     22  O   UNL d   1       0.638  -2.545   0.401  0.00  0.00    -0.200 OA
BRANCH  20  23
ATOM     23  C   UNL d   1       2.489  -2.771  -1.424  0.00  0.00     0.079 A 
ATOM     24  C   UNL d   1       3.472  -2.522  -0.460  0.00  0.00     0.025 A 
ATOM     25  C   UNL d   1       4.812  -2.748  -0.771  0.00  0.00     0.002 A 
ATOM     26  C   UNL d   1       5.165  -3.230  -2.036  0.00  0.00     0.000 A 
ATOM     27  C   UNL d   1       4.178  -3.500  -2.985  0.00  0.00     0.002 A 
ATOM     28  C   UNL d   1       2.835  -3.283  -2.680  0.00  0.00     0.025 A 
ENDBRANCH  20  23
ENDBRANCH  18  20
ENDBRANCH   2  18
TORSDOF 4
