REMARK  3 active torsions:
REMARK  status: ('A' for Active; 'I' for Inactive)
REMARK    1  A    between atoms: N_2  and  S_1 
REMARK    2  A    between atoms: C_4  and  S_1 
REMARK    3  A    between atoms: C_3  and  N_2 
ROOT
ATOM      1  N   UNL d   1       0.131   1.499  -0.581  0.00  0.00    -0.264 N 
ATOM      2  H   UNL d   1      -0.866   1.358  -0.644  0.00  0.00     0.180 HD
ENDROOT
BRANCH   1   3
ATOM      3  S   UNL d   1       0.983   0.194  -0.099  0.00  0.00     0.270 S 
ATOM      4  O   UNL d   1       2.406   0.403  -0.269  0.00  0.00    -0.200 OA
ATOM      5  O   UNL d   1       0.343  -1.024  -0.550  0.00  0.00    -0.200 OA
BRANCH   3   6
ATOM      6  C   UNL d   1       0.740   0.203   1.678  0.00  0.00     0.120 A 
ATOM      7  S   UNL d   1      -0.898   0.196   2.191  0.00  0.00    -0.088 SA
ATOM      8  C   UNL d   1      -0.453   0.362   3.832  0.00  0.00     0.051 A 
ATOM      9  C   UNL d   1       0.915   0.406   3.993  0.00  0.00     0.009 A 
ATOM     10  C   UNL d   1       1.607   0.306   2.749  0.00  0.00     0.033 A 
ENDBRANCH   3   6
ENDBRANCH   1   3
BRANCH   1  11
ATOM     11  C   UNL d   1       0.639   2.773  -0.451  0.00  0.00     0.131 A 
ATOM     12  C   UNL d   1      -0.083   3.874  -0.066  0.00  0.00     0.076 A 
ATOM     13  C   UNL d   1       0.893   4.880   0.144  0.00  0.00     0.025 A 
ATOM     14  C   UNL d   1       0.697   6.234   0.719  0.00  0.00     0.070 C 
ATOM     15  N   UNL d   1       2.118   4.463  -0.200  0.00  0.00    -0.304 N 
ATOM     16  N   UNL d   1       1.940   3.186  -0.568  0.00  0.00    -0.285 N 
ATOM     17  HN  UNL d   1       2.987   4.995  -0.185  1.00  0.00     0.186 HD
ATOM     18  H   UNL d   1       2.750   2.645  -0.863  0.00  0.00     0.188 HD
ENDBRANCH   1  11
TORSDOF 3
