REMARK  7 active torsions:
REMARK  status: ('A' for Active; 'I' for Inactive)
REMARK    1  A    between atoms: S_15  and  C_2 
REMARK    2  A    between atoms: C_9  and  N_3 
REMARK    3  A    between atoms: C_13  and  C_4 
REMARK    4  A    between atoms: C_16  and  C_9 
REMARK    5  A    between atoms: C_17  and  C_9 
REMARK    6  A    between atoms: C_12  and  S_14 
REMARK    7  A    between atoms: S_14  and  C_13 
ROOT
ATOM      1  N   UNL d   1      -5.703  -1.916  -2.062  0.00  0.00     0.104 N 
ATOM      2  C   UNL d   1      -5.912  -1.272  -0.738  0.00  0.00     0.290 C 
ATOM      3  C   UNL d   1      -5.540  -3.216  -1.341  0.00  0.00     0.290 C 
ATOM      4  C   UNL d   1      -5.057  -2.404  -0.110  0.00  0.00     0.104 C 
ENDROOT
BRANCH   1   5
ATOM      5  C   UNL d   1      -6.929  -1.892  -2.892  0.00  0.00     0.289 C 
BRANCH   5   6
ATOM      6  C   UNL d   1      -7.165  -0.500  -3.490  0.00  0.00    -0.021 A 
ATOM      7  C   UNL d   1      -6.194   0.120  -4.297  0.00  0.00     0.010 A 
ATOM      8  C   UNL d   1      -6.443   1.359  -4.895  0.00  0.00     0.001 A 
ATOM      9  C   UNL d   1      -7.660   2.000  -4.686  0.00  0.00     0.000 A 
ATOM     10  C   UNL d   1      -8.626   1.410  -3.875  0.00  0.00     0.001 A 
ATOM     11  C   UNL d   1      -8.383   0.168  -3.282  0.00  0.00     0.010 A 
ENDBRANCH   5   6
BRANCH   5  12
ATOM     12  C   UNL d   1      -6.908  -2.955  -4.005  0.00  0.00    -0.021 A 
ATOM     13  C   UNL d   1      -8.115  -3.524  -4.440  0.00  0.00     0.010 A 
ATOM     14  C   UNL d   1      -8.119  -4.501  -5.440  0.00  0.00     0.001 A 
ATOM     15  C   UNL d   1      -6.921  -4.915  -6.019  0.00  0.00     0.000 A 
ATOM     16  C   UNL d   1      -5.719  -4.344  -5.611  0.00  0.00     0.001 A 
ATOM     17  C   UNL d   1      -5.714  -3.365  -4.621  0.00  0.00     0.010 A 
ENDBRANCH   5  12
ENDBRANCH   1   5
BRANCH   4  18
ATOM     18  S   UNL d   1      -3.226  -2.145  -0.162  0.00  0.00    -0.153 SA
BRANCH  18  19
ATOM     19  C   UNL d   1      -3.143  -0.679   0.898  0.00  0.00     0.152 C 
BRANCH  19  20
ATOM     20  C   UNL d   1      -1.740  -0.279   1.206  0.00  0.00     0.109 A 
ATOM     21  N   UNL d   1      -0.804   0.184   0.298  0.00  0.00    -0.319 N 
ATOM     22  C   UNL d   1       0.299   0.503   1.043  0.00  0.00     0.159 A 
ATOM     23  C   UNL d   1      -1.009   0.298  -1.123  0.00  0.00     0.159 C 
ATOM     24  N   UNL d   1       0.062   0.255   2.310  0.00  0.00    -0.279 N 
ATOM     25  N   UNL d   1      -1.214  -0.235   2.415  0.00  0.00    -0.286 N 
ATOM     26  HN  UNL d   1       0.712   0.403   3.082  1.00  0.00     0.189 HD
ATOM     27  HN  UNL d   1      -1.676  -0.519   3.278  1.00  0.00     0.188 HD
BRANCH  22  28
ATOM     28  S   UNL d   1       1.787   1.165   0.462  0.00  0.00    -0.105 SA
ATOM     29  H   UNL d   1       1.627   1.064  -0.860  0.00  0.00     0.110 HD
ENDBRANCH  22  28
ENDBRANCH  19  20
ENDBRANCH  18  19
ENDBRANCH   4  18
TORSDOF 7
