REMARK  5 active torsions:
REMARK  status: ('A' for Active; 'I' for Inactive)
REMARK    1  A    between atoms: N_4  and  C_1 
REMARK    2  A    between atoms: N_5  and  C_1 
REMARK       I    between atoms: C_2  and  N_3 
REMARK    3  A    between atoms: C_10  and  C_2 
REMARK    4  A    between atoms: N_3  and  N_4 
REMARK    5  A    between atoms: C_11  and  N_5 
ROOT
ATOM      1  C   UNL d   1       0.140  -1.866  -3.119  0.00  0.00     0.270 C 
ATOM      2  N   UNL d   1       0.996  -1.582  -2.067  0.00  0.00    -0.264 N 
ATOM      3  O   UNL d   1      -1.083  -1.758  -3.030  0.00  0.00    -0.266 OA
ATOM      4  H   UNL d   1       1.990  -1.394  -2.200  0.00  0.00     0.190 HD
ENDROOT
BRANCH   2   5
ATOM      5  N   UNL d   1       0.407  -1.029  -0.918  0.00  0.00    -0.274 N 
ATOM      6  H   UNL d   1      -0.606  -1.081  -0.909  0.00  0.00     0.189 HD
BRANCH   5   7
ATOM      7  C   UNL d   1       1.075  -0.131  -0.141  0.00  0.00     0.187 C 
ATOM      8  S   UNL d   1       2.741  -0.080   0.021  0.00  0.00    -0.040 SA
BRANCH   7   9
ATOM      9  N   UNL d   1       0.339   0.801   0.524  0.00  0.00    -0.358 N 
ATOM     10  H   UNL d   1       0.912   1.364   1.146  0.00  0.00     0.162 HD
BRANCH   9  11
ATOM     11  C   UNL d   1      -1.029   1.313   0.275  0.00  0.00     0.021 C 
ATOM     12  C   UNL d   1      -2.094   0.396   0.891  0.00  0.00     0.037 C 
ATOM     13  C   UNL d   1      -1.130   2.696   0.952  0.00  0.00     0.037 C 
ATOM     14  C   UNL d   1      -1.297   1.531  -1.226  0.00  0.00     0.037 C 
ENDBRANCH   9  11
ENDBRANCH   7   9
ENDBRANCH   5   7
ENDBRANCH   2   5
BRANCH   1  15
ATOM     15  C   UNL d   1       0.763  -2.293  -4.396  0.00  0.00     0.036 A 
ATOM     16  C   UNL d   1       1.997  -2.943  -4.432  0.00  0.00     0.034 A 
ATOM     17  C   UNL d   1       2.474  -3.347  -5.667  0.00  0.00     0.088 A 
ATOM     18  N   UNL d   1       1.820  -3.142  -6.829  0.00  0.00    -0.375 N 
ATOM     19  C   UNL d   1       0.625  -2.518  -6.763  0.00  0.00     0.088 A 
ATOM     20  HN  UNL d   1       2.213  -3.444  -7.720  1.00  0.00     0.164 HD
ATOM     21  C   UNL d   1       0.058  -2.079  -5.581  0.00  0.00     0.034 A 
ENDBRANCH   1  15
TORSDOF 5
