REMARK  5 active torsions:
REMARK  status: ('A' for Active; 'I' for Inactive)
REMARK       I    between atoms: N_2  and  C_1 
REMARK       I    between atoms: N_3  and  C_1 
REMARK    1  A    between atoms: C_8  and  N_2 
REMARK    2  A    between atoms: C_21  and  N_2 
REMARK    3  A    between atoms: C_13  and  N_3 
REMARK    4  A    between atoms: C_5  and  C_8 
REMARK    5  A    between atoms: C_14  and  C_21 
ROOT
ATOM      1  N   UNL d   1       1.606  -1.452   5.723  0.00  0.00    -0.197 NA
ATOM      2  C   UNL d   1       1.040  -1.446   4.712  0.00  0.00     0.060 C 
ATOM      3  C   UNL d   1       0.307  -1.431   3.434  0.00  0.00     0.144 C 
ENDROOT
BRANCH   3   4
ATOM      4  C   UNL d   1       0.764  -0.250   2.575  0.00  0.00     0.142 C 
BRANCH   4   5
ATOM      5  N   UNL d   1       0.206  -0.158   1.203  0.00  0.00    -0.328 N 
ATOM      6  C   UNL d   1       1.127  -0.071   0.152  0.00  0.00     0.323 C 
ATOM      7  N   UNL d   1       0.618   0.340  -1.066  0.00  0.00    -0.309 N 
ATOM      8  O   UNL d   1       2.321  -0.302   0.339  0.00  0.00    -0.247 OA
ATOM      9  H   UNL d   1      -0.189   0.947  -1.017  0.00  0.00     0.170 HD
BRANCH   7  10
ATOM     10  C   UNL d   1       1.373   0.412  -2.268  0.00  0.00     0.036 A 
ATOM     11  C   UNL d   1       2.475  -0.417  -2.525  0.00  0.00     0.032 A 
ATOM     12  C   UNL d   1       3.196  -0.305  -3.720  0.00  0.00     0.044 A 
ATOM     13  C   UNL d   1       2.818   0.637  -4.665  0.00  0.00     0.116 A 
ATOM     14  C   UNL d   1       1.724   1.463  -4.438  0.00  0.00     0.044 A 
ATOM     15  F   UNL d   1       3.511   0.757  -5.804  0.00  0.00    -0.206 F 
ATOM     16  C   UNL d   1       0.993   1.341  -3.248  0.00  0.00     0.032 A 
ENDBRANCH   7  10
BRANCH   5  17
ATOM     17  C   UNL d   1      -1.244  -0.306   1.012  0.00  0.00     0.173 C 
BRANCH  17  18
ATOM     18  C   UNL d   1      -2.050   0.830   1.574  0.00  0.00     0.000 A 
ATOM     19  S   UNL d   1      -3.674   0.507   2.058  0.00  0.00    -0.105 SA
ATOM     20  C   UNL d   1      -3.955   2.137   2.479  0.00  0.00     0.050 A 
ATOM     21  C   UNL d   1      -2.846   2.922   2.262  0.00  0.00     0.008 A 
ATOM     22  C   UNL d   1      -1.750   2.170   1.738  0.00  0.00     0.017 A 
ENDBRANCH  17  18
ENDBRANCH   5  17
ENDBRANCH   4   5
ENDBRANCH   3   4
TORSDOF 5
