REMARK  3 active torsions:
REMARK  status: ('A' for Active; 'I' for Inactive)
REMARK    1  A    between atoms: C_3  and  C_1 
REMARK    2  A    between atoms: N_14  and  C_2 
REMARK    3  A    between atoms: C_10  and  C_8 
ROOT
ATOM      1  C   UNL d   1       0.490   3.397   1.193  0.00  0.00     0.155 A 
ATOM      2  C   UNL d   1       0.560   1.132   0.845  0.00  0.00     0.121 A 
ATOM      3  N   UNL d   1       0.908   2.378   0.445  0.00  0.00    -0.329 N 
ATOM      4  HN  UNL d   1       1.467   2.530  -0.395  1.00  0.00     0.168 HD
ATOM      5  N   UNL d   1      -0.205   3.276   2.324  0.00  0.00    -0.332 N 
ATOM      6  HN  UNL d   1      -0.474   4.096   2.868  1.00  0.00     0.168 HD
ATOM      7  C   UNL d   1      -0.544   2.032   2.727  0.00  0.00     0.046 A 
ATOM      8  C   UNL d   1      -0.182   0.918   1.993  0.00  0.00     0.064 A 
ENDROOT
BRANCH   7   9
ATOM      9  C   UNL d   1      -1.327   1.944   3.979  0.00  0.00    -0.009 A 
ATOM     10  C   UNL d   1      -2.192   2.987   4.365  0.00  0.00     0.015 A 
ATOM     11  C   UNL d   1      -2.962   2.906   5.531  0.00  0.00     0.024 A 
ATOM     12  C   UNL d   1      -2.875   1.779   6.340  0.00  0.00     0.034 A 
ATOM     13  C   UNL d   1      -2.018   0.739   5.998  0.00  0.00     0.024 A 
ATOM     14 CL   UNL d   1      -3.829   1.667   7.767  0.00  0.00    -0.084 Cl
ATOM     15  C   UNL d   1      -1.249   0.824   4.831  0.00  0.00     0.015 A 
ENDBRANCH   7   9
BRANCH   1  16
ATOM     16  N   UNL d   1       0.840   4.665   0.786  0.00  0.00    -0.274 NA
ATOM     17  H   UNL d   1       1.659   4.630   0.195  0.00  0.00     0.127 HD
ATOM     18  H   UNL d   1       0.865   5.293   1.577  0.00  0.00     0.127 HD
ENDBRANCH   1  16
BRANCH   2  19
ATOM     19  C   UNL d   1       0.990  -0.070   0.025  0.00  0.00     0.432 C 
ATOM     20  F   UNL d   1       1.744   0.229  -1.068  0.00  0.00    -0.165 F 
ATOM     21  F   UNL d   1      -0.073  -0.790  -0.437  0.00  0.00    -0.165 F 
ATOM     22  F   UNL d   1       1.732  -0.953   0.758  0.00  0.00    -0.165 F 
ENDBRANCH   2  19
TORSDOF 3
