REMARK  11 active torsions:
REMARK  status: ('A' for Active; 'I' for Inactive)
REMARK    1  A    between atoms: O_7  and  C_1 
REMARK       I    between atoms: N_8  and  C_1 
REMARK    2  A    between atoms: C_4  and  C_2 
REMARK    3  A    between atoms: O_9  and  C_2 
REMARK    4  A    between atoms: N_3  and  C_4 
REMARK       I    between atoms: C3_24  and  N_3 
REMARK    5  A    between atoms: C_4  and  C_12 
REMARK    6  A    between atoms: C_10  and  O_7 
REMARK    7  A    between atoms: C_13  and  N_8 
REMARK    8  A    between atoms: C_11  and  C_10 
REMARK    9  A    between atoms: C_12  and  C_16 
REMARK   10  A    between atoms: C_17  and  C_13 
REMARK   11  A    between atoms: C_16  and  C_17 
ROOT
ATOM      1  C   UNK d   1       3.062   1.013   0.247  0.00  0.00     0.125 C 
ENDROOT
BRANCH   1   2
ATOM      2  N   UNK d   1       2.648   2.080  -0.637  0.00  0.00    -0.337 N 
ATOM      3  C   UNK d   1       2.079   3.229  -0.182  0.00  0.00     0.360 C 
ATOM      4  O   UNK d   1       1.872   3.491   1.003  0.00  0.00    -0.239 OA
ATOM      5  H   UNK d   1       2.730   1.995  -1.643  0.00  0.00     0.164 HD
BRANCH   3   6
ATOM      6  O   UNK d   1       1.747   3.999  -1.234  0.00  0.00    -0.299 OA
BRANCH   6   7
ATOM      7  C   UNK d   1       0.668   4.901  -0.982  0.00  0.00     0.219 C 
BRANCH   7   8
ATOM      8  C   UNK d   1       1.079   6.343  -1.105  0.00  0.00    -0.034 A 
ATOM      9  C   UNK d   1       0.500   7.183  -2.069  0.00  0.00     0.009 A 
ATOM     10  C   UNK d   1       0.852   8.533  -2.132  0.00  0.00     0.001 A 
ATOM     11  C   UNK d   1       1.775   9.057  -1.230  0.00  0.00     0.000 A 
ATOM     12  C   UNK d   1       2.351   8.230  -0.267  0.00  0.00     0.001 A 
ATOM     13  C   UNK d   1       2.008   6.881  -0.206  0.00  0.00     0.009 A 
ENDBRANCH   7   8
ENDBRANCH   6   7
ENDBRANCH   3   6
ENDBRANCH   1   2
BRANCH   1  14
ATOM     14  C   UNK d   1       4.566   0.726   0.139  0.00  0.00     0.020 C 
BRANCH  14  15
ATOM     15  C   UNK d   1       5.320   2.002   0.515  0.00  0.00     0.004 C 
BRANCH  15  16
ATOM     16  C   UNK d   1       6.843   1.950   0.465  0.00  0.00     0.036 C 
BRANCH  16  17
ATOM     17  C   UNK d   1       7.525   3.296   0.845  0.00  0.00     0.182 C 
BRANCH  17  18
ATOM     18  C   UNK d   1       7.122   4.515  -0.046  0.00  0.00     0.163 C 
ATOM     19  O   UNK d   1       6.008   4.747  -0.490  0.00  0.00    -0.648 OA
BRANCH  18  20
ATOM     20  O   UNK d   1       8.146   5.392  -0.242  0.00  0.00    -0.775 OA
ATOM     21  H   UNK d   1       8.966   5.185   0.247  0.00  0.00     0.167 HD
ENDBRANCH  18  20
ENDBRANCH  17  18
BRANCH  17  22
ATOM     22  N   UNK d   1       7.367   3.592   2.272  0.00  0.00    -0.347 N 
ATOM     23  C3  <1> d   1       8.395   4.127   3.015  0.00  0.00     0.214 C 
ATOM     24  O4  <1> d   1       9.500   4.358   2.545  0.00  0.00    -0.274 OA
ATOM     25  C7  <1> d   1       8.049   4.450   4.448  0.00  0.00     0.117 C 
ATOM     26  H   UNK d   1       6.481   3.396   2.721  0.00  0.00     0.163 HD
ENDBRANCH  17  22
ENDBRANCH  16  17
ENDBRANCH  15  16
ENDBRANCH  14  15
ENDBRANCH   1  14
TORSDOF 11
