REMARK  6 active torsions:
REMARK  status: ('A' for Active; 'I' for Inactive)
REMARK    1  A    between atoms: C_6  and  C_1 
REMARK    2  A    between atoms: N_4  and  C_2 
REMARK       I    between atoms: C_3  and  N_5 
REMARK    3  A    between atoms: C_7  and  C_3 
REMARK    4  A    between atoms: C_8  and  N_4 
REMARK    5  A    between atoms: N_5  and  C_9 
REMARK    6  A    between atoms: O_19  and  C_6 
ROOT
ATOM      1  C   UNL d   1       3.183  -0.616  -0.589  0.00  0.00     0.059 C 
ATOM      2  C   UNL d   1       3.742  -0.372   0.682  0.00  0.00     0.061 C 
ATOM      3  C   UNL d   1       4.061  -0.729  -1.681  0.00  0.00     0.032 C 
ATOM      4  C   UNL d   1       5.088   0.007   0.793  0.00  0.00     0.032 C 
ATOM      5  C   UNL d   1       5.425  -0.464  -1.545  0.00  0.00     0.002 C 
ATOM      6  C   UNL d   1       5.927  -0.040  -0.320  0.00  0.00     0.002 C 
ENDROOT
BRANCH   1   7
ATOM      7  N   UNL d   1       1.800  -0.592  -0.883  0.00  0.00    -0.356 N 
ATOM      8  H   UNL d   1       1.508  -1.295  -1.570  0.00  0.00     0.166 HD
BRANCH   7   9
ATOM      9  C   UNL d   1       0.794   0.261  -0.457  0.00  0.00     0.032 C 
ATOM     10  C   UNL d   1      -0.512   0.154  -0.799  0.00  0.00     0.050 C 
ATOM     11  C   UNL d   1      -1.466   1.148  -0.228  0.00  0.00     0.121 C 
ATOM     12  S   UNL d   1      -0.522   2.107   0.973  0.00  0.00    -0.158 SA
ATOM     13  C   UNL d   1       1.080   1.492   0.380  0.00  0.00     0.132 C 
BRANCH  10  14
ATOM     14  C   UNL d   1      -1.026  -0.864  -1.741  0.00  0.00     0.291 C 
ATOM     15  O   UNL d   1      -0.323  -1.637  -2.374  0.00  0.00    -0.260 OA
BRANCH  14  16
ATOM     16  O   UNL d   1      -2.375  -0.750  -1.839  0.00  0.00    -0.323 OA
ATOM     17  C   UNL d   1      -3.011  -1.635  -2.762  0.00  0.00     0.213 C 
ENDBRANCH  14  16
ENDBRANCH  10  14
ENDBRANCH   7   9
ENDBRANCH   1   7
BRANCH   2  18
ATOM     18  N   UNL d   1       3.030  -0.528   1.891  0.00  0.00    -0.319 N 
ATOM     19  C   UNL d   1       1.979  -1.410   2.094  0.00  0.00     0.280 C 
ATOM     20  O   UNL d   1       1.691  -2.351   1.359  0.00  0.00    -0.265 OA
ATOM     21  H   UNL d   1       3.368  -0.053   2.718  0.00  0.00     0.169 HD
BRANCH  19  22
ATOM     22  C   UNL d   1       1.236  -1.132   3.306  0.00  0.00     0.142 A 
ATOM     23  O   UNL d   1       1.670  -0.158   4.168  0.00  0.00    -0.317 OA
ATOM     24  C   UNL d   1       0.758  -0.083   5.173  0.00  0.00     0.143 A 
ATOM     25  C   UNL d   1      -0.255  -0.992   4.977  0.00  0.00     0.027 A 
ATOM     26  C   UNL d   1       0.057  -1.677   3.780  0.00  0.00     0.045 A 
ENDBRANCH  19  22
ENDBRANCH   2  18
TORSDOF 6
