REMARK  4 active torsions:
REMARK  status: ('A' for Active; 'I' for Inactive)
REMARK    1  A    between atoms: C_7  and  C_1 
REMARK    2  A    between atoms: C_8  and  C_2 
REMARK    3  A    between atoms: O_12  and  C_7 
REMARK    4  A    between atoms: O_11  and  C_8 
ROOT
ATOM      1  C   UNL d   1      -1.231  -1.059   0.117  0.00  0.00     0.044 C 
ATOM      2  C   UNL d   1       1.322  -1.018   0.165  0.00  0.00     0.044 C 
ATOM      3  N   UNL d   1       0.019   0.932  -0.157  0.00  0.00    -0.362 N 
ATOM      4  C   UNL d   1      -1.198   0.289   0.001  0.00  0.00     0.018 C 
ATOM      5  C   UNL d   1       1.257   0.326   0.016  0.00  0.00     0.018 C 
ATOM      6  C   UNL d   1       0.059  -1.860   0.091  0.00  0.00     0.093 C 
ATOM      7  C   UNL d   1      -2.413   1.180   0.047  0.00  0.00     0.069 C 
ATOM      8  C   UNL d   1       2.419   1.288   0.029  0.00  0.00     0.069 C 
ATOM      9  H   UNL d   1       0.008   1.949  -0.170  0.00  0.00     0.165 HD
ENDROOT
BRANCH   1  10
ATOM     10  C   UNL d   1      -2.505  -1.804   0.323  0.00  0.00     0.291 C 
ATOM     11  O   UNL d   1      -3.549  -1.322   0.732  0.00  0.00    -0.260 OA
BRANCH  10  12
ATOM     12  O   UNL d   1      -2.320  -3.114   0.004  0.00  0.00    -0.323 OA
ATOM     13  C   UNL d   1      -3.480  -3.926   0.191  0.00  0.00     0.213 C 
ENDBRANCH  10  12
ENDBRANCH   1  10
BRANCH   2  14
ATOM     14  C   UNL d   1       2.588  -1.727   0.489  0.00  0.00     0.291 C 
ATOM     15  O   UNL d   1       3.543  -1.226   1.060  0.00  0.00    -0.260 OA
BRANCH  14  16
ATOM     16  O   UNL d   1       2.513  -3.030   0.105  0.00  0.00    -0.323 OA
ATOM     17  C   UNL d   1       3.687  -3.783   0.424  0.00  0.00     0.213 C 
ENDBRANCH  14  16
ENDBRANCH   2  14
TORSDOF 4
