REMARK  3 active torsions:
REMARK  status: ('A' for Active; 'I' for Inactive)
REMARK    1  A    between atoms: C_8  and  C_1 
REMARK    2  A    between atoms: C_2  and  C_15 
REMARK       I    between atoms: N_13  and  C_8 
REMARK    3  A    between atoms: C_21  and  N_13 
ROOT
ATOM      1  C   UNL d   1      -4.382   3.354  -0.040  0.00  0.00    -0.002 A 
ATOM      2  C   UNL d   1      -3.547   2.701  -0.961  0.00  0.00     0.016 A 
ATOM      3  C   UNL d   1      -5.123   2.560   0.840  0.00  0.00     0.016 A 
ATOM      4  C   UNL d   1      -4.110   0.520  -0.032  0.00  0.00     0.035 A 
ATOM      5  C   UNL d   1      -4.984   1.167   0.846  0.00  0.00     0.030 A 
ATOM      6  C   UNL d   1      -3.403   1.303  -0.952  0.00  0.00     0.030 A 
ENDROOT
BRANCH   1   7
ATOM      7  C   UNL d   1      -4.480   4.822   0.064  0.00  0.00     0.085 A 
ATOM      8  N   UNL d   1      -5.534   5.471   0.517  0.00  0.00    -0.349 N 
ATOM      9  C   UNL d   1      -5.279   6.833   0.565  0.00  0.00     0.050 A 
ATOM     10  HN  UNL d   1      -6.413   5.033   0.794  1.00  0.00     0.166 HD
ATOM     11  C   UNL d   1      -6.176   7.835   0.989  0.00  0.00     0.031 A 
ATOM     12  C   UNL d   1      -4.003   7.215   0.156  0.00  0.00     0.034 A 
ATOM     13  C   UNL d   1      -5.775   9.177   0.987  0.00  0.00     0.009 A 
ATOM     14  C   UNL d   1      -4.492   9.541   0.571  0.00  0.00    -0.061 A 
ATOM     15  C   UNL d   1      -3.587   8.555   0.152  0.00  0.00     0.028 A 
ATOM     16  C   UNL d   1      -4.088  10.988   0.571  0.00  0.00     0.048 C 
ATOM     17  S   UNL d   1      -3.120   5.814  -0.300  0.00  0.00    -0.070 SA
ENDBRANCH   1   7
BRANCH   4  18
ATOM     18  N   UNL d   1      -3.875  -0.877   0.008  0.00  0.00    -0.322 N 
ATOM     19  C   UNL d   1      -4.614  -1.800   0.730  0.00  0.00     0.274 C 
ATOM     20  O   UNL d   1      -5.681  -1.562   1.293  0.00  0.00    -0.266 OA
ATOM     21  H   UNL d   1      -3.092  -1.248  -0.524  0.00  0.00     0.169 HD
BRANCH  19  22
ATOM     22  C   UNL d   1      -4.072  -3.161   0.783  0.00  0.00     0.125 A 
ATOM     23  N   UNL d   1      -2.907  -3.531   0.223  0.00  0.00    -0.256 N 
ATOM     24  O   UNL d   1      -2.765  -4.885   0.519  0.00  0.00    -0.242 OA
ATOM     25  HN  UNL d   1      -2.263  -2.944  -0.307  1.00  0.00     0.195 HD
ATOM     26  C   UNL d   1      -3.835  -5.312   1.245  0.00  0.00     0.075 A 
ATOM     27  C   UNL d   1      -4.685  -4.258   1.446  0.00  0.00     0.071 A 
ATOM     28  C   UNL d   1      -3.868  -6.734   1.633  0.00  0.00     0.079 C 
ENDBRANCH  19  22
ENDBRANCH   4  18
TORSDOF 3
