REMARK  4 active torsions:
REMARK  status: ('A' for Active; 'I' for Inactive)
REMARK    1  A    between atoms: C_7  and  N_1 
REMARK    2  A    between atoms: C_8  and  C_7 
REMARK       I    between atoms: N_11  and  C_8 
REMARK    3  A    between atoms: N_9  and  N_11 
REMARK    4  A    between atoms: C_14  and  C_13 
ROOT
ATOM      1  N   UNL d   1      -0.066  -1.605   0.530  0.00  0.00    -0.239 NA
ATOM      2  S   UNL d   1       0.026   1.498   0.888  0.00  0.00    -0.087 SA
ATOM      3  C   UNL d   1      -1.256  -0.888   0.202  0.00  0.00     0.033 A 
ATOM      4  C   UNL d   1       1.209  -0.976   0.360  0.00  0.00     0.033 A 
ATOM      5  C   UNL d   1      -1.345   0.514   0.306  0.00  0.00     0.027 A 
ATOM      6  C   UNL d   1       1.384   0.417   0.467  0.00  0.00     0.027 A 
ATOM      7  C   UNL d   1       2.309  -1.774   0.004  0.00  0.00     0.025 A 
ATOM      8  C   UNL d   1      -2.359  -1.599  -0.302  0.00  0.00     0.025 A 
ATOM      9  C   UNL d   1      -2.532   1.169  -0.047  0.00  0.00     0.021 A 
ATOM     10  C   UNL d   1       2.645   0.983   0.242  0.00  0.00     0.021 A 
ATOM     11  C   UNL d   1      -3.537  -0.941  -0.651  0.00  0.00     0.002 A 
ATOM     12  C   UNL d   1       3.557  -1.199  -0.242  0.00  0.00     0.002 A 
ATOM     13  C   UNL d   1       3.726   0.178  -0.119  0.00  0.00     0.001 A 
ATOM     14  C   UNL d   1      -3.626   0.441  -0.522  0.00  0.00     0.001 A 
ENDROOT
BRANCH   1  15
ATOM     15  C   UNL d   1      -0.143  -2.150   1.923  0.00  0.00     0.206 C 
BRANCH  15  16
ATOM     16  C   UNL d   1      -1.177  -3.274   2.062  0.00  0.00     0.249 C 
ATOM     17  N   UNL d   1      -2.378  -2.847   2.631  0.00  0.00    -0.269 N 
ATOM     18  H   UNL d   1      -2.540  -1.855   2.766  0.00  0.00     0.190 HD
ATOM     19  O   UNL d   1      -0.946  -4.423   1.686  0.00  0.00    -0.270 OA
BRANCH  17  20
ATOM     20  N   UNL d   1      -3.456  -3.689   2.640  0.00  0.00    -0.308 N 
ATOM     21  C   UNL d   1      -4.564  -3.170   3.065  0.00  0.00     0.118 C 
ATOM     22  HN  UNL d   1      -3.392  -4.660   2.333  1.00  0.00     0.186 HD
BRANCH  21  23
ATOM     23  C   UNL d   1      -5.835  -3.924   3.072  0.00  0.00    -0.019 A 
ATOM     24  C   UNL d   1      -5.914  -5.206   2.519  0.00  0.00     0.013 A 
ATOM     25  C   UNL d   1      -7.136  -5.882   2.508  0.00  0.00     0.001 A 
ATOM     26  C   UNL d   1      -8.273  -5.281   3.050  0.00  0.00     0.000 A 
ATOM     27  C   UNL d   1      -8.192  -4.005   3.606  0.00  0.00     0.001 A 
ATOM     28  C   UNL d   1      -6.973  -3.322   3.617  0.00  0.00     0.013 A 
ENDBRANCH  21  23
ENDBRANCH  17  20
ENDBRANCH  15  16
ENDBRANCH   1  15
TORSDOF 4
