REMARK  1 active torsions:
REMARK  status: ('A' for Active; 'I' for Inactive)
REMARK    1  A    between atoms: C_7  and  N_1 
ROOT
ATOM      1  N   UNL d   1       0.574   1.216  -0.192  0.00  0.00     0.127 N 
ATOM      2  C   UNL d   1      -1.724   2.798  -0.329  0.00  0.00     0.170 C 
ATOM      3  N   UNL d   1      -1.780   1.462  -0.105  0.00  0.00    -0.342 N 
ATOM      4  N   UNL d   1      -0.487   3.358  -0.289  0.00  0.00    -0.342 N 
ATOM      5  C   UNL d   1      -0.659   0.751   0.432  0.00  0.00     0.399 C 
ATOM      6  C   UNL d   1       0.676   2.639   0.152  0.00  0.00     0.399 C 
ATOM      7  S   UNL d   1      -3.078   3.686  -0.688  0.00  0.00    -0.041 SA
ATOM      8  H   UNL d   1      -2.697   1.045  -0.077  0.00  0.00     0.163 HD
ATOM      9  H   UNL d   1      -0.442   4.361  -0.401  0.00  0.00     0.163 HD
ENDROOT
BRANCH   1  10
ATOM     10  C   UNL d   1       0.681   0.971  -1.657  0.00  0.00     0.228 C 
ATOM     11  C   UNL d   1       0.165  -0.398  -2.183  0.00  0.00     0.044 C 
ATOM     12  C   UNL d   1       1.130  -1.608  -2.141  0.00  0.00    -0.045 C 
ATOM     13  C   UNL d   1       1.321  -2.177  -0.725  0.00  0.00     0.015 C 
ATOM     14  C   UNL d   1       0.518  -2.728  -3.007  0.00  0.00     0.015 C 
ATOM     15  C   UNL d   1       2.490  -1.200  -2.735  0.00  0.00     0.013 C 
ATOM     16  C   UNL d   1       3.077   0.032  -2.034  0.00  0.00    -0.016 C 
ATOM     17  C   UNL d   1       2.119   1.220  -2.189  0.00  0.00     0.040 C 
ATOM     18  C   UNL d   1       4.452   0.363  -2.617  0.00  0.00     0.010 C 
ENDBRANCH   1  10
TORSDOF 1
