REMARK  4 active torsions:
REMARK  status: ('A' for Active; 'I' for Inactive)
REMARK    1  A    between atoms: N_3  and  S_1 
REMARK    2  A    between atoms: C_7  and  S_1 
REMARK    3  A    between atoms: N_2  and  C_5 
REMARK    4  A    between atoms: C_4  and  N_3 
ROOT
ATOM      1  N   UNL d   1       0.713  -0.373   1.520  0.00  0.00    -0.180 NA
ATOM      2  H   UNL d   1      -0.285  -0.178   1.660  0.00  0.00     0.146 HD
ENDROOT
BRANCH   1   3
ATOM      3  S   UNL d   1       1.010  -0.037  -0.132  0.00  0.00     0.245 S 
ATOM      4  O   UNL d   1      -0.261  -0.169  -0.807  0.00  0.00    -0.206 OA
ATOM      5  O   UNL d   1       2.199  -0.732  -0.574  0.00  0.00    -0.206 OA
BRANCH   3   6
ATOM      6  C   UNL d   1       1.414   1.692  -0.039  0.00  0.00     0.074 A 
ATOM      7  C   UNL d   1       2.578   2.079   0.635  0.00  0.00     0.026 A 
ATOM      8  C   UNL d   1       2.885   3.435   0.754  0.00  0.00     0.025 A 
ATOM      9  C   UNL d   1       2.035   4.390   0.194  0.00  0.00     0.034 A 
ATOM     10  C   UNL d   1       0.886   4.001  -0.498  0.00  0.00     0.025 A 
ATOM     11 CL   UNL d   1       2.402   6.062   0.366  0.00  0.00    -0.084 Cl
ATOM     12  C   UNL d   1       0.572   2.645  -0.619  0.00  0.00     0.026 A 
ENDBRANCH   3   6
ENDBRANCH   1   3
BRANCH   1  13
ATOM     13  C   UNL d   1       1.001  -1.732   1.910  0.00  0.00     0.044 A 
ATOM     14  C   UNL d   1       0.011  -2.729   1.904  0.00  0.00     0.058 A 
ATOM     15  C   UNL d   1       0.323  -4.041   2.267  0.00  0.00     0.061 A 
ATOM     16 CL   UNL d   1      -1.623  -2.354   1.492  0.00  0.00    -0.082 Cl
ATOM     17  C   UNL d   1       1.639  -4.356   2.628  0.00  0.00     0.104 A 
ATOM     18  C   UNL d   1       2.638  -3.372   2.622  0.00  0.00     0.038 A 
ATOM     19  C   UNL d   1       2.315  -2.062   2.256  0.00  0.00     0.028 A 
BRANCH  17  20
ATOM     20  N   UNL d   1       1.975  -5.730   3.026  0.00  0.00    -0.116 N 
ATOM     21  O   UNL d   1       1.062  -6.567   3.022  0.00  0.00    -0.532 OA
ATOM     22  O   UNL d   1       3.147  -5.966   3.348  0.00  0.00    -0.532 OA
ENDBRANCH  17  20
ENDBRANCH   1  13
TORSDOF 4
