REMARK  4 active torsions:
REMARK  status: ('A' for Active; 'I' for Inactive)
REMARK    1  A    between atoms: C_12  and  C_3 
REMARK    2  A    between atoms: C_11  and  C_6 
REMARK    3  A    between atoms: S_13  and  C_11 
REMARK    4  A    between atoms: C_19  and  S_13 
ROOT
ATOM      1  C   UNL d   1       0.288   1.078  -0.092  0.00  0.00     0.172 A 
ATOM      2  N   UNL d   1      -0.133  -0.197   0.143  0.00  0.00    -0.235 N 
ATOM      3  C   UNL d   1      -1.799   1.083   0.053  0.00  0.00     0.207 A 
ATOM      4  N   UNL d   1      -0.702   1.919  -0.168  0.00  0.00    -0.316 N 
ATOM      5  HN  UNL d   1      -0.683   2.924  -0.342  1.00  0.00     0.169 HD
ATOM      6  C   UNL d   1       2.060  -0.619  -0.210  0.00  0.00     0.090 A 
ATOM      7  N   UNL d   1      -1.467  -0.209   0.305  0.00  0.00    -0.273 N 
ATOM      8  HN  UNL d   1      -2.075  -0.989   0.555  1.00  0.00     0.189 HD
ATOM      9  C   UNL d   1       0.854  -1.165   0.083  0.00  0.00     0.054 A 
ATOM     10  S   UNL d   1       1.991   1.150  -0.375  0.00  0.00    -0.045 SA
ATOM     11  C   UNL d   1       0.493  -2.600   0.262  0.00  0.00     0.072 C 
ENDROOT
BRANCH   6  12
ATOM     12  C   UNL d   1       3.301  -1.419  -0.453  0.00  0.00     0.233 C 
ATOM     13  O   UNL d   1       3.254  -2.647  -0.457  0.00  0.00    -0.279 OA
BRANCH  12  14
ATOM     14  S   UNL d   1       4.806  -0.542  -0.699  0.00  0.00    -0.047 SA
BRANCH  14  15
ATOM     15  C   UNL d   1       5.945  -1.726  -1.402  0.00  0.00     0.008 A 
ATOM     16  C   UNL d   1       6.123  -3.019  -0.895  0.00  0.00     0.019 A 
ATOM     17  C   UNL d   1       7.081  -3.879  -1.444  0.00  0.00     0.001 A 
ATOM     18  C   UNL d   1       7.892  -3.447  -2.490  0.00  0.00     0.000 A 
ATOM     19  C   UNL d   1       7.741  -2.157  -2.993  0.00  0.00     0.001 A 
ATOM     20  C   UNL d   1       6.772  -1.303  -2.452  0.00  0.00     0.019 A 
ENDBRANCH  14  15
ENDBRANCH  12  14
ENDBRANCH   6  12
BRANCH   3  21
ATOM     21  C   UNL d   1      -3.237   1.553  -0.056  0.00  0.00     0.450 C 
ATOM     22  F   UNL d   1      -3.350   2.750  -0.694  0.00  0.00    -0.163 F 
ATOM     23  F   UNL d   1      -4.008   0.675  -0.759  0.00  0.00    -0.163 F 
ATOM     24  F   UNL d   1      -3.827   1.702   1.160  0.00  0.00    -0.163 F 
ENDBRANCH   3  21
TORSDOF 4
