REMARK  6 active torsions:
REMARK  status: ('A' for Active; 'I' for Inactive)
REMARK    1  A    between atoms: C_6  and  C_1 
REMARK    2  A    between atoms: C_10  and  C_4 
REMARK    3  A    between atoms: O_8  and  C_6 
REMARK    4  A    between atoms: C_12  and  O_8 
REMARK    5  A    between atoms: C_9  and  C_12 
REMARK    6  A    between atoms: C_14  and  C_9 
ROOT
ATOM      1  C   UNL d   1       0.001  -1.372  -0.001  0.00  0.00     0.100 A 
ATOM      2  N   UNL d   1      -1.050   0.636   0.213  0.00  0.00    -0.259 N 
ATOM      3  HN  UNL d   1      -1.768   1.355   0.293  1.00  0.00     0.195 HD
ATOM      4  C   UNL d   1      -1.248  -0.696   0.184  0.00  0.00     0.084 A 
ATOM      5  O   UNL d   1       0.301   0.842   0.113  0.00  0.00    -0.241 OA
ATOM      6  C   UNL d   1       0.932  -0.349   0.003  0.00  0.00     0.091 A 
ATOM      7  C   UNL d   1       2.403  -0.291  -0.113  0.00  0.00     0.080 C 
ENDROOT
BRANCH   1   8
ATOM      8  C   UNL d   1       0.355  -2.761  -0.189  0.00  0.00     0.298 C 
ATOM      9  O   UNL d   1       1.492  -3.187  -0.013  0.00  0.00    -0.259 OA
BRANCH   8  10
ATOM     10  O   UNL d   1      -0.651  -3.510  -0.724  0.00  0.00    -0.310 OA
BRANCH  10  11
ATOM     11  C   UNL d   1      -0.253  -4.814  -1.153  0.00  0.00     0.263 C 
BRANCH  11  12
ATOM     12  C   UNL d   1      -0.216  -5.866  -0.047  0.00  0.00     0.183 C 
ATOM     13  O   UNL d   1      -0.545  -5.606   1.109  0.00  0.00    -0.290 OA
BRANCH  12  14
ATOM     14  C   UNL d   1       0.198  -7.260  -0.413  0.00  0.00     0.012 A 
ATOM     15  C   UNL d   1       0.598  -7.613  -1.712  0.00  0.00     0.015 A 
ATOM     16  C   UNL d   1       0.957  -8.932  -2.009  0.00  0.00     0.001 A 
ATOM     17  C   UNL d   1       0.918  -9.910  -1.019  0.00  0.00     0.000 A 
ATOM     18  C   UNL d   1       0.526  -9.570   0.277  0.00  0.00     0.001 A 
ATOM     19  C   UNL d   1       0.170  -8.253   0.577  0.00  0.00     0.015 A 
ENDBRANCH  12  14
ENDBRANCH  11  12
ENDBRANCH  10  11
ENDBRANCH   8  10
ENDBRANCH   1   8
BRANCH   4  20
ATOM     20  C   UNL d   1      -2.612  -1.202   0.380  0.00  0.00    -0.006 A 
ATOM     21  C   UNL d   1      -3.707  -0.446  -0.070  0.00  0.00     0.014 A 
ATOM     22  C   UNL d   1      -5.020  -0.843   0.201  0.00  0.00     0.001 A 
ATOM     23  C   UNL d   1      -5.253  -2.011   0.922  0.00  0.00     0.000 A 
ATOM     24  C   UNL d   1      -4.179  -2.776   1.368  0.00  0.00     0.001 A 
ATOM     25  C   UNL d   1      -2.865  -2.374   1.104  0.00  0.00     0.014 A 
ENDBRANCH   4  20
TORSDOF 6
