REMARK  6 active torsions:
REMARK  status: ('A' for Active; 'I' for Inactive)
REMARK    1  A    between atoms: C_11  and  C_1 
REMARK    2  A    between atoms: N_7  and  C_2 
REMARK    3  A    between atoms: C_12  and  C_4 
REMARK       I    between atoms: C_6  and  N_7 
REMARK    4  A    between atoms: C_8  and  C_6 
REMARK    5  A    between atoms: C_10  and  C_9 
REMARK    6  A    between atoms: O_16  and  C_10 
ROOT
ATOM      1  C   UNL d   1       2.443   2.911  -0.261  0.00  0.00     0.257 C 
ATOM      2  N   UNL d   1       2.356   1.552  -0.449  0.00  0.00    -0.322 N 
ATOM      3  O   UNL d   1       1.463   3.638  -0.120  0.00  0.00    -0.267 OA
ATOM      4  H   UNL d   1       3.217   1.007  -0.472  0.00  0.00     0.169 HD
ENDROOT
BRANCH   2   5
ATOM      5  C   UNL d   1       1.201   0.763  -0.396  0.00  0.00     0.057 C 
ATOM      6  C   UNL d   1      -0.133   1.089  -0.583  0.00  0.00     0.077 C 
ATOM      7  S   UNL d   1      -1.154  -0.237  -0.180  0.00  0.00    -0.088 SA
ATOM      8  C   UNL d   1       0.153  -1.345  -0.105  0.00  0.00    -0.007 C 
ATOM      9  C   UNL d   1       1.346  -0.651  -0.159  0.00  0.00     0.046 C 
BRANCH   6  10
ATOM     10  C   UNL d   1      -0.817   2.260  -1.118  0.00  0.00     0.164 C 
ATOM     11  O   UNL d   1      -1.909   2.662  -0.717  0.00  0.00    -0.292 OA
ATOM     12  C   UNL d   1      -0.227   2.889  -2.366  0.00  0.00     0.097 C 
ENDBRANCH   6  10
BRANCH   8  13
ATOM     13  C   UNL d   1      -0.098  -2.854  -0.003  0.00  0.00    -0.018 C 
ATOM     14  C   UNL d   1      -0.955  -3.323  -1.200  0.00  0.00     0.020 C 
ATOM     15  C   UNL d   1       1.229  -3.643  -0.052  0.00  0.00     0.020 C 
ATOM     16  C   UNL d   1      -0.813  -3.213   1.312  0.00  0.00     0.020 C 
ENDBRANCH   8  13
ENDBRANCH   2   5
BRANCH   1  17
ATOM     17  C   UNL d   1       3.808   3.568  -0.184  0.00  0.00     0.049 A 
ATOM     18  C   UNL d   1       5.041   3.001   0.209  0.00  0.00     0.053 A 
ATOM     19  C   UNL d   1       6.179   3.829   0.362  0.00  0.00     0.019 A 
ATOM     20  C   UNL d   1       6.110   5.202   0.139  0.00  0.00     0.001 A 
ATOM     21  C   UNL d   1       4.917   5.764  -0.290  0.00  0.00     0.001 A 
ATOM     22  C   UNL d   1       3.787   4.957  -0.450  0.00  0.00     0.018 A 
BRANCH  18  23
ATOM     23  C   UNL d   1       5.262   1.547   0.392  0.00  0.00     0.177 C 
ATOM     24  O   UNL d   1       4.748   0.714  -0.333  0.00  0.00    -0.646 OA
BRANCH  23  25
ATOM     25  O   UNL d   1       6.093   1.210   1.399  0.00  0.00    -0.773 OA
ATOM     26  H   UNL d   1       6.396   1.929   1.983  0.00  0.00     0.167 HD
ENDBRANCH  23  25
ENDBRANCH  18  23
ENDBRANCH   1  17
TORSDOF 6
