REMARK  5 active torsions:
REMARK  status: ('A' for Active; 'I' for Inactive)
REMARK    1  A    between atoms: S_2  and  C_1 
REMARK    2  A    between atoms: C_8  and  S_2 
REMARK    3  A    between atoms: C_7  and  C_4 
REMARK       I    between atoms: N_9  and  C_7 
REMARK    4  A    between atoms: N_12  and  N_9 
REMARK    5  A    between atoms: C_16  and  N_12 
ROOT
ATOM      1  C   UNL d   1       0.721   1.327   0.042  0.00  0.00     0.078 A 
ATOM      2  C   UNL d   1       1.244  -0.028   0.044  0.00  0.00    -0.017 A 
ATOM      3  C   UNL d   1       0.202  -0.978   0.069  0.00  0.00     0.081 A 
ATOM      4  S   UNL d   1      -1.317  -0.191   0.170  0.00  0.00    -0.094 SA
ATOM      5  C   UNL d   1      -0.654   1.351   0.085  0.00  0.00     0.075 A 
ATOM      6  C   UNL d   1       2.693  -0.422   0.014  0.00  0.00     0.051 C 
ENDROOT
BRANCH   3   7
ATOM      7  C   UNL d   1       0.342  -2.458   0.024  0.00  0.00     0.273 C 
ATOM      8  N   UNL d   1      -0.740  -3.339   0.117  0.00  0.00    -0.282 N 
ATOM      9  H   UNL d   1      -0.506  -4.284  -0.171  0.00  0.00     0.184 HD
ATOM     10  O   UNL d   1       1.448  -2.998  -0.096  0.00  0.00    -0.266 OA
BRANCH   8  11
ATOM     11  N   UNL d   1      -2.078  -2.971  -0.076  0.00  0.00    -0.203 NA
ATOM     12  H   UNL d   1      -2.210  -1.971   0.081  0.00  0.00     0.153 HD
BRANCH  11  13
ATOM     13  C   UNL d   1      -3.022  -3.671   0.721  0.00  0.00     0.027 A 
ATOM     14  C   UNL d   1      -4.137  -2.964   1.200  0.00  0.00     0.026 A 
ATOM     15  C   UNL d   1      -5.195  -3.618   1.834  0.00  0.00     0.008 A 
ATOM     16  C   UNL d   1      -5.175  -5.006   1.978  0.00  0.00    -0.062 A 
ATOM     17  C   UNL d   1      -4.064  -5.719   1.517  0.00  0.00     0.008 A 
ATOM     18  C   UNL d   1      -6.363  -5.702   2.575  0.00  0.00     0.048 C 
ATOM     19  C   UNL d   1      -2.996  -5.058   0.893  0.00  0.00     0.026 A 
ENDBRANCH  11  13
ENDBRANCH   8  11
ENDBRANCH   3   7
BRANCH   1  20
ATOM     20  S   UNL d   1       1.590   2.845   0.060  0.00  0.00     0.207 S 
ATOM     21  O   UNL d   1       2.897   2.585  -0.497  0.00  0.00    -0.217 OA
ATOM     22  O   UNL d   1       0.683   3.802  -0.531  0.00  0.00    -0.217 OA
BRANCH  20  23
ATOM     23  C   UNL d   1       1.742   3.213   1.790  0.00  0.00     0.064 A 
ATOM     24  C   UNL d   1       2.897   2.839   2.481  0.00  0.00     0.025 A 
ATOM     25  C   UNL d   1       3.001   3.126   3.844  0.00  0.00     0.025 A 
ATOM     26  C   UNL d   1       1.961   3.789   4.500  0.00  0.00     0.034 A 
ATOM     27  C   UNL d   1       0.817   4.178   3.802  0.00  0.00     0.025 A 
ATOM     28 CL   UNL d   1       2.093   4.131   6.181  0.00  0.00    -0.084 Cl
ATOM     29  C   UNL d   1       0.708   3.896   2.439  0.00  0.00     0.025 A 
ENDBRANCH  20  23
ENDBRANCH   1  20
TORSDOF 5
