REMARK  6 active torsions:
REMARK  status: ('A' for Active; 'I' for Inactive)
REMARK    1  A    between atoms: C_9  and  C_1 
REMARK    2  A    between atoms: C_7  and  C_2 
REMARK    3  A    between atoms: N_11  and  C_5 
REMARK    4  A    between atoms: O_18  and  C_9 
REMARK    5  A    between atoms: C_17  and  N_11 
REMARK    6  A    between atoms: C_24  and  O_18 
ROOT
ATOM      1  C   UNL d   1      -1.592   1.361   0.097  0.00  0.00     0.072 A 
ATOM      2  C   UNL d   1      -2.231   0.128   0.032  0.00  0.00     0.134 A 
ATOM      3  N   UNL d   1      -1.501  -1.035   0.032  0.00  0.00    -0.336 N 
ATOM      4  HN  UNL d   1      -1.984  -1.933   0.053  1.00  0.00     0.167 HD
ATOM      5  C   UNL d   1      -0.148  -1.003   0.006  0.00  0.00     0.127 A 
ATOM      6  C   UNL d   1       0.540   0.209  -0.033  0.00  0.00     0.089 A 
ATOM      7  C   UNL d   1      -0.190   1.398   0.045  0.00  0.00     0.046 A 
ATOM      8  C   UNL d   1       1.968   0.264  -0.116  0.00  0.00     0.103 C 
ATOM      9  N   UNL d   1       3.121   0.321  -0.219  0.00  0.00    -0.191 NA
ENDROOT
BRANCH   5  10
ATOM     10  N   UNL d   1       0.550  -2.221   0.025  0.00  0.00    -0.341 N 
ATOM     11  H   UNL d   1       1.165  -2.351  -0.774  0.00  0.00     0.167 HD
BRANCH  10  12
ATOM     12  C   UNL d   1       0.207  -3.405   0.695  0.00  0.00     0.033 A 
ATOM     13  C   UNL d   1       0.661  -4.636   0.203  0.00  0.00     0.030 A 
ATOM     14  C   UNL d   1       0.432  -5.820   0.911  0.00  0.00     0.009 A 
ATOM     15  C   UNL d   1      -0.244  -5.795   2.136  0.00  0.00    -0.062 A 
ATOM     16  C   UNL d   1      -0.743  -4.579   2.607  0.00  0.00     0.009 A 
ATOM     17  C   UNL d   1      -0.404  -7.057   2.929  0.00  0.00     0.048 C 
ATOM     18  C   UNL d   1      -0.523  -3.400   1.887  0.00  0.00     0.030 A 
ENDBRANCH  10  12
ENDBRANCH   5  10
BRANCH   1  19
ATOM     19  C   UNL d   1      -2.339   2.619   0.244  0.00  0.00     0.295 C 
ATOM     20  O   UNL d   1      -3.295   2.751   0.984  0.00  0.00    -0.259 OA
BRANCH  19  21
ATOM     21  O   UNL d   1      -1.800   3.529  -0.596  0.00  0.00    -0.318 OA
BRANCH  21  22
ATOM     22  C   UNL d   1      -2.549   4.736  -0.795  0.00  0.00     0.174 C 
ATOM     23  C   UNL d   1      -3.240   4.618  -2.142  0.00  0.00     0.034 C 
ENDBRANCH  21  22
ENDBRANCH  19  21
ENDBRANCH   1  19
BRANCH   2  24
ATOM     24  C   UNL d   1      -3.739  -0.019  -0.127  0.00  0.00     0.433 C 
ATOM     25  F   UNL d   1      -4.393   1.099  -0.546  0.00  0.00    -0.165 F 
ATOM     26  F   UNL d   1      -4.054  -0.954  -1.077  0.00  0.00    -0.165 F 
ATOM     27  F   UNL d   1      -4.362  -0.431   1.012  0.00  0.00    -0.165 F 
ENDBRANCH   2  24
TORSDOF 6
