REMARK  7 active torsions:
REMARK  status: ('A' for Active; 'I' for Inactive)
REMARK    1  A    between atoms: C_12  and  N_1 
REMARK    2  A    between atoms: C_3  and  C_8 
REMARK    3  A    between atoms: C_8  and  O_18 
REMARK    4  A    between atoms: C_17  and  C_12 
REMARK    5  A    between atoms: O_18  and  N_13 
REMARK    6  A    between atoms: C_16  and  C_17 
REMARK    7  A    between atoms: N_23  and  C_16 
ROOT
ATOM      1  N   UNL d   1       3.277  -4.797   0.645  0.00  0.00    -0.245 N 
ATOM      2  HN  UNL d   1       3.647  -5.633   1.098  1.00  0.00     0.196 HD
ATOM      3  C   UNL d   1       4.008  -3.922   0.023  0.00  0.00     0.097 C 
ENDROOT
BRANCH   3   4
ATOM      4  C   UNL d   1       5.522  -4.126  -0.010  0.00  0.00     0.098 C 
BRANCH   4   5
ATOM      5  C   UNL d   1       5.926  -5.598  -0.012  0.00  0.00     0.142 C 
BRANCH   5   6
ATOM      6  N   UNL d   1       7.362  -5.786  -0.035  0.00  0.00    -0.290 N 
ATOM      7  C   UNL d   1       8.154  -5.919  -1.158  0.00  0.00     0.372 A 
ATOM      8  O   UNL d   1       9.498  -6.123  -0.806  0.00  0.00    -0.259 OA
ATOM      9  O   UNL d   1       7.771  -5.867  -2.320  0.00  0.00    -0.237 OA
ATOM     10  C   UNL d   1       9.454  -6.098   0.579  0.00  0.00     0.107 A 
ATOM     11  C   UNL d   1       8.180  -5.889   1.067  0.00  0.00     0.073 A 
ATOM     12  C   UNL d   1      10.534  -6.264   1.419  0.00  0.00     0.040 A 
ATOM     13  C   UNL d   1       7.910  -5.829   2.417  0.00  0.00     0.039 A 
ATOM     14  C   UNL d   1       8.988  -5.989   3.302  0.00  0.00    -0.060 A 
ATOM     15  C   UNL d   1      10.292  -6.207   2.796  0.00  0.00     0.009 A 
ATOM     16  C   UNL d   1       8.771  -5.935   4.787  0.00  0.00     0.048 C 
ENDBRANCH   5   6
ENDBRANCH   4   5
ENDBRANCH   3   4
BRANCH   3  17
ATOM     17  N   UNL d   1       3.522  -2.786  -0.575  0.00  0.00    -0.387 N 
ATOM     18  H   UNL d   1       2.523  -2.786  -0.755  0.00  0.00     0.157 HD
ATOM     19  H   UNL d   1       4.079  -2.348  -1.299  0.00  0.00     0.157 HD
ENDBRANCH   3  17
BRANCH   1  20
ATOM     20  O   UNL d   1       1.902  -4.449   0.618  0.00  0.00    -0.192 OA
BRANCH  20  21
ATOM     21  C   UNL d   1       1.153  -5.399   1.286  0.00  0.00     0.333 C 
ATOM     22  O   UNL d   1       1.605  -6.415   1.816  0.00  0.00    -0.256 OA
BRANCH  21  23
ATOM     23  C   UNL d   1      -0.280  -5.099   1.308  0.00  0.00     0.134 A 
ATOM     24  N   UNL d   1      -0.812  -3.999   0.744  0.00  0.00    -0.255 N 
ATOM     25  O   UNL d   1      -2.177  -4.073   0.964  0.00  0.00    -0.242 OA
ATOM     26  HN  UNL d   1      -0.310  -3.259   0.252  1.00  0.00     0.195 HD
ATOM     27  C   UNL d   1      -2.470  -5.207   1.655  0.00  0.00     0.075 A 
ATOM     28  C   UNL d   1      -1.306  -5.889   1.902  0.00  0.00     0.072 A 
ATOM     29  C   UNL d   1      -3.893  -5.445   1.964  0.00  0.00     0.079 C 
ENDBRANCH  21  23
ENDBRANCH  20  21
ENDBRANCH   1  20
TORSDOF 7
