REMARK  8 active torsions:
REMARK  status: ('A' for Active; 'I' for Inactive)
REMARK    1  A    between atoms: N_5  and  C_1 
REMARK       I    between atoms: C_2  and  N_15 
REMARK    2  A    between atoms: O_9  and  C_2 
REMARK    3  A    between atoms: C_8  and  N_5 
REMARK    4  A    between atoms: C_13  and  O_9 
REMARK    5  A    between atoms: C_19  and  N_14 
REMARK    6  A    between atoms: N_15  and  C_20 
REMARK    7  A    between atoms: C_18  and  C_19 
REMARK    8  A    between atoms: C_20  and  C_18 
ROOT
ATOM      1  C   UNL d   1       2.019  -0.231   1.393  0.00  0.00     0.172 C 
ATOM      2  S   UNL d   1       1.401  -1.720   1.827  0.00  0.00    -0.041 SA
ATOM      3  N   UNL d   1       2.374  -0.027   0.099  0.00  0.00    -0.367 N 
ATOM      4  H   UNL d   1       2.124  -0.813  -0.492  0.00  0.00     0.161 HD
ENDROOT
BRANCH   1   5
ATOM      5  N   UNL d   1       2.283   0.693   2.343  0.00  0.00    -0.333 N 
ATOM      6  H   UNL d   1       2.389   0.314   3.278  0.00  0.00     0.168 HD
BRANCH   5   7
ATOM      7  C   UNL d   1       2.122   2.091   2.284  0.00  0.00     0.037 A 
ATOM      8  C   UNL d   1       1.259   2.724   1.382  0.00  0.00     0.069 A 
ATOM      9  C   UNL d   1       1.157   4.118   1.377  0.00  0.00     0.104 A 
ATOM     10  O   UNL d   1       0.275   4.673   0.486  0.00  0.00    -0.346 OA
ATOM     11  C   UNL d   1       1.921   4.879   2.266  0.00  0.00     0.102 A 
ATOM     12  C   UNL d   1       0.514   6.072   0.298  0.00  0.00     0.202 C 
ATOM     13  C   UNL d   1       0.775   6.785   1.616  0.00  0.00     0.202 C 
ATOM     14  O   UNL d   1       1.915   6.248   2.291  0.00  0.00    -0.346 OA
ATOM     15  C   UNL d   1       2.757   4.247   3.183  0.00  0.00     0.042 A 
ATOM     16  C   UNL d   1       2.832   2.853   3.212  0.00  0.00     0.032 A 
ENDBRANCH   5   7
ENDBRANCH   1   5
BRANCH   3  17
ATOM     17  C   UNL d   1       3.472   0.807  -0.397  0.00  0.00     0.123 C 
BRANCH  17  18
ATOM     18  C   UNL d   1       4.872   0.366   0.071  0.00  0.00     0.039 C 
BRANCH  18  19
ATOM     19  C   UNL d   1       5.243  -1.014  -0.461  0.00  0.00     0.126 C 
BRANCH  19  20
ATOM     20  N   UNL d   1       6.445  -1.618   0.097  0.00  0.00    -0.337 N 
ATOM     21  C   UNL d   1       7.738  -1.442  -0.300  0.00  0.00     0.361 C 
ATOM     22  O   UNL d   1       8.523  -2.389  -0.204  0.00  0.00    -0.238 OA
ATOM     23  H   UNL d   1       6.331  -2.576   0.402  0.00  0.00     0.164 HD
BRANCH  21  24
ATOM     24  O   UNL d   1       8.057  -0.209  -0.752  0.00  0.00    -0.294 OA
BRANCH  24  25
ATOM     25  C   UNL d   1       9.424   0.040  -1.220  0.00  0.00     0.061 C 
ATOM     26  C   UNL d   1       9.677  -0.740  -2.522  0.00  0.00     0.046 C 
ATOM     27  C   UNL d   1       9.503   1.552  -1.499  0.00  0.00     0.046 C 
ATOM     28  C   UNL d   1      10.499  -0.284  -0.165  0.00  0.00     0.046 C 
ENDBRANCH  24  25
ENDBRANCH  21  24
ENDBRANCH  19  20
ENDBRANCH  18  19
ENDBRANCH  17  18
ENDBRANCH   3  17
TORSDOF 8
