REMARK  1 active torsions:
REMARK  status: ('A' for Active; 'I' for Inactive)
REMARK    1  A    between atoms: N_10  and  C_3 
ROOT
ATOM      1  N   UNL d   1      -0.513   0.239  -0.077  0.00  0.00    -0.279 N 
ATOM      2  C   UNL d   1      -0.347  -1.144   0.048  0.00  0.00     0.136 A 
ATOM      3  C   UNL d   1       0.579   1.157  -0.066  0.00  0.00     0.119 A 
ATOM      4  C   UNL d   1       0.975  -1.680   0.044  0.00  0.00     0.096 A 
ATOM      5  C   UNL d   1       1.839   0.636  -0.014  0.00  0.00    -0.006 A 
ATOM      6  N   UNL d   1      -1.503  -1.769   0.183  0.00  0.00    -0.339 N 
ATOM      7  HN  UNL d   1      -1.650  -2.767   0.338  1.00  0.00     0.167 HD
ATOM      8  C   UNL d   1       2.043  -0.832   0.000  0.00  0.00    -0.024 A 
ATOM      9  C   UNL d   1      -1.888   0.441  -0.195  0.00  0.00     0.069 C 
ATOM     10  C   UNL d   1      -2.460  -0.802   0.072  0.00  0.00     0.061 C 
ATOM     11  C   UNL d   1       1.150  -3.108   0.096  0.00  0.00     0.104 C 
ATOM     12  N   UNL d   1       1.353  -4.246   0.133  0.00  0.00    -0.191 NA
ATOM     13  C   UNL d   1       3.052   1.549   0.017  0.00  0.00     0.043 C 
ATOM     14  C   UNL d   1       3.466  -1.379   0.004  0.00  0.00     0.041 C 
ATOM     15  C   UNL d   1      -2.692   1.548  -0.495  0.00  0.00     0.032 C 
ATOM     16  C   UNL d   1      -3.857  -0.922   0.163  0.00  0.00     0.032 C 
ATOM     17  C   UNL d   1       4.364   0.894   0.427  0.00  0.00     0.005 C 
ATOM     18  C   UNL d   1       4.554  -0.381  -0.370  0.00  0.00     0.005 C 
ATOM     19  C   UNL d   1      -4.072   1.439  -0.312  0.00  0.00     0.002 C 
ATOM     20  C   UNL d   1      -4.651   0.221   0.024  0.00  0.00     0.002 C 
ENDROOT
BRANCH   3  21
ATOM     21  N   UNL d   1       0.370   2.554  -0.113  0.00  0.00    -0.362 N 
ATOM     22  C   UNL d   1      -0.369   3.331   0.911  0.00  0.00     0.150 C 
ATOM     23  C   UNL d   1       0.251   4.727   1.097  0.00  0.00     0.187 C 
ATOM     24  O   UNL d   1       0.355   5.430  -0.154  0.00  0.00    -0.388 OA
ATOM     25  C   UNL d   1       1.165   4.687  -1.078  0.00  0.00     0.187 C 
ATOM     26  C   UNL d   1       0.556   3.308  -1.372  0.00  0.00     0.150 C 
ENDBRANCH   3  21
TORSDOF 1
