REMARK  6 active torsions:
REMARK  status: ('A' for Active; 'I' for Inactive)
REMARK    1  A    between atoms: C_8  and  N_1 
REMARK    2  A    between atoms: S_13  and  C_5 
REMARK    3  A    between atoms: C_9  and  C_14 
REMARK    4  A    between atoms: C_30  and  S_13 
REMARK    5  A    between atoms: C_15  and  C_30 
REMARK       I    between atoms: N_18  and  C_15 
REMARK    6  A    between atoms: C_33  and  N_18 
ROOT
ATOM      1  N   UNL d   1      -0.303  -1.493   0.266  0.00  0.00    -0.273 N 
ATOM      2  C   UNL d   1       0.879  -0.777   0.042  0.00  0.00     0.163 C 
ATOM      3  N   UNL d   1       0.624   0.515   0.001  0.00  0.00    -0.281 N 
ATOM      4  HN  UNL d   1       1.288   1.250  -0.242  1.00  0.00     0.188 HD
ATOM      5  C   UNL d   1      -1.223  -0.482   0.553  0.00  0.00     0.168 C 
ATOM      6  N   UNL d   1      -0.685   0.698   0.340  0.00  0.00    -0.278 N 
ATOM      7  HN  UNL d   1      -1.164   1.595   0.416  1.00  0.00     0.189 HD
ATOM      8  C   UNL d   1       2.213  -1.301  -0.025  0.00  0.00     0.120 A 
ATOM      9  O   UNL d   1       2.608  -2.433   0.646  0.00  0.00    -0.319 OA
ATOM     10  C   UNL d   1       3.306  -0.802  -0.715  0.00  0.00     0.043 A 
ATOM     11  C   UNL d   1       3.907  -2.669   0.340  0.00  0.00     0.142 A 
ATOM     12  C   UNL d   1       4.386  -1.695  -0.498  0.00  0.00     0.027 A 
ENDROOT
BRANCH   5  13
ATOM     13  S   UNL d   1      -2.891  -0.686   1.012  0.00  0.00    -0.083 SA
BRANCH  13  14
ATOM     14  C   UNL d   1      -3.480   1.030   0.999  0.00  0.00     0.185 C 
BRANCH  14  15
ATOM     15  C   UNL d   1      -4.893   1.219   1.546  0.00  0.00     0.231 C 
ATOM     16  N   UNL d   1      -5.426   0.175   2.280  0.00  0.00    -0.327 N 
ATOM     17  H   UNL d   1      -4.800  -0.608   2.459  0.00  0.00     0.169 HD
ATOM     18  O   UNL d   1      -5.459   2.297   1.347  0.00  0.00    -0.272 OA
BRANCH  16  19
ATOM     19  C   UNL d   1      -6.737   0.068   2.796  0.00  0.00     0.034 A 
ATOM     20  C   UNL d   1      -7.749   0.993   2.527  0.00  0.00     0.030 A 
ATOM     21  C   UNL d   1      -9.042   0.814   3.032  0.00  0.00     0.018 A 
ATOM     22  C   UNL d   1      -9.356  -0.296   3.825  0.00  0.00     0.048 A 
ATOM     23  C   UNL d   1      -8.337  -1.219   4.109  0.00  0.00     0.018 A 
ATOM     24  C   UNL d   1      -7.045  -1.040   3.595  0.00  0.00     0.030 A 
BRANCH  22  25
ATOM     25  C   UNL d   1     -10.752  -0.502   4.356  0.00  0.00     0.417 C 
ATOM     26  F   UNL d   1     -11.637   0.455   3.957  0.00  0.00    -0.166 F 
ATOM     27  F   UNL d   1     -11.290  -1.690   3.959  0.00  0.00    -0.166 F 
ATOM     28  F   UNL d   1     -10.800  -0.508   5.717  0.00  0.00    -0.166 F 
ENDBRANCH  22  25
ENDBRANCH  16  19
ENDBRANCH  14  15
ENDBRANCH  13  14
ENDBRANCH   5  13
BRANCH   1  29
ATOM     29  C   UNL d   1      -0.489  -2.912   0.166  0.00  0.00     0.046 A 
ATOM     30  C   UNL d   1       0.321  -3.665  -0.705  0.00  0.00     0.069 A 
ATOM     31  C   UNL d   1       0.205  -5.056  -0.769  0.00  0.00     0.104 A 
ATOM     32  O   UNL d   1       1.090  -5.706  -1.589  0.00  0.00    -0.346 OA
ATOM     33  C   UNL d   1      -0.751  -5.712   0.002  0.00  0.00     0.102 A 
ATOM     34  C   UNL d   1       0.756  -7.088  -1.757  0.00  0.00     0.202 C 
ATOM     35  C   UNL d   1       0.295  -7.713  -0.450  0.00  0.00     0.202 C 
ATOM     36  O   UNL d   1      -0.897  -7.074   0.019  0.00  0.00    -0.346 OA
ATOM     37  C   UNL d   1      -1.606  -4.978   0.814  0.00  0.00     0.042 A 
ATOM     38  C   UNL d   1      -1.460  -3.589   0.915  0.00  0.00     0.033 A 
ENDBRANCH   1  29
TORSDOF 6
