REMARK  8 active torsions:
REMARK  status: ('A' for Active; 'I' for Inactive)
REMARK    1  A    between atoms: O_14  and  C_1 
REMARK    2  A    between atoms: C_2  and  N_10 
REMARK    3  A    between atoms: N_12  and  C_2 
REMARK    4  A    between atoms: O_15  and  C_3 
REMARK    5  A    between atoms: O_16  and  C_4 
REMARK    6  A    between atoms: N_10  and  N_5 
REMARK    7  A    between atoms: C_13  and  C_11 
REMARK    8  A    between atoms: C_17  and  N_12 
ROOT
ATOM      1  C   UNL d   1       1.337  -0.368  -0.069  0.00  0.00     0.135 A 
ATOM      2  C   UNL d   1       0.377  -1.402   0.078  0.00  0.00     0.105 A 
ATOM      3  C   UNL d   1       0.908   0.971  -0.147  0.00  0.00     0.105 A 
ATOM      4  C   UNL d   1      -0.990  -1.105   0.017  0.00  0.00     0.052 A 
ATOM      5  C   UNL d   1      -0.463   1.248  -0.143  0.00  0.00     0.052 A 
ATOM      6  C   UNL d   1      -1.404   0.222  -0.080  0.00  0.00    -0.014 A 
ENDROOT
BRANCH   6   7
ATOM      7  C   UNL d   1      -2.843   0.524  -0.141  0.00  0.00     0.118 C 
ATOM      8  N   UNL d   1      -3.265   1.750  -0.171  0.00  0.00    -0.309 N 
ATOM      9  HN  UNL d   1      -2.630   2.542  -0.072  1.00  0.00     0.186 HD
BRANCH   8  10
ATOM     10  N   UNL d   1      -4.600   1.916  -0.341  0.00  0.00    -0.277 N 
ATOM     11  H   UNL d   1      -5.184   1.109  -0.511  0.00  0.00     0.189 HD
BRANCH  10  12
ATOM     12  C   UNL d   1      -5.156   3.172  -0.423  0.00  0.00     0.186 C 
ATOM     13  S   UNL d   1      -4.499   4.589   0.172  0.00  0.00    -0.040 SA
BRANCH  12  14
ATOM     14  N   UNL d   1      -6.346   3.247  -1.097  0.00  0.00    -0.366 N 
ATOM     15  H   UNL d   1      -6.707   4.194  -1.148  0.00  0.00     0.161 HD
BRANCH  14  16
ATOM     16  C   UNL d   1      -6.793   2.303  -2.107  0.00  0.00     0.117 C 
ATOM     17  C   UNL d   1      -7.670   2.974  -3.145  0.00  0.00     0.026 C 
ENDBRANCH  14  16
ENDBRANCH  12  14
ENDBRANCH  10  12
ENDBRANCH   8  10
ENDBRANCH   6   7
BRANCH   3  18
ATOM     18  O   UNL d   1       1.647   2.117  -0.246  0.00  0.00    -0.353 OA
ATOM     19  C   UNL d   1       3.061   2.050  -0.189  0.00  0.00     0.210 C 
ENDBRANCH   3  18
BRANCH   2  20
ATOM     20  O   UNL d   1       0.852  -2.676   0.282  0.00  0.00    -0.353 OA
ATOM     21  C   UNL d   1      -0.058  -3.625   0.827  0.00  0.00     0.210 C 
ENDBRANCH   2  20
BRANCH   1  22
ATOM     22  O   UNL d   1       2.681  -0.637  -0.015  0.00  0.00    -0.351 OA
ATOM     23  C   UNL d   1       3.145  -1.577  -0.985  0.00  0.00     0.210 C 
ENDBRANCH   1  22
TORSDOF 8
