REMARK  4 active torsions:
REMARK  status: ('A' for Active; 'I' for Inactive)
REMARK    1  A    between atoms: C_5  and  C_1 
REMARK       I    between atoms: N_10  and  C_5 
REMARK    2  A    between atoms: N_8  and  C_12 
REMARK    3  A    between atoms: C_11  and  N_10 
REMARK    4  A    between atoms: C_12  and  C_11 
ROOT
ATOM      1  C   UNL d   1      -4.646  -1.937   1.461  0.00  0.00     0.270 C 
ATOM      2  O   UNL d   1      -4.347  -1.058   0.655  0.00  0.00    -0.266 OA
ATOM      3  N   UNL d   1      -4.330  -3.264   1.265  0.00  0.00    -0.354 N 
ATOM      4  H   UNL d   1      -4.660  -3.948   1.941  0.00  0.00     0.162 HD
ENDROOT
BRANCH   3   5
ATOM      5  C   UNL d   1      -3.617  -3.699   0.083  0.00  0.00     0.153 C 
BRANCH   5   6
ATOM      6  C   UNL d   1      -3.410  -5.223   0.007  0.00  0.00     0.292 C 
BRANCH   6   7
ATOM      7  N   UNL d   1      -4.646  -6.037   0.036  0.00  0.00     0.090 N 
ATOM      8  C   UNL d   1      -5.525  -5.736  -1.108  0.00  0.00     0.272 C 
ATOM      9  C   UNL d   1      -6.807  -6.569  -1.065  0.00  0.00     0.030 C 
ATOM     10  C   UNL d   1      -6.500  -8.060  -1.021  0.00  0.00     0.003 C 
ATOM     11  C   UNL d   1      -5.531  -8.364   0.114  0.00  0.00     0.030 C 
ATOM     12  C   UNL d   1      -4.291  -7.470   0.044  0.00  0.00     0.272 C 
ENDBRANCH   6   7
ENDBRANCH   5   6
ENDBRANCH   3   5
BRANCH   1  13
ATOM     13  C   UNL d   1      -5.355  -1.639   2.707  0.00  0.00     0.124 A 
ATOM     14  N   UNL d   1      -5.688  -2.591   3.597  0.00  0.00    -0.256 N 
ATOM     15  O   UNL d   1      -6.317  -1.934   4.640  0.00  0.00    -0.242 OA
ATOM     16  HN  UNL d   1      -5.512  -3.593   3.519  1.00  0.00     0.195 HD
ATOM     17  C   UNL d   1      -6.360  -0.599   4.376  0.00  0.00     0.075 A 
ATOM     18  C   UNL d   1      -5.770  -0.361   3.164  0.00  0.00     0.071 A 
ATOM     19  C   UNL d   1      -6.991   0.253   5.402  0.00  0.00     0.079 C 
ENDBRANCH   1  13
TORSDOF 4
