REMARK  1 active torsions:
REMARK  status: ('A' for Active; 'I' for Inactive)
REMARK    1  A    between atoms: C_3  and  C_1 
ROOT
ATOM      1  C   UNL d   1       0.580  -1.569   0.496  0.00  0.00     0.153 C 
ATOM      2  N   UNL d   1       1.833  -1.025   0.006  0.00  0.00    -0.348 N 
ATOM      3  C   UNL d   1      -0.594  -0.669   0.163  0.00  0.00    -0.024 A 
ATOM      4  C   UNL d   1       2.109   0.296  -0.154  0.00  0.00     0.222 C 
ATOM      5  C   UNL d   1      -0.403   0.713   0.001  0.00  0.00    -0.041 A 
ATOM      6  C   UNL d   1       0.985   1.301  -0.014  0.00  0.00     0.142 C 
ATOM      7  O   UNL d   1       3.265   0.651  -0.400  0.00  0.00    -0.273 OA
ATOM      8  C   UNL d   1      -1.888  -1.199   0.046  0.00  0.00     0.010 A 
ATOM      9  C   UNL d   1      -1.513   1.555  -0.159  0.00  0.00     0.008 A 
ATOM     10  C   UNL d   1      -2.981  -0.359  -0.171  0.00  0.00     0.001 A 
ATOM     11  C   UNL d   1      -2.797   1.019  -0.243  0.00  0.00     0.001 A 
ATOM     12  H   UNL d   1       2.634  -1.640  -0.050  0.00  0.00     0.163 HD
ENDROOT
BRANCH   1  13
ATOM     13  C   UNL d   1       0.673  -1.910   1.982  0.00  0.00    -0.009 A 
ATOM     14  C   UNL d   1       0.426  -3.203   2.480  0.00  0.00     0.042 A 
ATOM     15 CL   UNL d   1       0.013  -4.532   1.454  0.00  0.00    -0.084 Cl
ATOM     16  C   UNL d   1       0.507  -3.474   3.854  0.00  0.00     0.024 A 
ATOM     17  C   UNL d   1       0.833  -2.465   4.757  0.00  0.00     0.002 A 
ATOM     18  C   UNL d   1       1.078  -1.180   4.289  0.00  0.00     0.001 A 
ATOM     19  C   UNL d   1       0.998  -0.907   2.921  0.00  0.00     0.011 A 
ENDBRANCH   1  13
TORSDOF 1
