REMARK  0 active torsions:
REMARK  status: ('A' for Active; 'I' for Inactive)
ROOT
ATOM      1  C   UNL d   1       2.416   0.298   0.041  0.00  0.00     0.168 C 
ATOM      2  N   UNL d   1       1.460   1.317  -0.033  0.00  0.00    -0.361 N 
ATOM      3  N   UNL d   1       1.746  -0.929   0.113  0.00  0.00    -0.361 N 
ATOM      4  C   UNL d   1       0.182   0.739   0.273  0.00  0.00     0.106 C 
ATOM      5  C   UNL d   1       0.375  -0.687  -0.236  0.00  0.00     0.106 C 
ATOM      6  S   UNL d   1       4.047   0.505   0.039  0.00  0.00    -0.041 SA
ATOM      7  C   UNL d   1      -0.713  -1.581   0.319  0.00  0.00     0.027 C 
ATOM      8  C   UNL d   1      -1.071   1.337  -0.334  0.00  0.00     0.027 C 
ATOM      9  C   UNL d   1      -2.274   0.459   0.061  0.00  0.00     0.002 C 
ATOM     10  C   UNL d   1      -2.064  -1.049  -0.190  0.00  0.00     0.002 C 
ATOM     11  H   UNL d   1       1.736   2.271   0.165  0.00  0.00     0.162 HD
ATOM     12  H   UNL d   1       2.259  -1.777  -0.098  0.00  0.00     0.162 HD
ENDROOT
TORSDOF 0
