REMARK  6 active torsions:
REMARK  status: ('A' for Active; 'I' for Inactive)
REMARK    1  A    between atoms: C_11  and  S_1 
REMARK    2  A    between atoms: C_13  and  S_1 
REMARK    3  A    between atoms: C_2  and  N_9 
REMARK    4  A    between atoms: C_7  and  C_4 
REMARK    5  A    between atoms: C_19  and  C_11 
REMARK    6  A    between atoms: N_12  and  C_19 
ROOT
ATOM      1  N   UNL d   1      -0.130  -6.520  -0.660  0.00  0.00    -0.377 N 
ATOM      2  N   UNL d   1       1.034  -3.865  -0.953  0.00  0.00     0.092 N 
ATOM      3  C   UNL d   1       0.632  -6.183  -1.880  0.00  0.00     0.153 C 
ATOM      4  C   UNL d   1       0.382  -5.807   0.520  0.00  0.00     0.153 C 
ATOM      5  C   UNL d   1       0.529  -4.646  -2.115  0.00  0.00     0.292 C 
ATOM      6  C   UNL d   1       0.298  -4.288   0.264  0.00  0.00     0.292 C 
ENDROOT
BRANCH   1   7
ATOM      7  C   UNL d   1      -0.804  -7.729  -0.510  0.00  0.00     0.045 A 
ATOM      8  C   UNL d   1      -1.830  -8.154  -1.405  0.00  0.00     0.018 A 
ATOM      9  C   UNL d   1      -2.521  -9.352  -1.106  0.00  0.00     0.045 A 
ATOM     10  C   UNL d   1      -2.240  -7.438  -2.561  0.00  0.00     0.022 A 
ATOM     11  C   UNL d   1      -3.523  -9.794  -1.956  0.00  0.00     0.031 A 
ATOM     12  N   UNL d   1      -2.276 -10.089  -0.015  0.00  0.00    -0.352 N 
ATOM     13  C   UNL d   1      -3.863  -9.110  -3.123  0.00  0.00     0.009 A 
ATOM     14  C   UNL d   1      -3.209  -7.926  -3.445  0.00  0.00    -0.061 A 
ATOM     15  C   UNL d   1      -3.526  -7.198  -4.715  0.00  0.00     0.048 C 
ATOM     16  C   UNL d   1      -1.311  -9.684   0.844  0.00  0.00     0.119 A 
ATOM     17  HN  UNL d   1      -2.808 -10.941   0.166  1.00  0.00     0.166 HD
ATOM     18  C   UNL d   1      -0.558  -8.536   0.610  0.00  0.00     0.064 A 
BRANCH  16  19
ATOM     19  C   UNL d   1      -1.051 -10.476   2.116  0.00  0.00     0.432 C 
ATOM     20  F   UNL d   1      -1.874 -11.547   2.297  0.00  0.00    -0.165 F 
ATOM     21  F   UNL d   1       0.221 -10.969   2.177  0.00  0.00    -0.165 F 
ATOM     22  F   UNL d   1      -1.192  -9.710   3.241  0.00  0.00    -0.165 F 
ENDBRANCH  16  19
ENDBRANCH   1   7
BRANCH   2  23
ATOM     23  C   UNL d   1       0.924  -2.410  -1.195  0.00  0.00     0.287 C 
BRANCH  23  24
ATOM     24  C   UNL d   1       1.538  -1.608  -0.050  0.00  0.00     0.176 C 
BRANCH  24  25
ATOM     25  S   UNL d   1       1.596   0.128  -0.404  0.00  0.00     0.177 S 
ATOM     26  O   UNL d   1       0.235   0.629  -0.487  0.00  0.00    -0.223 OA
ATOM     27  O   UNL d   1       2.546   0.356  -1.480  0.00  0.00    -0.223 OA
BRANCH  25  28
ATOM     28  C   UNL d   1       2.319   0.779   1.092  0.00  0.00     0.059 A 
ATOM     29  C   UNL d   1       3.708   0.861   1.206  0.00  0.00     0.024 A 
ATOM     30  C   UNL d   1       4.272   1.340   2.391  0.00  0.00     0.008 A 
ATOM     31  C   UNL d   1       3.455   1.743   3.456  0.00  0.00    -0.062 A 
ATOM     32  C   UNL d   1       2.062   1.665   3.321  0.00  0.00     0.008 A 
ATOM     33  C   UNL d   1       4.079   2.262   4.720  0.00  0.00     0.048 C 
ATOM     34  C   UNL d   1       1.491   1.187   2.139  0.00  0.00     0.024 A 
ENDBRANCH  25  28
ENDBRANCH  24  25
ENDBRANCH  23  24
ENDBRANCH   2  23
TORSDOF 6
