REMARK  8 active torsions:
REMARK  status: ('A' for Active; 'I' for Inactive)
REMARK    1  A    between atoms: N_2  and  C_1 
REMARK    2  A    between atoms: N_6  and  C_1 
REMARK    3  A    between atoms: C_7  and  N_2 
REMARK    4  A    between atoms: C_9  and  N_2 
REMARK    5  A    between atoms: C_10  and  N_6 
REMARK    6  A    between atoms: C_8  and  C_9 
REMARK    7  A    between atoms: C_13  and  C_10 
REMARK    8  A    between atoms: C_14  and  C_13 
ROOT
ATOM      1  N   UNL d   1       3.000   3.093   4.261  0.00  0.00    -0.197 NA
ATOM      2  C   UNL d   1       2.729   2.500   3.304  0.00  0.00     0.060 C 
ATOM      3  C   UNL d   1       2.377   1.733   2.097  0.00  0.00     0.143 C 
ENDROOT
BRANCH   3   4
ATOM      4  C   UNL d   1       1.015   1.052   2.288  0.00  0.00     0.139 C 
BRANCH   4   5
ATOM      5  N   UNL d   1       0.342   0.493   1.091  0.00  0.00    -0.353 N 
BRANCH   5   6
ATOM      6  C   UNL d   1       1.065   0.065  -0.017  0.00  0.00     0.170 C 
ATOM      7  S   UNL d   1       0.609   0.215  -1.622  0.00  0.00    -0.041 SA
BRANCH   6   8
ATOM      8  N   UNL d   1       2.296  -0.486   0.190  0.00  0.00    -0.367 N 
ATOM      9  H   UNL d   1       2.785  -0.597  -0.692  0.00  0.00     0.161 HD
BRANCH   8  10
ATOM     10  C   UNL d   1       2.595  -1.546   1.149  0.00  0.00     0.122 C 
BRANCH  10  11
ATOM     11  C   UNL d   1       2.356  -2.947   0.581  0.00  0.00     0.019 C 
BRANCH  11  12
ATOM     12  C   UNL d   1       3.214  -3.250  -0.651  0.00  0.00    -0.003 C 
ATOM     13  C   UNL d   1       3.039  -4.687  -1.115  0.00  0.00     0.005 C 
ENDBRANCH  11  12
ENDBRANCH  10  11
ENDBRANCH   8  10
ENDBRANCH   6   8
ENDBRANCH   5   6
BRANCH   5  14
ATOM     14  C   UNL d   1      -1.159   0.483   1.058  0.00  0.00     0.086 C 
ATOM     15  C   UNL d   1      -1.795   1.770   0.504  0.00  0.00     0.025 C 
ATOM     16  C   UNL d   1      -1.802   2.920   1.498  0.00  0.00     0.002 C 
ATOM     17  C   UNL d   1      -2.454   2.544   2.826  0.00  0.00     0.000 C 
ATOM     18  C   UNL d   1      -2.024   1.198   3.407  0.00  0.00     0.002 C 
ATOM     19  C   UNL d   1      -1.854   0.081   2.375  0.00  0.00     0.025 C 
ENDBRANCH   5  14
ENDBRANCH   4   5
ENDBRANCH   3   4
TORSDOF 8
