REMARK  2 active torsions:
REMARK  status: ('A' for Active; 'I' for Inactive)
REMARK    1  A    between atoms: C_13  and  C_4 
REMARK    2  A    between atoms: O_21  and  C_17 
ROOT
ATOM      1  C   UNL d   1      -0.029   0.716   0.077  0.00  0.00     0.024 C 
ATOM      2  C   UNL d   1      -0.063  -0.632   0.076  0.00  0.00     0.021 C 
ATOM      3  C   UNL d   1      -2.575   0.705   0.084  0.00  0.00     0.057 C 
ATOM      4  C   UNL d   1      -1.297   1.544  -0.057  0.00  0.00     0.103 C 
ATOM      5  N   UNL d   1      -1.280  -1.288   0.029  0.00  0.00    -0.362 N 
ATOM      6  C   UNL d   1      -2.511  -0.649   0.091  0.00  0.00     0.023 C 
ATOM      7  C   UNL d   1       1.268   1.433   0.228  0.00  0.00     0.159 C 
ATOM      8  C   UNL d   1      -3.811   1.408   0.191  0.00  0.00     0.098 C 
ATOM      9  N   UNL d   1      -4.821   1.974   0.295  0.00  0.00    -0.192 NA
ATOM     10  C   UNL d   1       1.187  -1.484   0.093  0.00  0.00     0.067 C 
ATOM     11  C   UNL d   1       2.447  -0.728  -0.385  0.00  0.00    -0.036 C 
ATOM     12  C   UNL d   1       2.533   0.613   0.360  0.00  0.00     0.092 C 
ATOM     13  O   UNL d   1       1.298   2.657   0.335  0.00  0.00    -0.293 OA
ATOM     14  C   UNL d   1      -3.717  -1.555   0.140  0.00  0.00     0.069 C 
ATOM     15  C   UNL d   1       2.408  -0.499  -1.911  0.00  0.00     0.015 C 
ATOM     16  C   UNL d   1       3.700  -1.563  -0.065  0.00  0.00     0.015 C 
ATOM     17  H   UNL d   1      -1.275  -2.303   0.093  0.00  0.00     0.165 HD
ENDROOT
BRANCH   4  18
ATOM     18  C   UNL d   1      -1.311   2.293  -1.393  0.00  0.00    -0.044 A 
ATOM     19  C   UNL d   1      -1.283   3.694  -1.419  0.00  0.00     0.011 A 
ATOM     20  C   UNL d   1      -1.285   4.384  -2.636  0.00  0.00     0.037 A 
ATOM     21  C   UNL d   1      -1.317   3.681  -3.840  0.00  0.00     0.068 A 
ATOM     22  C   UNL d   1      -1.327   2.287  -3.822  0.00  0.00     0.037 A 
ATOM     23  C   UNL d   1      -1.333   1.596  -2.612  0.00  0.00     0.011 A 
BRANCH  21  24
ATOM     24  O   UNL d   1      -1.294   4.245  -5.086  0.00  0.00    -0.356 OA
ATOM     25  C   UNL d   1      -1.871   5.542  -5.178  0.00  0.00     0.210 C 
ENDBRANCH  21  24
ENDBRANCH   4  18
TORSDOF 2
