REMARK  4 active torsions:
REMARK  status: ('A' for Active; 'I' for Inactive)
REMARK    1  A    between atoms: C_13  and  C_4 
REMARK    2  A    between atoms: O_17  and  C_18 
REMARK    3  A    between atoms: C_19  and  O_17 
REMARK    4  A    between atoms: C_23  and  C_19 
ROOT
ATOM      1  C   UNL d   1      -0.019   0.702   0.093  0.00  0.00     0.024 C 
ATOM      2  C   UNL d   1      -0.052  -0.647   0.105  0.00  0.00     0.021 C 
ATOM      3  C   UNL d   1      -2.565   0.694   0.103  0.00  0.00     0.057 C 
ATOM      4  C   UNL d   1      -1.288   1.531  -0.022  0.00  0.00     0.103 C 
ATOM      5  N   UNL d   1      -1.272  -1.301   0.076  0.00  0.00    -0.362 N 
ATOM      6  C   UNL d   1      -2.504  -0.658   0.109  0.00  0.00     0.023 C 
ATOM      7  C   UNL d   1       1.284   1.422   0.174  0.00  0.00     0.159 C 
ATOM      8  C   UNL d   1      -3.813   1.404   0.150  0.00  0.00     0.098 C 
ATOM      9  N   UNL d   1      -4.811   1.966   0.189  0.00  0.00    -0.192 NA
ATOM     10  C   UNL d   1       1.201  -1.498   0.099  0.00  0.00     0.067 C 
ATOM     11  C   UNL d   1       2.457  -0.732  -0.382  0.00  0.00    -0.036 C 
ATOM     12  C   UNL d   1       2.533   0.600   0.377  0.00  0.00     0.092 C 
ATOM     13  O   UNL d   1       1.335   2.649   0.148  0.00  0.00    -0.293 OA
ATOM     14  C   UNL d   1      -3.719  -1.555   0.112  0.00  0.00     0.069 C 
ATOM     15  C   UNL d   1       2.404  -0.490  -1.907  0.00  0.00     0.015 C 
ATOM     16  C   UNL d   1       3.723  -1.550  -0.079  0.00  0.00     0.015 C 
ATOM     17  H   UNL d   1      -1.269  -2.318   0.110  0.00  0.00     0.165 HD
ENDROOT
BRANCH   4  18
ATOM     18  C   UNL d   1      -1.309   2.285  -1.349  0.00  0.00    -0.044 A 
ATOM     19  C   UNL d   1      -1.272   3.687  -1.380  0.00  0.00     0.011 A 
ATOM     20  C   UNL d   1      -1.254   4.370  -2.603  0.00  0.00     0.037 A 
ATOM     21  C   UNL d   1      -1.287   3.641  -3.797  0.00  0.00     0.069 A 
ATOM     22  C   UNL d   1      -1.316   2.252  -3.756  0.00  0.00     0.037 A 
ATOM     23  C   UNL d   1      -1.345   1.576  -2.555  0.00  0.00     0.011 A 
BRANCH  21  24
ATOM     24  O   UNL d   1      -1.270   4.279  -5.010  0.00  0.00    -0.347 OA
BRANCH  24  25
ATOM     25  C   UNL d   1      -1.925   3.528  -6.056  0.00  0.00     0.214 C 
BRANCH  25  26
ATOM     26  C   UNL d   1      -2.456   4.500  -7.060  0.00  0.00    -0.034 A 
ATOM     27  C   UNL d   1      -2.019   4.461  -8.387  0.00  0.00     0.009 A 
ATOM     28  C   UNL d   1      -2.546   5.349  -9.320  0.00  0.00     0.001 A 
ATOM     29  C   UNL d   1      -3.513   6.275  -8.932  0.00  0.00     0.000 A 
ATOM     30  C   UNL d   1      -3.949   6.321  -7.609  0.00  0.00     0.001 A 
ATOM     31  C   UNL d   1      -3.421   5.437  -6.673  0.00  0.00     0.009 A 
ENDBRANCH  25  26
ENDBRANCH  24  25
ENDBRANCH  21  24
ENDBRANCH   4  18
TORSDOF 4
