REMARK  5 active torsions:
REMARK  status: ('A' for Active; 'I' for Inactive)
REMARK    1  A    between atoms: C_8  and  N_1 
REMARK    2  A    between atoms: S_9  and  C_2 
REMARK    3  A    between atoms: O_12  and  C_13 
REMARK    4  A    between atoms: C_14  and  O_12 
REMARK    5  A    between atoms: C_17  and  C_14 
ROOT
ATOM      1  C   UNL d   1      -0.516  -2.679   0.061  0.00  0.00     0.043 A 
ATOM      2  C   UNL d   1      -0.053  -3.473   1.119  0.00  0.00     0.033 A 
ATOM      3  C   UNL d   1      -1.243  -3.293  -0.968  0.00  0.00     0.033 A 
ATOM      4  C   UNL d   1      -0.948  -5.468   0.075  0.00  0.00     0.069 A 
ATOM      5  C   UNL d   1      -1.466  -4.676  -0.948  0.00  0.00     0.039 A 
ATOM      6  C   UNL d   1      -0.257  -4.859   1.120  0.00  0.00     0.039 A 
ENDROOT
BRANCH   1   7
ATOM      7  N   UNL d   1      -0.241  -1.277   0.027  0.00  0.00    -0.280 N 
ATOM      8  C   UNL d   1       0.896  -0.599   0.449  0.00  0.00     0.164 A 
ATOM      9  N   UNL d   1       0.752   0.693   0.271  0.00  0.00    -0.278 N 
ATOM     10  N   UNL d   1      -0.469   0.907  -0.289  0.00  0.00    -0.287 N 
ATOM     11  HN  UNL d   1       1.436   1.410   0.511  1.00  0.00     0.189 HD
ATOM     12  C   UNL d   1      -1.073  -0.256  -0.436  0.00  0.00     0.101 A 
ATOM     13  HN  UNL d   1      -0.853   1.815  -0.552  1.00  0.00     0.188 HD
ATOM     14  C   UNL d   1      -2.479  -0.391  -0.887  0.00  0.00     0.091 C 
BRANCH   8  15
ATOM     15  S   UNL d   1       2.406  -1.292   0.963  0.00  0.00    -0.105 SA
ATOM     16  H   UNL d   1       2.262  -2.531   0.478  0.00  0.00     0.110 HD
ENDBRANCH   8  15
ENDBRANCH   1   7
BRANCH   4  17
ATOM     17  O   UNL d   1      -1.215  -6.805  -0.019  0.00  0.00    -0.347 OA
BRANCH  17  18
ATOM     18  C   UNL d   1      -0.227  -7.675   0.541  0.00  0.00     0.214 C 
BRANCH  18  19
ATOM     19  C   UNL d   1      -0.613  -9.125   0.340  0.00  0.00    -0.034 A 
ATOM     20  C   UNL d   1       0.385 -10.099   0.171  0.00  0.00     0.009 A 
ATOM     21  C   UNL d   1       0.049 -11.451   0.073  0.00  0.00     0.001 A 
ATOM     22  C   UNL d   1      -1.283 -11.848   0.150  0.00  0.00     0.000 A 
ATOM     23  C   UNL d   1      -2.284 -10.893   0.324  0.00  0.00     0.001 A 
ATOM     24  C   UNL d   1      -1.950  -9.540   0.424  0.00  0.00     0.009 A 
ENDBRANCH  18  19
ENDBRANCH  17  18
ENDBRANCH   4  17
TORSDOF 5
