REMARK  6 active torsions:
REMARK  status: ('A' for Active; 'I' for Inactive)
REMARK    1  A    between atoms: C_4  and  C_1 
REMARK    2  A    between atoms: C_16  and  N_2 
REMARK    3  A    between atoms: C_14  and  C_3 
REMARK    4  A    between atoms: O_25  and  C_14 
REMARK    5  A    between atoms: C_15  and  O_17 
REMARK    6  A    between atoms: O_17  and  C_24 
ROOT
ATOM      1  C   UNL d   1      -0.284  -1.217  -0.005  0.00  0.00     0.095 C 
ATOM      2  N   UNL d   1       0.979  -0.617  -0.017  0.00  0.00    -0.254 N 
ATOM      3  C   UNL d   1      -1.196  -0.154  -0.027  0.00  0.00     0.093 C 
ATOM      4  N   UNL d   1       0.903   0.714   0.196  0.00  0.00    -0.297 N 
ATOM      5  HN  UNL d   1       1.669   1.352   0.413  1.00  0.00     0.187 HD
ATOM      6  C   UNL d   1      -0.391   1.015   0.062  0.00  0.00     0.041 C 
ATOM      7  C   UNL d   1      -0.787   2.449   0.078  0.00  0.00     0.071 C 
ENDROOT
BRANCH   2   8
ATOM      8  C   UNL d   1       2.269  -1.194  -0.189  0.00  0.00     0.057 A 
ATOM      9  C   UNL d   1       2.478  -2.308  -1.009  0.00  0.00     0.034 A 
ATOM     10  C   UNL d   1       3.737  -2.920  -1.053  0.00  0.00     0.039 A 
ATOM     11  C   UNL d   1       4.781  -2.439  -0.263  0.00  0.00     0.078 A 
ATOM     12  C   UNL d   1       4.589  -1.274   0.484  0.00  0.00     0.039 A 
ATOM     13  C   UNL d   1       3.346  -0.641   0.514  0.00  0.00     0.034 A 
BRANCH  11  14
ATOM     14  O   UNL d   1       6.029  -2.970  -0.166  0.00  0.00    -0.255 OA
BRANCH  14  15
ATOM     15  C   UNL d   1       6.210  -4.371  -0.321  0.00  0.00     0.530 C 
ATOM     16  F   UNL d   1       5.062  -5.080  -0.317  0.00  0.00    -0.144 F 
ATOM     17  F   UNL d   1       6.872  -4.611  -1.472  0.00  0.00    -0.144 F 
ATOM     18  F   UNL d   1       6.971  -4.817   0.705  0.00  0.00    -0.144 F 
ENDBRANCH  14  15
ENDBRANCH  11  14
ENDBRANCH   2   8
BRANCH   1  19
ATOM     19  C   UNL d   1      -0.502  -2.648   0.023  0.00  0.00     0.076 A 
ATOM     20  C   UNL d   1       0.111  -3.673   0.754  0.00  0.00     0.043 A 
ATOM     21  N   UNL d   1      -0.356  -4.953   0.465  0.00  0.00    -0.298 N 
ATOM     22  C   UNL d   1       1.209  -3.606   1.756  0.00  0.00     0.071 C 
ATOM     23  N   UNL d   1      -1.300  -4.947  -0.454  0.00  0.00    -0.269 N 
ATOM     24  HN  UNL d   1      -0.007  -5.799   0.914  1.00  0.00     0.187 HD
ATOM     25  S   UNL d   1      -1.644  -3.421  -1.019  0.00  0.00     0.006 SA
ATOM     26  HN  UNL d   1      -1.770  -5.790  -0.784  1.00  0.00     0.195 HD
ENDBRANCH   1  19
BRANCH   3  27
ATOM     27  C   UNL d   1      -2.649  -0.158  -0.092  0.00  0.00     0.297 C 
ATOM     28  O   UNL d   1      -3.292   0.731  -0.649  0.00  0.00    -0.259 OA
BRANCH  27  29
ATOM     29  O   UNL d   1      -3.227  -1.205   0.562  0.00  0.00    -0.322 OA
ATOM     30  C   UNL d   1      -4.655  -1.190   0.533  0.00  0.00     0.213 C 
ENDBRANCH  27  29
ENDBRANCH   3  27
TORSDOF 6
