REMARK  7 active torsions:
REMARK  status: ('A' for Active; 'I' for Inactive)
REMARK    1  A    between atoms: C_2  and  S_1 
REMARK    2  A    between atoms: N_5  and  S_1 
REMARK    3  A    between atoms: C_12  and  C_4 
REMARK    4  A    between atoms: C_13  and  N_5 
REMARK    5  A    between atoms: C_17  and  N_5 
REMARK    6  A    between atoms: C_18  and  C_13 
REMARK    7  A    between atoms: C_16  and  C_17 
ROOT
ATOM      1  N   UNL d   1       2.905  -3.976   0.821  0.00  0.00    -0.197 NA
ATOM      2  C   UNL d   1       2.679  -3.365  -0.136  0.00  0.00     0.060 C 
ATOM      3  C   UNL d   1       2.426  -2.606  -1.375  0.00  0.00     0.144 C 
ENDROOT
BRANCH   3   4
ATOM      4  C   UNL d   1       0.972  -2.173  -1.537  0.00  0.00     0.149 C 
BRANCH   4   5
ATOM      5  N   UNL d   1       0.424  -1.292  -0.474  0.00  0.00    -0.301 N 
BRANCH   5   6
ATOM      6  S   UNL d   1       1.080   0.265  -0.262  0.00  0.00     0.267 S 
ATOM      7  O   UNL d   1       2.338   0.338  -0.971  0.00  0.00    -0.200 OA
ATOM      8  O   UNL d   1       0.051   1.260  -0.461  0.00  0.00    -0.200 OA
BRANCH   6   9
ATOM      9  C   UNL d   1       1.464   0.416   1.480  0.00  0.00     0.121 A 
ATOM     10  S   UNL d   1       3.112   0.501   1.931  0.00  0.00    -0.074 SA
ATOM     11  C   UNL d   1       2.737   0.737   3.589  0.00  0.00     0.033 A 
ATOM     12  C   UNL d   1       1.367   0.722   3.786  0.00  0.00     0.023 A 
ATOM     13  C   UNL d   1       0.638   0.513   2.583  0.00  0.00     0.034 A 
BRANCH  11  14
ATOM     14  C   UNL d   1       3.780   0.944   4.603  0.00  0.00     0.049 A 
ATOM     15  N   UNL d   1       3.396   1.746   5.629  0.00  0.00    -0.365 N 
ATOM     16  C   UNL d   1       4.275   1.931   6.637  0.00  0.00     0.088 A 
ATOM     17  HN  UNL d   1       2.478   2.192   5.638  1.00  0.00     0.165 HD
ATOM     18  C   UNL d   1       5.523   1.336   6.687  0.00  0.00     0.017 A 
ATOM     19  C   UNL d   1       5.902   0.518   5.630  0.00  0.00     0.004 A 
ATOM     20  C   UNL d   1       5.023   0.321   4.566  0.00  0.00     0.031 A 
ENDBRANCH  11  14
ENDBRANCH   6   9
ENDBRANCH   5   6
BRANCH   5  21
ATOM     21  C   UNL d   1      -1.035  -1.450  -0.220  0.00  0.00     0.174 C 
BRANCH  21  22
ATOM     22  C   UNL d   1      -1.977  -0.821  -1.230  0.00  0.00    -0.040 A 
ATOM     23  C   UNL d   1      -1.971  -1.181  -2.586  0.00  0.00     0.009 A 
ATOM     24  C   UNL d   1      -2.823  -0.558  -3.502  0.00  0.00     0.001 A 
ATOM     25  C   UNL d   1      -3.726   0.408  -3.069  0.00  0.00     0.000 A 
ATOM     26  C   UNL d   1      -3.774   0.753  -1.721  0.00  0.00     0.001 A 
ATOM     27  C   UNL d   1      -2.905   0.147  -0.810  0.00  0.00     0.009 A 
ENDBRANCH  21  22
ENDBRANCH   5  21
ENDBRANCH   4   5
ENDBRANCH   3   4
TORSDOF 7
