REMARK  3 active torsions:
REMARK  status: ('A' for Active; 'I' for Inactive)
REMARK    1  A    between atoms: C_2  and  C_1 
REMARK    2  A    between atoms: C_8  and  C_5 
REMARK    3  A    between atoms: C_10  and  C_13 
ROOT
ATOM      1  C   UNL d   1       3.959   0.084   0.162  0.00  0.00     0.057 A 
ATOM      2  N   UNL d   1       4.728  -0.533  -0.808  0.00  0.00    -0.347 N 
ATOM      3  HN  UNL d   1       4.347  -1.087  -1.576  1.00  0.00     0.167 HD
ATOM      4  C   UNL d   1       6.016  -0.316  -0.616  0.00  0.00     0.103 A 
ATOM      5  S   UNL d   1       6.370   0.600   0.805  0.00  0.00    -0.080 SA
ATOM      6  C   UNL d   1       4.695   0.745   1.125  0.00  0.00     0.082 A 
ENDROOT
BRANCH   4   7
ATOM      7  C   UNL d   1       7.106  -0.757  -1.507  0.00  0.00     0.088 A 
ATOM      8  N   UNL d   1       8.301  -0.998  -0.885  0.00  0.00    -0.361 N 
ATOM      9  C   UNL d   1       9.353  -1.380  -1.645  0.00  0.00     0.104 A 
ATOM     10  HN  UNL d   1       8.396  -0.892   0.125  1.00  0.00     0.165 HD
ATOM     11  C   UNL d   1       9.292  -1.544  -3.020  0.00  0.00     0.065 A 
ATOM     12  C   UNL d   1       8.063  -1.307  -3.641  0.00  0.00     0.043 A 
ATOM     13  C   UNL d   1       6.954  -0.908  -2.887  0.00  0.00     0.064 A 
ATOM     14 CL   UNL d   1       5.499  -0.579  -3.755  0.00  0.00    -0.082 Cl
BRANCH  11  15
ATOM     15  C   UNL d   1      10.520  -1.940  -3.778  0.00  0.00     0.418 C 
ATOM     16  F   UNL d   1      10.308  -2.077  -5.116  0.00  0.00    -0.166 F 
ATOM     17  F   UNL d   1      11.523  -1.030  -3.650  0.00  0.00    -0.166 F 
ATOM     18  F   UNL d   1      11.033  -3.126  -3.357  0.00  0.00    -0.166 F 
ENDBRANCH  11  15
ENDBRANCH   4   7
BRANCH   1  19
ATOM     19  C   UNL d   1       2.446   0.053   0.134  0.00  0.00     0.039 A 
ATOM     20  S   UNL d   1       1.511   0.942   1.260  0.00  0.00    -0.087 SA
ATOM     21  C   UNL d   1       0.026   0.459   0.567  0.00  0.00     0.016 A 
ATOM     22  C   UNL d   1      -1.265   0.846   0.984  0.00  0.00     0.021 A 
ATOM     23  C   UNL d   1       0.227  -0.404  -0.508  0.00  0.00    -0.010 A 
ATOM     24  C   UNL d   1      -2.375   0.343   0.305  0.00  0.00     0.025 A 
ATOM     25  C   UNL d   1      -2.204  -0.523  -0.763  0.00  0.00     0.035 A 
ATOM     26  C   UNL d   1      -0.924  -0.901  -1.177  0.00  0.00     0.037 A 
ATOM     27 CL   UNL d   1      -3.581  -1.141  -1.591  0.00  0.00    -0.084 Cl
ATOM     28  C   UNL d   1       1.643  -0.647  -0.760  0.00  0.00    -0.031 A 
ATOM     29  C   UNL d   1       2.078  -1.554  -1.873  0.00  0.00     0.050 C 
ENDBRANCH   1  19
TORSDOF 3
