REMARK  2 active torsions:
REMARK  status: ('A' for Active; 'I' for Inactive)
REMARK    1  A    between atoms: N_4  and  C_2 
REMARK    2  A    between atoms: C_13  and  N_4 
ROOT
ATOM      1  C   UNL d   1      -3.010  -0.077   0.336  0.00  0.00     0.017 A 
ATOM      2  C   UNL d   1      -2.310  -1.226  -0.113  0.00  0.00     0.046 A 
ATOM      3  C   UNL d   1      -2.513   1.188  -0.058  0.00  0.00     0.046 A 
ATOM      4  C   UNL d   1      -3.181   2.333   0.345  0.00  0.00     0.054 A 
ATOM      5  C   UNL d   1      -4.157  -0.132   1.161  0.00  0.00     0.018 A 
ATOM      6  N   UNL d   1      -1.417   1.332  -0.819  0.00  0.00    -0.365 N 
ATOM      7  HN  UNL d   1      -1.078   2.259  -1.078  1.00  0.00     0.165 HD
ATOM      8  C   UNL d   1      -4.321   2.264   1.141  0.00  0.00     0.036 A 
ATOM      9  C   UNL d   1      -1.188  -1.059  -0.927  0.00  0.00     0.047 A 
ATOM     10  C   UNL d   1      -4.809   1.033   1.561  0.00  0.00     0.025 A 
ATOM     11  C   UNL d   1      -0.777   0.222  -1.231  0.00  0.00     0.090 A 
ATOM     12 CL   UNL d   1      -5.130   3.709   1.605  0.00  0.00    -0.084 Cl
ENDROOT
BRANCH   2  13
ATOM     13  N   UNL d   1      -2.833  -2.527   0.138  0.00  0.00    -0.355 N 
ATOM     14  H   UNL d   1      -3.643  -2.678  -0.461  0.00  0.00     0.166 HD
BRANCH  13  15
ATOM     15  C   UNL d   1      -2.100  -3.724   0.335  0.00  0.00     0.035 A 
ATOM     16  C   UNL d   1      -0.843  -3.719   0.958  0.00  0.00     0.069 A 
ATOM     17  C   UNL d   1      -0.235  -4.928   1.228  0.00  0.00     0.107 A 
ATOM     18  O   UNL d   1       0.969  -5.092   1.838  0.00  0.00    -0.323 OA
ATOM     19  C   UNL d   1      -0.832  -6.125   0.915  0.00  0.00     0.105 A 
ATOM     20  C   UNL d   1       1.024  -6.529   1.944  0.00  0.00     0.352 A 
ATOM     21  O   UNL d   1      -0.081  -7.193   1.295  0.00  0.00    -0.323 OA
ATOM     22  C   UNL d   1      -2.066  -6.179   0.309  0.00  0.00     0.042 A 
ATOM     23  C   UNL d   1      -2.708  -4.965   0.032  0.00  0.00     0.032 A 
ENDBRANCH  13  15
ENDBRANCH   2  13
TORSDOF 2
