REMARK  8 active torsions:
REMARK  status: ('A' for Active; 'I' for Inactive)
REMARK    1  A    between atoms: C_8  and  N_1 
REMARK    2  A    between atoms: S_9  and  C_2 
REMARK    3  A    between atoms: C_17  and  S_9 
REMARK    4  A    between atoms: C_10  and  C_11 
REMARK    5  A    between atoms: O_16  and  C_18 
REMARK    6  A    between atoms: C_20  and  O_16 
REMARK    7  A    between atoms: C_19  and  C_17 
REMARK    8  A    between atoms: C_25  and  C_20 
ROOT
ATOM      1  N   UNL d   1      -0.271   1.104  -0.036  0.00  0.00    -0.286 N 
ATOM      2  C   UNL d   1       1.045   0.682  -0.079  0.00  0.00     0.167 A 
ATOM      3  N   UNL d   1       1.103  -0.633  -0.087  0.00  0.00    -0.279 N 
ATOM      4  HN  UNL d   1       1.951  -1.197  -0.149  1.00  0.00     0.189 HD
ATOM      5  N   UNL d   1      -0.181  -1.108   0.001  0.00  0.00    -0.294 N 
ATOM      6  HN  UNL d   1      -0.462  -2.088   0.015  1.00  0.00     0.187 HD
ATOM      7  C   UNL d   1      -0.982  -0.071   0.063  0.00  0.00     0.207 A 
ENDROOT
BRANCH   1   8
ATOM      8  C   UNL d   1      -0.831   2.410  -0.086  0.00  0.00     0.042 A 
ATOM      9  C   UNL d   1      -0.198   3.445  -0.786  0.00  0.00     0.033 A 
ATOM     10  C   UNL d   1      -0.773   4.717  -0.838  0.00  0.00     0.039 A 
ATOM     11  C   UNL d   1      -1.993   4.962  -0.215  0.00  0.00     0.069 A 
ATOM     12  C   UNL d   1      -2.612   3.942   0.511  0.00  0.00     0.039 A 
ATOM     13  C   UNL d   1      -2.048   2.665   0.559  0.00  0.00     0.033 A 
BRANCH  11  14
ATOM     14  O   UNL d   1      -2.499   6.223  -0.385  0.00  0.00    -0.347 OA
BRANCH  14  15
ATOM     15  C   UNL d   1      -3.922   6.309  -0.274  0.00  0.00     0.214 C 
BRANCH  15  16
ATOM     16  C   UNL d   1      -4.457   7.525  -0.991  0.00  0.00    -0.034 A 
ATOM     17  C   UNL d   1      -5.707   7.448  -1.626  0.00  0.00     0.009 A 
ATOM     18  C   UNL d   1      -6.255   8.564  -2.255  0.00  0.00     0.001 A 
ATOM     19  C   UNL d   1      -5.564   9.774  -2.250  0.00  0.00     0.000 A 
ATOM     20  C   UNL d   1      -4.324   9.865  -1.615  0.00  0.00     0.001 A 
ATOM     21  C   UNL d   1      -3.774   8.748  -0.984  0.00  0.00     0.009 A 
ENDBRANCH  15  16
ENDBRANCH  14  15
ENDBRANCH  11  14
ENDBRANCH   1   8
BRANCH   2  22
ATOM     22  S   UNL d   1       2.404   1.733   0.115  0.00  0.00    -0.087 SA
BRANCH  22  23
ATOM     23  C   UNL d   1       3.803   0.634  -0.231  0.00  0.00     0.121 C 
BRANCH  23  24
ATOM     24  C   UNL d   1       5.071   1.452  -0.264  0.00  0.00    -0.049 A 
ATOM     25  C   UNL d   1       5.720   1.804   0.923  0.00  0.00     0.008 A 
ATOM     26  C   UNL d   1       6.844   2.636   0.900  0.00  0.00     0.008 A 
ATOM     27  C   UNL d   1       7.362   3.143  -0.306  0.00  0.00    -0.051 A 
ATOM     28  C   UNL d   1       6.697   2.784  -1.490  0.00  0.00     0.008 A 
ATOM     29  C   UNL d   1       5.569   1.954  -1.471  0.00  0.00     0.008 A 
BRANCH  27  30
ATOM     30  C   UNL d   1       8.604   4.053  -0.290  0.00  0.00    -0.024 C 
ATOM     31  C   UNL d   1       9.072   4.491  -1.696  0.00  0.00     0.019 C 
ATOM     32  C   UNL d   1       8.303   5.337   0.513  0.00  0.00     0.019 C 
ATOM     33  C   UNL d   1       9.784   3.308   0.370  0.00  0.00     0.019 C 
ENDBRANCH  27  30
ENDBRANCH  23  24
ENDBRANCH  22  23
ENDBRANCH   2  22
TORSDOF 8
