REMARK  6 active torsions:
REMARK  status: ('A' for Active; 'I' for Inactive)
REMARK       I    between atoms: C_2  and  N_7 
REMARK       I    between atoms: N_8  and  C_2 
REMARK    1  A    between atoms: C_3  and  C_6 
REMARK    2  A    between atoms: C_22  and  N_4 
REMARK    3  A    between atoms: N_7  and  C_5 
REMARK       I    between atoms: C_6  and  N_16 
REMARK    4  A    between atoms: C_9  and  N_8 
REMARK    5  A    between atoms: N_16  and  C_26 
REMARK    6  A    between atoms: C_26  and  C_22 
ROOT
ATOM      1  C   UNL d   1      -4.729  -2.148  -0.928  0.00  0.00     0.058 A 
ATOM      2  C   UNL d   1      -4.365  -1.627  -2.191  0.00  0.00     0.052 A 
ATOM      3  C   UNL d   1      -5.852  -1.634  -0.257  0.00  0.00     0.019 A 
ATOM      4  C   UNL d   1      -5.170  -0.634  -2.775  0.00  0.00     0.030 A 
ATOM      5  C   UNL d   1      -6.634  -0.635  -0.835  0.00  0.00     0.001 A 
ATOM      6  C   UNL d   1      -6.294  -0.138  -2.094  0.00  0.00     0.002 A 
ENDROOT
BRANCH   2   7
ATOM      7  N   UNL d   1      -3.244  -2.135  -2.861  0.00  0.00    -0.308 N 
ATOM      8  C   UNL d   1      -2.338  -1.712  -3.745  0.00  0.00     0.325 C 
ATOM      9  N   UNL d   1      -1.999  -0.454  -4.025  0.00  0.00    -0.306 N 
ATOM     10  O   UNL d   1      -1.740  -2.596  -4.371  0.00  0.00    -0.247 OA
ATOM     11  H   UNL d   1      -1.387  -0.469  -4.832  0.00  0.00     0.171 HD
ATOM     12  H   UNL d   1      -3.074  -3.118  -2.731  0.00  0.00     0.170 HD
BRANCH   9  13
ATOM     13  C   UNL d   1      -2.255   0.814  -3.496  0.00  0.00     0.075 C 
ATOM     14  C   UNL d   1      -2.649   1.116  -2.191  0.00  0.00     0.146 C 
ATOM     15  C   UNL d   1      -3.053   2.405  -1.847  0.00  0.00     0.086 C 
ATOM     16  F   UNL d   1      -2.604   0.195  -1.219  0.00  0.00    -0.204 F 
ATOM     17  C   UNL d   1      -2.996   3.410  -2.803  0.00  0.00     0.119 C 
ATOM     18  C   UNL d   1      -2.490   3.162  -4.071  0.00  0.00     0.044 C 
ATOM     19  F   UNL d   1      -3.423   4.642  -2.498  0.00  0.00    -0.206 F 
ATOM     20  C   UNL d   1      -2.102   1.868  -4.410  0.00  0.00     0.036 C 
ENDBRANCH   9  13
ENDBRANCH   2   7
BRANCH   1  21
ATOM     21  C   UNL d   1      -3.924  -3.138  -0.145  0.00  0.00     0.253 C 
ATOM     22  N   UNL d   1      -3.325  -4.175  -0.853  0.00  0.00    -0.355 N 
ATOM     23  H   UNL d   1      -3.694  -4.420  -1.755  0.00  0.00     0.162 HD
ATOM     24  O   UNL d   1      -3.874  -3.067   1.072  0.00  0.00    -0.268 OA
BRANCH  22  25
ATOM     25  C   UNL d   1      -2.681  -5.260  -0.137  0.00  0.00     0.143 C 
BRANCH  25  26
ATOM     26  C   UNL d   1      -3.726  -6.263   0.359  0.00  0.00     0.147 C 
BRANCH  26  27
ATOM     27  N   UNL d   1      -3.152  -7.373   1.080  0.00  0.00    -0.331 N 
ATOM     28  C   UNL d   1      -2.530  -8.451   0.457  0.00  0.00     0.318 C 
ATOM     29  N   UNL d   1      -1.877  -9.173   1.443  0.00  0.00    -0.341 N 
ATOM     30  O   UNL d   1      -2.536  -8.719  -0.730  0.00  0.00    -0.247 OA
ATOM     31  C   UNL d   1      -2.181  -8.653   2.750  0.00  0.00     0.144 C 
ATOM     32  H   UNL d   1      -1.478 -10.077   1.230  0.00  0.00     0.164 HD
ATOM     33  C   UNL d   1      -2.724  -7.262   2.457  0.00  0.00     0.147 C 
ENDBRANCH  26  27
ENDBRANCH  25  26
ENDBRANCH  22  25
ENDBRANCH   1  21
TORSDOF 6
