REMARK  3 active torsions:
REMARK  status: ('A' for Active; 'I' for Inactive)
REMARK    1  A    between atoms: N_7  and  N_1 
REMARK    2  A    between atoms: C_3  and  C_5 
REMARK    3  A    between atoms: C_4  and  N_7 
ROOT
ATOM      1  N   UNL d   1       0.934   0.025  -0.067  0.00  0.00    -0.302 N 
ATOM      2  HN  UNL d   1       1.949   0.117  -0.112  1.00  0.00     0.186 HD
ATOM      3  C   UNL d   1       0.233   0.818   0.696  0.00  0.00     0.039 C 
ATOM      4  C   UNL d   1      -1.277   0.756   0.797  0.00  0.00     0.071 C 
ENDROOT
BRANCH   1   5
ATOM      5  N   UNL d   1       0.295  -0.929  -0.806  0.00  0.00    -0.276 N 
ATOM      6  H   UNL d   1      -0.713  -1.037  -0.780  0.00  0.00     0.189 HD
BRANCH   5   7
ATOM      7  C   UNL d   1       1.004  -1.786  -1.603  0.00  0.00     0.184 C 
ATOM      8  S   UNL d   1       0.271  -2.960  -2.515  0.00  0.00    -0.040 SA
ATOM      9  N   UNL d   1       2.346  -1.609  -1.599  0.00  0.00    -0.375 N 
ATOM     10  H   UNL d   1       2.718  -0.938  -0.940  0.00  0.00     0.158 HD
ATOM     11  H   UNL d   1       2.960  -2.233  -2.103  0.00  0.00     0.158 HD
ENDBRANCH   5   7
ENDBRANCH   1   5
BRANCH   3  12
ATOM     12  C   UNL d   1       0.979   1.816   1.451  0.00  0.00     0.028 A 
ATOM     13  S   UNL d   1       0.424   2.424   2.953  0.00  0.00    -0.100 SA
ATOM     14  C   UNL d   1       1.790   3.436   3.133  0.00  0.00     0.050 A 
ATOM     15  C   UNL d   1       2.667   3.309   2.080  0.00  0.00     0.008 A 
ATOM     16  C   UNL d   1       2.207   2.364   1.120  0.00  0.00     0.021 A 
ENDBRANCH   3  12
TORSDOF 3
