REMARK  5 active torsions:
REMARK  status: ('A' for Active; 'I' for Inactive)
REMARK    1  A    between atoms: C_7  and  C_6 
REMARK       I    between atoms: N_12  and  C_7 
REMARK    2  A    between atoms: N_8  and  C_17 
REMARK    3  A    between atoms: C_22  and  N_12 
REMARK    4  A    between atoms: C_17  and  C_18 
REMARK    5  A    between atoms: C_18  and  C_22 
ROOT
ATOM      1  C   UNL d   1      -0.769   0.887  -0.429  0.00  0.00     0.005 A 
ATOM      2  C   UNL d   1      -1.240  -0.445  -0.397  0.00  0.00     0.027 A 
ATOM      3  C   UNL d   1      -0.221  -1.321  -1.005  0.00  0.00     0.194 A 
ATOM      4  C   UNL d   1       0.528   0.883  -1.107  0.00  0.00    -0.010 A 
ATOM      5  C   UNL d   1       0.876  -0.443  -1.438  0.00  0.00     0.026 A 
ATOM      6  C   UNL d   1      -1.575   1.871   0.146  0.00  0.00     0.044 A 
ATOM      7  O   UNL d   1      -0.283  -2.522  -1.131  0.00  0.00    -0.287 OA
ATOM      8  C   UNL d   1      -2.455  -0.843   0.129  0.00  0.00     0.016 A 
ATOM      9  C   UNL d   1       1.400   1.889  -1.490  0.00  0.00     0.013 A 
ATOM     10  C   UNL d   1       2.041  -0.809  -2.090  0.00  0.00     0.016 A 
ATOM     11  C   UNL d   1      -2.829   1.485   0.681  0.00  0.00     0.018 A 
ATOM     12  C   UNL d   1      -3.266   0.148   0.664  0.00  0.00     0.002 A 
ATOM     13  C   UNL d   1       2.594   1.549  -2.151  0.00  0.00     0.001 A 
ATOM     14  C   UNL d   1       2.914   0.213  -2.444  0.00  0.00     0.001 A 
ENDROOT
BRANCH   6  15
ATOM     15  C   UNL d   1      -1.138   3.285   0.325  0.00  0.00     0.252 C 
ATOM     16  O   UNL d   1       0.022   3.549   0.622  0.00  0.00    -0.268 OA
ATOM     17  N   UNL d   1      -2.109   4.254   0.176  0.00  0.00    -0.357 N 
ATOM     18  H   UNL d   1      -3.030   3.994  -0.151  0.00  0.00     0.162 HD
BRANCH  17  19
ATOM     19  C   UNL d   1      -1.788   5.671   0.295  0.00  0.00     0.124 C 
BRANCH  19  20
ATOM     20  C   UNL d   1      -3.054   6.514   0.203  0.00  0.00     0.050 C 
BRANCH  20  21
ATOM     21  C   UNL d   1      -2.796   8.031   0.216  0.00  0.00     0.274 C 
BRANCH  21  22
ATOM     22  N   UNL d   1      -4.070   8.768   0.194  0.00  0.00     0.092 N 
ATOM     23  C   UNL d   1      -4.827   8.638  -1.070  0.00  0.00     0.298 C 
ATOM     24  C   UNL d   1      -4.304   9.525  -2.207  0.00  0.00     0.198 C 
ATOM     25  O   UNL d   1      -4.345  10.902  -1.822  0.00  0.00    -0.388 OA
ATOM     26  C   UNL d   1      -3.525  11.116  -0.667  0.00  0.00     0.198 C 
ATOM     27  C   UNL d   1      -3.924  10.206   0.512  0.00  0.00     0.298 C 
ENDBRANCH  21  22
ENDBRANCH  20  21
ENDBRANCH  19  20
ENDBRANCH  17  19
ENDBRANCH   6  15
TORSDOF 5
