REMARK  3 active torsions:
REMARK  status: ('A' for Active; 'I' for Inactive)
REMARK    1  A    between atoms: C_3  and  C_1 
REMARK    2  A    between atoms: C_9  and  N_2 
REMARK    3  A    between atoms: C_12  and  C_9 
ROOT
ATOM      1  N   UNL d   1      -4.531   4.346  -3.852  0.00  0.00    -0.191 NA
ATOM      2  C   UNL d   1      -4.394   3.822  -2.826  0.00  0.00     0.099 C 
ATOM      3  C   UNL d   1      -3.433   1.251  -0.278  0.00  0.00    -0.038 A 
ATOM      4  C   UNL d   1      -4.222   3.164  -1.564  0.00  0.00     0.045 A 
ATOM      5  C   UNL d   1      -3.600   1.910  -1.507  0.00  0.00     0.031 A 
ATOM      6  C   UNL d   1      -4.518   3.125   0.834  0.00  0.00     0.002 A 
ATOM      7  C   UNL d   1      -3.893   1.877   0.890  0.00  0.00     0.009 A 
ATOM      8  C   UNL d   1      -4.683   3.768  -0.391  0.00  0.00     0.022 A 
ENDROOT
BRANCH   3   9
ATOM      9  C   UNL d   1      -2.795  -0.117  -0.212  0.00  0.00     0.170 C 
BRANCH   9  10
ATOM     10  N   UNL d   1      -1.353  -0.089   0.029  0.00  0.00    -0.320 N 
ATOM     11  C   UNL d   1      -0.478  -0.092  -1.049  0.00  0.00     0.110 A 
ATOM     12  C   UNL d   1       0.853  -0.205  -0.887  0.00  0.00     0.063 A 
ATOM     13  C   UNL d   1       1.383  -0.297   0.462  0.00  0.00     0.023 A 
ATOM     14  C   UNL d   1       0.568  -0.277   1.525  0.00  0.00     0.075 A 
ATOM     15  C   UNL d   1      -0.905  -0.176   1.348  0.00  0.00     0.247 A 
ATOM     16  O   UNL d   1      -1.629  -0.201   2.339  0.00  0.00    -0.268 OA
BRANCH  12  17
ATOM     17  C   UNL d   1       1.791  -0.299  -2.059  0.00  0.00     0.418 C 
ATOM     18  F   UNL d   1       3.071  -0.571  -1.697  0.00  0.00    -0.166 F 
ATOM     19  F   UNL d   1       1.413  -1.283  -2.917  0.00  0.00    -0.166 F 
ATOM     20  F   UNL d   1       1.819   0.853  -2.774  0.00  0.00    -0.166 F 
ENDBRANCH  12  17
ENDBRANCH   9  10
ENDBRANCH   3   9
TORSDOF 3
