REMARK  4 active torsions:
REMARK  status: ('A' for Active; 'I' for Inactive)
REMARK    1  A    between atoms: S_3  and  C_1 
REMARK    2  A    between atoms: C_8  and  C_4 
REMARK    3  A    between atoms: O_16  and  C_8 
REMARK    4  A    between atoms: C_18  and  O_16 
ROOT
ATOM      1  C   UNL d   1       0.301   1.065  -0.038  0.00  0.00     0.150 A 
ATOM      2  C   UNL d   1       1.053  -0.100  -0.013  0.00  0.00     0.099 A 
ATOM      3  C   UNL d   1       0.322  -1.293  -0.018  0.00  0.00     0.065 A 
ATOM      4  N   UNL d   1      -1.061   1.133  -0.048  0.00  0.00    -0.350 N 
ATOM      5  HN  UNL d   1      -1.548   2.029  -0.072  1.00  0.00     0.166 HD
ATOM      6  C   UNL d   1       2.482  -0.064   0.068  0.00  0.00     0.103 C 
ATOM      7  N   UNL d   1       3.638  -0.049   0.151  0.00  0.00    -0.191 NA
ATOM      8  C   UNL d   1      -1.085  -1.256  -0.012  0.00  0.00     0.043 A 
ATOM      9  C   UNL d   1      -1.738  -0.033  -0.023  0.00  0.00     0.007 A 
ATOM     10  C   UNL d   1      -3.234   0.050  -0.003  0.00  0.00     0.068 C 
ENDROOT
BRANCH   1  11
ATOM     11  S   UNL d   1       1.080   2.666  -0.062  0.00  0.00     0.188 S 
ATOM     12  O   UNL d   1       1.765   2.812   1.208  0.00  0.00    -0.222 OA
ATOM     13  O   UNL d   1       1.787   2.760  -1.326  0.00  0.00    -0.222 OA
ATOM     14  C   UNL d   1      -0.240   3.851  -0.097  0.00  0.00     0.168 C 
ENDBRANCH   1  11
BRANCH   3  15
ATOM     15  C   UNL d   1       0.923  -2.651   0.005  0.00  0.00     0.295 C 
ATOM     16  O   UNL d   1       0.357  -3.607   0.509  0.00  0.00    -0.259 OA
BRANCH  15  17
ATOM     17  O   UNL d   1       2.092  -2.674  -0.668  0.00  0.00    -0.318 OA
BRANCH  17  18
ATOM     18  C   UNL d   1       2.759  -3.946  -0.732  0.00  0.00     0.174 C 
ATOM     19  C   UNL d   1       3.505  -4.230   0.559  0.00  0.00     0.034 C 
ENDBRANCH  17  18
ENDBRANCH  15  17
ENDBRANCH   3  15
TORSDOF 4
