REMARK  10 active torsions:
REMARK  status: ('A' for Active; 'I' for Inactive)
REMARK    1  A    between atoms: C_2  and  C_1 
REMARK       I    between atoms: N_4  and  C_2 
REMARK    2  A    between atoms: C_3  and  N_7 
REMARK    3  A    between atoms: N_14  and  C_3 
REMARK    4  A    between atoms: N_7  and  N_4 
REMARK    5  A    between atoms: C_5  and  C_13 
REMARK    6  A    between atoms: C_17  and  C_6 
REMARK    7  A    between atoms: C_19  and  C_17 
REMARK    8  A    between atoms: C_22  and  C_19 
REMARK    9  A    between atoms: C_20  and  C_21 
REMARK   10  A    between atoms: C_21  and  C_22 
ROOT
ATOM      1  C   UNL d   1       2.174   1.083  -0.027  0.00  0.00     0.050 A 
ATOM      2  N   UNL d   1       1.933  -1.335  -0.045  0.00  0.00    -0.373 N 
ATOM      3  HN  UNL d   1       2.354  -2.264  -0.044  1.00  0.00     0.164 HD
ATOM      4  C   UNL d   1       0.777   1.219  -0.047  0.00  0.00     0.040 A 
ATOM      5  C   UNL d   1      -0.026   0.079  -0.067  0.00  0.00     0.034 A 
ATOM      6  C   UNL d   1       2.689  -0.210  -0.031  0.00  0.00     0.104 A 
ATOM      7  C   UNL d   1       0.592  -1.161  -0.062  0.00  0.00     0.108 A 
ENDROOT
BRANCH   1   8
ATOM      8  C   UNL d   1       3.031   2.301   0.013  0.00  0.00     0.271 C 
ATOM      9  N   UNL d   1       4.405   2.132   0.055  0.00  0.00    -0.264 N 
ATOM     10  H   UNL d   1       4.902   1.248   0.013  0.00  0.00     0.190 HD
ATOM     11  O   UNL d   1       2.517   3.418   0.022  0.00  0.00    -0.266 OA
BRANCH   9  12
ATOM     12  N   UNL d   1       5.219   3.277   0.117  0.00  0.00    -0.274 N 
ATOM     13  H   UNL d   1       4.700   4.154   0.143  0.00  0.00     0.189 HD
BRANCH  12  14
ATOM     14  C   UNL d   1       6.509   3.262  -0.401  0.00  0.00     0.186 C 
ATOM     15  S   UNL d   1       7.220   1.904  -1.077  0.00  0.00    -0.040 SA
BRANCH  14  16
ATOM     16  N   UNL d   1       7.120   4.489  -0.235  0.00  0.00    -0.370 N 
ATOM     17  C   UNL d   1       8.478   4.857  -0.595  0.00  0.00     0.148 C 
ATOM     18  H   UNL d   1       6.635   5.147   0.359  0.00  0.00     0.161 HD
ENDBRANCH  14  16
ENDBRANCH  12  14
ENDBRANCH   9  12
ENDBRANCH   1   8
BRANCH   5  19
ATOM     19  C   UNL d   1      -1.455   0.149  -0.080  0.00  0.00    -0.066 C 
ATOM     20  C   UNL d   1      -2.654   0.106  -0.073  0.00  0.00    -0.101 C 
BRANCH  20  21
ATOM     21  C   UNL d   1      -4.120  -0.005  -0.032  0.00  0.00     0.094 C 
BRANCH  21  22
ATOM     22  C   UNL d   1      -4.721   1.176   0.722  0.00  0.00     0.012 C 
BRANCH  22  23
ATOM     23  C   UNL d   1      -6.242   1.069   0.820  0.00  0.00     0.001 C 
BRANCH  23  24
ATOM     24  C   UNL d   1      -6.814   2.270   1.572  0.00  0.00    -0.000 C 
BRANCH  24  25
ATOM     25  C   UNL d   1      -8.335   2.190   1.682  0.00  0.00    -0.005 C 
ATOM     26  C   UNL d   1      -8.892   3.392   2.427  0.00  0.00     0.005 C 
ENDBRANCH  24  25
ENDBRANCH  23  24
ENDBRANCH  22  23
ENDBRANCH  21  22
ENDBRANCH  20  21
ENDBRANCH   5  19
TORSDOF 10
