REMARK  6 active torsions:
REMARK  status: ('A' for Active; 'I' for Inactive)
REMARK    1  A    between atoms: N_2  and  C_1 
REMARK    2  A    between atoms: C_3  and  C_9 
REMARK    3  A    between atoms: S_8  and  C_4 
REMARK       I    between atoms: C_5  and  N_7 
REMARK    4  A    between atoms: C_13  and  C_5 
REMARK    5  A    between atoms: N_7  and  C_10 
REMARK    6  A    between atoms: C_11  and  S_8 
ROOT
ATOM      1  C   UNL d   1       3.274  -2.282   0.679  0.00  0.00     0.052 A 
ATOM      2  C   UNL d   1       2.864  -2.606  -0.632  0.00  0.00     0.032 A 
ATOM      3  C   UNL d   1       4.629  -2.478   1.025  0.00  0.00     0.031 A 
ATOM      4  C   UNL d   1       3.787  -3.242  -1.494  0.00  0.00     0.021 A 
ATOM      5  C   UNL d   1       5.534  -3.073   0.146  0.00  0.00     0.002 A 
ATOM      6  C   UNL d   1       5.102  -3.491  -1.102  0.00  0.00     0.002 A 
ENDROOT
BRANCH   2   7
ATOM      7  S   UNL d   1       1.425  -1.936  -1.466  0.00  0.00    -0.086 SA
BRANCH   7   8
ATOM      8  C   UNL d   1       0.140  -3.180  -1.371  0.00  0.00     0.038 A 
ATOM      9  C   UNL d   1      -1.221  -2.825  -1.395  0.00  0.00     0.120 A 
ATOM     10  C   UNL d   1      -2.254  -3.760  -1.205  0.00  0.00     0.053 A 
ATOM     11  C   UNL d   1      -1.939  -5.106  -0.991  0.00  0.00     0.050 A 
ATOM     12  C   UNL d   1      -0.588  -5.484  -0.987  0.00  0.00     0.017 A 
ATOM     13  C   UNL d   1       0.433  -4.540  -1.182  0.00  0.00     0.022 A 
BRANCH   9  14
ATOM     14  N   UNL d   1      -1.629  -1.448  -1.607  0.00  0.00    -0.114 N 
ATOM     15  O   UNL d   1      -1.413  -0.960  -2.726  0.00  0.00    -0.532 OA
ATOM     16  O   UNL d   1      -2.249  -0.894  -0.689  0.00  0.00    -0.532 OA
ENDBRANCH   9  14
BRANCH  11  17
ATOM     17  C   UNL d   1      -3.016  -6.135  -0.751  0.00  0.00     0.417 C 
ATOM     18  F   UNL d   1      -4.278  -5.633  -0.849  0.00  0.00    -0.166 F 
ATOM     19  F   UNL d   1      -2.955  -7.164  -1.641  0.00  0.00    -0.166 F 
ATOM     20  F   UNL d   1      -2.932  -6.701   0.484  0.00  0.00    -0.166 F 
ENDBRANCH  11  17
ENDBRANCH   7   8
ENDBRANCH   2   7
BRANCH   1  21
ATOM     21  N   UNL d   1       2.478  -1.767   1.741  0.00  0.00    -0.322 N 
ATOM     22  C   UNL d   1       1.151  -2.053   1.997  0.00  0.00     0.256 C 
ATOM     23  O   UNL d   1       0.382  -2.699   1.294  0.00  0.00    -0.267 OA
ATOM     24  H   UNL d   1       3.010  -1.488   2.555  0.00  0.00     0.169 HD
BRANCH  22  25
ATOM     25  C   UNL d   1       0.671  -1.699   3.363  0.00  0.00     0.032 A 
ATOM     26  C   UNL d   1       1.205  -0.636   4.101  0.00  0.00     0.018 A 
ATOM     27  C   UNL d   1       0.842  -0.475   5.443  0.00  0.00     0.025 A 
ATOM     28  C   UNL d   1      -0.063  -1.358   6.034  0.00  0.00     0.034 A 
ATOM     29  C   UNL d   1      -0.655  -2.371   5.285  0.00  0.00     0.025 A 
ATOM     30 CL   UNL d   1      -0.430  -1.213   7.708  0.00  0.00    -0.084 Cl
ATOM     31  C   UNL d   1      -0.292  -2.536   3.948  0.00  0.00     0.018 A 
ENDBRANCH  22  25
ENDBRANCH   1  21
TORSDOF 6
