REMARK  3 active torsions:
REMARK  status: ('A' for Active; 'I' for Inactive)
REMARK    1  A    between atoms: C_11  and  C_5 
REMARK    2  A    between atoms: C_12  and  C_6 
REMARK    3  A    between atoms: C_9  and  C_8 
ROOT
ATOM      1  N   UNL d   1      -0.347   1.290  -0.361  0.00  0.00    -0.358 N 
ATOM      2  HN  UNL d   1      -0.638   2.123  -0.872  1.00  0.00     0.162 HD
ATOM      3  N   UNL d   1      -0.747  -1.101  -0.317  0.00  0.00    -0.358 N 
ATOM      4  HN  UNL d   1      -1.290  -1.801  -0.822  1.00  0.00     0.162 HD
ATOM      5  C   UNL d   1       0.862   1.162   0.044  0.00  0.00     0.084 C 
ATOM      6  C   UNL d   1       0.428  -1.379   0.115  0.00  0.00     0.084 C 
ATOM      7  S   UNL d   1       1.431  -0.218   0.942  0.00  0.00    -0.053 SA
ATOM      8  C   UNL d   1      -1.298   0.225  -0.078  0.00  0.00     0.217 C 
ENDROOT
BRANCH   8   9
ATOM      9  C   UNL d   1      -2.502   0.412  -0.990  0.00  0.00    -0.013 A 
ATOM     10  C   UNL d   1      -3.781   0.680  -0.479  0.00  0.00     0.050 A 
ATOM     11  C   UNL d   1      -4.814   0.847  -1.384  0.00  0.00     0.105 A 
ATOM     12  O   UNL d   1      -6.111   1.117  -1.070  0.00  0.00    -0.323 OA
ATOM     13  C   UNL d   1      -4.617   0.755  -2.742  0.00  0.00     0.105 A 
ATOM     14  C   UNL d   1      -6.695   1.210  -2.385  0.00  0.00     0.352 A 
ATOM     15  O   UNL d   1      -5.760   0.954  -3.452  0.00  0.00    -0.323 OA
ATOM     16  C   UNL d   1      -3.380   0.492  -3.282  0.00  0.00     0.040 A 
ATOM     17  C   UNL d   1      -2.317   0.323  -2.395  0.00  0.00     0.014 A 
ENDBRANCH   8   9
BRANCH   6  18
ATOM     18  C   UNL d   1       0.996  -2.744  -0.120  0.00  0.00    -0.002 A 
ATOM     19  C   UNL d   1       0.469  -3.519  -1.168  0.00  0.00     0.016 A 
ATOM     20  C   UNL d   1       0.976  -4.794  -1.437  0.00  0.00     0.024 A 
ATOM     21  C   UNL d   1       2.007  -5.307  -0.655  0.00  0.00     0.034 A 
ATOM     22  C   UNL d   1       2.529  -4.559   0.398  0.00  0.00     0.024 A 
ATOM     23 CL   UNL d   1       2.642  -6.870  -0.987  0.00  0.00    -0.084 Cl
ATOM     24  C   UNL d   1       2.023  -3.283   0.668  0.00  0.00     0.016 A 
ENDBRANCH   6  18
BRANCH   5  25
ATOM     25  C   UNL d   1       1.840   2.259  -0.197  0.00  0.00    -0.002 A 
ATOM     26  C   UNL d   1       1.385   3.584  -0.127  0.00  0.00     0.016 A 
ATOM     27  C   UNL d   1       2.277   4.647  -0.294  0.00  0.00     0.024 A 
ATOM     28  C   UNL d   1       3.622   4.387  -0.551  0.00  0.00     0.034 A 
ATOM     29  C   UNL d   1       4.077   3.074  -0.666  0.00  0.00     0.024 A 
ATOM     30 CL   UNL d   1       4.728   5.693  -0.724  0.00  0.00    -0.084 Cl
ATOM     31  C   UNL d   1       3.187   2.009  -0.493  0.00  0.00     0.016 A 
ENDBRANCH   5  25
TORSDOF 3
