REMARK  3 active torsions:
REMARK  status: ('A' for Active; 'I' for Inactive)
REMARK    1  A    between atoms: C_2  and  S_1 
REMARK    2  A    between atoms: N_3  and  S_1 
REMARK    3  A    between atoms: C_9  and  N_3 
ROOT
ATOM      1  S   UNL d   1       1.062  -0.047  -0.103  0.00  0.00     0.264 S 
ATOM      2  O   UNL d   1       0.397  -1.319   0.083  0.00  0.00    -0.200 OA
ATOM      3  O   UNL d   1       2.502   0.012  -0.251  0.00  0.00    -0.200 OA
ENDROOT
BRANCH   1   4
ATOM      4  C   UNL d   1       0.597   0.992   1.264  0.00  0.00     0.096 A 
ATOM      5  C   UNL d   1      -0.732   1.307   1.585  0.00  0.00     0.031 A 
ATOM      6  C   UNL d   1      -0.997   2.119   2.701  0.00  0.00     0.043 A 
ATOM      7  I   UNL d   1      -2.443   0.646   0.553  0.00  0.00    -0.043 I 
ATOM      8  C   UNL d   1       0.046   2.583   3.502  0.00  0.00     0.035 A 
ATOM      9  C   UNL d   1       1.363   2.255   3.201  0.00  0.00     0.025 A 
ATOM     10 CL   UNL d   1      -0.300   3.552   4.880  0.00  0.00    -0.084 Cl
ATOM     11  C   UNL d   1       1.638   1.467   2.082  0.00  0.00     0.028 A 
ENDBRANCH   1   4
BRANCH   1  12
ATOM     12  N   UNL d   1       0.368   0.681  -1.435  0.00  0.00    -0.281 N 
ATOM     13  H   UNL d   1      -0.316   0.127  -1.950  0.00  0.00     0.179 HD
BRANCH  12  14
ATOM     14  C   UNL d   1       0.871   1.873  -2.000  0.00  0.00     0.042 A 
ATOM     15  C   UNL d   1       1.984   1.847  -2.836  0.00  0.00     0.030 A 
ATOM     16  C   UNL d   1       2.365   3.002  -3.524  0.00  0.00     0.009 A 
ATOM     17  C   UNL d   1       1.627   4.187  -3.386  0.00  0.00    -0.062 A 
ATOM     18  C   UNL d   1       0.522   4.204  -2.529  0.00  0.00     0.009 A 
ATOM     19  C   UNL d   1       2.003   5.405  -4.176  0.00  0.00     0.048 C 
ATOM     20  C   UNL d   1       0.139   3.048  -1.847  0.00  0.00     0.030 A 
ENDBRANCH  12  14
ENDBRANCH   1  12
TORSDOF 3
