REMARK  5 active torsions:
REMARK  status: ('A' for Active; 'I' for Inactive)
REMARK    1  A    between atoms: S_9  and  C_5 
REMARK    2  A    between atoms: C_20  and  S_9 
REMARK    3  A    between atoms: C_10  and  C_20 
REMARK       I    between atoms: N_12  and  C_10 
REMARK    4  A    between atoms: C_24  and  N_12 
REMARK    5  A    between atoms: C_13  and  C_14 
ROOT
ATOM      1  S   UNL d   1       0.951  -2.508   1.203  0.00  0.00    -0.083 SA
ENDROOT
BRANCH   1   2
ATOM      2  C   UNL d   1       0.601  -0.846   0.843  0.00  0.00     0.163 A 
ATOM      3  N   UNL d   1      -0.298  -0.071   1.526  0.00  0.00    -0.314 N 
ATOM      4  C   UNL d   1      -0.314   1.137   0.867  0.00  0.00     0.158 A 
ATOM      5  C   UNL d   1      -1.082  -0.461   2.668  0.00  0.00     0.160 C 
ATOM      6  N   UNL d   1       0.546   1.089  -0.133  0.00  0.00    -0.281 N 
ATOM      7  C   UNL d   1      -1.139   2.273   1.145  0.00  0.00     0.120 A 
ATOM      8  N   UNL d   1       1.128  -0.154  -0.140  0.00  0.00    -0.278 N 
ATOM      9  HN  UNL d   1       0.743   1.845  -0.788  1.00  0.00     0.188 HD
ATOM     10  HN  UNL d   1       1.841  -0.480  -0.791  1.00  0.00     0.189 HD
ATOM     11  O   UNL d   1      -1.778   2.490   2.341  0.00  0.00    -0.319 OA
ATOM     12  C   UNL d   1      -1.447   3.323   0.292  0.00  0.00     0.043 A 
ATOM     13  C   UNL d   1      -2.486   3.642   2.232  0.00  0.00     0.142 A 
ATOM     14  C   UNL d   1      -2.324   4.190   0.985  0.00  0.00     0.027 A 
ENDBRANCH   1   2
BRANCH   1  15
ATOM     15  C   UNL d   1       2.265  -2.797  -0.019  0.00  0.00     0.185 C 
BRANCH  15  16
ATOM     16  C   UNL d   1       2.793  -4.220  -0.101  0.00  0.00     0.231 C 
ATOM     17  N   UNL d   1       2.075  -5.203   0.558  0.00  0.00    -0.327 N 
ATOM     18  H   UNL d   1       1.200  -4.906   0.979  0.00  0.00     0.169 HD
ATOM     19  O   UNL d   1       3.803  -4.426  -0.777  0.00  0.00    -0.272 OA
BRANCH  17  20
ATOM     20  C   UNL d   1       2.433  -6.563   0.703  0.00  0.00     0.034 A 
ATOM     21  C   UNL d   1       3.657  -7.085   0.282  0.00  0.00     0.030 A 
ATOM     22  C   UNL d   1       3.978  -8.431   0.491  0.00  0.00     0.017 A 
ATOM     23  C   UNL d   1       3.078  -9.280   1.135  0.00  0.00     0.009 A 
ATOM     24  C   UNL d   1       1.836  -8.778   1.538  0.00  0.00     0.017 A 
ATOM     25  C   UNL d   1       1.520  -7.425   1.326  0.00  0.00     0.030 A 
BRANCH  23  26
ATOM     26  C   UNL d   1       3.495 -10.691   1.364  0.00  0.00     0.155 C 
ATOM     27  O   UNL d   1       4.286 -11.222   0.587  0.00  0.00    -0.293 OA
ATOM     28  C   UNL d   1       2.978 -11.431   2.569  0.00  0.00     0.096 C 
ENDBRANCH  23  26
ENDBRANCH  17  20
ENDBRANCH  15  16
ENDBRANCH   1  15
TORSDOF 5
