REMARK  3 active torsions:
REMARK  status: ('A' for Active; 'I' for Inactive)
REMARK    1  A    between atoms: C_8  and  C_3 
REMARK    2  A    between atoms: O_9  and  C_4 
REMARK    3  A    between atoms: O_16  and  C_12 
ROOT
ATOM      1  N   UNL d   1       0.032  -0.583  -0.883  0.00  0.00    -0.305 N 
ATOM      2  HN  UNL d   1       0.007  -1.214  -1.684  1.00  0.00     0.171 HD
ATOM      3  C   UNL d   1       1.032  -0.426   0.062  0.00  0.00     0.133 A 
ATOM      4  C   UNL d   1      -0.870   0.276  -0.495  0.00  0.00     0.239 A 
ATOM      5  N   UNL d   1       0.752   0.491   1.008  0.00  0.00    -0.280 N 
ATOM      6  HN  UNL d   1       1.314   0.779   1.808  1.00  0.00     0.189 HD
ATOM      7  N   UNL d   1      -0.460   0.928   0.622  0.00  0.00    -0.259 N 
ATOM      8  C   UNL d   1      -1.125   1.973   1.349  0.00  0.00     0.181 C 
ENDROOT
BRANCH   3   9
ATOM      9  C   UNL d   1       2.289  -1.168   0.006  0.00  0.00     0.009 A 
ATOM     10  C   UNL d   1       2.547  -2.066  -1.039  0.00  0.00     0.018 A 
ATOM     11  C   UNL d   1       3.771  -2.748  -1.114  0.00  0.00     0.037 A 
ATOM     12  C   UNL d   1       4.751  -2.541  -0.144  0.00  0.00     0.068 A 
ATOM     13  C   UNL d   1       4.490  -1.663   0.909  0.00  0.00     0.037 A 
ATOM     14  C   UNL d   1       3.272  -0.981   0.985  0.00  0.00     0.018 A 
BRANCH  12  15
ATOM     15  O   UNL d   1       5.985  -3.127  -0.102  0.00  0.00    -0.356 OA
ATOM     16  C   UNL d   1       6.351  -3.934  -1.213  0.00  0.00     0.210 C 
ENDBRANCH  12  15
ENDBRANCH   3   9
BRANCH   4  17
ATOM     17  O   UNL d   1      -2.006   0.473  -1.132  0.00  0.00    -0.331 OA
ATOM     18  H   UNL d   1      -1.936  -0.157  -1.871  0.00  0.00     0.221 HD
ENDBRANCH   4  17
TORSDOF 3
