REMARK  2 active torsions:
REMARK  status: ('A' for Active; 'I' for Inactive)
REMARK    1  A    between atoms: C_2  and  C_1 
REMARK       I    between atoms: N_3  and  C_1 
REMARK    2  A    between atoms: C_4  and  N_3 
ROOT
ATOM      1  C   UNL d   1       1.125  -2.005  -0.142  0.00  0.00     0.253 C 
ATOM      2  N   UNL d   1       0.330  -0.976  -0.594  0.00  0.00    -0.352 N 
ATOM      3  O   UNL d   1       0.693  -3.102   0.189  0.00  0.00    -0.268 OA
ATOM      4  H   UNL d   1       0.753  -0.147  -0.988  0.00  0.00     0.163 HD
ENDROOT
BRANCH   2   5
ATOM      5  C   UNL d   1      -1.125  -1.070  -0.620  0.00  0.00     0.093 C 
ATOM      6  C   UNL d   1      -1.682  -2.146  -1.581  0.00  0.00     0.064 C 
ATOM      7  C   UNL d   1      -3.022  -1.569  -1.930  0.00  0.00    -0.050 A 
ATOM      8  C   UNL d   1      -4.104  -2.210  -2.509  0.00  0.00     0.007 A 
ATOM      9  C   UNL d   1      -3.074  -0.204  -1.629  0.00  0.00    -0.050 A 
ATOM     10  C   UNL d   1      -5.253  -1.461  -2.777  0.00  0.00     0.001 A 
ATOM     11  C   UNL d   1      -5.301  -0.090  -2.481  0.00  0.00     0.001 A 
ATOM     12  C   UNL d   1      -4.201   0.551  -1.909  0.00  0.00     0.007 A 
ATOM     13  C   UNL d   1      -1.779   0.263  -1.048  0.00  0.00     0.064 C 
ENDBRANCH   2   5
BRANCH   1  14
ATOM     14  C   UNL d   1       2.582  -1.734  -0.083  0.00  0.00     0.048 A 
ATOM     15  C   UNL d   1       3.110  -0.451   0.092  0.00  0.00     0.039 A 
ATOM     16  C   UNL d   1       4.491  -0.293   0.168  0.00  0.00     0.027 A 
ATOM     17 BR   UNL d   1       5.242   1.420   0.413  0.00  0.00    -0.050 Br
ATOM     18  C   UNL d   1       5.300  -1.415   0.070  0.00  0.00     0.106 A 
ATOM     19  N   UNL d   1       4.819  -2.670  -0.095  0.00  0.00    -0.373 N 
ATOM     20  C   UNL d   1       3.469  -2.802  -0.159  0.00  0.00     0.104 A 
ATOM     21  HN  UNL d   1       5.441  -3.475  -0.169  1.00  0.00     0.164 HD
ENDBRANCH   1  14
TORSDOF 2
