REMARK  9 active torsions:
REMARK  status: ('A' for Active; 'I' for Inactive)
REMARK       I    between atoms: N_7  and  C_1 
REMARK       I    between atoms: N_13  and  C_1 
REMARK       I    between atoms: C_2  and  N_14 
REMARK       I    between atoms: N_8  and  C_2 
REMARK    1  A    between atoms: C_9  and  N_7 
REMARK    2  A    between atoms: C_10  and  N_8 
REMARK    3  A    between atoms: C_20  and  N_13 
REMARK    4  A    between atoms: N_14  and  C_19 
REMARK    5  A    between atoms: C_19  and  C_22 
REMARK    6  A    between atoms: C_21  and  C_20 
REMARK    7  A    between atoms: C_24  and  C_21 
REMARK    8  A    between atoms: C_22  and  C_23 
REMARK    9  A    between atoms: C_23  and  C_24 
ROOT
ATOM      1  C   UNL d   1       2.982   4.557  -6.261  0.00  0.00    -0.086 C 
ATOM      2  C   UNL d   1       3.716   4.327  -7.177  0.00  0.00     0.015 C 
ATOM      3  C   UNL d   1       1.975   4.764  -5.181  0.00  0.00     0.097 C 
ATOM      4  C   UNL d   1       2.211   6.131  -4.486  0.00  0.00     0.044 C 
ATOM      5  C   UNL d   1       0.579   4.788  -5.858  0.00  0.00     0.044 C 
ATOM      6  C   UNL d   1       1.063   6.509  -3.541  0.00  0.00     0.004 C 
ATOM      7  C   UNL d   1      -0.563   5.205  -4.938  0.00  0.00     0.004 C 
ATOM      8  C   UNL d   1      -0.272   6.545  -4.275  0.00  0.00     0.000 C 
ENDROOT
BRANCH   3   9
ATOM      9  N   UNL d   1       2.222   3.723  -4.171  0.00  0.00    -0.323 N 
ATOM     10  C   UNL d   1       1.794   2.437  -4.240  0.00  0.00     0.317 C 
ATOM     11  O   UNL d   1       0.901   2.025  -4.970  0.00  0.00    -0.247 OA
ATOM     12  N   UNL d   1       2.417   1.558  -3.407  0.00  0.00    -0.343 N 
ATOM     13  H   UNL d   1       1.975   0.647  -3.481  0.00  0.00     0.164 HD
ATOM     14  H   UNL d   1       3.141   3.787  -3.771  0.00  0.00     0.166 HD
BRANCH  12  15
ATOM     15  C   UNL d   1       3.274   1.781  -2.248  0.00  0.00     0.124 C 
BRANCH  15  16
ATOM     16  C   UNL d   1       4.783   1.913  -2.558  0.00  0.00     0.020 C 
BRANCH  16  17
ATOM     17  C   UNL d   1       5.604   1.963  -1.252  0.00  0.00     0.002 C 
BRANCH  17  18
ATOM     18  C   UNL d   1       7.147   2.063  -1.379  0.00  0.00     0.002 C 
BRANCH  18  19
ATOM     19  C   UNL d   1       7.729   3.406  -1.875  0.00  0.00     0.020 C 
BRANCH  19  20
ATOM     20  C   UNL d   1       9.283   3.393  -2.047  0.00  0.00     0.124 C 
BRANCH  20  21
ATOM     21  N   UNL d   1       9.829   4.734  -2.290  0.00  0.00    -0.343 N 
ATOM     22  C   UNL d   1      11.113   5.184  -2.490  0.00  0.00     0.317 C 
ATOM     23  N   UNL d   1      12.126   4.352  -2.175  0.00  0.00    -0.323 N 
ATOM     24  O   UNL d   1      11.252   6.296  -2.991  0.00  0.00    -0.247 OA
ATOM     25  H   UNL d   1      11.917   3.711  -1.424  0.00  0.00     0.166 HD
ATOM     26  H   UNL d   1       9.184   5.412  -2.670  0.00  0.00     0.164 HD
BRANCH  23  27
ATOM     27  C   UNL d   1      13.583   4.543  -2.417  0.00  0.00     0.097 C 
ATOM     28  C   UNL d   1      14.236   5.018  -1.158  0.00  0.00    -0.086 C 
ATOM     29  C   UNL d   1      14.827   5.505  -0.230  0.00  0.00     0.015 C 
ATOM     30  C   UNL d   1      14.041   5.528  -3.540  0.00  0.00     0.044 C 
ATOM     31  C   UNL d   1      13.684   5.122  -4.970  0.00  0.00     0.004 C 
ATOM     32  C   UNL d   1      14.005   3.664  -5.279  0.00  0.00     0.000 C 
ATOM     33  C   UNL d   1      13.529   2.730  -4.174  0.00  0.00     0.004 C 
ATOM     34  C   UNL d   1      14.119   3.147  -2.818  0.00  0.00     0.044 C 
ENDBRANCH  23  27
ENDBRANCH  20  21
ENDBRANCH  19  20
ENDBRANCH  18  19
ENDBRANCH  17  18
ENDBRANCH  16  17
ENDBRANCH  15  16
ENDBRANCH  12  15
ENDBRANCH   3   9
TORSDOF 9
