REMARK  4 active torsions:
REMARK  status: ('A' for Active; 'I' for Inactive)
REMARK    1  A    between atoms: C_2  and  C_1 
REMARK    2  A    between atoms: N_14  and  C_5 
REMARK    3  A    between atoms: C_13  and  C_8 
REMARK    4  A    between atoms: O_20  and  C_17 
ROOT
ATOM      1  C   UNL d   1       0.176  -1.164   0.007  0.00  0.00     0.091 A 
ATOM      2  N   UNL d   1       1.373  -0.615   0.097  0.00  0.00    -0.349 N 
ATOM      3  HN  UNL d   1       2.245  -1.134   0.200  1.00  0.00     0.166 HD
ATOM      4  C   UNL d   1       1.279   0.769   0.031  0.00  0.00     0.050 A 
ATOM      5  S   UNL d   1      -1.122  -0.041  -0.139  0.00  0.00    -0.081 SA
ATOM      6  C   UNL d   1      -0.011   1.253  -0.086  0.00  0.00     0.082 A 
ENDROOT
BRANCH   1   7
ATOM      7  C   UNL d   1      -0.015  -2.643   0.013  0.00  0.00     0.074 A 
ATOM      8  C   UNL d   1      -1.176  -3.345  -0.221  0.00  0.00     0.179 A 
ATOM      9  O   UNL d   1      -0.912  -4.678  -0.134  0.00  0.00    -0.219 OA
ATOM     10  N   UNL d   1       0.424  -4.874   0.163  0.00  0.00    -0.263 N 
ATOM     11  C   UNL d   1       0.958  -3.649   0.255  0.00  0.00     0.046 A 
ATOM     12  HN  UNL d   1       0.904  -5.766   0.286  1.00  0.00     0.194 HD
ATOM     13  C   UNL d   1       2.390  -3.496   0.602  0.00  0.00     0.071 C 
BRANCH   8  14
ATOM     14  N   UNL d   1      -2.443  -3.007  -0.520  0.00  0.00    -0.377 N 
ATOM     15  H   UNL d   1      -2.665  -2.074  -0.851  0.00  0.00     0.158 HD
ATOM     16  H   UNL d   1      -3.069  -3.732  -0.860  0.00  0.00     0.158 HD
ENDBRANCH   8  14
ENDBRANCH   1   7
BRANCH   4  17
ATOM     17  C   UNL d   1       2.459   1.627   0.009  0.00  0.00    -0.009 A 
ATOM     18  C   UNL d   1       3.666   1.138  -0.508  0.00  0.00     0.016 A 
ATOM     19  C   UNL d   1       4.788   1.970  -0.625  0.00  0.00     0.037 A 
ATOM     20  C   UNL d   1       4.718   3.299  -0.212  0.00  0.00     0.068 A 
ATOM     21  C   UNL d   1       3.526   3.789   0.320  0.00  0.00     0.037 A 
ATOM     22  C   UNL d   1       2.409   2.959   0.444  0.00  0.00     0.016 A 
BRANCH  20  23
ATOM     23  O   UNL d   1       5.723   4.220  -0.318  0.00  0.00    -0.356 OA
ATOM     24  C   UNL d   1       7.046   3.699  -0.305  0.00  0.00     0.210 C 
ENDBRANCH  20  23
ENDBRANCH   4  17
TORSDOF 4
