REMARK  1 active torsions:
REMARK  status: ('A' for Active; 'I' for Inactive)
REMARK    1  A    between atoms: C_2  and  C_1 
ROOT
ATOM      1  C   UNL d   1      -1.898  -1.364   0.011  0.00  0.00    -0.024 A 
ATOM      2  C   UNL d   1      -1.548   0.985  -0.599  0.00  0.00     0.040 A 
ATOM      3  C   UNL d   1      -2.345  -0.169  -0.580  0.00  0.00     0.036 A 
ATOM      4  C   UNL d   1      -0.279   0.989  -0.011  0.00  0.00    -0.040 A 
ATOM      5  C   UNL d   1      -0.619  -1.345   0.593  0.00  0.00     0.013 A 
ATOM      6  C   UNL d   1       0.175  -0.191   0.590  0.00  0.00     0.009 A 
ATOM      7 CL   UNL d   1      -2.187   2.392  -1.375  0.00  0.00    -0.084 Cl
ATOM      8  C   UNL d   1       0.598   2.208  -0.010  0.00  0.00     0.050 C 
ENDROOT
BRANCH   1   9
ATOM      9  C   UNL d   1      -2.738  -2.588   0.018  0.00  0.00    -0.024 A 
ATOM     10  C   UNL d   1      -2.684  -3.512   1.076  0.00  0.00     0.036 A 
ATOM     11  C   UNL d   1      -3.467  -4.675   1.079  0.00  0.00     0.040 A 
ATOM     12 CL   UNL d   1      -3.304  -5.753   2.420  0.00  0.00    -0.084 Cl
ATOM     13  C   UNL d   1      -4.346  -4.947   0.025  0.00  0.00    -0.040 A 
ATOM     14  C   UNL d   1      -4.416  -4.034  -1.032  0.00  0.00     0.009 A 
ATOM     15  C   UNL d   1      -5.202  -6.183  -0.003  0.00  0.00     0.050 C 
ATOM     16  C   UNL d   1      -3.620  -2.881  -1.036  0.00  0.00     0.013 A 
ENDBRANCH   1   9
TORSDOF 1
