REMARK  5 active torsions:
REMARK  status: ('A' for Active; 'I' for Inactive)
REMARK    1  A    between atoms: C_6  and  C_3 
REMARK    2  A    between atoms: O_10  and  C_5 
REMARK    3  A    between atoms: C_15  and  N_9 
REMARK    4  A    between atoms: C_16  and  O_10 
REMARK    5  A    between atoms: C_23  and  C_15 
ROOT
ATOM      1  N   UNL d   1       5.971   1.496  -0.799  0.00  0.00    -0.349 N 
ATOM      2  HN  UNL d   1       6.936   1.177  -0.874  1.00  0.00     0.166 HD
ATOM      3  C   UNL d   1       5.530   2.075   0.348  0.00  0.00     0.119 A 
ATOM      4  C   UNL d   1       5.125   1.345  -1.839  0.00  0.00     0.084 A 
ATOM      5  C   UNL d   1       3.327   2.350  -0.567  0.00  0.00     0.084 A 
ATOM      6  C   UNL d   1       3.779   1.769  -1.775  0.00  0.00     0.027 A 
ATOM      7  C   UNL d   1       4.215   2.504   0.493  0.00  0.00     0.072 A 
ATOM      8  C   UNL d   1       5.571   0.761  -3.025  0.00  0.00     0.143 A 
ATOM      9  F   UNL d   1       6.840   0.327  -3.118  0.00  0.00    -0.204 F 
ATOM     10  C   UNL d   1       2.953   1.611  -2.914  0.00  0.00     0.017 A 
ATOM     11  C   UNL d   1       3.439   1.042  -4.092  0.00  0.00     0.004 A 
ATOM     12  C   UNL d   1       4.754   0.608  -4.144  0.00  0.00     0.045 A 
ENDROOT
BRANCH   5  13
ATOM     13  O   UNL d   1       1.994   2.689  -0.504  0.00  0.00    -0.345 OA
BRANCH  13  14
ATOM     14  C   UNL d   1       1.572   3.675   0.455  0.00  0.00     0.132 C 
ATOM     15  C   UNL d   1       1.106   3.015   1.755  0.00  0.00     0.062 C 
ATOM     16  C   UNL d   1      -0.216   2.271   1.585  0.00  0.00     0.275 C 
ATOM     17  N   UNL d   1      -1.274   3.155   1.066  0.00  0.00     0.092 N 
ATOM     18  C   UNL d   1      -0.881   3.673  -0.255  0.00  0.00     0.275 C 
ATOM     19  C   UNL d   1       0.421   4.477  -0.164  0.00  0.00     0.062 C 
BRANCH  17  20
ATOM     20  C   UNL d   1      -2.536   2.386   0.998  0.00  0.00     0.311 C 
BRANCH  20  21
ATOM     21  C   UNL d   1      -3.791   3.176   0.678  0.00  0.00    -0.030 A 
ATOM     22  C   UNL d   1      -4.798   2.574  -0.096  0.00  0.00     0.009 A 
ATOM     23  C   UNL d   1      -6.008   3.231  -0.330  0.00  0.00     0.001 A 
ATOM     24  C   UNL d   1      -6.232   4.494   0.211  0.00  0.00     0.000 A 
ATOM     25  C   UNL d   1      -5.246   5.101   0.986  0.00  0.00     0.001 A 
ATOM     26  C   UNL d   1      -4.035   4.443   1.226  0.00  0.00     0.009 A 
ENDBRANCH  20  21
ENDBRANCH  17  20
ENDBRANCH  13  14
ENDBRANCH   5  13
BRANCH   3  27
ATOM     27  C   UNL d   1       6.497   2.269   1.510  0.00  0.00     0.432 C 
ATOM     28  F   UNL d   1       7.760   1.817   1.282  0.00  0.00    -0.165 F 
ATOM     29  F   UNL d   1       6.628   3.584   1.854  0.00  0.00    -0.165 F 
ATOM     30  F   UNL d   1       6.073   1.640   2.646  0.00  0.00    -0.165 F 
ENDBRANCH   3  27
TORSDOF 5
