REMARK  3 active torsions:
REMARK  status: ('A' for Active; 'I' for Inactive)
REMARK    1  A    between atoms: C_11  and  C_2 
REMARK    2  A    between atoms: O_16  and  C_8 
REMARK    3  A    between atoms: O_17  and  C_9 
ROOT
ATOM      1  C   UNL d   1      -0.614  -0.671   0.098  0.00  0.00    -0.021 A 
ATOM      2  C   UNL d   1       0.516  -1.631   0.404  0.00  0.00     0.151 C 
ATOM      3  C   UNL d   1      -0.364   0.707   0.079  0.00  0.00    -0.038 A 
ATOM      4  N   UNL d   1       1.778  -1.114  -0.086  0.00  0.00    -0.348 N 
ATOM      5  C   UNL d   1       2.126   0.205  -0.053  0.00  0.00     0.222 C 
ATOM      6  C   UNL d   1      -1.922  -1.128  -0.097  0.00  0.00     0.049 A 
ATOM      7  C   UNL d   1      -1.435   1.603  -0.052  0.00  0.00     0.047 A 
ATOM      8  C   UNL d   1      -2.992  -0.236  -0.272  0.00  0.00     0.102 A 
ATOM      9  C   UNL d   1      -2.753   1.149  -0.220  0.00  0.00     0.102 A 
ATOM     10  C   UNL d   1       1.043   1.217   0.274  0.00  0.00     0.142 C 
ATOM     11  O   UNL d   1       3.289   0.539  -0.272  0.00  0.00    -0.273 OA
ATOM     12  H   UNL d   1       2.548  -1.752  -0.231  0.00  0.00     0.163 HD
ENDROOT
BRANCH   2  13
ATOM     13  C   UNL d   1       0.636  -2.023   1.875  0.00  0.00    -0.031 A 
ATOM     14  C   UNL d   1       1.169  -3.281   2.212  0.00  0.00     0.011 A 
ATOM     15  C   UNL d   1       1.307  -3.667   3.551  0.00  0.00     0.024 A 
ATOM     16  C   UNL d   1       0.923  -2.799   4.568  0.00  0.00     0.034 A 
ATOM     17  C   UNL d   1       0.405  -1.546   4.261  0.00  0.00     0.024 A 
ATOM     18 CL   UNL d   1       1.090  -3.273   6.213  0.00  0.00    -0.084 Cl
ATOM     19  C   UNL d   1       0.267  -1.162   2.923  0.00  0.00     0.011 A 
ENDBRANCH   2  13
BRANCH   8  20
ATOM     20  O   UNL d   1      -4.179  -0.897  -0.459  0.00  0.00    -0.353 OA
ATOM     21  C   UNL d   1      -5.354  -0.143  -0.711  0.00  0.00     0.210 C 
ENDBRANCH   8  20
BRANCH   9  22
ATOM     22  O   UNL d   1      -3.821   1.998  -0.328  0.00  0.00    -0.353 OA
ATOM     23  C   UNL d   1      -3.590   3.396  -0.219  0.00  0.00     0.210 C 
ENDBRANCH   9  22
TORSDOF 3
