REMARK  6 active torsions:
REMARK  status: ('A' for Active; 'I' for Inactive)
REMARK    1  A    between atoms: S_8  and  C_1 
REMARK       I    between atoms: C_4  and  N_9 
REMARK       I    between atoms: N_14  and  C_4 
REMARK    2  A    between atoms: C_10  and  C_5 
REMARK    3  A    between atoms: C_13  and  S_8 
REMARK    4  A    between atoms: N_9  and  C_12 
REMARK    5  A    between atoms: O_21  and  C_10 
REMARK    6  A    between atoms: C_17  and  N_14 
ROOT
ATOM      1  C   UNL d   1       4.562   1.389  -1.733  0.00  0.00     0.034 C 
ATOM      2  C   UNL d   1       3.570   2.264  -1.258  0.00  0.00     0.030 C 
ATOM      3  C   UNL d   1       5.895   1.827  -1.808  0.00  0.00     0.025 C 
ATOM      4  C   UNL d   1       3.990   3.426  -0.587  0.00  0.00     0.021 C 
ATOM      5  C   UNL d   1       6.293   2.995  -1.165  0.00  0.00     0.002 C 
ATOM      6  C   UNL d   1       5.346   3.759  -0.495  0.00  0.00     0.001 C 
ENDROOT
BRANCH   2   7
ATOM      7  S   UNL d   1       1.851   2.194  -1.739  0.00  0.00    -0.052 SA
BRANCH   7   8
ATOM      8  C   UNL d   1       1.100   0.809  -0.939  0.00  0.00     0.150 A 
ATOM      9  N   UNL d   1      -0.075   0.419  -1.462  0.00  0.00    -0.332 N 
ATOM     10  C   UNL d   1      -0.668  -0.640  -0.868  0.00  0.00     0.112 A 
ATOM     11  HN  UNL d   1      -0.494   0.896  -2.261  1.00  0.00     0.168 HD
ATOM     12  C   UNL d   1      -0.128  -1.307   0.204  0.00  0.00     0.060 A 
ATOM     13  C   UNL d   1       1.070  -0.822   0.671  0.00  0.00     0.009 A 
ATOM     14  N   UNL d   1       1.688   0.243   0.116  0.00  0.00    -0.340 N 
ATOM     15  C   UNL d   1       1.707  -1.442   1.872  0.00  0.00     0.068 C 
ATOM     16  HN  UNL d   1       2.569   0.600   0.489  1.00  0.00     0.167 HD
BRANCH  10  17
ATOM     17  C   UNL d   1      -1.988  -1.105  -1.377  0.00  0.00     0.309 C 
ATOM     18  O   UNL d   1      -2.486  -2.174  -1.050  0.00  0.00    -0.258 OA
BRANCH  17  19
ATOM     19  O   UNL d   1      -2.571  -0.174  -2.174  0.00  0.00    -0.321 OA
ATOM     20  C   UNL d   1      -3.888  -0.534  -2.599  0.00  0.00     0.213 C 
ENDBRANCH  17  19
ENDBRANCH  10  17
ENDBRANCH   7   8
ENDBRANCH   2   7
BRANCH   1  21
ATOM     21  N   UNL d   1       4.281   0.018  -1.995  0.00  0.00    -0.209 NA
ATOM     22  C   UNL d   1       4.657  -0.984  -1.085  0.00  0.00     0.303 C 
ATOM     23  N   UNL d   1       5.716  -0.662  -0.264  0.00  0.00    -0.313 N 
ATOM     24  O   UNL d   1       3.986  -2.012  -1.015  0.00  0.00    -0.253 OA
ATOM     25  H   UNL d   1       6.299   0.088  -0.580  0.00  0.00     0.170 HD
ATOM     26  H   UNL d   1       3.322  -0.181  -2.262  0.00  0.00     0.138 HD
BRANCH  23  27
ATOM     27  C   UNL d   1       5.894  -0.985   1.091  0.00  0.00     0.037 A 
ATOM     28  C   UNL d   1       5.265  -2.043   1.735  0.00  0.00     0.053 A 
ATOM     29  C   UNL d   1       5.365  -2.159   3.123  0.00  0.00     0.036 A 
ATOM     30 CL   UNL d   1       4.514  -3.416   3.936  0.00  0.00    -0.084 Cl
ATOM     31  C   UNL d   1       6.107  -1.242   3.870  0.00  0.00     0.024 A 
ATOM     32  C   UNL d   1       6.786  -0.216   3.222  0.00  0.00     0.004 A 
ATOM     33  C   UNL d   1       6.689  -0.097   1.836  0.00  0.00     0.029 A 
ENDBRANCH  23  27
ENDBRANCH   1  21
TORSDOF 6
