REMARK  6 active torsions:
REMARK  status: ('A' for Active; 'I' for Inactive)
REMARK    1  A    between atoms: N_6  and  C_1 
REMARK    2  A    between atoms: C_7  and  C_2 
REMARK       I    between atoms: C_8  and  N_6 
REMARK    3  A    between atoms: O_12  and  C_7 
REMARK    4  A    between atoms: C_11  and  C_8 
REMARK    5  A    between atoms: C_15  and  C_11 
REMARK    6  A    between atoms: C_16  and  O_12 
ROOT
ATOM      1  C   UNL d   1      -2.123  -0.871  -0.065  0.00  0.00     0.094 A 
ATOM      2  C   UNL d   1      -1.025  -1.716  -0.144  0.00  0.00     0.080 A 
ATOM      3  S   UNL d   1      -1.702   0.775  -0.083  0.00  0.00    -0.075 SA
ATOM      4  C   UNL d   1       0.206  -0.947  -0.099  0.00  0.00    -0.026 A 
ATOM      5  C   UNL d   1      -0.045   0.413  -0.091  0.00  0.00    -0.008 A 
ATOM      6  C   UNL d   1       1.617  -1.471  -0.059  0.00  0.00     0.041 C 
ATOM      7  C   UNL d   1       0.991   1.494  -0.025  0.00  0.00     0.047 C 
ATOM      8  C   UNL d   1       2.623  -0.402   0.392  0.00  0.00     0.005 C 
ATOM      9  C   UNL d   1       2.387   0.931  -0.325  0.00  0.00     0.005 C 
ENDROOT
BRANCH   1  10
ATOM     10  N   UNL d   1      -3.465  -1.225  -0.053  0.00  0.00    -0.320 N 
ATOM     11  C   UNL d   1      -4.373  -0.641   0.822  0.00  0.00     0.226 C 
ATOM     12  O   UNL d   1      -4.123   0.236   1.649  0.00  0.00    -0.273 OA
ATOM     13  H   UNL d   1      -3.655  -2.193  -0.304  0.00  0.00     0.169 HD
BRANCH  11  14
ATOM     14  C   UNL d   1      -5.767  -1.245   0.733  0.00  0.00     0.141 C 
BRANCH  14  15
ATOM     15  C   UNL d   1      -6.731  -0.429  -0.094  0.00  0.00    -0.050 A 
ATOM     16  C   UNL d   1      -7.361  -0.992  -1.213  0.00  0.00     0.007 A 
ATOM     17  C   UNL d   1      -8.303  -0.260  -1.938  0.00  0.00     0.001 A 
ATOM     18  C   UNL d   1      -8.624   1.041  -1.556  0.00  0.00     0.000 A 
ATOM     19  C   UNL d   1      -7.997   1.615  -0.453  0.00  0.00     0.001 A 
ATOM     20  C   UNL d   1      -7.055   0.885   0.275  0.00  0.00     0.007 A 
ENDBRANCH  14  15
ENDBRANCH  11  14
ENDBRANCH   1  10
BRANCH   2  21
ATOM     21  C   UNL d   1      -1.178  -3.174  -0.138  0.00  0.00     0.296 C 
ATOM     22  O   UNL d   1      -2.268  -3.730  -0.076  0.00  0.00    -0.259 OA
BRANCH  21  23
ATOM     23  O   UNL d   1       0.018  -3.828  -0.123  0.00  0.00    -0.318 OA
BRANCH  23  24
ATOM     24  C   UNL d   1       0.004  -5.159   0.403  0.00  0.00     0.174 C 
ATOM     25  C   UNL d   1       0.181  -5.074   1.910  0.00  0.00     0.034 C 
ENDBRANCH  23  24
ENDBRANCH  21  23
ENDBRANCH   2  21
TORSDOF 6
