REMARK  7 active torsions:
REMARK  status: ('A' for Active; 'I' for Inactive)
REMARK    1  A    between atoms: C_3  and  N_1 
REMARK    2  A    between atoms: N_4  and  C_2 
REMARK       I    between atoms: C_5  and  N_4 
REMARK    3  A    between atoms: C_13  and  C_5 
REMARK    4  A    between atoms: C_6  and  C_15 
REMARK    5  A    between atoms: O_10  and  C_6 
REMARK    6  A    between atoms: C_16  and  C_13 
REMARK    7  A    between atoms: C_15  and  C_16 
ROOT
ATOM      1  C   UNL d   1      -2.549   0.908  -2.115  0.00  0.00     0.061 A 
ATOM      2  C   UNL d   1      -2.495   0.087  -0.961  0.00  0.00     0.057 A 
ATOM      3  C   UNL d   1      -3.726   1.016  -2.879  0.00  0.00     0.032 A 
ATOM      4  C   UNL d   1      -3.696  -0.579  -0.625  0.00  0.00     0.031 A 
ATOM      5  C   UNL d   1      -4.866   0.300  -2.540  0.00  0.00     0.002 A 
ATOM      6  C   UNL d   1      -4.858  -0.485  -1.399  0.00  0.00     0.002 A 
ENDROOT
BRANCH   1   7
ATOM      7  N   UNL d   1      -1.476   1.710  -2.565  0.00  0.00    -0.325 N 
ATOM      8  C   UNL d   1      -0.392   1.167  -3.253  0.00  0.00     0.222 C 
ATOM      9  O   UNL d   1      -0.168  -0.026  -3.436  0.00  0.00    -0.273 OA
ATOM     10  H   UNL d   1      -1.762   2.600  -2.951  0.00  0.00     0.169 HD
BRANCH   8  11
ATOM     11  C   UNL d   1       0.494   2.273  -3.815  0.00  0.00     0.103 C 
BRANCH  11  12
ATOM     12  C   UNL d   1       1.673   1.796  -4.664  0.00  0.00     0.019 C 
BRANCH  12  13
ATOM     13  C   UNL d   1       1.286   1.164  -6.006  0.00  0.00     0.110 C 
BRANCH  13  14
ATOM     14  C   UNL d   1       0.543   2.113  -6.913  0.00  0.00     0.139 C 
ATOM     15  O   UNL d   1       0.648   3.333  -6.892  0.00  0.00    -0.650 OA
BRANCH  14  16
ATOM     16  O   UNL d   1      -0.261   1.475  -7.798  0.00  0.00    -0.776 OA
ATOM     17  H   UNL d   1      -0.251   0.502  -7.710  0.00  0.00     0.167 HD
ENDBRANCH  14  16
ENDBRANCH  13  14
ENDBRANCH  12  13
ENDBRANCH  11  12
ENDBRANCH   8  11
ENDBRANCH   1   7
BRANCH   2  18
ATOM     18  N   UNL d   1      -1.360  -0.102  -0.183  0.00  0.00    -0.375 N 
ATOM     19  C   UNL d   1      -1.201  -1.307   0.654  0.00  0.00     0.149 C 
ATOM     20  C   UNL d   1       0.283  -1.705   0.670  0.00  0.00     0.187 C 
ATOM     21  O   UNL d   1       1.114  -0.630   1.143  0.00  0.00    -0.388 OA
ATOM     22  C   UNL d   1       0.954   0.526   0.300  0.00  0.00     0.187 C 
ATOM     23  C   UNL d   1      -0.509   1.008   0.272  0.00  0.00     0.149 C 
ENDBRANCH   2  18
TORSDOF 7
