REMARK  8 active torsions:
REMARK  status: ('A' for Active; 'I' for Inactive)
REMARK    1  A    between atoms: C_9  and  N_1 
REMARK    2  A    between atoms: S_8  and  C_2 
REMARK    3  A    between atoms: C_15  and  S_8 
REMARK    4  A    between atoms: C_10  and  C_13 
REMARK    5  A    between atoms: C_13  and  C_15 
REMARK    6  A    between atoms: O_21  and  C_23 
REMARK    7  A    between atoms: C_25  and  O_21 
REMARK    8  A    between atoms: C_28  and  C_25 
ROOT
ATOM      1  N   UNL d   1      -0.277  -1.257  -0.067  0.00  0.00    -0.279 N 
ATOM      2  C   UNL d   1       0.975  -0.654  -0.128  0.00  0.00     0.168 A 
ATOM      3  N   UNL d   1       0.860   0.653  -0.112  0.00  0.00    -0.278 N 
ATOM      4  HN  UNL d   1       1.628   1.323  -0.125  1.00  0.00     0.189 HD
ATOM      5  N   UNL d   1      -0.468   0.956  -0.073  0.00  0.00    -0.287 N 
ATOM      6  HN  UNL d   1      -0.864   1.896  -0.052  1.00  0.00     0.188 HD
ATOM      7  C   UNL d   1      -1.157  -0.171  -0.067  0.00  0.00     0.101 A 
ATOM      8  C   UNL d   1      -2.637  -0.216   0.033  0.00  0.00     0.091 C 
ENDROOT
BRANCH   1   9
ATOM      9  C   UNL d   1      -0.600  -2.648  -0.047  0.00  0.00     0.043 A 
ATOM     10  C   UNL d   1       0.217  -3.575   0.619  0.00  0.00     0.033 A 
ATOM     11  C   UNL d   1      -0.097  -4.940   0.602  0.00  0.00     0.039 A 
ATOM     12  C   UNL d   1      -1.239  -5.398  -0.051  0.00  0.00     0.069 A 
ATOM     13  C   UNL d   1      -2.042  -4.482  -0.728  0.00  0.00     0.039 A 
ATOM     14  C   UNL d   1      -1.730  -3.119  -0.722  0.00  0.00     0.033 A 
BRANCH  12  15
ATOM     15  O   UNL d   1      -1.477  -6.745   0.028  0.00  0.00    -0.347 OA
BRANCH  15  16
ATOM     16  C   UNL d   1      -2.826  -7.132  -0.247  0.00  0.00     0.214 C 
BRANCH  16  17
ATOM     17  C   UNL d   1      -3.108  -8.538   0.226  0.00  0.00    -0.034 A 
ATOM     18  C   UNL d   1      -4.354  -8.832   0.800  0.00  0.00     0.009 A 
ATOM     19  C   UNL d   1      -4.667 -10.131   1.195  0.00  0.00     0.001 A 
ATOM     20  C   UNL d   1      -3.737 -11.153   1.013  0.00  0.00     0.000 A 
ATOM     21  C   UNL d   1      -2.501 -10.876   0.432  0.00  0.00     0.001 A 
ATOM     22  C   UNL d   1      -2.187  -9.576   0.036  0.00  0.00     0.009 A 
ENDBRANCH  16  17
ENDBRANCH  15  16
ENDBRANCH  12  15
ENDBRANCH   1   9
BRANCH   2  23
ATOM     23  S   UNL d   1       2.476  -1.478  -0.416  0.00  0.00    -0.084 SA
BRANCH  23  24
ATOM     24  C   UNL d   1       3.501  -0.135  -1.090  0.00  0.00     0.166 C 
BRANCH  24  25
ATOM     25  C   UNL d   1       4.902  -0.633  -1.425  0.00  0.00     0.169 C 
ATOM     26  O   UNL d   1       5.301  -1.769  -1.179  0.00  0.00    -0.291 OA
BRANCH  25  27
ATOM     27  C   UNL d   1       5.862   0.305  -2.090  0.00  0.00     0.012 A 
ATOM     28  C   UNL d   1       5.541   1.634  -2.393  0.00  0.00     0.040 A 
ATOM     29  C   UNL d   1       6.479   2.458  -3.030  0.00  0.00     0.056 A 
ATOM     30 CL   UNL d   1       6.006   4.084  -3.384  0.00  0.00    -0.083 Cl
ATOM     31  C   UNL d   1       7.748   1.965  -3.365  0.00  0.00     0.055 A 
ATOM     32  C   UNL d   1       8.073   0.645  -3.054  0.00  0.00     0.026 A 
ATOM     33 CL   UNL d   1       8.941   2.925  -4.157  0.00  0.00    -0.083 Cl
ATOM     34  C   UNL d   1       7.139  -0.177  -2.422  0.00  0.00     0.017 A 
ENDBRANCH  25  27
ENDBRANCH  24  25
ENDBRANCH  23  24
ENDBRANCH   2  23
TORSDOF 8
