REMARK  4 active torsions:
REMARK  status: ('A' for Active; 'I' for Inactive)
REMARK    1  A    between atoms: C_2  and  C_1 
REMARK    2  A    between atoms: C_6  and  C_3 
REMARK    3  A    between atoms: C_5  and  C_6 
REMARK    4  A    between atoms: C_9  and  C_5 
ROOT
ATOM      1  C   UNL d   1       1.181  -0.004   0.064  0.00  0.00    -0.006 C 
ATOM      2  C   UNL d   1       1.004   1.208  -0.510  0.00  0.00    -0.015 C 
ATOM      3  C   UNL d   1      -0.252   2.025  -0.411  0.00  0.00     0.052 C 
ENDROOT
BRANCH   2   4
ATOM      4  C   UNL d   1       2.171   1.745  -1.315  0.00  0.00     0.177 C 
ATOM      5  O   UNL d   1       3.203   1.096  -1.466  0.00  0.00    -0.288 OA
BRANCH   4   6
ATOM      6  C   UNL d   1       2.036   3.105  -1.921  0.00  0.00     0.056 C 
BRANCH   6   7
ATOM      7  C   UNL d   1       3.062   3.642  -2.598  0.00  0.00     0.023 C 
ATOM      8  C   UNL d   1       3.006   4.953  -3.166  0.00  0.00     0.004 A 
ATOM      9  S   UNL d   1       4.367   5.535  -4.060  0.00  0.00    -0.102 SA
ATOM     10  C   UNL d   1       2.017   5.926  -3.131  0.00  0.00     0.019 A 
ATOM     11  C   UNL d   1       3.638   7.048  -4.355  0.00  0.00     0.050 A 
ATOM     12  C   UNL d   1       2.381   7.129  -3.806  0.00  0.00     0.008 A 
ENDBRANCH   6   7
ENDBRANCH   4   6
ENDBRANCH   2   4
BRANCH   1  13
ATOM     13  C   UNL d   1       0.200  -0.798   0.917  0.00  0.00     0.044 C 
ATOM     14  C   UNL d   1       0.841  -1.073   2.277  0.00  0.00    -0.079 C 
ATOM     15  C   UNL d   1       1.247  -2.301   2.653  0.00  0.00    -0.024 C 
ATOM     16  C   UNL d   1       1.002   0.095   3.211  0.00  0.00     0.044 C 
ATOM     17  C   UNL d   1       1.154  -3.522   1.790  0.00  0.00     0.028 C 
ATOM     18  C   UNL d   1       0.765  -3.221   0.339  0.00  0.00     0.013 C 
ATOM     19  C   UNL d   1      -0.313  -2.117   0.225  0.00  0.00    -0.037 C 
ATOM     20  C   UNL d   1      -1.622  -2.593   0.907  0.00  0.00     0.016 C 
ATOM     21  C   UNL d   1      -0.650  -1.892  -1.264  0.00  0.00     0.016 C 
ENDBRANCH   1  13
TORSDOF 4
