REMARK  6 active torsions:
REMARK  status: ('A' for Active; 'I' for Inactive)
REMARK    1  A    between atoms: N_2  and  C_1 
REMARK    2  A    between atoms: C_5  and  C_4 
REMARK       I    between atoms: N_8  and  C_5 
REMARK    3  A    between atoms: C_15  and  N_8 
REMARK    4  A    between atoms: C_9  and  C_12 
REMARK    5  A    between atoms: O_18  and  C_9 
REMARK    6  A    between atoms: C_21  and  O_18 
ROOT
ATOM      1  C   UNL d   1      -2.444  -3.848   0.690  0.00  0.00     0.280 C 
ATOM      2  N   UNL d   1      -2.337  -2.642   0.010  0.00  0.00    -0.321 N 
ATOM      3  O   UNL d   1      -3.476  -4.273   1.203  0.00  0.00    -0.265 OA
ATOM      4  H   UNL d   1      -1.464  -2.474  -0.475  0.00  0.00     0.169 HD
ENDROOT
BRANCH   2   5
ATOM      5  C   UNL d   1      -3.334  -1.642  -0.068  0.00  0.00     0.035 A 
ATOM      6  C   UNL d   1      -4.490  -1.662   0.716  0.00  0.00     0.030 A 
ATOM      7  C   UNL d   1      -5.422  -0.625   0.655  0.00  0.00     0.020 A 
ATOM      8  C   UNL d   1      -5.213   0.465  -0.192  0.00  0.00     0.039 A 
ATOM      9  C   UNL d   1      -4.071   0.486  -1.002  0.00  0.00     0.020 A 
ATOM     10  C   UNL d   1      -3.134  -0.558  -0.933  0.00  0.00     0.030 A 
BRANCH   8  11
ATOM     11  C   UNL d   1      -6.117   1.648  -0.173  0.00  0.00     0.293 C 
ATOM     12  O   UNL d   1      -5.935   2.656  -0.835  0.00  0.00    -0.259 OA
BRANCH  11  13
ATOM     13  O   UNL d   1      -7.071   1.467   0.774  0.00  0.00    -0.318 OA
BRANCH  13  14
ATOM     14  C   UNL d   1      -7.728   2.646   1.254  0.00  0.00     0.174 C 
ATOM     15  C   UNL d   1      -6.923   3.192   2.421  0.00  0.00     0.034 C 
ENDBRANCH  13  14
ENDBRANCH  11  13
ENDBRANCH   8  11
ENDBRANCH   2   5
BRANCH   1  16
ATOM     16  C   UNL d   1      -1.223  -4.628   0.761  0.00  0.00     0.146 A 
ATOM     17  O   UNL d   1      -0.045  -4.166   0.229  0.00  0.00    -0.283 OA
ATOM     18  C   UNL d   1       0.888  -5.123   0.505  0.00  0.00     0.215 A 
ATOM     19  C   UNL d   1       0.349  -6.185   1.190  0.00  0.00     0.066 A 
ATOM     20  C   UNL d   1      -1.017  -5.865   1.354  0.00  0.00     0.047 A 
BRANCH  18  21
ATOM     21  N   UNL d   1       2.223  -4.874   0.064  0.00  0.00    -0.090 N 
ATOM     22  O   UNL d   1       3.055  -5.756   0.306  0.00  0.00    -0.530 OA
ATOM     23  O   UNL d   1       2.443  -3.804  -0.522  0.00  0.00    -0.530 OA
ENDBRANCH  18  21
ENDBRANCH   1  16
TORSDOF 6
