REMARK  6 active torsions:
REMARK  status: ('A' for Active; 'I' for Inactive)
REMARK    1  A    between atoms: C_7  and  C_1 
REMARK    2  A    between atoms: S_17  and  C_10 
REMARK       I    between atoms: N_11  and  C_12 
REMARK    3  A    between atoms: C_20  and  N_11 
REMARK    4  A    between atoms: C_24  and  N_11 
REMARK    5  A    between atoms: C_12  and  C_18 
REMARK    6  A    between atoms: C_18  and  S_17 
ROOT
ATOM      1  C   UNL d   1       3.374  -2.310  -0.189  0.00  0.00     0.065 A 
ATOM      2  N   UNL d   1       3.570  -2.692   1.091  0.00  0.00    -0.335 N 
ATOM      3  HN  UNL d   1       3.901  -3.628   1.327  1.00  0.00     0.168 HD
ATOM      4  C   UNL d   1       3.307  -1.777   2.037  0.00  0.00     0.145 A 
ATOM      5  N   UNL d   1       2.853  -0.537   1.788  0.00  0.00    -0.347 N 
ATOM      6  HN  UNL d   1       2.655   0.119   2.543  1.00  0.00     0.167 HD
ATOM      7  C   UNL d   1       2.924  -1.055  -0.540  0.00  0.00     0.049 A 
ATOM      8  C   UNL d   1       2.673  -0.201   0.502  0.00  0.00     0.092 A 
ENDROOT
BRANCH   4   9
ATOM      9  S   UNL d   1       3.584  -2.160   3.744  0.00  0.00    -0.085 SA
BRANCH   9  10
ATOM     10  C   UNL d   1       4.092  -3.914   3.667  0.00  0.00     0.185 C 
BRANCH  10  11
ATOM     11  C   UNL d   1       4.670  -4.386   5.015  0.00  0.00     0.234 C 
ATOM     12  N   UNL d   1       5.362  -5.625   5.010  0.00  0.00    -0.313 N 
ATOM     13  O   UNL d   1       4.578  -3.692   6.031  0.00  0.00    -0.272 OA
BRANCH  12  14
ATOM     14  C   UNL d   1       6.060  -5.990   6.203  0.00  0.00     0.037 A 
ATOM     15  C   UNL d   1       5.387  -6.137   7.421  0.00  0.00     0.030 A 
ATOM     16  C   UNL d   1       6.075  -6.568   8.558  0.00  0.00     0.002 A 
ATOM     17  C   UNL d   1       7.443  -6.828   8.493  0.00  0.00     0.000 A 
ATOM     18  C   UNL d   1       8.133  -6.618   7.301  0.00  0.00     0.002 A 
ATOM     19  C   UNL d   1       7.446  -6.185   6.165  0.00  0.00     0.030 A 
ENDBRANCH  12  14
BRANCH  12  20
ATOM     20  C   UNL d   1       5.125  -6.676   3.974  0.00  0.00     0.093 C 
ATOM     21  C   UNL d   1       3.698  -7.265   4.072  0.00  0.00     0.026 C 
ATOM     22  C   UNL d   1       3.554  -8.370   5.115  0.00  0.00     0.002 C 
ATOM     23  C   UNL d   1       4.542  -9.501   4.873  0.00  0.00     0.000 C 
ATOM     24  C   UNL d   1       5.977  -8.995   4.812  0.00  0.00     0.002 C 
ATOM     25  C   UNL d   1       6.148  -7.831   3.831  0.00  0.00     0.026 C 
ENDBRANCH  12  20
ENDBRANCH  10  11
ENDBRANCH   9  10
ENDBRANCH   4   9
BRANCH   1  26
ATOM     26  C   UNL d   1       3.696  -3.319  -1.194  0.00  0.00     0.089 A 
ATOM     27  N   UNL d   1       3.399  -4.673  -1.085  0.00  0.00    -0.304 N 
ATOM     28  C   UNL d   1       3.904  -5.291  -2.228  0.00  0.00     0.112 A 
ATOM     29  C   UNL d   1       2.713  -5.385  -0.092  0.00  0.00     0.099 A 
ATOM     30  C   UNL d   1       3.746  -6.702  -2.341  0.00  0.00     0.049 A 
ATOM     31  N   UNL d   1       4.449  -4.427  -3.048  0.00  0.00    -0.344 N 
ATOM     32  C   UNL d   1       3.106  -7.388  -1.375  0.00  0.00     0.005 A 
ATOM     33  C   UNL d   1       2.557  -6.713  -0.210  0.00  0.00     0.018 A 
ATOM     34  C   UNL d   1       4.332  -3.205  -2.432  0.00  0.00     0.036 A 
ATOM     35  HN  UNL d   1       4.873  -4.621  -3.956  1.00  0.00     0.167 HD
ATOM     36  C   UNL d   1       4.887  -2.006  -3.110  0.00  0.00     0.070 C 
ENDBRANCH   1  26
TORSDOF 6
