REMARK  7 active torsions:
REMARK  status: ('A' for Active; 'I' for Inactive)
REMARK    1  A    between atoms: C_5  and  C_1 
REMARK    2  A    between atoms: C_12  and  C_3 
REMARK    3  A    between atoms: C_6  and  C_5 
REMARK    4  A    between atoms: C_8  and  O_13 
REMARK    5  A    between atoms: N_14  and  C_9 
REMARK    6  A    between atoms: O_13  and  C_17 
REMARK    7  A    between atoms: C_23  and  N_14 
ROOT
ATOM      1  C   UNL d   1      -0.875  -3.643   0.020  0.00  0.00     0.110 C 
ATOM      2  C   UNL d   1      -0.579  -4.896   0.432  0.00  0.00     0.115 C 
ATOM      3  C   UNL d   1       0.181  -2.779  -0.353  0.00  0.00     0.105 C 
ATOM      4  N   UNL d   1       1.090  -2.118  -0.661  0.00  0.00    -0.191 NA
ENDROOT
BRANCH   1   5
ATOM      5  C   UNL d   1      -2.323  -3.245   0.008  0.00  0.00     0.206 C 
ATOM      6  O   UNL d   1      -3.203  -4.097   0.116  0.00  0.00    -0.286 OA
BRANCH   5   7
ATOM      7  C   UNL d   1      -2.645  -1.821  -0.056  0.00  0.00     0.048 A 
ATOM      8  C   UNL d   1      -1.950  -0.733  -0.658  0.00  0.00     0.056 A 
ATOM      9  C   UNL d   1      -2.644   0.426  -0.388  0.00  0.00     0.086 A 
ATOM     10  O   UNL d   1      -3.782   0.114   0.288  0.00  0.00    -0.314 OA
ATOM     11  C   UNL d   1      -3.803  -1.243   0.460  0.00  0.00     0.064 A 
ATOM     12  C   UNL d   1      -5.013  -1.759   1.141  0.00  0.00     0.077 C 
BRANCH   9  13
ATOM     13  C   UNL d   1      -2.404   1.827  -0.717  0.00  0.00    -0.002 A 
ATOM     14  C   UNL d   1      -1.194   2.202  -1.328  0.00  0.00     0.016 A 
ATOM     15  C   UNL d   1      -0.962   3.522  -1.720  0.00  0.00     0.024 A 
ATOM     16  C   UNL d   1      -1.937   4.487  -1.494  0.00  0.00     0.034 A 
ATOM     17  C   UNL d   1      -3.129   4.146  -0.860  0.00  0.00     0.024 A 
ATOM     18 CL   UNL d   1      -1.668   6.105  -2.011  0.00  0.00    -0.084 Cl
ATOM     19  C   UNL d   1      -3.360   2.821  -0.470  0.00  0.00     0.016 A 
ENDBRANCH   9  13
ENDBRANCH   5   7
ENDBRANCH   1   5
BRANCH   2  20
ATOM     20  N   UNL d   1       0.670  -5.463   0.572  0.00  0.00    -0.364 N 
ATOM     21  H   UNL d   1       1.466  -4.882   0.316  0.00  0.00     0.165 HD
BRANCH  20  22
ATOM     22  C   UNL d   1       1.027  -6.762   0.976  0.00  0.00     0.034 A 
ATOM     23  C   UNL d   1       0.100  -7.776   1.260  0.00  0.00     0.066 A 
ATOM     24  C   UNL d   1       0.530  -9.062   1.604  0.00  0.00     0.080 A 
ATOM     25  C   UNL d   1       1.892  -9.314   1.770  0.00  0.00     0.037 A 
ATOM     26  C   UNL d   1       2.826  -8.313   1.528  0.00  0.00     0.005 A 
ATOM     27  C   UNL d   1       2.394  -7.052   1.121  0.00  0.00     0.029 A 
BRANCH  24  28
ATOM     28  O   UNL d   1      -0.275 -10.141   1.826  0.00  0.00    -0.255 OA
BRANCH  28  29
ATOM     29  C   UNL d   1      -1.531 -10.202   1.166  0.00  0.00     0.530 C 
ATOM     30  F   UNL d   1      -1.601  -9.433   0.059  0.00  0.00    -0.144 F 
ATOM     31  F   UNL d   1      -1.750 -11.482   0.788  0.00  0.00    -0.144 F 
ATOM     32  F   UNL d   1      -2.511  -9.840   2.020  0.00  0.00    -0.144 F 
ENDBRANCH  28  29
ENDBRANCH  24  28
ENDBRANCH  20  22
ENDBRANCH   2  20
TORSDOF 7
