REMARK  10 active torsions:
REMARK  status: ('A' for Active; 'I' for Inactive)
REMARK    1  A    between atoms: C_2  and  C_1 
REMARK    2  A    between atoms: C_5  and  C_1 
REMARK    3  A    between atoms: O_6  and  C_2 
REMARK    4  A    between atoms: O_14  and  C_5 
REMARK    5  A    between atoms: C_16  and  C_5 
REMARK    6  A    between atoms: C_8  and  O_15 
REMARK    7  A    between atoms: O_15  and  C_17 
REMARK    8  A    between atoms: C_18  and  C_16 
REMARK    9  A    between atoms: C_17  and  C_19 
REMARK   10  A    between atoms: C_19  and  C_18 
ROOT
ATOM      1  C   UNL d   1       4.622   0.529  -1.430  0.00  0.00     0.005 C 
ENDROOT
BRANCH   1   2
ATOM      2  C   UNL d   1       3.091   0.517  -1.415  0.00  0.00     0.037 C 
BRANCH   2   3
ATOM      3  C   UNL d   1       2.525  -0.025  -0.089  0.00  0.00     0.157 C 
BRANCH   3   4
ATOM      4  C   UNL d   1       1.017  -0.008  -0.035  0.00  0.00     0.034 C 
ATOM      5  C   UNL d   1       0.309   1.128  -0.196  0.00  0.00     0.028 C 
BRANCH   4   6
ATOM      6  C   UNL d   1       0.202  -1.232   0.200  0.00  0.00     0.173 C 
ATOM      7  O   UNL d   1      -0.964  -1.342  -0.152  0.00  0.00    -0.646 OA
BRANCH   6   8
ATOM      8  O   UNL d   1       0.840  -2.209   0.872  0.00  0.00    -0.773 OA
ATOM      9  H   UNL d   1       1.798  -2.013   0.997  0.00  0.00     0.167 HD
ENDBRANCH   6   8
ENDBRANCH   4   6
ENDBRANCH   3   4
BRANCH   3  10
ATOM     10  O   UNL d   1       3.021  -1.347   0.150  0.00  0.00    -0.391 OA
ATOM     11  H   UNL d   1       3.168  -1.770  -0.719  0.00  0.00     0.210 HD
ENDBRANCH   3  10
ENDBRANCH   2   3
ENDBRANCH   1   2
BRANCH   1  12
ATOM     12  C   UNL d   1       5.163   1.082  -2.748  0.00  0.00     0.027 C 
BRANCH  12  13
ATOM     13  C   UNL d   1       6.688   1.116  -2.728  0.00  0.00     0.175 C 
BRANCH  13  14
ATOM     14  O   UNL d   1       7.153   1.603  -3.987  0.00  0.00    -0.351 OA
BRANCH  14  15
ATOM     15  C   UNL d   1       8.514   1.619  -4.137  0.00  0.00     0.068 A 
ATOM     16  C   UNL d   1       8.975   1.548  -5.454  0.00  0.00     0.038 A 
ATOM     17  C   UNL d   1      10.345   1.558  -5.727  0.00  0.00     0.026 A 
ATOM     18  C   UNL d   1      11.256   1.657  -4.677  0.00  0.00     0.034 A 
ATOM     19  C   UNL d   1      10.806   1.750  -3.362  0.00  0.00     0.026 A 
ATOM     20 CL   UNL d   1      12.944   1.671  -5.003  0.00  0.00    -0.084 Cl
ATOM     21  C   UNL d   1       9.436   1.733  -3.093  0.00  0.00     0.038 A 
ENDBRANCH  14  15
ENDBRANCH  13  14
ENDBRANCH  12  13
ENDBRANCH   1  12
TORSDOF 10
