REMARK  3 active torsions:
REMARK  status: ('A' for Active; 'I' for Inactive)
REMARK    1  A    between atoms: C_11  and  C_2 
REMARK    2  A    between atoms: C_13  and  C_9 
REMARK    3  A    between atoms: C_15  and  C_12 
ROOT
ATOM      1  N   UNL d   1       0.311   0.636   0.049  0.00  0.00    -0.235 N 
ATOM      2  C   UNL d   1      -0.811   1.456   0.048  0.00  0.00     0.144 A 
ATOM      3  C   UNL d   1       0.163  -0.757   0.013  0.00  0.00     0.130 A 
ATOM      4  N   UNL d   1       1.619   0.980   0.083  0.00  0.00    -0.291 N 
ATOM      5  HN  UNL d   1       2.008   1.920   0.160  1.00  0.00     0.187 HD
ATOM      6  N   UNL d   1      -1.055  -1.369   0.036  0.00  0.00    -0.340 N 
ATOM      7  HN  UNL d   1      -1.141  -2.385   0.044  1.00  0.00     0.167 HD
ATOM      8  C   UNL d   1       1.433  -1.279  -0.058  0.00  0.00     0.082 A 
ATOM      9  C   UNL d   1       2.296  -0.169  -0.006  0.00  0.00     0.069 A 
ATOM     10  C   UNL d   1      -2.040   0.900   0.041  0.00  0.00     0.067 A 
ATOM     11  C   UNL d   1      -2.105  -0.595   0.047  0.00  0.00     0.046 A 
ENDROOT
BRANCH  11  12
ATOM     12  C   UNL d   1      -3.461  -1.215   0.112  0.00  0.00    -0.009 A 
ATOM     13  C   UNL d   1      -3.608  -2.425   0.807  0.00  0.00     0.015 A 
ATOM     14  C   UNL d   1      -4.864  -3.029   0.918  0.00  0.00     0.024 A 
ATOM     15  C   UNL d   1      -5.973  -2.429   0.327  0.00  0.00     0.034 A 
ATOM     16  C   UNL d   1      -5.836  -1.238  -0.384  0.00  0.00     0.024 A 
ATOM     17 CL   UNL d   1      -7.522  -3.163   0.472  0.00  0.00    -0.084 Cl
ATOM     18  C   UNL d   1      -4.580  -0.632  -0.498  0.00  0.00     0.015 A 
ENDBRANCH  11  12
BRANCH   2  19
ATOM     19  C   UNL d   1      -0.636   2.929   0.047  0.00  0.00     0.434 C 
ATOM     20  F   UNL d   1       0.632   3.397   0.033  0.00  0.00    -0.165 F 
ATOM     21  F   UNL d   1      -1.256   3.477  -1.035  0.00  0.00    -0.165 F 
ATOM     22  F   UNL d   1      -1.239   3.484   1.134  0.00  0.00    -0.165 F 
ENDBRANCH   2  19
BRANCH   9  23
ATOM     23  C   UNL d   1       3.795  -0.198  -0.047  0.00  0.00     0.033 A 
ATOM     24  S   UNL d   1       4.729  -1.610  -0.276  0.00  0.00    -0.100 SA
ATOM     25  C   UNL d   1       6.193  -0.727  -0.228  0.00  0.00     0.050 A 
ATOM     26  C   UNL d   1       5.979   0.616  -0.013  0.00  0.00     0.008 A 
ATOM     27  C   UNL d   1       4.590   0.923   0.090  0.00  0.00     0.021 A 
ENDBRANCH   9  23
TORSDOF 3
