REMARK  6 active torsions:
REMARK  status: ('A' for Active; 'I' for Inactive)
REMARK       I    between atoms: N_6  and  C_1 
REMARK    1  A    between atoms: C_7  and  C_1 
REMARK    2  A    between atoms: C_2  and  C_19 
REMARK       I    between atoms: C_5  and  N_8 
REMARK    3  A    between atoms: C_17  and  C_5 
REMARK    4  A    between atoms: N_8  and  N_6 
REMARK    5  A    between atoms: S_15  and  C_17 
REMARK    6  A    between atoms: C_19  and  S_15 
ROOT
ATOM      1  C   UNL d   1       1.686   0.878   5.104  0.00  0.00     0.245 C 
ATOM      2  N   UNL d   1       0.910  -0.255   5.243  0.00  0.00    -0.267 N 
ATOM      3  O   UNL d   1       2.901   0.873   5.315  0.00  0.00    -0.271 OA
ATOM      4  H   UNL d   1      -0.111  -0.225   5.263  0.00  0.00     0.190 HD
ENDROOT
BRANCH   1   5
ATOM      5  C   UNL d   1       0.950   2.114   4.633  0.00  0.00     0.178 C 
BRANCH   5   6
ATOM      6  S   UNL d   1      -0.313   2.651   5.826  0.00  0.00    -0.155 SA
BRANCH   6   7
ATOM      7  C   UNL d   1       0.758   3.010   7.263  0.00  0.00     0.114 C 
BRANCH   7   8
ATOM      8  C   UNL d   1      -0.051   3.539   8.435  0.00  0.00    -0.037 A 
ATOM      9  C   UNL d   1      -0.661   2.645   9.355  0.00  0.00    -0.054 A 
ATOM     10  C   UNL d   1      -1.409   3.153  10.436  0.00  0.00     0.014 A 
ATOM     11  C   UNL d   1      -0.610   1.142   9.241  0.00  0.00     0.049 C 
ATOM     12  C   UNL d   1      -1.569   4.524  10.636  0.00  0.00    -0.061 A 
ATOM     13  C   UNL d   1      -0.987   5.401   9.723  0.00  0.00     0.014 A 
ATOM     14  C   UNL d   1      -2.365   5.030  11.801  0.00  0.00     0.048 C 
ATOM     15  C   UNL d   1      -0.240   4.934   8.622  0.00  0.00    -0.054 A 
ATOM     16  C   UNL d   1       0.305   6.000   7.706  0.00  0.00     0.049 C 
ENDBRANCH   7   8
ENDBRANCH   6   7
ENDBRANCH   5   6
ENDBRANCH   1   5
BRANCH   2  17
ATOM     17  N   UNL d   1       1.523  -1.387   5.787  0.00  0.00    -0.263 N 
ATOM     18  C   UNL d   1       0.762  -2.506   6.046  0.00  0.00     0.270 C 
ATOM     19  O   UNL d   1      -0.450  -2.557   5.870  0.00  0.00    -0.266 OA
ATOM     20  H   UNL d   1       2.542  -1.384   5.776  0.00  0.00     0.190 HD
BRANCH  18  21
ATOM     21  C   UNL d   1       1.519  -3.699   6.527  0.00  0.00     0.035 A 
ATOM     22  C   UNL d   1       1.022  -4.973   6.229  0.00  0.00     0.041 A 
ATOM     23  C   UNL d   1       1.721  -6.102   6.651  0.00  0.00     0.035 A 
ATOM     24 CL   UNL d   1       1.128  -7.671   6.265  0.00  0.00    -0.084 Cl
ATOM     25  C   UNL d   1       2.903  -5.975   7.381  0.00  0.00     0.024 A 
ATOM     26  C   UNL d   1       3.389  -4.707   7.700  0.00  0.00     0.003 A 
ATOM     27  C   UNL d   1       2.698  -3.569   7.277  0.00  0.00     0.017 A 
ENDBRANCH  18  21
ENDBRANCH   2  17
TORSDOF 6
