REMARK  4 active torsions:
REMARK  status: ('A' for Active; 'I' for Inactive)
REMARK    1  A    between atoms: C_14  and  N_1 
REMARK    2  A    between atoms: C_7  and  C_16 
REMARK    3  A    between atoms: O_12  and  C_7 
REMARK    4  A    between atoms: C_8  and  O_12 
ROOT
ATOM      1  C   UNL d   1       2.751  -4.625  -4.571  0.00  0.00     0.093 A 
ATOM      2  C   UNL d   1       2.514  -5.047  -3.258  0.00  0.00     0.006 A 
ATOM      3  C   UNL d   1       3.668  -5.455  -2.442  0.00  0.00    -0.043 A 
ATOM      4  O   UNL d   1       4.037  -4.658  -5.142  0.00  0.00    -0.275 OA
ATOM      5  C   UNL d   1       5.130  -5.083  -4.413  0.00  0.00     0.288 A 
ATOM      6  C   UNL d   1       0.448  -4.041  -4.891  0.00  0.00     0.103 A 
ATOM      7  C   UNL d   1       4.883  -5.453  -3.013  0.00  0.00     0.090 A 
ATOM      8  C   UNL d   1       1.742  -4.136  -5.398  0.00  0.00     0.077 A 
ATOM      9  C   UNL d   1       1.186  -5.022  -2.802  0.00  0.00     0.041 A 
ATOM     10  C   UNL d   1       0.157  -4.518  -3.613  0.00  0.00     0.069 A 
ATOM     11  O   UNL d   1       6.257  -5.146  -4.891  0.00  0.00    -0.260 OA
ATOM     12 CL   UNL d   1      -1.454  -4.492  -2.997  0.00  0.00    -0.081 Cl
ATOM     13  C   UNL d   1       3.541  -5.808  -0.988  0.00  0.00     0.049 C 
ENDROOT
BRANCH   6  14
ATOM     14  O   UNL d   1      -0.558  -3.505  -5.703  0.00  0.00    -0.273 OA
BRANCH  14  15
ATOM     15  C   UNL d   1      -0.376  -2.157  -5.955  0.00  0.00     0.298 C 
ATOM     16  O   UNL d   1       0.470  -1.422  -5.465  0.00  0.00    -0.259 OA
BRANCH  15  17
ATOM     17  C   UNL d   1      -1.323  -1.697  -7.007  0.00  0.00     0.040 A 
ATOM     18  C   UNL d   1      -2.445  -2.445  -7.393  0.00  0.00     0.020 A 
ATOM     19  C   UNL d   1      -3.291  -1.971  -8.404  0.00  0.00     0.037 A 
ATOM     20  C   UNL d   1      -3.013  -0.746  -9.028  0.00  0.00     0.102 A 
ATOM     21  C   UNL d   1      -1.899   0.010  -8.645  0.00  0.00     0.037 A 
ATOM     22  C   UNL d   1      -1.060  -0.468  -7.634  0.00  0.00     0.020 A 
BRANCH  20  23
ATOM     23  N   UNL d   1      -3.897  -0.252 -10.093  0.00  0.00    -0.116 N 
ATOM     24  O   UNL d   1      -3.615   0.834 -10.618  0.00  0.00    -0.532 OA
ATOM     25  O   UNL d   1      -4.871  -0.953 -10.402  0.00  0.00    -0.532 OA
ENDBRANCH  20  23
ENDBRANCH  15  17
ENDBRANCH  14  15
ENDBRANCH   6  14
TORSDOF 4
