REMARK  6 active torsions:
REMARK  status: ('A' for Active; 'I' for Inactive)
REMARK    1  A    between atoms: N_3  and  C_1 
REMARK    2  A    between atoms: O_15  and  C_4 
REMARK    3  A    between atoms: N_8  and  N_10 
REMARK    4  A    between atoms: C_9  and  N_8 
REMARK    5  A    between atoms: C_13  and  C_16 
REMARK    6  A    between atoms: C_21  and  O_15 
ROOT
ATOM      1  C   UNL d   1       5.350  -6.020   1.164  0.00  0.00    -0.012 A 
ATOM      2  C   UNL d   1       6.054  -7.162   1.576  0.00  0.00     0.016 A 
ATOM      3  C   UNL d   1       5.554  -4.812   1.835  0.00  0.00     0.016 A 
ATOM      4  C   UNL d   1       7.141  -5.887   3.322  0.00  0.00     0.078 A 
ATOM      5  C   UNL d   1       6.936  -7.095   2.660  0.00  0.00     0.038 A 
ATOM      6  C   UNL d   1       6.434  -4.749   2.917  0.00  0.00     0.038 A 
ENDROOT
BRANCH   1   7
ATOM      7  C   UNL d   1       4.358  -6.123   0.048  0.00  0.00     0.032 C 
ATOM      8  N   UNL d   1       4.563  -7.008  -0.886  0.00  0.00    -0.304 N 
ATOM      9  HN  UNL d   1       5.401  -7.589  -0.885  1.00  0.00     0.186 HD
ATOM     10  C   UNL d   1       3.153  -5.202   0.129  0.00  0.00     0.070 C 
BRANCH   8  11
ATOM     11  N   UNL d   1       3.627  -7.133  -1.862  0.00  0.00    -0.298 N 
ATOM     12  H   UNL d   1       3.254  -6.266  -2.256  0.00  0.00     0.187 HD
BRANCH  11  13
ATOM     13  C   UNL d   1       3.835  -8.072  -2.916  0.00  0.00     0.075 A 
ATOM     14  C   UNL d   1       3.225  -7.803  -4.170  0.00  0.00     0.062 A 
ATOM     15 CL   UNL d   1       2.296  -6.354  -4.406  0.00  0.00    -0.082 Cl
ATOM     16  C   UNL d   1       3.351  -8.668  -5.259  0.00  0.00     0.026 A 
ATOM     17  C   UNL d   1       4.085  -9.838  -5.124  0.00  0.00     0.002 A 
ATOM     18  C   UNL d   1       4.660 -10.148  -3.894  0.00  0.00     0.009 A 
ATOM     19  C   UNL d   1       4.517  -9.300  -2.773  0.00  0.00    -0.032 A 
ATOM     20  C   UNL d   1       5.131  -9.797  -1.493  0.00  0.00     0.050 C 
ENDBRANCH  11  13
ENDBRANCH   8  11
ENDBRANCH   1   7
BRANCH   4  21
ATOM     21  O   UNL d   1       7.983  -5.903   4.409  0.00  0.00    -0.288 OA
BRANCH  21  22
ATOM     22  C   UNL d   1       8.693  -4.825   4.759  0.00  0.00     0.194 A 
ATOM     23  S   UNL d   1       9.189  -4.591   6.386  0.00  0.00    -0.021 SA
ATOM     24  C   UNL d   1       9.876  -3.104   5.933  0.00  0.00     0.162 A 
ATOM     25  C   UNL d   1       9.740  -2.889   4.583  0.00  0.00     0.134 A 
ATOM     26  N   UNL d   1       9.069  -3.890   3.908  0.00  0.00    -0.338 N 
ATOM     27  HN  UNL d   1       8.890  -3.903   2.903  1.00  0.00     0.168 HD
BRANCH  24  28
ATOM     28  N   UNL d   1      10.492  -2.224   6.877  0.00  0.00    -0.107 N 
ATOM     29  O   UNL d   1      10.940  -1.165   6.427  0.00  0.00    -0.531 OA
ATOM     30  O   UNL d   1      10.522  -2.576   8.064  0.00  0.00    -0.531 OA
ENDBRANCH  24  28
ENDBRANCH  21  22
ENDBRANCH   4  21
TORSDOF 6
