REMARK  2 active torsions:
REMARK  status: ('A' for Active; 'I' for Inactive)
REMARK       I    between atoms: N_2  and  C_1 
REMARK    1  A    between atoms: C_8  and  C_1 
REMARK    2  A    between atoms: C_5  and  N_2 
ROOT
ATOM      1  N   UNL d   1       1.999  -2.802   0.876  0.00  0.00    -0.342 N 
ATOM      2  HN  UNL d   1       2.283  -2.072   1.530  1.00  0.00     0.167 HD
ATOM      3  C   UNL d   1       0.986  -2.582   0.022  0.00  0.00     0.108 A 
ATOM      4  C   UNL d   1       2.636  -3.982   0.869  0.00  0.00     0.043 A 
ATOM      5  C   UNL d   1       2.277  -5.022  -0.006  0.00  0.00    -0.009 A 
ATOM      6  C   UNL d   1       1.183  -4.805  -0.851  0.00  0.00     0.017 A 
ATOM      7  C   UNL d   1       0.529  -3.573  -0.838  0.00  0.00     0.049 A 
ATOM      8  C   UNL d   1       3.706  -4.185   1.731  0.00  0.00     0.030 A 
ATOM      9  C   UNL d   1       3.019  -6.218  -0.025  0.00  0.00     0.013 A 
ATOM     10  C   UNL d   1       4.449  -5.368   1.714  0.00  0.00     0.002 A 
ATOM     11  C   UNL d   1       4.113  -6.382   0.825  0.00  0.00     0.001 A 
ENDROOT
BRANCH   3  12
ATOM     12  N   UNL d   1       0.388  -1.308  -0.068  0.00  0.00    -0.309 N 
ATOM     13  C   UNL d   1       0.784  -0.213   0.675  0.00  0.00     0.257 C 
ATOM     14  O   UNL d   1       1.613  -0.211   1.583  0.00  0.00    -0.267 OA
ATOM     15  H   UNL d   1      -0.363  -1.208  -0.729  0.00  0.00     0.170 HD
BRANCH  13  16
ATOM     16  C   UNL d   1       0.135   1.094   0.354  0.00  0.00     0.032 A 
ATOM     17  C   UNL d   1       0.151   2.084   1.354  0.00  0.00     0.017 A 
ATOM     18  C   UNL d   1      -0.373   3.353   1.111  0.00  0.00     0.001 A 
ATOM     19  C   UNL d   1      -0.917   3.651  -0.134  0.00  0.00     0.000 A 
ATOM     20  C   UNL d   1      -0.939   2.679  -1.136  0.00  0.00     0.001 A 
ATOM     21  C   UNL d   1      -0.413   1.403  -0.897  0.00  0.00     0.017 A 
ENDBRANCH  13  16
ENDBRANCH   3  12
TORSDOF 2
