REMARK  2 active torsions:
REMARK  status: ('A' for Active; 'I' for Inactive)
REMARK    1  A    between atoms: C_11  and  C_3 
REMARK    2  A    between atoms: S_16  and  C_7 
ROOT
ATOM      1  N   UNL d   1      -0.215  -0.603   0.035  0.00  0.00    -0.237 N 
ATOM      2  C   UNL d   1      -0.191   0.794   0.005  0.00  0.00     0.130 A 
ATOM      3  C   UNL d   1       0.984  -1.341   0.038  0.00  0.00     0.094 A 
ATOM      4  C   UNL d   1       2.176  -0.694   0.016  0.00  0.00     0.107 A 
ATOM      5  N   UNL d   1       0.973   1.500  -0.018  0.00  0.00    -0.334 N 
ATOM      6  HN  UNL d   1       0.980   2.519  -0.039  1.00  0.00     0.168 HD
ATOM      7  C   UNL d   1       2.075   0.811  -0.011  0.00  0.00     0.094 A 
ATOM      8  N   UNL d   1      -1.497  -1.064   0.038  0.00  0.00    -0.296 N 
ATOM      9  HN  UNL d   1      -1.804  -2.037   0.051  1.00  0.00     0.187 HD
ATOM     10  C   UNL d   1      -1.500   1.210  -0.002  0.00  0.00     0.076 A 
ATOM     11  C   UNL d   1      -2.267   0.030   0.022  0.00  0.00     0.026 A 
ATOM     12  C   UNL d   1       3.431  -1.374   0.005  0.00  0.00     0.104 C 
ATOM     13  N   UNL d   1       4.434  -1.959  -0.015  0.00  0.00    -0.191 NA
ATOM     14  C   UNL d   1      -3.748  -0.076   0.020  0.00  0.00     0.070 C 
ENDROOT
BRANCH   3  15
ATOM     15  C   UNL d   1       0.931  -2.820   0.071  0.00  0.00     0.016 A 
ATOM     16  C   UNL d   1       0.953  -3.545   1.275  0.00  0.00     0.046 A 
ATOM     17 CL   UNL d   1       0.962  -2.749   2.811  0.00  0.00    -0.083 Cl
ATOM     18  C   UNL d   1       0.994  -4.941   1.258  0.00  0.00     0.025 A 
ATOM     19  C   UNL d   1       1.002  -5.625   0.043  0.00  0.00     0.002 A 
ATOM     20  C   UNL d   1       0.955  -4.917  -1.156  0.00  0.00     0.001 A 
ATOM     21  C   UNL d   1       0.916  -3.522  -1.145  0.00  0.00     0.015 A 
ENDBRANCH   3  15
BRANCH   7  22
ATOM     22  S   UNL d   1       3.600   1.691  -0.052  0.00  0.00    -0.115 SA
ATOM     23  C   UNL d   1       3.031   3.408  -0.039  0.00  0.00     0.097 C 
ENDBRANCH   7  22
TORSDOF 2
