REMARK  2 active torsions:
REMARK  status: ('A' for Active; 'I' for Inactive)
REMARK    1  A    between atoms: C_2  and  S_1 
REMARK    2  A    between atoms: N_4  and  S_1 
ROOT
ATOM      1  C   UNL d   1       0.229  -0.398   1.600  0.00  0.00     0.103 A 
ATOM      2  C   UNL d   1       0.990  -0.084   2.746  0.00  0.00     0.052 A 
ATOM      3  C   UNL d   1      -0.942  -1.146   1.744  0.00  0.00     0.059 A 
ATOM      4  C   UNL d   1      -1.356  -1.544   3.027  0.00  0.00     0.051 A 
ATOM      5  C   UNL d   1       0.572  -0.485   4.019  0.00  0.00     0.057 A 
ATOM      6  C   UNL d   1      -0.607  -1.217   4.161  0.00  0.00     0.057 A 
ATOM      7 CL   UNL d   1      -1.981  -1.627   0.455  0.00  0.00    -0.083 Cl
ATOM      8 CL   UNL d   1       1.557  -0.046   5.367  0.00  0.00    -0.083 Cl
ATOM      9 CL   UNL d   1      -1.192  -1.750   5.695  0.00  0.00    -0.082 Cl
ENDROOT
BRANCH   1  10
ATOM     10  S   UNL d   1       0.922   0.080   0.020  0.00  0.00     0.262 S 
ATOM     11  O   UNL d   1       0.407  -0.784  -1.013  0.00  0.00    -0.200 OA
ATOM     12  O   UNL d   1       2.355   0.176   0.232  0.00  0.00    -0.200 OA
BRANCH  10  13
ATOM     13  N   UNL d   1       0.346   1.659  -0.248  0.00  0.00    -0.303 N 
ATOM     14  C   UNL d   1      -1.056   1.763  -0.708  0.00  0.00     0.162 C 
ATOM     15  C   UNL d   1      -1.591   3.166  -0.662  0.00  0.00    -0.010 C 
ATOM     16  C   UNL d   1      -0.893   4.244  -0.282  0.00  0.00    -0.027 C 
ATOM     17  C   UNL d   1       0.528   4.115   0.158  0.00  0.00     0.047 C 
ATOM     18  C   UNL d   1       0.830   2.709   0.678  0.00  0.00     0.139 C 
ENDBRANCH  10  13
ENDBRANCH   1  10
TORSDOF 2
