REMARK  4 active torsions:
REMARK  status: ('A' for Active; 'I' for Inactive)
REMARK       I    between atoms: N_3  and  C_1 
REMARK       I    between atoms: N_10  and  C_1 
REMARK    1  A    between atoms: C_2  and  N_4 
REMARK    2  A    between atoms: C_9  and  O_14 
REMARK    3  A    between atoms: C_20  and  N_10 
REMARK    4  A    between atoms: O_14  and  C_24 
ROOT
ATOM      1  C   UNL d   1       0.878  -0.146  -0.122  0.00  0.00     0.323 C 
ATOM      2  N   UNL d   1       0.207   0.116  -1.307  0.00  0.00    -0.331 N 
ATOM      3  N   UNL d   1      -0.328   1.075  -3.926  0.00  0.00    -0.214 N 
ATOM      4  N   UNL d   1       0.501   0.599   0.969  0.00  0.00    -0.309 N 
ATOM      5  O   UNL d   1       1.758  -1.006  -0.092  0.00  0.00    -0.247 OA
ATOM      6  C   UNL d   1       0.547  -0.705  -2.483  0.00  0.00     0.148 C 
ATOM      7  C   UNL d   1      -0.925   1.030  -1.542  0.00  0.00     0.148 C 
ATOM      8  C   UNL d   1       0.791   0.156  -3.732  0.00  0.00     0.161 C 
ATOM      9  C   UNL d   1      -0.691   1.911  -2.785  0.00  0.00     0.161 C 
ATOM     10  H   UNL d   1      -0.199   1.303   0.836  0.00  0.00     0.170 HD
ENDROOT
BRANCH   4  11
ATOM     11  C   UNL d   1       0.987   0.482   2.291  0.00  0.00     0.036 A 
ATOM     12  C   UNL d   1       1.981  -0.419   2.690  0.00  0.00     0.032 A 
ATOM     13  C   UNL d   1       2.392  -0.501   4.028  0.00  0.00     0.039 A 
ATOM     14  C   UNL d   1       1.841   0.343   4.985  0.00  0.00     0.078 A 
ATOM     15  C   UNL d   1       0.836   1.233   4.597  0.00  0.00     0.039 A 
ATOM     16  C   UNL d   1       0.419   1.309   3.266  0.00  0.00     0.032 A 
BRANCH  14  17
ATOM     17  O   UNL d   1       2.175   0.410   6.303  0.00  0.00    -0.255 OA
BRANCH  17  18
ATOM     18  C   UNL d   1       3.378  -0.199   6.745  0.00  0.00     0.530 C 
ATOM     19  F   UNL d   1       4.367  -0.149   5.827  0.00  0.00    -0.144 F 
ATOM     20  F   UNL d   1       3.808   0.464   7.842  0.00  0.00    -0.144 F 
ATOM     21  F   UNL d   1       3.152  -1.484   7.091  0.00  0.00    -0.144 F 
ENDBRANCH  17  18
ENDBRANCH  14  17
ENDBRANCH   4  11
BRANCH   3  22
ATOM     22  C   UNL d   1      -1.005   1.139  -5.110  0.00  0.00     0.680 A 
ATOM     23  N   UNL d   1      -2.017   2.016  -5.233  0.00  0.00    -0.201 N 
ATOM     24  C   UNL d   1      -2.671   2.067  -6.414  0.00  0.00     0.126 A 
ATOM     25  HN  UNL d   1      -2.283   2.623  -4.458  1.00  0.00     0.183 HD
ATOM     26  C   UNL d   1      -2.362   1.270  -7.484  0.00  0.00     0.042 A 
ATOM     27  C   UNL d   1      -1.326   0.399  -7.276  0.00  0.00     0.126 A 
ATOM     28 BR   UNL d   1      -3.286   1.367  -9.113  0.00  0.00    -0.048 Br
ATOM     29  N   UNL d   1      -0.644   0.319  -6.112  0.00  0.00    -0.201 N 
ATOM     30  HN  UNL d   1       0.122  -0.344  -5.998  1.00  0.00     0.183 HD
ENDBRANCH   3  22
TORSDOF 4
