REMARK  6 active torsions:
REMARK  status: ('A' for Active; 'I' for Inactive)
REMARK    1  A    between atoms: C_8  and  C_1 
REMARK    2  A    between atoms: C_2  and  C_21 
REMARK       I    between atoms: N_11  and  C_8 
REMARK       I    between atoms: C_10  and  N_14 
REMARK    3  A    between atoms: C_22  and  C_10 
REMARK    4  A    between atoms: N_14  and  N_11 
REMARK    5  A    between atoms: S_18  and  C_22 
REMARK    6  A    between atoms: C_21  and  S_18 
ROOT
ATOM      1  C   UNL d   1      -2.823 -10.429  -0.827  0.00  0.00     0.245 C 
ATOM      2  N   UNL d   1      -3.336  -9.679  -1.853  0.00  0.00    -0.267 N 
ATOM      3  O   UNL d   1      -3.526 -11.288  -0.274  0.00  0.00    -0.271 OA
ATOM      4  H   UNL d   1      -2.860  -8.886  -2.286  0.00  0.00     0.190 HD
ENDROOT
BRANCH   1   5
ATOM      5  C   UNL d   1      -1.375 -10.282  -0.402  0.00  0.00     0.178 C 
BRANCH   5   6
ATOM      6  S   UNL d   1      -0.386  -8.893  -1.029  0.00  0.00    -0.155 SA
BRANCH   6   7
ATOM      7  C   UNL d   1       1.068  -9.169   0.067  0.00  0.00     0.114 C 
BRANCH   7   8
ATOM      8  C   UNL d   1       2.306  -8.264  -0.037  0.00  0.00    -0.036 C 
ATOM      9  C   UNL d   1       2.206  -6.850   0.071  0.00  0.00    -0.048 C 
ATOM     10  C   UNL d   1       3.377  -6.041  -0.004  0.00  0.00    -0.049 C 
ATOM     11  C   UNL d   1       0.870  -6.179   0.291  0.00  0.00     0.049 C 
ATOM     12  C   UNL d   1       3.270  -4.529  -0.049  0.00  0.00     0.049 C 
ATOM     13  C   UNL d   1       4.659  -6.637   0.046  0.00  0.00    -0.049 C 
ATOM     14  C   UNL d   1       4.784  -8.049   0.082  0.00  0.00    -0.049 C 
ATOM     15  C   UNL d   1       5.883  -5.736   0.097  0.00  0.00     0.049 C 
ATOM     16  C   UNL d   1       3.615  -8.859  -0.036  0.00  0.00    -0.048 C 
ATOM     17  C   UNL d   1       6.168  -8.641   0.254  0.00  0.00     0.049 C 
ATOM     18  C   UNL d   1       3.738 -10.370  -0.092  0.00  0.00     0.049 C 
ENDBRANCH   7   8
ENDBRANCH   6   7
ENDBRANCH   5   6
ENDBRANCH   1   5
BRANCH   2  19
ATOM     19  N   UNL d   1      -4.662  -9.964  -2.245  0.00  0.00    -0.263 N 
ATOM     20  C   UNL d   1      -5.337  -9.135  -3.108  0.00  0.00     0.271 C 
ATOM     21  O   UNL d   1      -4.828  -8.100  -3.537  0.00  0.00    -0.266 OA
ATOM     22  H   UNL d   1      -5.068 -10.809  -1.840  0.00  0.00     0.190 HD
BRANCH  20  23
ATOM     23  C   UNL d   1      -6.742  -9.502  -3.524  0.00  0.00     0.055 A 
ATOM     24  C   UNL d   1      -7.387 -10.732  -3.310  0.00  0.00     0.051 A 
ATOM     25  C   UNL d   1      -8.693 -10.951  -3.788  0.00  0.00     0.048 A 
ATOM     26 CL   UNL d   1      -6.671 -12.077  -2.489  0.00  0.00    -0.083 Cl
ATOM     27  C   UNL d   1      -9.367  -9.952  -4.482  0.00  0.00     0.035 A 
ATOM     28  C   UNL d   1      -8.754  -8.726  -4.702  0.00  0.00     0.025 A 
ATOM     29 CL   UNL d   1     -10.955 -10.240  -5.076  0.00  0.00    -0.084 Cl
ATOM     30  C   UNL d   1      -7.455  -8.506  -4.226  0.00  0.00     0.020 A 
ENDBRANCH  20  23
ENDBRANCH   2  19
TORSDOF 6
