REMARK  3 active torsions:
REMARK  status: ('A' for Active; 'I' for Inactive)
REMARK    1  A    between atoms: C_7  and  C_1 
REMARK    2  A    between atoms: C_9  and  N_6 
REMARK    3  A    between atoms: N_8  and  C_7 
ROOT
ATOM      1  N   UNL d   1      -4.803  -0.386   0.121  0.00  0.00    -0.378 N 
ATOM      2  N   UNL d   1      -2.973  -2.759   0.182  0.00  0.00     0.095 N 
ATOM      3  C   UNL d   1      -4.087  -0.770   1.365  0.00  0.00     0.153 C 
ATOM      4  C   UNL d   1      -4.176  -0.908  -1.115  0.00  0.00     0.153 C 
ATOM      5  C   UNL d   1      -3.669  -2.262   1.382  0.00  0.00     0.292 C 
ATOM      6  C   UNL d   1      -3.777  -2.395  -0.998  0.00  0.00     0.292 C 
ENDROOT
BRANCH   2   7
ATOM      7  C   UNL d   1      -1.587  -2.288   0.078  0.00  0.00     0.314 C 
BRANCH   7   8
ATOM      8  C   UNL d   1      -0.642  -3.047   0.985  0.00  0.00     0.005 A 
ATOM      9  C   UNL d   1      -0.710  -4.360   1.448  0.00  0.00     0.014 A 
ATOM     10  N   UNL d   1       0.412  -4.601   2.202  0.00  0.00    -0.359 N 
ATOM     11  C   UNL d   1      -1.702  -5.452   1.264  0.00  0.00     0.068 C 
ATOM     12  C   UNL d   1       1.256  -3.518   2.192  0.00  0.00     0.043 A 
ATOM     13  H   UNL d   1       0.620  -5.475   2.663  0.00  0.00     0.166 HD
ATOM     14  C   UNL d   1       0.623  -2.523   1.451  0.00  0.00     0.001 A 
ATOM     15  C   UNL d   1       2.522  -3.363   2.768  0.00  0.00     0.030 A 
ATOM     16  C   UNL d   1       1.303  -1.296   1.281  0.00  0.00     0.014 A 
ATOM     17  C   UNL d   1       2.575  -1.123   1.843  0.00  0.00     0.001 A 
ATOM     18  C   UNL d   1       3.174  -2.144   2.575  0.00  0.00     0.002 A 
ENDBRANCH   7   8
ENDBRANCH   2   7
BRANCH   1  19
ATOM     19  C   UNL d   1      -5.338   0.920   0.080  0.00  0.00     0.030 A 
ATOM     20  C   UNL d   1      -5.445   1.663  -1.114  0.00  0.00     0.032 A 
ATOM     21  C   UNL d   1      -5.987   2.956  -1.147  0.00  0.00     0.044 A 
ATOM     22  C   UNL d   1      -6.451   3.534   0.021  0.00  0.00     0.116 A 
ATOM     23  C   UNL d   1      -6.396   2.836   1.213  0.00  0.00     0.044 A 
ATOM     24  F   UNL d   1      -6.967   4.769  -0.006  0.00  0.00    -0.206 F 
ATOM     25  C   UNL d   1      -5.857   1.542   1.235  0.00  0.00     0.032 A 
ENDBRANCH   1  19
TORSDOF 3
