REMARK  8 active torsions:
REMARK  status: ('A' for Active; 'I' for Inactive)
REMARK    1  A    between atoms: C_12  and  C_1 
REMARK    2  A    between atoms: C_7  and  C_2 
REMARK    3  A    between atoms: S_10  and  C_5 
REMARK       I    between atoms: C_9  and  N_11 
REMARK    4  A    between atoms: C_18  and  C_9 
REMARK    5  A    between atoms: C_16  and  S_10 
REMARK    6  A    between atoms: N_11  and  C_15 
REMARK    7  A    between atoms: O_23  and  C_12 
REMARK    8  A    between atoms: C_28  and  O_23 
ROOT
ATOM      1  C   UNL d   1       0.322   0.651  -3.752  0.00  0.00     0.072 A 
ATOM      2  C   UNL d   1       1.302  -0.338  -3.714  0.00  0.00     0.134 A 
ATOM      3  N   UNL d   1       1.319  -1.264  -2.693  0.00  0.00    -0.345 N 
ATOM      4  HN  UNL d   1       2.006  -2.018  -2.704  1.00  0.00     0.166 HD
ATOM      5  C   UNL d   1       0.425  -1.180  -1.671  0.00  0.00     0.096 A 
ATOM      6  C   UNL d   1      -0.534  -0.173  -1.633  0.00  0.00     0.079 A 
ATOM      7  C   UNL d   1      -0.593   0.734  -2.692  0.00  0.00     0.045 A 
ATOM      8  C   UNL d   1      -1.447  -0.041  -0.545  0.00  0.00     0.102 C 
ATOM      9  N   UNL d   1      -2.184   0.088   0.342  0.00  0.00    -0.191 NA
ENDROOT
BRANCH   5  10
ATOM     10  S   UNL d   1       0.495  -2.469  -0.428  0.00  0.00    -0.069 SA
BRANCH  10  11
ATOM     11  C   UNL d   1       2.229  -2.427   0.008  0.00  0.00     0.033 A 
ATOM     12  C   UNL d   1       2.707  -1.702   1.115  0.00  0.00     0.052 A 
ATOM     13  C   UNL d   1       4.089  -1.641   1.344  0.00  0.00     0.031 A 
ATOM     14  C   UNL d   1       4.988  -2.278   0.487  0.00  0.00     0.002 A 
ATOM     15  C   UNL d   1       4.514  -2.992  -0.608  0.00  0.00     0.002 A 
ATOM     16  C   UNL d   1       3.142  -3.074  -0.841  0.00  0.00     0.021 A 
BRANCH  12  17
ATOM     17  N   UNL d   1       1.810  -1.048   2.000  0.00  0.00    -0.322 N 
ATOM     18  C   UNL d   1       2.088   0.194   2.547  0.00  0.00     0.256 C 
ATOM     19  O   UNL d   1       3.050   0.898   2.248  0.00  0.00    -0.267 OA
ATOM     20  H   UNL d   1       0.842  -1.352   1.990  0.00  0.00     0.169 HD
BRANCH  18  21
ATOM     21  C   UNL d   1       1.099   0.745   3.502  0.00  0.00     0.032 A 
ATOM     22  C   UNL d   1       0.545  -0.034   4.523  0.00  0.00     0.017 A 
ATOM     23  C   UNL d   1      -0.275   0.571   5.482  0.00  0.00     0.001 A 
ATOM     24  C   UNL d   1      -0.548   1.940   5.414  0.00  0.00     0.000 A 
ATOM     25  C   UNL d   1      -0.006   2.712   4.388  0.00  0.00     0.001 A 
ATOM     26  C   UNL d   1       0.822   2.117   3.438  0.00  0.00     0.017 A 
ENDBRANCH  18  21
ENDBRANCH  12  17
ENDBRANCH  10  11
ENDBRANCH   5  10
BRANCH   1  27
ATOM     27  C   UNL d   1       0.204   1.614  -4.862  0.00  0.00     0.295 C 
ATOM     28  O   UNL d   1       0.299   1.321  -6.037  0.00  0.00    -0.259 OA
BRANCH  27  29
ATOM     29  O   UNL d   1       0.018   2.837  -4.315  0.00  0.00    -0.318 OA
BRANCH  29  30
ATOM     30  C   UNL d   1       0.212   3.970  -5.174  0.00  0.00     0.174 C 
ATOM     31  C   UNL d   1       1.568   4.554  -4.829  0.00  0.00     0.034 C 
ENDBRANCH  29  30
ENDBRANCH  27  29
ENDBRANCH   1  27
BRANCH   2  32
ATOM     32  C   UNL d   1       2.431  -0.438  -4.732  0.00  0.00     0.433 C 
ATOM     33  F   UNL d   1       2.624   0.655  -5.519  0.00  0.00    -0.165 F 
ATOM     34  F   UNL d   1       3.643  -0.622  -4.123  0.00  0.00    -0.165 F 
ATOM     35  F   UNL d   1       2.286  -1.500  -5.576  0.00  0.00    -0.165 F 
ENDBRANCH   2  32
TORSDOF 8
