REMARK  2 active torsions:
REMARK  status: ('A' for Active; 'I' for Inactive)
REMARK    1  A    between atoms: C_5  and  C_1 
REMARK    2  A    between atoms: C_8  and  C_2 
REMARK       I    between atoms: N_12  and  C_8 
ROOT
ATOM      1  C   UNL d   1      -1.310  -0.818   0.103  0.00  0.00     0.088 A 
ATOM      2  C   UNL d   1       0.032  -1.299  -0.055  0.00  0.00     0.092 A 
ATOM      3  N   UNL d   1      -1.294   0.493   0.399  0.00  0.00    -0.259 N 
ATOM      4  HN  UNL d   1      -2.103   1.079   0.608  1.00  0.00     0.195 HD
ATOM      5  O   UNL d   1       0.019   0.891   0.364  0.00  0.00    -0.241 OA
ATOM      6  C   UNL d   1       0.816  -0.172   0.094  0.00  0.00     0.090 A 
ATOM      7  C   UNL d   1       2.255   0.139  -0.017  0.00  0.00     0.080 C 
ENDROOT
BRANCH   1   8
ATOM      8  C   UNL d   1      -2.572  -1.559   0.050  0.00  0.00     0.054 A 
ATOM      9  C   UNL d   1      -2.675  -2.789   0.716  0.00  0.00     0.130 A 
ATOM     10  F   UNL d   1      -1.647  -3.261   1.440  0.00  0.00    -0.205 F 
ATOM     11  C   UNL d   1      -3.841  -3.555   0.681  0.00  0.00     0.043 A 
ATOM     12  C   UNL d   1      -4.956  -3.086  -0.001  0.00  0.00     0.005 A 
ATOM     13  C   UNL d   1      -4.895  -1.852  -0.646  0.00  0.00     0.025 A 
ATOM     14  C   UNL d   1      -3.711  -1.095  -0.632  0.00  0.00     0.049 A 
ATOM     15 CL   UNL d   1      -3.751   0.392  -1.521  0.00  0.00    -0.083 Cl
ENDBRANCH   1   8
BRANCH   2  16
ATOM     16  C   UNL d   1       0.477  -2.640  -0.354  0.00  0.00     0.254 C 
ATOM     17  O   UNL d   1      -0.126  -3.404  -1.100  0.00  0.00    -0.268 OA
ATOM     18  N   UNL d   1       1.607  -3.048   0.297  0.00  0.00    -0.366 N 
ATOM     19  H   UNL d   1       1.948  -2.554   1.109  0.00  0.00     0.159 HD
ATOM     20  H   UNL d   1       1.828  -4.032   0.223  0.00  0.00     0.159 HD
ENDBRANCH   2  16
TORSDOF 2
