REMARK  10 active torsions:
REMARK  status: ('A' for Active; 'I' for Inactive)
REMARK    1  A    between atoms: C_2  and  C_1 
REMARK    2  A    between atoms: C_7  and  C_1 
REMARK    3  A    between atoms: O_3  and  C_2 
REMARK    4  A    between atoms: C_8  and  C_2 
REMARK    5  A    between atoms: C_4  and  O_3 
REMARK    6  A    between atoms: C_11  and  C_4 
REMARK    7  A    between atoms: C_5  and  C_12 
REMARK    8  A    between atoms: O_13  and  C_5 
REMARK    9  A    between atoms: C_12  and  C_11 
REMARK   10  A    between atoms: C_18  and  O_13 
ROOT
ATOM      1  C   UNL d   1       0.336  -1.142   0.002  0.00  0.00     0.239 C 
ENDROOT
BRANCH   1   2
ATOM      2  C   UNL d   1       1.238   0.082  -0.249  0.00  0.00     0.193 C 
ATOM      3  O   UNL d   1       1.449   0.508  -1.385  0.00  0.00    -0.289 OA
BRANCH   2   4
ATOM      4  C   UNL d   1       1.872   0.787   0.908  0.00  0.00     0.013 A 
ATOM      5  C   UNL d   1       1.639   0.432   2.242  0.00  0.00     0.015 A 
ATOM      6  C   UNL d   1       2.257   1.146   3.273  0.00  0.00     0.001 A 
ATOM      7  C   UNL d   1       3.109   2.210   2.981  0.00  0.00     0.000 A 
ATOM      8  C   UNL d   1       3.345   2.569   1.658  0.00  0.00     0.001 A 
ATOM      9  C   UNL d   1       2.728   1.861   0.625  0.00  0.00     0.015 A 
ENDBRANCH   2   4
ENDBRANCH   1   2
BRANCH   1  10
ATOM     10  O   UNL d   1      -0.490  -1.298  -1.168  0.00  0.00    -0.303 OA
BRANCH  10  11
ATOM     11  C   UNL d   1      -1.528  -0.416  -1.195  0.00  0.00     0.260 C 
ATOM     12  O   UNL d   1      -1.924   0.208  -0.214  0.00  0.00    -0.265 OA
BRANCH  11  13
ATOM     13  C   UNL d   1      -2.060  -0.140  -2.583  0.00  0.00     0.121 C 
BRANCH  13  14
ATOM     14  C   UNL d   1      -1.752  -1.196  -3.632  0.00  0.00     0.121 C 
BRANCH  14  15
ATOM     15  C   UNL d   1      -2.320  -2.525  -3.218  0.00  0.00     0.259 C 
ATOM     16  O   UNL d   1      -3.321  -2.665  -2.528  0.00  0.00    -0.265 OA
BRANCH  15  17
ATOM     17  O   UNL d   1      -1.528  -3.528  -3.679  0.00  0.00    -0.322 OA
BRANCH  17  18
ATOM     18  C   UNL d   1      -1.735  -4.800  -3.052  0.00  0.00     0.174 C 
ATOM     19  C   UNL d   1      -0.919  -4.844  -1.774  0.00  0.00     0.034 C 
ENDBRANCH  17  18
ENDBRANCH  15  17
ENDBRANCH  14  15
ENDBRANCH  13  14
ENDBRANCH  11  13
ENDBRANCH  10  11
ENDBRANCH   1  10
BRANCH   1  20
ATOM     20  C   UNL d   1       1.115  -2.420   0.276  0.00  0.00    -0.021 A 
ATOM     21  C   UNL d   1       0.588  -3.363   1.176  0.00  0.00     0.010 A 
ATOM     22  C   UNL d   1       1.299  -4.520   1.505  0.00  0.00     0.001 A 
ATOM     23  C   UNL d   1       2.547  -4.755   0.936  0.00  0.00     0.000 A 
ATOM     24  C   UNL d   1       3.074  -3.845   0.021  0.00  0.00     0.001 A 
ATOM     25  C   UNL d   1       2.359  -2.690  -0.318  0.00  0.00     0.010 A 
ENDBRANCH   1  20
TORSDOF 10
