REMARK  7 active torsions:
REMARK  status: ('A' for Active; 'I' for Inactive)
REMARK    1  A    between atoms: O_15  and  C_1 
REMARK    2  A    between atoms: C_7  and  C_3 
REMARK    3  A    between atoms: CA_4  and  C_7 
REMARK    4  A    between atoms: C_5  and  CA_4 
REMARK    5  A    between atoms: N_6  and  CA_4 
REMARK    6  A    between atoms: OXT_16  and  C_5 
REMARK       I    between atoms: C_8  and  N_6 
REMARK    7  A    between atoms: O_17  and  C_9 
ROOT
ATOM      1  C   UNL d   1       0.245   1.276   0.562  0.00  0.00     0.123 C 
ATOM      2  C   UNL d   1      -0.396   0.018   0.688  0.00  0.00     0.076 C 
ATOM      3  C   UNL d   1       0.226  -1.164   0.236  0.00  0.00    -0.031 C 
ATOM      4  C   UNL d   1       1.588   1.314   0.148  0.00  0.00     0.103 C 
ATOM      5  C   UNL d   1       1.568  -1.103  -0.155  0.00  0.00     0.012 C 
ATOM      6  C   UNL d   1       2.241   0.116  -0.172  0.00  0.00     0.040 C 
ATOM      7 CL   UNL d   1      -1.916  -0.128   1.527  0.00  0.00    -0.081 Cl
ENDROOT
BRANCH   3   8
ATOM      8  C   UNL d   1      -0.515  -2.477   0.072  0.00  0.00     0.076 C 
BRANCH   8   9
ATOM      9  CA  UNL d   1      -1.640  -2.443  -0.990  0.00  0.00     0.186 C 
BRANCH   9  10
ATOM     10  C   UNL d   1      -1.081  -2.112  -2.388  0.00  0.00     0.163 C 
ATOM     11  O   UNL d   1      -0.456  -1.104  -2.678  0.00  0.00    -0.648 OA
BRANCH  10  12
ATOM     12  OXT UNL d   1      -1.327  -3.072  -3.317  0.00  0.00    -0.775 OA
ATOM     13  HXT UNL d   1      -1.931  -3.743  -2.936  0.00  0.00     0.167 HD
ENDBRANCH  10  12
ENDBRANCH   9  10
BRANCH   9  14
ATOM     14  N   UNL d   1      -2.361  -3.740  -1.022  0.00  0.00    -0.347 N 
ATOM     15  C   UNL d   1      -3.719  -3.794  -1.255  0.00  0.00     0.214 C 
ATOM     16  O   UNL d   1      -4.388  -2.801  -1.515  0.00  0.00    -0.274 OA
ATOM     17  C   UNL d   1      -4.300  -5.180  -1.275  0.00  0.00     0.117 C 
ATOM     18  H   UNL d   1      -1.869  -4.578  -0.728  0.00  0.00     0.163 HD
ENDBRANCH   9  14
ENDBRANCH   8   9
ENDBRANCH   3   8
BRANCH   1  19
ATOM     19  O   UNL d   1      -0.373   2.453   0.908  0.00  0.00    -0.351 OA
ATOM     20  C   UNL d   1      -1.647   2.670   0.292  0.00  0.00     0.210 C 
ENDBRANCH   1  19
BRANCH   4  21
ATOM     21  O   UNL d   1       2.426   2.389   0.014  0.00  0.00    -0.353 OA
ATOM     22  C   UNL d   1       1.895   3.701   0.096  0.00  0.00     0.210 C 
ENDBRANCH   4  21
TORSDOF 7
