REMARK  3 active torsions:
REMARK  status: ('A' for Active; 'I' for Inactive)
REMARK    1  A    between atoms: N_4  and  C_10 
REMARK    2  A    between atoms: C_11  and  N_6 
REMARK    3  A    between atoms: O_21  and  C_13 
ROOT
ATOM      1  N   UNL d   1       4.155   0.786   0.147  0.00  0.00    -0.300 N 
ATOM      2  HN  UNL d   1       4.435   1.620   0.664  1.00  0.00     0.187 HD
ATOM      3  N   UNL d   1       4.953   0.057  -0.481  0.00  0.00    -0.300 N 
ATOM      4  HN  UNL d   1       4.662  -0.754  -1.026  1.00  0.00     0.187 HD
ENDROOT
BRANCH   1   5
ATOM      5  C   UNL d   1       2.823   0.327   0.060  0.00  0.00     0.048 A 
ATOM      6  C   UNL d   1       2.469  -1.021  -0.018  0.00  0.00     0.033 A 
ATOM      7  C   UNL d   1       1.123  -1.417  -0.075  0.00  0.00     0.032 A 
ATOM      8  C   UNL d   1       0.070  -0.490  -0.042  0.00  0.00     0.036 A 
ATOM      9  N   UNL d   1      -1.272  -0.866  -0.167  0.00  0.00    -0.385 N 
ATOM     10  C   UNL d   1       0.434   0.873   0.050  0.00  0.00    -0.029 A 
ATOM     11  C   UNL d   1      -2.283   0.130   0.205  0.00  0.00     0.123 C 
ATOM     12  C   UNL d   1      -1.687  -2.255   0.011  0.00  0.00     0.149 C 
ATOM     13  C   UNL d   1      -1.952   1.481  -0.401  0.00  0.00     0.024 C 
ATOM     14  C   UNL d   1      -0.616   1.953   0.143  0.00  0.00     0.042 C 
ATOM     15  C   UNL d   1       1.790   1.263   0.112  0.00  0.00     0.040 A 
ENDBRANCH   1   5
BRANCH   3  16
ATOM     16  C   UNL d   1       6.297   0.471  -0.359  0.00  0.00     0.048 A 
ATOM     17  C   UNL d   1       6.806   1.175   0.743  0.00  0.00     0.034 A 
ATOM     18  C   UNL d   1       8.164   1.520   0.822  0.00  0.00     0.039 A 
ATOM     19  C   UNL d   1       9.039   1.158  -0.199  0.00  0.00     0.068 A 
ATOM     20  C   UNL d   1       8.545   0.447  -1.296  0.00  0.00     0.039 A 
ATOM     21  C   UNL d   1       7.190   0.107  -1.372  0.00  0.00     0.034 A 
BRANCH  19  22
ATOM     22  O   UNL d   1      10.377   1.429  -0.248  0.00  0.00    -0.356 OA
ATOM     23  C   UNL d   1      10.930   2.142   0.851  0.00  0.00     0.210 C 
ENDBRANCH  19  22
ENDBRANCH   3  16
TORSDOF 3
