REMARK  3 active torsions:
REMARK  status: ('A' for Active; 'I' for Inactive)
REMARK    1  A    between atoms: N_9  and  C_3 
REMARK    2  A    between atoms: C_6  and  C_4 
REMARK    3  A    between atoms: C_14  and  N_9 
ROOT
ATOM      1  N   UNL d   1       0.442   1.527  -0.059  0.00  0.00    -0.350 N 
ATOM      2  HN  UNL d   1      -0.292   2.234  -0.110  1.00  0.00     0.166 HD
ATOM      3  C   UNL d   1       2.463  -0.389   0.061  0.00  0.00     0.047 A 
ATOM      4  C   UNL d   1       1.746   1.905  -0.046  0.00  0.00     0.119 A 
ATOM      5  C   UNL d   1       0.112   0.215  -0.004  0.00  0.00     0.067 A 
ATOM      6  C   UNL d   1       1.104  -0.791   0.070  0.00  0.00     0.019 A 
ATOM      7  C   UNL d   1       2.769   0.972   0.001  0.00  0.00     0.064 A 
ATOM      8  C   UNL d   1      -1.232  -0.190  -0.010  0.00  0.00     0.061 A 
ATOM      9 CL   UNL d   1      -2.508   0.981  -0.121  0.00  0.00    -0.082 Cl
ATOM     10  C   UNL d   1       0.706  -2.148   0.165  0.00  0.00     0.016 A 
ATOM     11  C   UNL d   1      -0.637  -2.516   0.167  0.00  0.00     0.003 A 
ATOM     12  C   UNL d   1      -1.610  -1.534   0.071  0.00  0.00     0.026 A 
ENDROOT
BRANCH   3  13
ATOM     13  N   UNL d   1       3.506  -1.359   0.090  0.00  0.00    -0.355 N 
ATOM     14  H   UNL d   1       3.413  -2.007  -0.689  0.00  0.00     0.166 HD
BRANCH  13  15
ATOM     15  C   UNL d   1       4.852  -1.151   0.465  0.00  0.00     0.032 A 
ATOM     16  C   UNL d   1       5.178  -0.442   1.630  0.00  0.00     0.029 A 
ATOM     17  C   UNL d   1       6.508  -0.179   1.961  0.00  0.00     0.002 A 
ATOM     18  C   UNL d   1       7.532  -0.630   1.132  0.00  0.00     0.000 A 
ATOM     19  C   UNL d   1       7.224  -1.354  -0.018  0.00  0.00     0.002 A 
ATOM     20  C   UNL d   1       5.892  -1.617  -0.348  0.00  0.00     0.029 A 
ENDBRANCH  13  15
ENDBRANCH   3  13
BRANCH   4  21
ATOM     21  C   UNL d   1       2.112   3.382  -0.081  0.00  0.00     0.432 C 
ATOM     22  F   UNL d   1       1.048   4.231  -0.126  0.00  0.00    -0.165 F 
ATOM     23  F   UNL d   1       2.841   3.760   1.012  0.00  0.00    -0.165 F 
ATOM     24  F   UNL d   1       2.888   3.701  -1.159  0.00  0.00    -0.165 F 
ENDBRANCH   4  21
TORSDOF 3
