REMARK  1 active torsions:
REMARK  status: ('A' for Active; 'I' for Inactive)
REMARK       I    between atoms: N_2  and  C_1 
REMARK       I    between atoms: N_8  and  C_1 
REMARK    1  A    between atoms: C_3  and  N_2 
ROOT
ATOM      1  C   UNL d   1       1.072  -2.347  -0.914  0.00  0.00     0.075 A 
ATOM      2  C   UNL d   1       2.143  -2.928  -0.221  0.00  0.00     0.146 A 
ATOM      3  C   UNL d   1       2.733  -4.113  -0.654  0.00  0.00     0.086 A 
ATOM      4  C   UNL d   1       0.569  -3.024  -2.037  0.00  0.00     0.036 A 
ATOM      5  C   UNL d   1       2.243  -4.738  -1.789  0.00  0.00     0.119 A 
ATOM      6  F   UNL d   1       2.603  -2.401   0.923  0.00  0.00    -0.204 F 
ATOM      7  C   UNL d   1       1.161  -4.210  -2.482  0.00  0.00     0.044 A 
ATOM      8  F   UNL d   1       2.811  -5.872  -2.217  0.00  0.00    -0.206 F 
ENDROOT
BRANCH   1   9
ATOM      9  N   UNL d   1       0.419  -1.147  -0.569  0.00  0.00    -0.306 N 
ATOM     10  C   UNL d   1       0.771  -0.078   0.183  0.00  0.00     0.318 C 
ATOM     11  O   UNL d   1      -0.030   0.836   0.364  0.00  0.00    -0.247 OA
ATOM     12  N   UNL d   1       2.032   0.039   0.627  0.00  0.00    -0.352 N 
ATOM     13  H   UNL d   1       2.526  -0.795   0.907  0.00  0.00     0.160 HD
ATOM     14  H   UNL d   1       2.184   0.839   1.226  0.00  0.00     0.160 HD
ATOM     15  H   UNL d   1      -0.474  -0.973  -1.014  0.00  0.00     0.171 HD
ENDBRANCH   1   9
TORSDOF 1
