REMARK  4 active torsions:
REMARK  status: ('A' for Active; 'I' for Inactive)
REMARK    1  A    between atoms: C_3  and  S_1 
REMARK    2  A    between atoms: N_5  and  S_1 
REMARK    3  A    between atoms: C_12  and  N_5 
REMARK    4  A    between atoms: C_13  and  N_5 
ROOT
ATOM      1  S   UNL d   1       1.084   0.118  -0.137  0.00  0.00     0.233 S 
ATOM      2  O   UNL d   1       0.587   0.566   1.147  0.00  0.00    -0.205 OA
ATOM      3  O   UNL d   1       2.510   0.045  -0.373  0.00  0.00    -0.205 OA
ENDROOT
BRANCH   1   4
ATOM      4  C   UNL d   1       0.369   1.228  -1.346  0.00  0.00     0.144 C 
ATOM      5  C   UNL d   1       0.791   0.942  -2.772  0.00  0.00     0.162 C 
ATOM      6  S   UNL d   1       0.404   2.426  -3.663  0.00  0.00     0.145 S 
ATOM      7  O   UNL d   1      -0.960   2.315  -4.139  0.00  0.00    -0.228 OA
ATOM      8  O   UNL d   1       1.509   2.740  -4.541  0.00  0.00    -0.228 OA
ATOM      9  C   UNL d   1       0.422   3.525  -2.262  0.00  0.00     0.142 C 
ATOM     10  C   UNL d   1       0.845   2.670  -1.076  0.00  0.00     0.037 C 
ENDBRANCH   1   4
BRANCH   1  11
ATOM     11  N   UNL d   1       0.403  -1.398  -0.432  0.00  0.00    -0.311 N 
BRANCH  11  12
ATOM     12  C   UNL d   1       0.635  -2.179  -1.673  0.00  0.00     0.130 C 
ATOM     13  C   UNL d   1       2.088  -2.445  -2.016  0.00  0.00     0.027 C 
ENDBRANCH  11  12
BRANCH  11  14
ATOM     14  C   UNL d   1       0.125  -2.245   0.768  0.00  0.00     0.130 C 
ATOM     15  C   UNL d   1       1.383  -2.636   1.527  0.00  0.00     0.027 C 
ENDBRANCH  11  14
ENDBRANCH   1  11
TORSDOF 4
