REMARK  7 active torsions:
REMARK  status: ('A' for Active; 'I' for Inactive)
REMARK    1  A    between atoms: C_5  and  C_1 
REMARK    2  A    between atoms: N_2  and  C_4 
REMARK    3  A    between atoms: S_10  and  C_3 
REMARK       I    between atoms: C_7  and  N_11 
REMARK    4  A    between atoms: C_16  and  C_7 
REMARK    5  A    between atoms: C_13  and  S_10 
REMARK    6  A    between atoms: N_11  and  C_12 
REMARK    7  A    between atoms: C_18  and  C_19 
ROOT
ATOM      1  C   UNL d   1       0.150   4.054  -0.759  0.00  0.00     0.052 A 
ATOM      2  C   UNL d   1       0.217   3.776   0.623  0.00  0.00     0.033 A 
ATOM      3  C   UNL d   1       0.053   5.385  -1.196  0.00  0.00     0.031 A 
ATOM      4  C   UNL d   1       0.065   4.845   1.525  0.00  0.00     0.021 A 
ATOM      5  C   UNL d   1      -0.077   6.430  -0.286  0.00  0.00     0.002 A 
ATOM      6  C   UNL d   1      -0.104   6.160   1.078  0.00  0.00     0.002 A 
ENDROOT
BRANCH   2   7
ATOM      7  S   UNL d   1       0.925   2.247   1.235  0.00  0.00    -0.070 SA
BRANCH   7   8
ATOM      8  C   UNL d   1      -0.253   1.577   2.385  0.00  0.00     0.089 A 
ATOM      9  C   UNL d   1      -0.584   0.222   2.408  0.00  0.00     0.084 A 
ATOM     10  C   UNL d   1      -1.498  -0.220   3.393  0.00  0.00     0.056 A 
ATOM     11  C   UNL d   1      -2.006   0.677   4.330  0.00  0.00     0.119 A 
ATOM     12  C   UNL d   1      -1.586   1.988   4.275  0.00  0.00     0.124 A 
ATOM     13  N   UNL d   1      -0.725   2.442   3.330  0.00  0.00    -0.357 N 
ATOM     14  HN  UNL d   1      -0.433   3.419   3.325  1.00  0.00     0.166 HD
BRANCH   9  15
ATOM     15  C   UNL d   1      -0.023  -0.814   1.473  0.00  0.00     0.420 C 
ATOM     16  F   UNL d   1       0.999  -0.446   0.660  0.00  0.00    -0.166 F 
ATOM     17  F   UNL d   1       0.469  -1.879   2.179  0.00  0.00    -0.166 F 
ATOM     18  F   UNL d   1      -0.980  -1.344   0.661  0.00  0.00    -0.166 F 
ENDBRANCH   9  15
BRANCH  11  19
ATOM     19  N   UNL d   1      -2.948   0.249   5.354  0.00  0.00    -0.114 N 
ATOM     20  O   UNL d   1      -3.300  -0.939   5.349  0.00  0.00    -0.532 OA
ATOM     21  O   UNL d   1      -3.340   1.097   6.168  0.00  0.00    -0.532 OA
ENDBRANCH  11  19
ENDBRANCH   7   8
ENDBRANCH   2   7
BRANCH   1  22
ATOM     22  N   UNL d   1       0.253   3.088  -1.797  0.00  0.00    -0.322 N 
ATOM     23  C   UNL d   1      -0.607   1.998  -1.919  0.00  0.00     0.256 C 
ATOM     24  O   UNL d   1      -1.417   1.607  -1.093  0.00  0.00    -0.267 OA
ATOM     25  H   UNL d   1       0.556   3.461  -2.684  0.00  0.00     0.169 HD
BRANCH  23  26
ATOM     26  C   UNL d   1      -0.580   1.413  -3.301  0.00  0.00     0.032 A 
ATOM     27  C   UNL d   1       0.629   1.241  -3.982  0.00  0.00     0.017 A 
ATOM     28  C   UNL d   1       0.634   0.936  -5.348  0.00  0.00     0.009 A 
ATOM     29  C   UNL d   1      -0.561   0.805  -6.082  0.00  0.00    -0.051 A 
ATOM     30  C   UNL d   1      -1.764   0.877  -5.352  0.00  0.00     0.009 A 
ATOM     31  C   UNL d   1      -1.779   1.178  -3.980  0.00  0.00     0.017 A 
BRANCH  29  32
ATOM     32  C   UNL d   1      -0.520   0.676  -7.620  0.00  0.00    -0.024 C 
ATOM     33  C   UNL d   1      -1.918   0.605  -8.276  0.00  0.00     0.019 C 
ATOM     34  C   UNL d   1       0.186   1.921  -8.210  0.00  0.00     0.019 C 
ATOM     35  C   UNL d   1       0.259  -0.581  -8.058  0.00  0.00     0.019 C 
ENDBRANCH  29  32
ENDBRANCH  23  26
ENDBRANCH   1  22
TORSDOF 7
