REMARK  6 active torsions:
REMARK  status: ('A' for Active; 'I' for Inactive)
REMARK    1  A    between atoms: C_6  and  C_1 
REMARK    2  A    between atoms: C_5  and  C_2 
REMARK    3  A    between atoms: N_3  and  N_7 
REMARK    4  A    between atoms: O_15  and  C_5 
REMARK    5  A    between atoms: N_7  and  C_14 
REMARK    6  A    between atoms: C_19  and  O_15 
ROOT
ATOM      1  N   UNL d   1      -2.672   4.277  -2.720  0.00  0.00    -0.301 N 
ATOM      2  H   UNL d   1      -3.664   4.387  -2.502  0.00  0.00     0.187 HD
ENDROOT
BRANCH   1   3
ATOM      3  N   UNL d   1      -1.871   5.351  -2.466  0.00  0.00    -0.299 N 
ATOM      4  C   UNL d   1      -2.272   6.504  -2.919  0.00  0.00     0.097 C 
ATOM      5  C   UNL d   1      -3.512   6.774  -3.733  0.00  0.00     0.076 C 
ATOM      6  HN  UNL d   1      -1.000   5.255  -1.945  1.00  0.00     0.186 HD
BRANCH   4   7
ATOM      7  C   UNL d   1      -1.431   7.742  -2.642  0.00  0.00     0.306 C 
ATOM      8  O   UNL d   1      -1.945   8.835  -2.480  0.00  0.00    -0.258 OA
BRANCH   7   9
ATOM      9  O   UNL d   1      -0.123   7.453  -2.776  0.00  0.00    -0.317 OA
BRANCH   9  10
ATOM     10  C   UNL d   1       0.746   8.582  -2.918  0.00  0.00     0.175 C 
ATOM     11  C   UNL d   1       0.950   8.824  -4.402  0.00  0.00     0.034 C 
ENDBRANCH   9  10
ENDBRANCH   7   9
ENDBRANCH   4   7
ENDBRANCH   1   3
BRANCH   1  12
ATOM     12  C   UNL d   1      -2.207   3.002  -2.319  0.00  0.00     0.048 A 
ATOM     13  C   UNL d   1      -3.133   1.965  -2.147  0.00  0.00     0.031 A 
ATOM     14  C   UNL d   1      -2.717   0.679  -1.790  0.00  0.00     0.018 A 
ATOM     15  C   UNL d   1      -1.356   0.390  -1.629  0.00  0.00     0.048 A 
ATOM     16  C   UNL d   1      -0.422   1.413  -1.846  0.00  0.00     0.018 A 
ATOM     17  C   UNL d   1      -0.845   2.701  -2.196  0.00  0.00     0.031 A 
BRANCH  15  18
ATOM     18  C   UNL d   1      -0.928  -1.000  -1.228  0.00  0.00     0.417 C 
ATOM     19  F   UNL d   1       0.422  -1.167  -1.178  0.00  0.00    -0.166 F 
ATOM     20  F   UNL d   1      -1.391  -1.954  -2.084  0.00  0.00    -0.166 F 
ATOM     21  F   UNL d   1      -1.394  -1.351   0.003  0.00  0.00    -0.166 F 
ENDBRANCH  15  18
ENDBRANCH   1  12
TORSDOF 6
