REMARK  2 active torsions:
REMARK  status: ('A' for Active; 'I' for Inactive)
REMARK    1  A    between atoms: N_8  and  C_3 
REMARK    2  A    between atoms: N_15  and  C_13 
ROOT
ATOM      1  N   UNL d   1       0.908  -0.634  -0.078  0.00  0.00    -0.273 N 
ATOM      2  C   UNL d   1       1.362   0.649  -0.042  0.00  0.00     0.159 A 
ATOM      3  C   UNL d   1       1.884  -1.632  -0.102  0.00  0.00     0.143 A 
ATOM      4  C   UNL d   1       3.117  -1.070  -0.047  0.00  0.00     0.133 A 
ATOM      5  N   UNL d   1       0.425   1.554  -0.015  0.00  0.00    -0.334 N 
ATOM      6  HN  UNL d   1       0.523   2.569   0.006  1.00  0.00     0.168 HD
ATOM      7  S   UNL d   1       3.090   0.712  -0.024  0.00  0.00    -0.038 SA
ATOM      8  C   UNL d   1      -0.464  -0.574  -0.059  0.00  0.00     0.070 A 
ATOM      9  C   UNL d   1      -0.734   0.801  -0.022  0.00  0.00     0.061 A 
ATOM     10  C   UNL d   1       4.342  -1.778   0.011  0.00  0.00     0.111 C 
ATOM     11  N   UNL d   1       5.343  -2.368   0.025  0.00  0.00    -0.191 NA
ATOM     12  C   UNL d   1      -1.469  -1.548  -0.061  0.00  0.00     0.032 A 
ATOM     13  C   UNL d   1      -2.071   1.230   0.008  0.00  0.00     0.032 A 
ATOM     14  C   UNL d   1      -2.792  -1.094  -0.027  0.00  0.00     0.002 A 
ATOM     15  C   UNL d   1      -3.091   0.270   0.005  0.00  0.00     0.002 A 
ENDROOT
BRANCH   3  16
ATOM     16  N   UNL d   1       1.512  -2.955  -0.090  0.00  0.00    -0.337 N 
ATOM     17  C   UNL d   1       2.104  -3.798  -0.871  0.00  0.00     0.180 C 
ATOM     18  HN  UNL d   1       0.770  -3.272   0.535  1.00  0.00     0.168 HD
BRANCH  17  19
ATOM     19  N   UNL d   1       1.749  -5.115  -1.003  0.00  0.00    -0.373 N 
ATOM     20  C   UNL d   1       0.656  -5.703  -0.218  0.00  0.00     0.149 C 
ATOM     21  C   UNL d   1      -0.134  -6.676  -1.103  0.00  0.00     0.187 C 
ATOM     22  O   UNL d   1       0.722  -7.697  -1.640  0.00  0.00    -0.388 OA
ATOM     23  C   UNL d   1       1.757  -7.110  -2.446  0.00  0.00     0.187 C 
ATOM     24  C   UNL d   1       2.612  -6.114  -1.644  0.00  0.00     0.149 C 
ENDBRANCH  17  19
ENDBRANCH   3  16
TORSDOF 2
