REMARK  8 active torsions:
REMARK  status: ('A' for Active; 'I' for Inactive)
REMARK    1  A    between atoms: O_9  and  C_1 
REMARK    2  A    between atoms: C_2  and  O_8 
REMARK    3  A    between atoms: C_3  and  C_5 
REMARK       I    between atoms: N_6  and  C_3 
REMARK       I    between atoms: C_4  and  N_7 
REMARK    4  A    between atoms: C_5  and  C_4 
REMARK    5  A    between atoms: C_11  and  N_6 
REMARK    6  A    between atoms: N_7  and  C_10 
REMARK    7  A    between atoms: O_8  and  C_13 
REMARK    8  A    between atoms: C_12  and  O_9 
ROOT
ATOM      1  C   UNL d   1       1.802   0.604  -0.470  0.00  0.00     0.206 C 
ENDROOT
BRANCH   1   2
ATOM      2  C   UNL d   1       1.053   1.862  -0.079  0.00  0.00     0.231 C 
ATOM      3  N   UNL d   1       0.812   2.710  -1.143  0.00  0.00    -0.324 N 
ATOM      4  H   UNL d   1       1.349   2.518  -1.982  0.00  0.00     0.169 HD
ATOM      5  O   UNL d   1       0.738   2.054   1.092  0.00  0.00    -0.273 OA
BRANCH   3   6
ATOM      6  C   UNL d   1       0.046   3.903  -1.133  0.00  0.00     0.068 A 
ATOM      7  C   UNL d   1       0.099   4.800  -2.221  0.00  0.00     0.105 A 
ATOM      8  C   UNL d   1      -0.568   6.033  -2.149  0.00  0.00     0.039 A 
ATOM      9  C   UNL d   1      -1.339   6.364  -1.038  0.00  0.00     0.003 A 
ATOM     10  C   UNL d   1      -1.450   5.460   0.010  0.00  0.00     0.002 A 
ATOM     11  C   UNL d   1      -0.766   4.241  -0.041  0.00  0.00     0.032 A 
BRANCH   7  12
ATOM     12  O   UNL d   1       0.848   4.653  -3.358  0.00  0.00    -0.253 OA
BRANCH  12  13
ATOM     13  C   UNL d   1       0.678   3.438  -4.067  0.00  0.00     0.530 C 
ATOM     14  F   UNL d   1      -0.550   2.907  -3.912  0.00  0.00    -0.144 F 
ATOM     15  F   UNL d   1       0.895   3.657  -5.380  0.00  0.00    -0.144 F 
ATOM     16  F   UNL d   1       1.598   2.544  -3.631  0.00  0.00    -0.144 F 
ENDBRANCH  12  13
ENDBRANCH   7  12
ENDBRANCH   3   6
ENDBRANCH   1   2
BRANCH   1  17
ATOM     17  C   UNL d   1       2.969   0.208   0.407  0.00  0.00     0.231 C 
ATOM     18  N   UNL d   1       3.081   0.883   1.600  0.00  0.00    -0.324 N 
ATOM     19  H   UNL d   1       2.300   1.489   1.856  0.00  0.00     0.169 HD
ATOM     20  O   UNL d   1       3.715  -0.698   0.030  0.00  0.00    -0.273 OA
BRANCH  18  21
ATOM     21  C   UNL d   1       4.055   0.718   2.606  0.00  0.00     0.068 A 
ATOM     22  C   UNL d   1       3.797   1.300   3.859  0.00  0.00     0.105 A 
ATOM     23  C   UNL d   1       4.737   1.233   4.889  0.00  0.00     0.039 A 
ATOM     24  C   UNL d   1       5.936   0.551   4.681  0.00  0.00     0.003 A 
ATOM     25  C   UNL d   1       6.193  -0.048   3.449  0.00  0.00     0.002 A 
ATOM     26  C   UNL d   1       5.255   0.034   2.413  0.00  0.00     0.032 A 
BRANCH  22  27
ATOM     27  O   UNL d   1       2.652   2.029   4.057  0.00  0.00    -0.253 OA
BRANCH  27  28
ATOM     28  C   UNL d   1       1.566   1.204   4.475  0.00  0.00     0.530 C 
ATOM     29  F   UNL d   1       1.408   0.123   3.683  0.00  0.00    -0.144 F 
ATOM     30  F   UNL d   1       0.429   1.933   4.417  0.00  0.00    -0.144 F 
ATOM     31  F   UNL d   1       1.742   0.801   5.752  0.00  0.00    -0.144 F 
ENDBRANCH  27  28
ENDBRANCH  22  27
ENDBRANCH  18  21
ENDBRANCH   1  17
TORSDOF 8
