REMARK  7 active torsions:
REMARK  status: ('A' for Active; 'I' for Inactive)
REMARK    1  A    between atoms: C_5  and  C_1 
REMARK    2  A    between atoms: C_14  and  N_2 
REMARK    3  A    between atoms: S_16  and  C_6 
REMARK    4  A    between atoms: C_11  and  C_12 
REMARK    5  A    between atoms: C_20  and  S_16 
REMARK    6  A    between atoms: C_18  and  C_20 
REMARK    7  A    between atoms: C_19  and  C_18 
ROOT
ATOM      1  C   UNL d   1      -0.224  -1.382   0.081  0.00  0.00     0.158 A 
ATOM      2  N   UNL d   1       1.093  -0.905  -0.053  0.00  0.00    -0.274 N 
ATOM      3  N   UNL d   1      -1.051  -0.348   0.025  0.00  0.00    -0.281 N 
ATOM      4  HN  UNL d   1      -2.066  -0.402   0.105  1.00  0.00     0.188 HD
ATOM      5  C   UNL d   1       0.934   0.470  -0.214  0.00  0.00     0.168 A 
ATOM      6  N   UNL d   1      -0.336   0.801  -0.155  0.00  0.00    -0.278 N 
ATOM      7  HN  UNL d   1      -0.718   1.744  -0.231  1.00  0.00     0.189 HD
ENDROOT
BRANCH   1   8
ATOM      8  C   UNL d   1      -0.654  -2.765   0.356  0.00  0.00     0.100 A 
ATOM      9  N   UNL d   1       0.202  -3.487   1.130  0.00  0.00    -0.361 N 
ATOM     10  C   UNL d   1      -0.075  -4.792   1.367  0.00  0.00     0.104 A 
ATOM     11  HN  UNL d   1       1.037  -3.053   1.524  1.00  0.00     0.165 HD
ATOM     12  C   UNL d   1      -1.218  -5.428   0.917  0.00  0.00     0.065 A 
ATOM     13  C   UNL d   1      -2.121  -4.668   0.170  0.00  0.00     0.043 A 
ATOM     14  C   UNL d   1      -1.841  -3.328  -0.128  0.00  0.00     0.065 A 
ATOM     15 CL   UNL d   1      -2.974  -2.483  -1.115  0.00  0.00    -0.082 Cl
BRANCH  12  16
ATOM     16  C   UNL d   1      -1.427  -6.879   1.224  0.00  0.00     0.418 C 
ATOM     17  F   UNL d   1      -2.643  -7.346   0.832  0.00  0.00    -0.166 F 
ATOM     18  F   UNL d   1      -0.505  -7.673   0.614  0.00  0.00    -0.166 F 
ATOM     19  F   UNL d   1      -1.331  -7.149   2.554  0.00  0.00    -0.166 F 
ENDBRANCH  12  16
ENDBRANCH   1   8
BRANCH   2  20
ATOM     20  C   UNL d   1       2.310  -1.655   0.009  0.00  0.00     0.043 A 
ATOM     21  C   UNL d   1       2.391  -2.934  -0.562  0.00  0.00     0.032 A 
ATOM     22  C   UNL d   1       3.498  -3.752  -0.312  0.00  0.00     0.026 A 
ATOM     23  C   UNL d   1       4.549  -3.276   0.464  0.00  0.00     0.034 A 
ATOM     24  C   UNL d   1       4.519  -1.979   0.966  0.00  0.00     0.026 A 
ATOM     25 CL   UNL d   1       5.877  -4.307   0.832  0.00  0.00    -0.084 Cl
ATOM     26  C   UNL d   1       3.401  -1.167   0.742  0.00  0.00     0.032 A 
ENDBRANCH   2  20
BRANCH   5  27
ATOM     27  S   UNL d   1       2.198   1.577  -0.660  0.00  0.00    -0.085 SA
BRANCH  27  28
ATOM     28  C   UNL d   1       1.340   3.194  -0.660  0.00  0.00     0.161 C 
BRANCH  28  29
ATOM     29  C   UNL d   1       2.288   4.311  -1.116  0.00  0.00     0.144 C 
ATOM     30  O   UNL d   1       3.481   4.104  -1.343  0.00  0.00    -0.296 OA
BRANCH  29  31
ATOM     31  C   UNL d   1       1.749   5.763  -1.198  0.00  0.00     0.010 C 
ATOM     32  C   UNL d   1       1.978   6.441   0.159  0.00  0.00     0.022 C 
ATOM     33  C   UNL d   1       2.546   6.518  -2.281  0.00  0.00     0.022 C 
ATOM     34  C   UNL d   1       0.262   5.839  -1.564  0.00  0.00     0.022 C 
ENDBRANCH  29  31
ENDBRANCH  28  29
ENDBRANCH  27  28
ENDBRANCH   5  27
TORSDOF 7
