REMARK  2 active torsions:
REMARK  status: ('A' for Active; 'I' for Inactive)
REMARK    1  A    between atoms: N_2  and  C_1 
REMARK    2  A    between atoms: C_7  and  N_2 
ROOT
ATOM      1  C   UNL d   1      -0.650   1.658  -0.152  0.00  0.00     0.047 A 
ATOM      2  N   UNL d   1      -1.134  -1.102  -0.144  0.00  0.00    -0.359 N 
ATOM      3  HN  UNL d   1      -1.311  -2.107  -0.148  1.00  0.00     0.166 HD
ATOM      4  C   UNL d   1       0.314   0.770   0.394  0.00  0.00     0.017 A 
ATOM      5  C   UNL d   1       0.010  -0.612   0.358  0.00  0.00     0.044 A 
ATOM      6  C   UNL d   1      -1.832   1.127  -0.672  0.00  0.00     0.055 A 
ATOM      7  C   UNL d   1      -2.044  -0.240  -0.643  0.00  0.00     0.007 A 
ATOM      8  C   UNL d   1       1.533   1.181   0.989  0.00  0.00     0.016 A 
ATOM      9  C   UNL d   1       0.925  -1.516   0.884  0.00  0.00     0.030 A 
ATOM     10  C   UNL d   1      -3.338  -0.802  -1.149  0.00  0.00     0.068 C 
ATOM     11  C   UNL d   1       2.434   0.250   1.511  0.00  0.00     0.001 A 
ATOM     12  C   UNL d   1       2.129  -1.103   1.454  0.00  0.00     0.002 A 
ENDROOT
BRANCH   1  13
ATOM     13  N   UNL d   1      -0.477   3.063  -0.110  0.00  0.00    -0.355 N 
ATOM     14  H   UNL d   1       0.470   3.375  -0.275  0.00  0.00     0.166 HD
BRANCH  13  15
ATOM     15  C   UNL d   1      -1.428   4.083   0.114  0.00  0.00     0.038 A 
ATOM     16  C   UNL d   1      -1.267   5.378  -0.416  0.00  0.00    -0.035 A 
ATOM     17  C   UNL d   1      -2.264   6.351  -0.186  0.00  0.00     0.015 A 
ATOM     18  C   UNL d   1      -0.066   5.812  -1.212  0.00  0.00     0.050 C 
ATOM     19  C   UNL d   1      -3.429   6.057   0.532  0.00  0.00    -0.061 A 
ATOM     20  C   UNL d   1      -3.598   4.769   1.030  0.00  0.00     0.009 A 
ATOM     21  C   UNL d   1      -4.462   7.117   0.768  0.00  0.00     0.048 C 
ATOM     22  C   UNL d   1      -2.609   3.804   0.827  0.00  0.00     0.030 A 
ENDBRANCH  13  15
ENDBRANCH   1  13
TORSDOF 2
