REMARK  5 active torsions:
REMARK  status: ('A' for Active; 'I' for Inactive)
REMARK    1  A    between atoms: N_10  and  C_1 
REMARK    2  A    between atoms: S_12  and  C_1 
REMARK    3  A    between atoms: C_2  and  C_13 
REMARK    4  A    between atoms: C_11  and  N_3 
REMARK    5  A    between atoms: C_13  and  S_12 
ROOT
ATOM      1  C   UNL d   1       0.124  -0.941   2.830  0.00  0.00     0.143 C 
ATOM      2  N   UNL d   1      -0.880  -1.553   3.375  0.00  0.00    -0.335 N 
ATOM      3  HN  UNL d   1      -1.593  -1.965   2.774  1.00  0.00     0.168 HD
ENDROOT
BRANCH   1   4
ATOM      4  N   UNL d   1       1.161  -0.297   3.475  0.00  0.00    -0.358 N 
ATOM      5  C   UNL d   1       2.568  -0.550   3.128  0.00  0.00     0.151 C 
ATOM      6  C   UNL d   1       3.441  -0.293   4.367  0.00  0.00     0.187 C 
ATOM      7  O   UNL d   1       3.265   1.046   4.857  0.00  0.00    -0.388 OA
ATOM      8  C   UNL d   1       1.891   1.274   5.218  0.00  0.00     0.187 C 
ATOM      9  C   UNL d   1       0.950   1.050   4.021  0.00  0.00     0.151 C 
ENDBRANCH   1   4
BRANCH   1  10
ATOM     10  S   UNL d   1       0.203  -0.966   1.063  0.00  0.00    -0.089 SA
BRANCH  10  11
ATOM     11  C   UNL d   1      -1.570  -0.810   0.645  0.00  0.00     0.122 C 
BRANCH  11  12
ATOM     12  C   UNL d   1      -1.810  -0.799  -0.871  0.00  0.00    -0.035 C 
ATOM     13  C   UNL d   1      -2.417  -1.915  -1.510  0.00  0.00    -0.048 C 
ATOM     14  C   UNL d   1      -2.397  -2.019  -2.928  0.00  0.00    -0.049 C 
ATOM     15  C   UNL d   1      -3.085  -3.007  -0.701  0.00  0.00     0.049 C 
ATOM     16  C   UNL d   1      -2.873  -3.276  -3.630  0.00  0.00     0.049 C 
ATOM     17  C   UNL d   1      -1.939  -0.930  -3.714  0.00  0.00    -0.049 C 
ATOM     18  C   UNL d   1      -1.468   0.246  -3.083  0.00  0.00    -0.049 C 
ATOM     19  C   UNL d   1      -1.962  -1.063  -5.225  0.00  0.00     0.049 C 
ATOM     20  C   UNL d   1      -1.397   0.314  -1.663  0.00  0.00    -0.048 C 
ATOM     21  C   UNL d   1      -1.026   1.411  -3.943  0.00  0.00     0.049 C 
ATOM     22  C   UNL d   1      -0.883   1.584  -1.021  0.00  0.00     0.049 C 
ENDBRANCH  11  12
ENDBRANCH  10  11
ENDBRANCH   1  10
BRANCH   2  23
ATOM     23  C   UNL d   1      -1.015  -1.666   4.777  0.00  0.00     0.057 A 
ATOM     24  C   UNL d   1       0.055  -2.061   5.595  0.00  0.00     0.055 A 
ATOM     25  C   UNL d   1      -0.090  -2.147   6.979  0.00  0.00     0.036 A 
ATOM     26 CL   UNL d   1       1.274  -2.534   7.954  0.00  0.00    -0.084 Cl
ATOM     27  C   UNL d   1      -1.322  -1.908   7.577  0.00  0.00     0.026 A 
ATOM     28  C   UNL d   1      -2.417  -1.579   6.778  0.00  0.00     0.028 A 
ATOM     29  C   UNL d   1      -2.264  -1.456   5.391  0.00  0.00     0.060 A 
ATOM     30 CL   UNL d   1      -3.660  -1.041   4.458  0.00  0.00    -0.082 Cl
ENDBRANCH   2  23
TORSDOF 5
