REMARK  3 active torsions:
REMARK  status: ('A' for Active; 'I' for Inactive)
REMARK    1  A    between atoms: C_6  and  C_1 
REMARK    2  A    between atoms: N_13  and  N_7 
REMARK    3  A    between atoms: C_12  and  N_13 
ROOT
ATOM      1  C   UNL d   1       3.974   0.061   0.082  0.00  0.00     0.126 C 
ATOM      2  N   UNL d   1       4.659  -1.036   0.038  0.00  0.00    -0.309 N 
ATOM      3  HN  UNL d   1       4.202  -1.947   0.003  1.00  0.00     0.186 HD
ENDROOT
BRANCH   1   4
ATOM      4  C   UNL d   1       2.524   0.027   0.071  0.00  0.00     0.029 A 
ATOM      5  S   UNL d   1       1.713   1.532   0.080  0.00  0.00    -0.088 SA
ATOM      6  C   UNL d   1       0.160   0.803   0.048  0.00  0.00     0.016 A 
ATOM      7  C   UNL d   1      -1.088   1.459   0.035  0.00  0.00     0.021 A 
ATOM      8  C   UNL d   1       0.257  -0.588   0.035  0.00  0.00    -0.010 A 
ATOM      9  C   UNL d   1      -2.257   0.694   0.011  0.00  0.00     0.025 A 
ATOM     10  C   UNL d   1      -2.184  -0.690  -0.000  0.00  0.00     0.035 A 
ATOM     11  C   UNL d   1      -0.949  -1.338   0.011  0.00  0.00     0.037 A 
ATOM     12 CL   UNL d   1      -3.631  -1.625  -0.028  0.00  0.00    -0.084 Cl
ATOM     13  C   UNL d   1       1.636  -1.040   0.049  0.00  0.00    -0.032 A 
ATOM     14  C   UNL d   1       1.974  -2.501   0.037  0.00  0.00     0.050 C 
ENDBRANCH   1   4
BRANCH   2  15
ATOM     15  N   UNL d   1       6.006  -0.922   0.041  0.00  0.00    -0.286 N 
ATOM     16  H   UNL d   1       6.527  -0.073   0.236  0.00  0.00     0.188 HD
BRANCH  15  17
ATOM     17  C   UNL d   1       6.814  -2.067   0.009  0.00  0.00     0.119 A 
ATOM     18  N   UNL d   1       8.145  -1.882   0.148  0.00  0.00    -0.351 N 
ATOM     19  C   UNL d   1       8.937  -2.979   0.101  0.00  0.00     0.089 A 
ATOM     20  HN  UNL d   1       8.539  -0.951   0.284  1.00  0.00     0.166 HD
ATOM     21  C   UNL d   1       8.470  -4.271  -0.078  0.00  0.00     0.017 A 
ATOM     22  C   UNL d   1       7.103  -4.452  -0.219  0.00  0.00     0.005 A 
ATOM     23  C   UNL d   1       6.269  -3.337  -0.178  0.00  0.00     0.050 A 
ENDBRANCH  15  17
ENDBRANCH   2  15
TORSDOF 3
