REMARK  4 active torsions:
REMARK  status: ('A' for Active; 'I' for Inactive)
REMARK    1  A    between atoms: C_3  and  C_1 
REMARK    2  A    between atoms: C_5  and  C_1 
REMARK    3  A    between atoms: C_4  and  C_3 
REMARK    4  A    between atoms: N_6  and  C_5 
ROOT
ATOM      1  C   UNL d   1       0.906  -0.027  -0.022  0.00  0.00     0.096 C 
ATOM      2  C   UNL d   1       0.237  -0.029   1.153  0.00  0.00     0.060 C 
ATOM      3  S   UNL d   1      -1.503  -0.141   1.322  0.00  0.00    -0.121 SA
ATOM      4  S   UNL d   1       1.066   0.033   2.703  0.00  0.00    -0.121 SA
ATOM      5  C   UNL d   1      -0.214  -0.887   3.601  0.00  0.00     0.090 C 
ATOM      6  C   UNL d   1      -1.561  -0.379   3.123  0.00  0.00     0.090 C 
ENDROOT
BRANCH   1   7
ATOM      7  C   UNL d   1       0.242  -0.206  -1.353  0.00  0.00     0.174 C 
ATOM      8  O   UNL d   1      -0.837  -0.771  -1.495  0.00  0.00    -0.291 OA
BRANCH   7   9
ATOM      9  C   UNL d   1       0.985   0.253  -2.568  0.00  0.00     0.061 A 
ATOM     10  C   UNL d   1       0.230   0.532  -3.851  0.00  0.00     0.013 A 
ATOM     11  C   UNL d   1       1.095  -0.689  -3.749  0.00  0.00     0.013 A 
ENDBRANCH   7   9
ENDBRANCH   1   7
BRANCH   1  12
ATOM     12  C   UNL d   1       2.426  -0.027  -0.022  0.00  0.00    -0.031 C 
BRANCH  12  13
ATOM     13  N   UNL d   1       3.687  -0.027  -0.022  0.00  0.00    -0.365 N 
ATOM     14  HN2 UNL d   1       2.667  -0.027  -0.022  1.00  0.00     0.165 HD
ATOM     15  HN1 UNL d   1       4.707  -0.027  -0.022  1.00  0.00     0.165 HD
ENDBRANCH  12  13
ENDBRANCH   1  12
TORSDOF 4
