REMARK  7 active torsions:
REMARK  status: ('A' for Active; 'I' for Inactive)
REMARK    1  A    between atoms: C_2  and  C_1 
REMARK       I    between atoms: N_3  and  C_2 
REMARK    2  A    between atoms: C_10  and  N_3 
REMARK    3  A    between atoms: C_4  and  C_12 
REMARK    4  A    between atoms: O_14  and  C_4 
REMARK    5  A    between atoms: O_11  and  C_13 
REMARK    6  A    between atoms: C_12  and  O_11 
REMARK    7  A    between atoms: C_19  and  O_14 
ROOT
ATOM      1  C   UNL d   1      -0.921  -0.566   2.194  0.00  0.00     0.035 A 
ATOM      2  C   UNL d   1      -2.026   1.294   4.000  0.00  0.00     0.069 A 
ATOM      3  C   UNL d   1      -1.427   0.652   1.741  0.00  0.00     0.032 A 
ATOM      4  C   UNL d   1      -1.001  -0.858   3.562  0.00  0.00     0.032 A 
ATOM      5  C   UNL d   1      -1.557   0.064   4.455  0.00  0.00     0.039 A 
ATOM      6  C   UNL d   1      -1.978   1.575   2.636  0.00  0.00     0.039 A 
ENDROOT
BRANCH   1   7
ATOM      7  N   UNL d   1      -0.322  -1.531   1.362  0.00  0.00    -0.323 N 
ATOM      8  C   UNL d   1      -0.086  -1.454  -0.010  0.00  0.00     0.277 C 
ATOM      9  O   UNL d   1      -0.429  -0.499  -0.710  0.00  0.00    -0.268 OA
ATOM     10  H   UNL d   1       0.007  -2.372   1.832  0.00  0.00     0.169 HD
BRANCH   8  11
ATOM     11  C   UNL d   1       0.647  -2.678  -0.632  0.00  0.00     0.269 C 
ATOM     12 CL   UNL d   1       1.119  -3.878   0.613  0.00  0.00    -0.073 Cl
ATOM     13 CL   UNL d   1       2.117  -2.096  -1.455  0.00  0.00    -0.073 Cl
ATOM     14 CL   UNL d   1      -0.455  -3.456  -1.796  0.00  0.00    -0.073 Cl
ENDBRANCH   8  11
ENDBRANCH   1   7
BRANCH   2  15
ATOM     15  O   UNL d   1      -2.546   2.117   4.957  0.00  0.00    -0.342 OA
BRANCH  15  16
ATOM     16  C   UNL d   1      -2.467   3.511   4.681  0.00  0.00     0.286 C 
BRANCH  16  17
ATOM     17  C   UNL d   1      -3.163   4.330   5.755  0.00  0.00     0.283 C 
ATOM     18  O   UNL d   1      -3.752   3.893   6.732  0.00  0.00    -0.263 OA
BRANCH  17  19
ATOM     19  O   UNL d   1      -3.094   5.651   5.403  0.00  0.00    -0.320 OA
BRANCH  19  20
ATOM     20  C   UNL d   1      -3.964   6.532   6.127  0.00  0.00     0.174 C 
ATOM     21  C   UNL d   1      -5.300   6.587   5.408  0.00  0.00     0.034 C 
ENDBRANCH  19  20
ENDBRANCH  17  19
ENDBRANCH  16  17
ENDBRANCH  15  16
ENDBRANCH   2  15
TORSDOF 7
