REMARK  1 active torsions:
REMARK  status: ('A' for Active; 'I' for Inactive)
REMARK    1  A    between atoms: O_8  and  C_4 
ROOT
ATOM      1  C   UNL d   1      -2.003  -0.036  -0.003  0.00  0.00     0.250 A 
ATOM      2  C   UNL d   1      -1.470  -1.417   0.002  0.00  0.00     0.112 A 
ATOM      3  N   UNL d   1      -1.086   1.005   0.003  0.00  0.00    -0.318 N 
ATOM      4  C   UNL d   1      -0.159  -1.662  -0.001  0.00  0.00     0.083 A 
ATOM      5  C   UNL d   1       0.325   0.770   0.003  0.00  0.00     0.050 A 
ATOM      6  C   UNL d   1       0.802  -0.554  -0.008  0.00  0.00     0.024 A 
ATOM      7  O   UNL d   1      -3.225   0.106  -0.011  0.00  0.00    -0.268 OA
ATOM      8  C   UNL d   1      -1.594   2.368   0.006  0.00  0.00     0.159 C 
ATOM      9  C   UNL d   1       2.187  -0.792  -0.017  0.00  0.00     0.016 A 
ATOM     10  C   UNL d   1       1.251   1.826   0.014  0.00  0.00     0.031 A 
ATOM     11  C   UNL d   1       3.093   0.267  -0.005  0.00  0.00     0.001 A 
ATOM     12  C   UNL d   1       2.625   1.575   0.014  0.00  0.00     0.002 A 
ENDROOT
BRANCH   4  13
ATOM     13  O   UNL d   1       0.365  -2.938   0.009  0.00  0.00    -0.360 OA
ATOM     14  H   UNL d   1      -0.367  -3.577   0.028  0.00  0.00     0.217 HD
ENDBRANCH   4  13
TORSDOF 1
