REMARK  5 active torsions:
REMARK  status: ('A' for Active; 'I' for Inactive)
REMARK    1  A    between atoms: N_2  and  C_4 
REMARK    2  A    between atoms: C_8  and  C_5 
REMARK       I    between atoms: N_12  and  C_8 
REMARK    3  A    between atoms: C_14  and  N_12 
REMARK    4  A    between atoms: C_18  and  C_14 
REMARK    5  A    between atoms: C_16  and  C_18 
ROOT
ATOM      1  N   UNL d   1      -1.587  -1.065   0.031  0.00  0.00    -0.349 N 
ATOM      2  C   UNL d   1      -0.267  -0.676   0.149  0.00  0.00     0.076 A 
ATOM      3  C   UNL d   1       0.921  -1.428   0.262  0.00  0.00     0.130 A 
ATOM      4  C   UNL d   1      -2.425   0.029  -0.051  0.00  0.00     0.102 A 
ATOM      5  C   UNL d   1      -1.610   1.146   0.012  0.00  0.00     0.049 A 
ATOM      6  C   UNL d   1      -0.262   0.718   0.140  0.00  0.00    -0.005 A 
ATOM      7  C   UNL d   1       2.134  -0.720   0.372  0.00  0.00     0.038 A 
ATOM      8  C   UNL d   1       0.965   1.401   0.247  0.00  0.00     0.014 A 
ATOM      9  C   UNL d   1       2.153   0.674   0.364  0.00  0.00     0.003 A 
ATOM     10  H   UNL d   1      -1.909  -2.028   0.006  0.00  0.00     0.166 HD
ENDROOT
BRANCH   4  11
ATOM     11  C   UNL d   1      -3.860  -0.116  -0.182  0.00  0.00     0.268 C 
ATOM     12  O   UNL d   1      -4.404  -1.213  -0.235  0.00  0.00    -0.266 OA
ATOM     13  N   UNL d   1      -4.564   1.066  -0.236  0.00  0.00    -0.355 N 
ATOM     14  H   UNL d   1      -4.085   1.930  -0.026  0.00  0.00     0.162 HD
BRANCH  13  15
ATOM     15  C   UNL d   1      -6.013   1.076  -0.267  0.00  0.00     0.127 C 
BRANCH  15  16
ATOM     16  C   UNL d   1      -6.600   2.490  -0.346  0.00  0.00     0.058 C 
BRANCH  16  17
ATOM     17  C   UNL d   1      -6.341   3.348   0.874  0.00  0.00    -0.057 A 
ATOM     18  C   UNL d   1      -5.711   4.594   0.744  0.00  0.00     0.007 A 
ATOM     19  C   UNL d   1      -5.509   5.408   1.862  0.00  0.00     0.001 A 
ATOM     20  C   UNL d   1      -5.936   4.988   3.119  0.00  0.00     0.000 A 
ATOM     21  C   UNL d   1      -6.568   3.755   3.260  0.00  0.00     0.001 A 
ATOM     22  C   UNL d   1      -6.774   2.942   2.144  0.00  0.00     0.007 A 
ENDBRANCH  16  17
ENDBRANCH  15  16
ENDBRANCH  13  15
ENDBRANCH   4  11
BRANCH   3  23
ATOM     23  N   UNL d   1       0.953  -2.895   0.271  0.00  0.00    -0.113 N 
ATOM     24  O   UNL d   1      -0.134  -3.486   0.160  0.00  0.00    -0.532 OA
ATOM     25  O   UNL d   1       2.051  -3.456   0.388  0.00  0.00    -0.532 OA
ENDBRANCH   3  23
TORSDOF 5
