REMARK  1 active torsions:
REMARK  status: ('A' for Active; 'I' for Inactive)
REMARK    1  A    between atoms: C_8  and  C_12 
ROOT
ATOM      1  C   UNL d   1       2.472   0.022  -0.033  0.00  0.00     0.147 A 
ATOM      2  N   UNL d   1       1.770   0.212   1.061  0.00  0.00    -0.334 N 
ATOM      3  HN  UNL d   1       2.178   0.439   1.968  1.00  0.00     0.168 HD
ATOM      4  C   UNL d   1       0.407   0.067   0.838  0.00  0.00     0.073 A 
ATOM      5  S   UNL d   1       1.497  -0.338  -1.418  0.00  0.00    -0.052 SA
ATOM      6  C   UNL d   1       0.066  -0.225  -0.483  0.00  0.00     0.038 A 
ATOM      7  N   UNL d   1       3.832   0.131  -0.084  0.00  0.00    -0.361 N 
ATOM      8  C   UNL d   1      -0.653   0.180   1.764  0.00  0.00     0.063 A 
ATOM      9  C   UNL d   1      -1.268  -0.386  -0.898  0.00  0.00     0.045 A 
ATOM     10  C   UNL d   1      -1.985   0.023   1.387  0.00  0.00     0.050 A 
ATOM     11  C   UNL d   1       6.360  -1.037   0.672  0.00  0.00     0.096 C 
ATOM     12  C   UNL d   1      -2.279  -0.254   0.058  0.00  0.00     0.037 A 
ATOM     13  C   UNL d   1       4.646  -0.486  -1.121  0.00  0.00     0.125 C 
ATOM     14  C   UNL d   1       4.551   0.725   1.042  0.00  0.00     0.125 C 
ATOM     15  C   UNL d   1       5.508  -1.579  -0.486  0.00  0.00     0.033 C 
ATOM     16  C   UNL d   1       5.454  -0.326   1.694  0.00  0.00     0.033 C 
ATOM     17 CL   UNL d   1      -0.218   0.517   3.384  0.00  0.00    -0.082 Cl
ATOM     18 CL   UNL d   1      -3.920  -0.440  -0.428  0.00  0.00    -0.084 Cl
ENDROOT
BRANCH  11  19
ATOM     19  C   UNL d   1       7.510  -0.151   0.187  0.00  0.00     0.391 C 
ATOM     20  F   UNL d   1       7.592  -0.108  -1.161  0.00  0.00    -0.171 F 
ATOM     21  F   UNL d   1       7.414   1.121   0.626  0.00  0.00    -0.171 F 
ATOM     22  F   UNL d   1       8.691  -0.637   0.637  0.00  0.00    -0.171 F 
ENDBRANCH  11  19
TORSDOF 1
