REMARK  7 active torsions:
REMARK  status: ('A' for Active; 'I' for Inactive)
REMARK    1  A    between atoms: O_8  and  C_1 
REMARK    2  A    between atoms: C_2  and  N_7 
REMARK    3  A    between atoms: N_9  and  C_2 
REMARK    4  A    between atoms: N_7  and  N_3 
REMARK    5  A    between atoms: C_18  and  O_8 
REMARK    6  A    between atoms: C_15  and  N_9 
REMARK    7  A    between atoms: C_10  and  C_14 
ROOT
ATOM      1  C   UNL d   1      -5.670  -4.650  -1.196  0.00  0.00    -0.012 A 
ATOM      2  C   UNL d   1      -7.043  -4.730  -0.915  0.00  0.00     0.016 A 
ATOM      3  C   UNL d   1      -5.252  -4.240  -2.461  0.00  0.00     0.016 A 
ATOM      4  C   UNL d   1      -7.569  -4.042  -3.176  0.00  0.00     0.076 A 
ATOM      5  C   UNL d   1      -6.200  -3.939  -3.445  0.00  0.00     0.038 A 
ATOM      6  C   UNL d   1      -7.991  -4.401  -1.894  0.00  0.00     0.038 A 
ENDROOT
BRANCH   1   7
ATOM      7  C   UNL d   1      -4.679  -5.029  -0.144  0.00  0.00     0.032 C 
ATOM      8  N   UNL d   1      -4.962  -6.041   0.620  0.00  0.00    -0.302 N 
ATOM      9  HN  UNL d   1      -5.795  -6.604   0.445  1.00  0.00     0.186 HD
ATOM     10  C   UNL d   1      -3.384  -4.244  -0.104  0.00  0.00     0.070 C 
BRANCH   8  11
ATOM     11  N   UNL d   1      -4.132  -6.341   1.660  0.00  0.00    -0.276 N 
ATOM     12  H   UNL d   1      -3.783  -5.569   2.205  0.00  0.00     0.189 HD
BRANCH  11  13
ATOM     13  C   UNL d   1      -4.048  -7.612   2.155  0.00  0.00     0.187 C 
ATOM     14  S   UNL d   1      -4.322  -9.011   1.274  0.00  0.00    -0.040 SA
BRANCH  13  15
ATOM     15  N   UNL d   1      -3.708  -7.770   3.466  0.00  0.00    -0.358 N 
ATOM     16  H   UNL d   1      -3.667  -8.758   3.699  0.00  0.00     0.162 HD
BRANCH  15  17
ATOM     17  C   UNL d   1      -3.776  -6.852   4.622  0.00  0.00     0.021 C 
ATOM     18  C   UNL d   1      -5.124  -6.113   4.667  0.00  0.00     0.037 C 
ATOM     19  C   UNL d   1      -3.670  -7.714   5.899  0.00  0.00     0.037 C 
ATOM     20  C   UNL d   1      -2.608  -5.857   4.633  0.00  0.00     0.037 C 
ENDBRANCH  15  17
ENDBRANCH  13  15
ENDBRANCH  11  13
ENDBRANCH   8  11
ENDBRANCH   1   7
BRANCH   4  21
ATOM     21  O   UNL d   1      -8.371  -3.749  -4.255  0.00  0.00    -0.307 OA
BRANCH  21  22
ATOM     22  C   UNL d   1      -9.708  -4.075  -4.268  0.00  0.00     0.122 A 
ATOM     23  C   UNL d   1     -10.608  -3.042  -4.557  0.00  0.00     0.085 A 
ATOM     24 CL   UNL d   1     -10.096  -1.411  -4.783  0.00  0.00    -0.080 Cl
ATOM     25  C   UNL d   1     -11.955  -3.351  -4.697  0.00  0.00     0.114 A 
ATOM     26  N   UNL d   1     -12.458  -4.600  -4.567  0.00  0.00    -0.372 N 
ATOM     27  C   UNL d   1     -11.561  -5.586  -4.322  0.00  0.00     0.114 A 
ATOM     28  HN  UNL d   1     -13.457  -4.789  -4.650  1.00  0.00     0.164 HD
ATOM     29  C   UNL d   1     -10.191  -5.384  -4.187  0.00  0.00     0.085 A 
ATOM     30 CL   UNL d   1      -9.181  -6.769  -4.011  0.00  0.00    -0.080 Cl
ENDBRANCH  21  22
ENDBRANCH   4  21
TORSDOF 7
