REMARK  3 active torsions:
REMARK  status: ('A' for Active; 'I' for Inactive)
REMARK    1  A    between atoms: C_9  and  C_3 
REMARK    2  A    between atoms: C_10  and  C_7 
REMARK    3  A    between atoms: O_18  and  C_11 
ROOT
ATOM      1  C   UNL d   1      -2.081   0.399   0.197  0.00  0.00     0.027 C 
ATOM      2  C   UNL d   1      -1.619   1.743   0.656  0.00  0.00     0.194 C 
ATOM      3  C   UNL d   1      -0.967  -0.611   0.039  0.00  0.00     0.199 C 
ATOM      4  O   UNL d   1      -0.082  -0.610   1.181  0.00  0.00    -0.335 OA
ATOM      5  C   UNL d   1      -0.259   1.806   1.211  0.00  0.00     0.048 A 
ATOM      6  C   UNL d   1       0.434   0.627   1.466  0.00  0.00     0.084 A 
ATOM      7  C   UNL d   1      -3.356   0.125  -0.156  0.00  0.00     0.025 C 
ATOM      8  O   UNL d   1      -2.280   2.772   0.560  0.00  0.00    -0.287 OA
ATOM      9  C   UNL d   1       0.331   3.046   1.480  0.00  0.00     0.018 A 
ATOM     10  C   UNL d   1       1.705   0.678   2.034  0.00  0.00     0.038 A 
ATOM     11  C   UNL d   1       1.622   3.098   2.002  0.00  0.00     0.001 A 
ATOM     12  C   UNL d   1       2.305   1.915   2.287  0.00  0.00     0.003 A 
ENDROOT
BRANCH   3  13
ATOM     13  C   UNL d   1      -0.167  -0.500  -1.270  0.00  0.00    -0.024 A 
ATOM     14  C   UNL d   1      -0.465   0.449  -2.267  0.00  0.00     0.010 A 
ATOM     15  C   UNL d   1       0.317   0.556  -3.418  0.00  0.00     0.001 A 
ATOM     16  C   UNL d   1       1.400  -0.293  -3.609  0.00  0.00     0.000 A 
ATOM     17  C   UNL d   1       1.694  -1.263  -2.653  0.00  0.00     0.001 A 
ATOM     18  C   UNL d   1       0.918  -1.368  -1.495  0.00  0.00     0.010 A 
ENDBRANCH   3  13
BRANCH   7  19
ATOM     19  C   UNL d   1      -4.434   1.111  -0.258  0.00  0.00    -0.035 A 
ATOM     20  C   UNL d   1      -4.621   1.772  -1.478  0.00  0.00     0.014 A 
ATOM     21  C   UNL d   1      -5.556   2.803  -1.590  0.00  0.00     0.037 A 
ATOM     22  C   UNL d   1      -6.323   3.176  -0.487  0.00  0.00     0.068 A 
ATOM     23  C   UNL d   1      -6.163   2.488   0.720  0.00  0.00     0.037 A 
ATOM     24  C   UNL d   1      -5.220   1.460   0.840  0.00  0.00     0.014 A 
BRANCH  22  25
ATOM     25  O   UNL d   1      -7.240   4.192  -0.461  0.00  0.00    -0.356 OA
ATOM     26  C   UNL d   1      -7.388   4.941  -1.663  0.00  0.00     0.210 C 
ENDBRANCH  22  25
ENDBRANCH   7  19
TORSDOF 3
