REMARK  5 active torsions:
REMARK  status: ('A' for Active; 'I' for Inactive)
REMARK    1  A    between atoms: C_4  and  S_1 
REMARK    2  A    between atoms: N_8  and  S_1 
REMARK    3  A    between atoms: S_2  and  N_3 
REMARK    4  A    between atoms: C_7  and  S_2 
REMARK    5  A    between atoms: N_3  and  C_5 
ROOT
ATOM      1  C   UNL d   1       0.484   1.762   0.415  0.00  0.00     0.081 A 
ATOM      2  C   UNL d   1       0.721   4.166   0.362  0.00  0.00     0.050 A 
ATOM      3  C   UNL d   1       1.224   2.896   0.071  0.00  0.00     0.055 A 
ATOM      4  C   UNL d   1      -0.513   4.305   1.021  0.00  0.00    -0.035 A 
ATOM      5  C   UNL d   1      -0.776   1.884   0.999  0.00  0.00     0.026 A 
ATOM      6  C   UNL d   1      -1.263   3.151   1.315  0.00  0.00     0.010 A 
ATOM      7  C   UNL d   1      -1.031   5.635   1.496  0.00  0.00     0.050 C 
ENDROOT
BRANCH   2   8
ATOM      8  N   UNL d   1       1.540   5.290   0.074  0.00  0.00    -0.280 N 
ATOM      9  H   UNL d   1       2.426   5.390   0.563  0.00  0.00     0.179 HD
BRANCH   8  10
ATOM     10  S   UNL d   1       1.516   6.051  -1.426  0.00  0.00     0.263 S 
ATOM     11  O   UNL d   1       0.192   6.602  -1.646  0.00  0.00    -0.200 OA
ATOM     12  O   UNL d   1       2.684   6.905  -1.451  0.00  0.00    -0.200 OA
BRANCH  10  13
ATOM     13  C   UNL d   1       1.770   4.763  -2.629  0.00  0.00     0.079 A 
ATOM     14  C   UNL d   1       0.665   4.187  -3.262  0.00  0.00     0.026 A 
ATOM     15  C   UNL d   1       0.857   3.180  -4.209  0.00  0.00     0.008 A 
ATOM     16  C   UNL d   1       2.148   2.745  -4.535  0.00  0.00    -0.062 A 
ATOM     17  C   UNL d   1       3.251   3.372  -3.938  0.00  0.00     0.008 A 
ATOM     18  C   UNL d   1       2.330   1.634  -5.529  0.00  0.00     0.048 C 
ATOM     19  C   UNL d   1       3.067   4.384  -2.990  0.00  0.00     0.026 A 
ENDBRANCH  10  13
ENDBRANCH   8  10
ENDBRANCH   2   8
BRANCH   1  20
ATOM     20  S   UNL d   1       1.147   0.143   0.083  0.00  0.00     0.260 S 
ATOM     21  O   UNL d   1       2.170   0.294  -0.929  0.00  0.00    -0.200 OA
ATOM     22  O   UNL d   1       0.023  -0.747  -0.112  0.00  0.00    -0.200 OA
BRANCH  20  23
ATOM     23  N   UNL d   1       1.908  -0.266   1.551  0.00  0.00    -0.315 N 
ATOM     24  C   UNL d   1       3.136   0.469   1.895  0.00  0.00     0.162 C 
ATOM     25  C   UNL d   1       1.038  -0.527   2.710  0.00  0.00     0.162 C 
ENDBRANCH  20  23
ENDBRANCH   1  20
TORSDOF 5
