REMARK  5 active torsions:
REMARK  status: ('A' for Active; 'I' for Inactive)
REMARK    1  A    between atoms: C_8  and  N_1 
REMARK    2  A    between atoms: N_2  and  C_10 
REMARK    3  A    between atoms: C_9  and  C_8 
REMARK       I    between atoms: N_15  and  C_9 
REMARK    4  A    between atoms: N_11  and  N_15 
REMARK    5  A    between atoms: C_20  and  C_19 
ROOT
ATOM      1  C   UNL d   1       1.695  -2.610   2.557  0.00  0.00     0.249 C 
ATOM      2  N   UNL d   1       2.474  -1.612   3.138  0.00  0.00    -0.269 N 
ATOM      3  O   UNL d   1       2.008  -3.798   2.495  0.00  0.00    -0.270 OA
ATOM      4  H   UNL d   1       2.214  -0.641   2.990  0.00  0.00     0.190 HD
ENDROOT
BRANCH   1   5
ATOM      5  C   UNL d   1       0.347  -2.083   2.033  0.00  0.00     0.206 C 
BRANCH   5   6
ATOM      6  N   UNL d   1       0.372  -1.523   0.638  0.00  0.00    -0.239 NA
ATOM      7  C   UNL d   1       1.174  -0.344   0.568  0.00  0.00     0.033 A 
ATOM      8  C   UNL d   1       0.643   0.949   0.749  0.00  0.00     0.027 A 
ATOM      9  C   UNL d   1       2.537  -0.476   0.261  0.00  0.00     0.025 A 
ATOM     10  C   UNL d   1       1.488   2.066   0.713  0.00  0.00     0.021 A 
ATOM     11  S   UNL d   1      -1.101   1.218   1.003  0.00  0.00    -0.087 SA
ATOM     12  C   UNL d   1       2.849   1.911   0.447  0.00  0.00     0.001 A 
ATOM     13  C   UNL d   1       3.369   0.643   0.205  0.00  0.00     0.002 A 
ATOM     14  C   UNL d   1      -1.746  -0.260   0.235  0.00  0.00     0.027 A 
ATOM     15  C   UNL d   1      -0.994  -1.453   0.184  0.00  0.00     0.033 A 
ATOM     16  C   UNL d   1      -3.039  -0.222  -0.304  0.00  0.00     0.021 A 
ATOM     17  C   UNL d   1      -1.574  -2.595  -0.391  0.00  0.00     0.025 A 
ATOM     18  C   UNL d   1      -2.864  -2.547  -0.927  0.00  0.00     0.002 A 
ATOM     19  C   UNL d   1      -3.591  -1.360  -0.892  0.00  0.00     0.001 A 
ENDBRANCH   5   6
ENDBRANCH   1   5
BRANCH   2  20
ATOM     20  N   UNL d   1       3.519  -1.876   3.985  0.00  0.00    -0.308 N 
ATOM     21  C   UNL d   1       4.367  -0.895   4.038  0.00  0.00     0.118 C 
ATOM     22  HN  UNL d   1       3.619  -2.744   4.512  1.00  0.00     0.186 HD
BRANCH  21  23
ATOM     23  C   UNL d   1       5.412  -0.740   5.072  0.00  0.00    -0.019 A 
ATOM     24  C   UNL d   1       5.455  -1.548   6.212  0.00  0.00     0.015 A 
ATOM     25  C   UNL d   1       6.283  -1.189   7.285  0.00  0.00     0.037 A 
ATOM     26  C   UNL d   1       7.065  -0.026   7.202  0.00  0.00     0.102 A 
ATOM     27  C   UNL d   1       7.075   0.742   6.031  0.00  0.00     0.037 A 
ATOM     28  C   UNL d   1       6.249   0.380   4.966  0.00  0.00     0.015 A 
BRANCH  26  29
ATOM     29  N   UNL d   1       7.829   0.437   8.370  0.00  0.00    -0.116 N 
ATOM     30  O   UNL d   1       7.830  -0.282   9.380  0.00  0.00    -0.532 OA
ATOM     31  O   UNL d   1       8.409   1.529   8.283  0.00  0.00    -0.532 OA
ENDBRANCH  26  29
ENDBRANCH  21  23
ENDBRANCH   2  20
TORSDOF 5
