REMARK  7 active torsions:
REMARK  status: ('A' for Active; 'I' for Inactive)
REMARK    1  A    between atoms: C_2  and  C_1 
REMARK    2  A    between atoms: O_5  and  C_2 
REMARK    3  A    between atoms: N_4  and  C_3 
REMARK    4  A    between atoms: C_13  and  N_4 
REMARK    5  A    between atoms: C_9  and  O_5 
REMARK    6  A    between atoms: C_6  and  C_9 
REMARK    7  A    between atoms: C_7  and  C_6 
ROOT
ATOM      1  C   UNL d   1       1.240  -0.077  -0.167  0.00  0.00     0.066 A 
ATOM      2  C   UNL d   1       0.472  -1.259  -0.032  0.00  0.00     0.049 A 
ATOM      3  C   UNL d   1       0.589   1.172  -0.177  0.00  0.00     0.020 A 
ATOM      4  C   UNL d   1      -0.926  -1.135   0.075  0.00  0.00     0.030 A 
ATOM      5  C   UNL d   1      -0.796   1.262  -0.056  0.00  0.00     0.001 A 
ATOM      6  C   UNL d   1      -1.562   0.108   0.065  0.00  0.00     0.002 A 
ENDROOT
BRANCH   1   7
ATOM      7  C   UNL d   1       2.722  -0.132  -0.361  0.00  0.00     0.296 C 
ATOM      8  O   UNL d   1       3.333  -1.131  -0.707  0.00  0.00    -0.259 OA
BRANCH   7   9
ATOM      9  O   UNL d   1       3.295   1.055  -0.036  0.00  0.00    -0.310 OA
BRANCH   9  10
ATOM     10  C   UNL d   1       4.724   1.102  -0.140  0.00  0.00     0.263 C 
BRANCH  10  11
ATOM     11  C   UNL d   1       5.231   2.333  -0.891  0.00  0.00     0.183 C 
ATOM     12  O   UNL d   1       4.488   3.242  -1.246  0.00  0.00    -0.290 OA
BRANCH  11  13
ATOM     13  C   UNL d   1       6.700   2.407  -1.199  0.00  0.00     0.012 A 
ATOM     14  C   UNL d   1       7.608   1.439  -0.745  0.00  0.00     0.017 A 
ATOM     15  C   UNL d   1       8.965   1.531  -1.074  0.00  0.00     0.025 A 
ATOM     16  C   UNL d   1       9.423   2.591  -1.851  0.00  0.00     0.034 A 
ATOM     17  C   UNL d   1       8.534   3.568  -2.301  0.00  0.00     0.025 A 
ATOM     18 CL   UNL d   1      11.090   2.693  -2.258  0.00  0.00    -0.084 Cl
ATOM     19  C   UNL d   1       7.175   3.476  -1.973  0.00  0.00     0.017 A 
ENDBRANCH  11  13
ENDBRANCH  10  11
ENDBRANCH   9  10
ENDBRANCH   7   9
ENDBRANCH   1   7
BRANCH   2  20
ATOM     20  N   UNL d   1       1.044  -2.553  -0.012  0.00  0.00    -0.355 N 
ATOM     21  H   UNL d   1       1.835  -2.644   0.614  0.00  0.00     0.166 HD
BRANCH  20  22
ATOM     22  C   UNL d   1       0.481  -3.767  -0.451  0.00  0.00     0.032 A 
ATOM     23  C   UNL d   1      -0.327  -3.822  -1.595  0.00  0.00     0.029 A 
ATOM     24  C   UNL d   1      -0.973  -5.001  -1.968  0.00  0.00     0.002 A 
ATOM     25  C   UNL d   1      -0.815  -6.150  -1.198  0.00  0.00     0.000 A 
ATOM     26  C   UNL d   1       0.001  -6.119  -0.069  0.00  0.00     0.002 A 
ATOM     27  C   UNL d   1       0.649  -4.936   0.301  0.00  0.00     0.029 A 
ENDBRANCH  20  22
ENDBRANCH   2  20
TORSDOF 7
