REMARK  4 active torsions:
REMARK  status: ('A' for Active; 'I' for Inactive)
REMARK    1  A    between atoms: C_2  and  C_1 
REMARK       I    between atoms: N_3  and  C_2 
REMARK    2  A    between atoms: C_10  and  N_3 
REMARK    3  A    between atoms: C_4  and  C_10 
REMARK    4  A    between atoms: O_12  and  C_4 
ROOT
ATOM      1  C   UNL d   1       0.323   2.562   0.008  0.00  0.00     0.253 C 
ATOM      2  N   UNL d   1       1.084   3.700  -0.008  0.00  0.00    -0.348 N 
ATOM      3  O   UNL d   1      -0.902   2.587  -0.043  0.00  0.00    -0.268 OA
ATOM      4  H   UNL d   1       2.096   3.646   0.053  0.00  0.00     0.163 HD
ENDROOT
BRANCH   1   5
ATOM      5  C   UNL d   1       1.043   1.258   0.030  0.00  0.00     0.052 A 
ATOM      6  C   UNL d   1       2.275   1.018   0.645  0.00  0.00     0.042 A 
ATOM      7 BR   UNL d   1       3.263   2.277   1.660  0.00  0.00    -0.049 Br
ATOM      8  C   UNL d   1       2.803  -0.265   0.551  0.00  0.00     0.107 A 
ATOM      9  N   UNL d   1       2.201  -1.296  -0.087  0.00  0.00    -0.374 N 
ATOM     10  C   UNL d   1       1.005  -1.044  -0.651  0.00  0.00     0.088 A 
ATOM     11  HN  UNL d   1       2.633  -2.218  -0.138  1.00  0.00     0.164 HD
ATOM     12  C   UNL d   1       0.394   0.196  -0.619  0.00  0.00     0.035 A 
ENDBRANCH   1   5
BRANCH   2  13
ATOM     13  C   UNL d   1       0.498   5.032   0.035  0.00  0.00     0.233 C 
BRANCH  13  14
ATOM     14  C   UNL d   1       1.550   6.137   0.082  0.00  0.00     0.276 C 
ATOM     15  O   UNL d   1       1.293   7.332   0.118  0.00  0.00    -0.263 OA
BRANCH  14  16
ATOM     16  O   UNL d   1       2.814   5.612   0.082  0.00  0.00    -0.325 OA
ATOM     17  C   UNL d   1       3.858   6.585   0.140  0.00  0.00     0.213 C 
ENDBRANCH  14  16
ENDBRANCH  13  14
ENDBRANCH   2  13
TORSDOF 4
