REMARK  5 active torsions:
REMARK  status: ('A' for Active; 'I' for Inactive)
REMARK    1  A    between atoms: C_10  and  C_2 
REMARK    2  A    between atoms: C_13  and  C_2 
REMARK    3  A    between atoms: C_17  and  C_10 
REMARK    4  A    between atoms: C_22  and  C_13 
REMARK    5  A    between atoms: C_23  and  C_22 
ROOT
ATOM      1  N   UNL d   1      -0.048  -1.040  -0.082  0.00  0.00    -0.279 N 
ATOM      2  C   UNL d   1      -2.049  -2.409   0.413  0.00  0.00     0.111 C 
ATOM      3  C   UNL d   1      -0.562  -2.344   0.018  0.00  0.00     0.246 C 
ATOM      4  C   UNL d   1      -0.859   0.071  -0.102  0.00  0.00     0.067 A 
ATOM      5  C   UNL d   1      -2.914  -1.216  -0.048  0.00  0.00     0.180 C 
ATOM      6  C   UNL d   1      -2.246   0.087  -0.111  0.00  0.00     0.039 A 
ATOM      7  C   UNL d   1       1.277  -0.620  -0.099  0.00  0.00     0.053 A 
ATOM      8  C   UNL d   1      -0.086   1.213  -0.068  0.00  0.00     0.005 A 
ATOM      9  C   UNL d   1       1.273   0.783  -0.054  0.00  0.00     0.004 A 
ATOM     10  O   UNL d   1       0.204  -3.299  -0.028  0.00  0.00    -0.271 OA
ATOM     11  O   UNL d   1      -4.129  -1.265  -0.212  0.00  0.00    -0.291 OA
ATOM     12  C   UNL d   1      -2.906   1.317  -0.103  0.00  0.00     0.017 A 
ATOM     13  C   UNL d   1      -0.756   2.461  -0.032  0.00  0.00     0.014 A 
ATOM     14  C   UNL d   1       2.476  -1.354  -0.094  0.00  0.00     0.031 A 
ATOM     15  C   UNL d   1       2.508   1.462   0.008  0.00  0.00     0.014 A 
ATOM     16  C   UNL d   1      -2.162   2.493  -0.054  0.00  0.00     0.002 A 
ATOM     17  C   UNL d   1       3.683  -0.657  -0.026  0.00  0.00     0.002 A 
ATOM     18  C   UNL d   1       3.702   0.732   0.028  0.00  0.00     0.001 A 
ENDROOT
BRANCH   2  19
ATOM     19  C   UNL d   1      -2.671  -3.750  -0.076  0.00  0.00     0.066 C 
BRANCH  19  20
ATOM     20  C   UNL d   1      -2.642  -3.949  -1.576  0.00  0.00    -0.057 A 
ATOM     21  C   UNL d   1      -1.556  -4.581  -2.193  0.00  0.00     0.007 A 
ATOM     22  C   UNL d   1      -1.452  -4.614  -3.583  0.00  0.00     0.001 A 
ATOM     23  C   UNL d   1      -2.462  -4.068  -4.371  0.00  0.00     0.000 A 
ATOM     24  C   UNL d   1      -3.591  -3.520  -3.769  0.00  0.00     0.001 A 
ATOM     25  C   UNL d   1      -3.680  -3.459  -2.379  0.00  0.00     0.007 A 
ENDBRANCH  19  20
ENDBRANCH   2  19
BRANCH   2  26
ATOM     26  C   UNL d   1      -2.024  -2.364   1.982  0.00  0.00     0.028 C 
BRANCH  26  27
ATOM     27  C   UNL d   1      -3.404  -2.422   2.638  0.00  0.00     0.001 C 
BRANCH  27  28
ATOM     28  C   UNL d   1      -3.330  -2.332   4.158  0.00  0.00    -0.005 C 
ATOM     29  C   UNL d   1      -4.733  -2.394   4.740  0.00  0.00     0.005 C 
ENDBRANCH  27  28
ENDBRANCH  26  27
ENDBRANCH   2  26
TORSDOF 5
