REMARK  5 active torsions:
REMARK  status: ('A' for Active; 'I' for Inactive)
REMARK    1  A    between atoms: C_7  and  N_1 
REMARK    2  A    between atoms: S_8  and  C_2 
REMARK    3  A    between atoms: C_10  and  C_5 
REMARK    4  A    between atoms: C_9  and  C_7 
REMARK    5  A    between atoms: O_11  and  C_10 
ROOT
ATOM      1  N   UNL d   1       0.856  -0.694  -0.036  0.00  0.00    -0.324 N 
ATOM      2  C   UNL d   1       0.233  -0.211  -1.164  0.00  0.00     0.144 A 
ATOM      3  N   UNL d   1      -0.861   0.451  -0.868  0.00  0.00    -0.345 N 
ATOM      4  HN  UNL d   1      -1.509   0.894  -1.519  1.00  0.00     0.167 HD
ATOM      5  C   UNL d   1       0.102  -0.275   1.054  0.00  0.00     0.053 A 
ATOM      6  C   UNL d   1      -0.950   0.424   0.491  0.00  0.00     0.117 A 
ENDROOT
BRANCH   1   7
ATOM      7  C   UNL d   1       2.077  -1.492   0.017  0.00  0.00     0.169 C 
BRANCH   7   8
ATOM      8  C   UNL d   1       1.849  -2.990  -0.072  0.00  0.00    -0.040 A 
ATOM      9  C   UNL d   1       0.579  -3.590  -0.084  0.00  0.00     0.009 A 
ATOM     10  C   UNL d   1       0.440  -4.981  -0.065  0.00  0.00     0.001 A 
ATOM     11  C   UNL d   1       1.567  -5.796  -0.053  0.00  0.00     0.000 A 
ATOM     12  C   UNL d   1       2.835  -5.221  -0.072  0.00  0.00     0.001 A 
ATOM     13  C   UNL d   1       2.976  -3.830  -0.082  0.00  0.00     0.009 A 
ENDBRANCH   7   8
ENDBRANCH   1   7
BRANCH   2  14
ATOM     14  S   UNL d   1       0.774  -0.429  -2.797  0.00  0.00    -0.107 SA
ATOM     15  H   UNL d   1       1.792  -1.277  -2.622  0.00  0.00     0.110 HD
ENDBRANCH   2  14
BRANCH   5  16
ATOM     16  C   UNL d   1       0.397  -0.483   2.493  0.00  0.00     0.222 C 
BRANCH  16  17
ATOM     17  O   UNL d   1       0.960  -1.764   2.684  0.00  0.00    -0.395 OA
ATOM     18  H   UNL d   1       0.278  -2.418   2.452  0.00  0.00     0.209 HD
ENDBRANCH  16  17
ENDBRANCH   5  16
TORSDOF 5
