REMARK  1 active torsions:
REMARK  status: ('A' for Active; 'I' for Inactive)
REMARK    1  A    between atoms: C_8  and  N_7 
ROOT
ATOM      1  C   UNL d   1       0.732  -3.623  -0.003  0.00  0.00     0.040 A 
ATOM      2  C   UNL d   1       1.675  -3.627   1.049  0.00  0.00    -0.035 A 
ATOM      3  C   UNL d   1       2.773  -4.511   1.000  0.00  0.00     0.015 A 
ATOM      4  C   UNL d   1       0.907  -4.551  -1.044  0.00  0.00     0.030 A 
ATOM      5  C   UNL d   1       2.939  -5.413  -0.056  0.00  0.00    -0.061 A 
ATOM      6  C   UNL d   1       1.993  -5.429  -1.076  0.00  0.00     0.009 A 
ATOM      7  C   UNL d   1       1.584  -2.728   2.255  0.00  0.00     0.050 C 
ATOM      8  C   UNL d   1       4.109  -6.351  -0.074  0.00  0.00     0.048 C 
ENDROOT
BRANCH   1   9
ATOM      9  N   UNL d   1      -0.392  -2.770   0.040  0.00  0.00    -0.335 N 
ATOM     10  C   UNL d   1      -1.585  -2.948  -0.580  0.00  0.00     0.175 A 
ATOM     11  N   UNL d   1      -2.051  -4.027  -1.183  0.00  0.00    -0.265 N 
ATOM     12  S   UNL d   1      -2.776  -1.681  -0.625  0.00  0.00     0.035 SA
ATOM     13  N   UNL d   1      -3.328  -3.847  -1.692  0.00  0.00    -0.017 NA
ATOM     14  HN  UNL d   1      -1.528  -4.899  -1.264  1.00  0.00     0.186 HD
ATOM     15  N   UNL d   1      -3.847  -2.648  -1.476  0.00  0.00    -0.044 NA
ATOM     16  H   UNL d   1      -0.225  -1.887   0.504  0.00  0.00     0.168 HD
ENDBRANCH   1   9
TORSDOF 1
