REMARK  6 active torsions:
REMARK  status: ('A' for Active; 'I' for Inactive)
REMARK    1  A    between atoms: C_5  and  C_1 
REMARK    2  A    between atoms: S_12  and  C_2 
REMARK    3  A    between atoms: C_10  and  C_5 
REMARK    4  A    between atoms: C_14  and  C_10 
REMARK    5  A    between atoms: C_16  and  S_12 
REMARK    6  A    between atoms: C_20  and  C_16 
ROOT
ATOM      1  C   UNL d   1       3.210  -6.307   0.807  0.00  0.00     0.144 A 
ATOM      2  N   UNL d   1       2.917  -4.997   0.817  0.00  0.00    -0.337 N 
ATOM      3  HN  UNL d   1       3.409  -4.348   1.431  1.00  0.00     0.168 HD
ATOM      4  N   UNL d   1       2.627  -7.214   0.009  0.00  0.00    -0.347 N 
ATOM      5  HN  UNL d   1       2.890  -8.199   0.027  1.00  0.00     0.167 HD
ATOM      6  C   UNL d   1       1.948  -4.573  -0.017  0.00  0.00     0.035 A 
ATOM      7  C   UNL d   1       1.673  -6.747  -0.819  0.00  0.00     0.092 A 
ATOM      8  C   UNL d   1       1.286  -5.427  -0.873  0.00  0.00     0.046 A 
ENDROOT
BRANCH   1   9
ATOM      9  S   UNL d   1       4.407  -6.845   2.002  0.00  0.00    -0.089 SA
BRANCH   9  10
ATOM     10  C   UNL d   1       5.190  -8.205   1.089  0.00  0.00     0.121 C 
BRANCH  10  11
ATOM     11  C   UNL d   1       6.361  -8.772   1.865  0.00  0.00    -0.047 A 
ATOM     12  C   UNL d   1       7.651  -8.246   1.698  0.00  0.00     0.031 A 
ATOM     13  C   UNL d   1       8.722  -8.760   2.433  0.00  0.00     0.034 A 
ATOM     14 CL   UNL d   1      10.300  -8.108   2.215  0.00  0.00    -0.084 Cl
ATOM     15  C   UNL d   1       8.524  -9.794   3.345  0.00  0.00     0.024 A 
ATOM     16  C   UNL d   1       7.245 -10.317   3.526  0.00  0.00     0.002 A 
ATOM     17  C   UNL d   1       6.168  -9.808   2.793  0.00  0.00     0.008 A 
ENDBRANCH  10  11
ENDBRANCH   9  10
ENDBRANCH   1   9
BRANCH   6  18
ATOM     18  C   UNL d   1       1.728  -3.120   0.001  0.00  0.00     0.031 C 
BRANCH  18  19
ATOM     19  C   UNL d   1       0.541  -2.511  -0.149  0.00  0.00     0.021 C 
BRANCH  19  20
ATOM     20  C   UNL d   1       0.386  -1.091  -0.157  0.00  0.00     0.010 A 
ATOM     21  C   UNL d   1       1.021  -0.051   0.527  0.00  0.00    -0.044 A 
ATOM     22  C   UNL d   1       0.494   1.235   0.147  0.00  0.00     0.015 A 
ATOM     23  C   UNL d   1       2.100  -0.147   1.560  0.00  0.00     0.049 C 
ATOM     24  C   UNL d   1      -0.519   1.153  -0.772  0.00  0.00     0.051 A 
ATOM     25  S   UNL d   1      -0.859  -0.458  -1.191  0.00  0.00    -0.102 SA
ENDBRANCH  19  20
ENDBRANCH  18  19
ENDBRANCH   6  18
TORSDOF 6
