REMARK  1 active torsions:
REMARK  status: ('A' for Active; 'I' for Inactive)
REMARK    1  A    between atoms: C_6  and  C_3 
ROOT
ATOM      1  S   UNL d   1       1.643   1.962  -0.347  0.00  0.00    -0.144 SA
ATOM      2  S   UNL d   1       2.096  -1.030  -1.021  0.00  0.00    -0.144 SA
ATOM      3  C   UNL d   1       2.821   0.565  -0.501  0.00  0.00     0.141 C 
ATOM      4  C   UNL d   1      -0.280  -0.817   0.353  0.00  0.00    -0.041 A 
ATOM      5  C   UNL d   1      -0.475   0.545   0.632  0.00  0.00    -0.041 A 
ATOM      6  C   UNL d   1      -1.370  -1.578  -0.104  0.00  0.00     0.015 A 
ATOM      7  C   UNL d   1      -1.735   1.121   0.396  0.00  0.00     0.015 A 
ATOM      8  C   UNL d   1      -2.813   0.368  -0.093  0.00  0.00    -0.056 A 
ATOM      9  C   UNL d   1      -2.635  -1.005  -0.326  0.00  0.00    -0.056 A 
ATOM     10  C   UNL d   1       1.087  -1.450   0.434  0.00  0.00     0.114 C 
ATOM     11  C   UNL d   1       0.661   1.429   1.071  0.00  0.00     0.114 C 
ATOM     12  C   UNL d   1      -4.112   1.069  -0.382  0.00  0.00     0.049 C 
ATOM     13  C   UNL d   1      -3.730  -1.900  -0.840  0.00  0.00     0.049 C 
ENDROOT
BRANCH   3  14
ATOM     14  C   UNL d   1       3.894   1.010  -1.498  0.00  0.00    -0.033 A 
ATOM     15  C   UNL d   1       3.584   1.212  -2.861  0.00  0.00     0.034 A 
ATOM     16  C   UNL d   1       4.515   1.772  -3.740  0.00  0.00     0.056 A 
ATOM     17 CL   UNL d   1       4.022   2.032  -5.375  0.00  0.00    -0.083 Cl
ATOM     18  C   UNL d   1       5.782   2.126  -3.272  0.00  0.00     0.055 A 
ATOM     19  C   UNL d   1       6.118   1.900  -1.934  0.00  0.00     0.026 A 
ATOM     20 CL   UNL d   1       6.968   2.873  -4.282  0.00  0.00    -0.083 Cl
ATOM     21  C   UNL d   1       5.181   1.346  -1.052  0.00  0.00     0.011 A 
ENDBRANCH   3  14
TORSDOF 1
