REMARK  2 active torsions:
REMARK  status: ('A' for Active; 'I' for Inactive)
REMARK    1  A    between atoms: O_15  and  C_10 
REMARK    2  A    between atoms: O_16  and  C_11 
ROOT
ATOM      1  C   UNL d   1      -0.015   0.020   0.001  0.00  0.00     0.004 A 
ATOM      2  C   UNL d   1      -1.117   0.956  -0.000  0.00  0.00     0.009 A 
ATOM      3  C   UNL d   1      -0.251  -1.377   0.001  0.00  0.00     0.026 A 
ATOM      4  C   UNL d   1      -2.474   0.374  -0.003  0.00  0.00     0.019 A 
ATOM      5  C   UNL d   1       1.348   0.464   0.001  0.00  0.00     0.009 A 
ATOM      6  C   UNL d   1      -2.723  -0.936  -0.002  0.00  0.00     0.056 A 
ATOM      7  C   UNL d   1      -1.628  -1.908   0.000  0.00  0.00     0.183 A 
ATOM      8  C   UNL d   1       0.780  -2.315   0.001  0.00  0.00     0.019 A 
ATOM      9  C   UNL d   1       1.534   1.860   0.001  0.00  0.00     0.018 A 
ATOM     10  C   UNL d   1      -0.855   2.339  -0.000  0.00  0.00     0.079 A 
ATOM     11  C   UNL d   1       2.399  -0.512   0.001  0.00  0.00     0.079 A 
ATOM     12  C   UNL d   1       0.472   2.760   0.000  0.00  0.00     0.038 A 
ATOM     13  C   UNL d   1       2.091  -1.879   0.001  0.00  0.00     0.038 A 
ATOM     14  O   UNL d   1      -1.877  -3.109   0.002  0.00  0.00    -0.288 OA
ENDROOT
BRANCH  10  15
ATOM     15  O   UNL d   1      -1.667   3.435  -0.001  0.00  0.00    -0.355 OA
ATOM     16  C   UNL d   1      -3.074   3.352   0.003  0.00  0.00     0.210 C 
ENDBRANCH  10  15
BRANCH  11  17
ATOM     17  O   UNL d   1       3.761  -0.368   0.000  0.00  0.00    -0.355 OA
ATOM     18  C   UNL d   1       4.396   0.890  -0.003  0.00  0.00     0.210 C 
ENDBRANCH  11  17
TORSDOF 2
