REMARK  1 active torsions:
REMARK  status: ('A' for Active; 'I' for Inactive)
REMARK    1  A    between atoms: C_6  and  C_1 
ROOT
ATOM      1  C   UNL d   1       2.100   0.143   0.035  0.00  0.00     0.057 A 
ATOM      2  S   UNL d   1       1.300  -1.369  -0.043  0.00  0.00    -0.085 SA
ATOM      3  C   UNL d   1       1.189   1.194   0.057  0.00  0.00    -0.030 A 
ATOM      4  C   UNL d   1      -0.186   0.726   0.015  0.00  0.00    -0.012 A 
ATOM      5  C   UNL d   1      -0.260  -0.665  -0.022  0.00  0.00     0.016 A 
ATOM      6  C   UNL d   1       1.528   2.655   0.124  0.00  0.00     0.050 C 
ATOM      7  C   UNL d   1      -1.408   1.449   0.013  0.00  0.00     0.013 A 
ATOM      8  C   UNL d   1      -1.494  -1.345  -0.042  0.00  0.00     0.019 A 
ATOM      9  C   UNL d   1      -2.636   0.782  -0.009  0.00  0.00     0.001 A 
ATOM     10  C   UNL d   1      -2.677  -0.603  -0.033  0.00  0.00     0.001 A 
ENDROOT
BRANCH   1  11
ATOM     11  C   UNL d   1       3.564   0.206   0.045  0.00  0.00     0.163 C 
ATOM     12  O   UNL d   1       4.189   1.241  -0.213  0.00  0.00    -0.292 OA
ATOM     13  C   UNL d   1       4.363  -1.042   0.356  0.00  0.00     0.097 C 
ENDBRANCH   1  11
TORSDOF 1
