REMARK  4 active torsions:
REMARK  status: ('A' for Active; 'I' for Inactive)
REMARK    1  A    between atoms: C_2  and  N_1 
REMARK    2  A    between atoms: C_10  and  C_2 
REMARK    3  A    between atoms: C_8  and  C_4 
REMARK    4  A    between atoms: O_12  and  C_8 
ROOT
ATOM      1  C   UNL d   1       1.986  -2.432   0.017  0.00  0.00     0.056 C 
ATOM      2  C   UNL d   1       1.311  -3.603  -0.061  0.00  0.00     0.113 C 
ENDROOT
BRANCH   1   3
ATOM      3  N   UNL d   1       1.407  -1.132   0.022  0.00  0.00    -0.305 N 
ATOM      4  C   UNL d   1       0.152  -0.810   0.526  0.00  0.00     0.189 A 
ATOM      5  N   UNL d   1      -0.144   0.464   0.463  0.00  0.00    -0.350 N 
ATOM      6  C   UNL d   1       0.947   1.040  -0.111  0.00  0.00     0.060 A 
ATOM      7  HN  UNL d   1      -1.000   0.923   0.774  1.00  0.00     0.166 HD
ATOM      8  C   UNL d   1       1.948   0.099  -0.375  0.00  0.00     0.067 A 
ATOM      9  C   UNL d   1       1.140   2.393  -0.435  0.00  0.00     0.032 A 
ATOM     10  C   UNL d   1       3.155   0.492  -0.980  0.00  0.00     0.032 A 
ATOM     11  C   UNL d   1       3.329   1.847  -1.300  0.00  0.00     0.002 A 
ATOM     12  C   UNL d   1       2.339   2.787  -1.030  0.00  0.00     0.002 A 
ENDBRANCH   1   3
BRANCH   1  13
ATOM     13  C   UNL d   1       3.451  -2.641   0.104  0.00  0.00    -0.009 A 
ATOM     14  C   UNL d   1       4.204  -2.791  -1.071  0.00  0.00     0.014 A 
ATOM     15  C   UNL d   1       5.569  -3.076  -1.007  0.00  0.00     0.001 A 
ATOM     16  C   UNL d   1       6.185  -3.253   0.229  0.00  0.00     0.000 A 
ATOM     17  C   UNL d   1       5.441  -3.134   1.403  0.00  0.00     0.001 A 
ATOM     18  C   UNL d   1       4.079  -2.824   1.343  0.00  0.00     0.014 A 
ENDBRANCH   1  13
BRANCH   2  19
ATOM     19  C   UNL d   1      -0.090  -3.745  -0.499  0.00  0.00     0.284 C 
ATOM     20  O   UNL d   1      -0.661  -2.963  -1.241  0.00  0.00    -0.260 OA
BRANCH  19  21
ATOM     21  O   UNL d   1      -0.595  -4.894   0.004  0.00  0.00    -0.323 OA
ATOM     22  C   UNL d   1      -1.933  -5.207  -0.401  0.00  0.00     0.213 C 
ENDBRANCH  19  21
ENDBRANCH   2  19
TORSDOF 4
