REMARK  5 active torsions:
REMARK  status: ('A' for Active; 'I' for Inactive)
REMARK    1  A    between atoms: C_2  and  S_1 
REMARK    2  A    between atoms: N_3  and  S_1 
REMARK       I    between atoms: C_6  and  N_12 
REMARK    3  A    between atoms: C_16  and  C_6 
REMARK    4  A    between atoms: C_19  and  C_7 
REMARK    5  A    between atoms: N_12  and  C_19 
ROOT
ATOM      1  C   UNL d   1       0.743   0.089   1.924  0.00  0.00     0.115 C 
ATOM      2  S   UNL d   1       1.092   1.510   2.816  0.00  0.00    -0.080 SA
ATOM      3  C   UNL d   1      -0.015  -0.792   2.675  0.00  0.00     0.033 C 
ATOM      4  C   UNL d   1       0.029   1.066   4.085  0.00  0.00     0.002 C 
ATOM      5  C   UNL d   1      -0.424  -0.230   3.923  0.00  0.00     0.018 C 
ENDROOT
BRANCH   4   6
ATOM      6  C   UNL d   1      -0.354   2.053   5.143  0.00  0.00     0.169 C 
BRANCH   6   7
ATOM      7  N   UNL d   1       0.520   1.935   6.284  0.00  0.00    -0.352 N 
ATOM      8  C   UNL d   1       0.184   1.170   7.381  0.00  0.00     0.251 C 
ATOM      9  O   UNL d   1      -0.822   0.479   7.444  0.00  0.00    -0.268 OA
ATOM     10  H   UNL d   1       1.439   2.343   6.213  0.00  0.00     0.163 HD
BRANCH   8  11
ATOM     11  C   UNL d   1       1.141   1.216   8.524  0.00  0.00     0.032 A 
ATOM     12  C   UNL d   1       1.908   2.356   8.800  0.00  0.00     0.017 A 
ATOM     13  C   UNL d   1       2.773   2.367   9.897  0.00  0.00     0.001 A 
ATOM     14  C   UNL d   1       2.869   1.248  10.724  0.00  0.00     0.000 A 
ATOM     15  C   UNL d   1       2.096   0.116  10.461  0.00  0.00     0.001 A 
ATOM     16  C   UNL d   1       1.229   0.101   9.366  0.00  0.00     0.017 A 
ENDBRANCH   8  11
ENDBRANCH   6   7
ENDBRANCH   4   6
BRANCH   1  17
ATOM     17  S   UNL d   1       1.321   0.030   0.226  0.00  0.00     0.250 S 
ATOM     18  O   UNL d   1       1.554   1.403  -0.163  0.00  0.00    -0.205 OA
ATOM     19  O   UNL d   1       0.331  -0.775  -0.454  0.00  0.00    -0.205 OA
BRANCH  17  20
ATOM     20  N   UNL d   1       2.812  -0.793   0.183  0.00  0.00    -0.203 NA
ATOM     21  C   UNL d   1       2.767  -2.279   0.333  0.00  0.00     0.138 C 
ATOM     22  C   UNL d   1       2.400  -2.994  -0.988  0.00  0.00     0.287 C 
ATOM     23  N   UNL d   1       3.242  -2.602  -2.138  0.00  0.00     0.086 N 
ATOM     24  C   UNL d   1       3.321  -1.132  -2.264  0.00  0.00     0.287 C 
ATOM     25  C   UNL d   1       2.703  -3.179  -3.374  0.00  0.00     0.310 C 
ATOM     26  C   UNL d   1       3.716  -0.426  -0.953  0.00  0.00     0.138 C 
ENDBRANCH  17  20
ENDBRANCH   1  17
TORSDOF 5
