REMARK  6 active torsions:
REMARK  status: ('A' for Active; 'I' for Inactive)
REMARK    1  A    between atoms: C_5  and  C_1 
REMARK    2  A    between atoms: C_6  and  C_2 
REMARK       I    between atoms: N_9  and  C_5 
REMARK    3  A    between atoms: C_12  and  N_9 
REMARK    4  A    between atoms: C_14  and  C_12 
REMARK    5  A    between atoms: C_18  and  C_14 
REMARK    6  A    between atoms: O_17  and  C_18 
ROOT
ATOM      1  C   UNL d   1      -0.048  -1.019   0.017  0.00  0.00     0.092 A 
ATOM      2  C   UNL d   1      -1.285  -0.363   0.335  0.00  0.00     0.085 A 
ATOM      3  N   UNL d   1      -1.243   0.911  -0.115  0.00  0.00    -0.259 N 
ATOM      4  HN  UNL d   1      -1.983   1.607  -0.024  1.00  0.00     0.195 HD
ATOM      5  O   UNL d   1      -0.030   1.096  -0.713  0.00  0.00    -0.241 OA
ATOM      6  C   UNL d   1       0.684  -0.042  -0.636  0.00  0.00     0.090 A 
ATOM      7  C   UNL d   1       2.021  -0.007  -1.266  0.00  0.00     0.080 C 
ENDROOT
BRANCH   1   8
ATOM      8  C   UNL d   1       0.510  -2.338   0.253  0.00  0.00     0.257 C 
ATOM      9  N   UNL d   1      -0.254  -3.418  -0.134  0.00  0.00    -0.348 N 
ATOM     10  H   UNL d   1      -1.195  -3.228  -0.459  0.00  0.00     0.163 HD
ATOM     11  O   UNL d   1       1.655  -2.437   0.687  0.00  0.00    -0.267 OA
BRANCH   9  12
ATOM     12  C   UNL d   1       0.176  -4.845  -0.157  0.00  0.00     0.028 C 
ATOM     13  C   UNL d   1      -0.286  -5.438  -1.502  0.00  0.00     0.038 C 
ATOM     14  C   UNL d   1       1.713  -5.037  -0.116  0.00  0.00     0.038 C 
BRANCH  12  15
ATOM     15  C   UNL d   1      -0.394  -5.628   1.059  0.00  0.00     0.056 C 
BRANCH  15  16
ATOM     16  C   UNL d   1      -1.911  -5.741   1.169  0.00  0.00     0.166 C 
BRANCH  16  17
ATOM     17  O   UNL d   1      -2.436  -6.559   0.135  0.00  0.00    -0.401 OA
ATOM     18  H   UNL d   1      -3.396  -6.622   0.276  0.00  0.00     0.209 HD
ENDBRANCH  16  17
ENDBRANCH  15  16
ENDBRANCH  12  15
ENDBRANCH   9  12
ENDBRANCH   1   8
BRANCH   2  19
ATOM     19  C   UNL d   1      -2.528  -0.790   1.002  0.00  0.00     0.015 A 
ATOM     20  C   UNL d   1      -2.616  -1.691   2.072  0.00  0.00     0.046 A 
ATOM     21 CL   UNL d   1      -1.246  -2.350   2.889  0.00  0.00    -0.083 Cl
ATOM     22  C   UNL d   1      -3.868  -2.037   2.611  0.00  0.00     0.025 A 
ATOM     23  C   UNL d   1      -5.040  -1.444   2.146  0.00  0.00     0.002 A 
ATOM     24  C   UNL d   1      -4.970  -0.494   1.137  0.00  0.00     0.001 A 
ATOM     25  C   UNL d   1      -3.734  -0.185   0.567  0.00  0.00     0.015 A 
ENDBRANCH   2  19
TORSDOF 6
