REMARK  1 active torsions:
REMARK  status: ('A' for Active; 'I' for Inactive)
REMARK    1  A    between atoms: C_4  and  C_2 
ROOT
ATOM      1  C   UNL d   1       0.322   0.983  -0.033  0.00  0.00     0.088 A 
ATOM      2  C   UNL d   1       0.931  -0.411   0.164  0.00  0.00     0.013 A 
ATOM      3  C   UNL d   1      -0.529  -0.241  -0.217  0.00  0.00     0.050 A 
ATOM      4 BR   UNL d   1      -0.029   2.118   1.467  0.00  0.00    -0.072 Br
ATOM      5 BR   UNL d   1       0.613   2.030  -1.615  0.00  0.00    -0.072 Br
ATOM      6  C   UNL d   1       1.177  -0.980   1.549  0.00  0.00     0.023 C 
ENDROOT
BRANCH   2   7
ATOM      7  C   UNL d   1       1.917  -0.971  -0.860  0.00  0.00    -0.047 A 
ATOM      8  C   UNL d   1       3.148  -0.336  -1.107  0.00  0.00     0.008 A 
ATOM      9  C   UNL d   1       4.098  -0.889  -1.970  0.00  0.00     0.001 A 
ATOM     10  C   UNL d   1       3.847  -2.108  -2.589  0.00  0.00     0.000 A 
ATOM     11  C   UNL d   1       2.639  -2.763  -2.361  0.00  0.00     0.001 A 
ATOM     12  C   UNL d   1       1.686  -2.198  -1.509  0.00  0.00     0.008 A 
ENDBRANCH   2   7
TORSDOF 1
