REMARK  7 active torsions:
REMARK  status: ('A' for Active; 'I' for Inactive)
REMARK    1  A    between atoms: S_23  and  C_3 
REMARK    2  A    between atoms: C_16  and  C_4 
REMARK    3  A    between atoms: C_7  and  C_12 
REMARK    4  A    between atoms: C_8  and  C_11 
REMARK    5  A    between atoms: C_12  and  O_19 
REMARK    6  A    between atoms: O_19  and  N_13 
REMARK    7  A    between atoms: O_30  and  C_16 
ROOT
ATOM      1  C   UNL d   1      -2.365  -0.558  -0.407  0.00  0.00     0.020 C 
ATOM      2  C   UNL d   1      -2.125   0.663  -1.175  0.00  0.00    -0.020 C 
ATOM      3  C   UNL d   1      -3.672  -0.628   0.039  0.00  0.00     0.054 C 
ATOM      4  C   UNL d   1      -3.299   1.375  -1.410  0.00  0.00     0.088 C 
ATOM      5  S   UNL d   1      -4.627   0.616  -0.636  0.00  0.00    -0.076 SA
ATOM      6  C   UNL d   1      -1.243  -1.448  -0.115  0.00  0.00     0.046 C 
ATOM      7  N   UNL d   1      -1.238  -2.742  -0.032  0.00  0.00    -0.261 N 
ATOM      8  HN  UNL d   1      -0.436  -3.267   0.316  1.00  0.00     0.194 HD
ATOM      9  C   UNL d   1      -0.726   1.072  -1.618  0.00  0.00     0.050 C 
ATOM     10  C   UNL d   1       0.346  -0.043  -1.422  0.00  0.00    -0.038 C 
ATOM     11  C   UNL d   1       0.113  -0.757  -0.064  0.00  0.00     0.069 C 
ATOM     12  C   UNL d   1       1.760   0.569  -1.424  0.00  0.00     0.015 C 
ATOM     13  C   UNL d   1       0.281  -1.050  -2.594  0.00  0.00     0.015 C 
ENDROOT
BRANCH   7  14
ATOM     14  O   UNL d   1      -2.425  -3.366  -0.462  0.00  0.00    -0.194 OA
BRANCH  14  15
ATOM     15  C   UNL d   1      -2.312  -4.723  -0.273  0.00  0.00     0.333 C 
ATOM     16  O   UNL d   1      -1.440  -5.287   0.374  0.00  0.00    -0.256 OA
BRANCH  15  17
ATOM     17  C   UNL d   1      -3.399  -5.436  -1.032  0.00  0.00     0.132 A 
ATOM     18  N   UNL d   1      -4.202  -4.647  -1.813  0.00  0.00    -0.359 N 
ATOM     19  C   UNL d   1      -5.148  -5.250  -2.573  0.00  0.00     0.105 A 
ATOM     20  HN  UNL d   1      -4.090  -3.633  -1.823  1.00  0.00     0.165 HD
ATOM     21  C   UNL d   1      -5.348  -6.619  -2.618  0.00  0.00     0.065 A 
ATOM     22  C   UNL d   1      -4.534  -7.411  -1.803  0.00  0.00     0.044 A 
ATOM     23  C   UNL d   1      -3.547  -6.825  -0.996  0.00  0.00     0.067 A 
ATOM     24 CL   UNL d   1      -2.608  -7.910  -0.039  0.00  0.00    -0.082 Cl
BRANCH  21  25
ATOM     25  C   UNL d   1      -6.398  -7.194  -3.521  0.00  0.00     0.418 C 
ATOM     26  F   UNL d   1      -6.450  -8.553  -3.494  0.00  0.00    -0.166 F 
ATOM     27  F   UNL d   1      -7.649  -6.763  -3.205  0.00  0.00    -0.166 F 
ATOM     28  F   UNL d   1      -6.202  -6.853  -4.824  0.00  0.00    -0.166 F 
ENDBRANCH  21  25
ENDBRANCH  15  17
ENDBRANCH  14  15
ENDBRANCH   7  14
BRANCH   3  29
ATOM     29  S   UNL d   1      -4.448  -1.753   1.152  0.00  0.00    -0.126 SA
ATOM     30  C   UNL d   1      -3.595  -1.372   2.696  0.00  0.00     0.096 C 
ENDBRANCH   3  29
BRANCH   4  31
ATOM     31  C   UNL d   1      -3.494   2.610  -2.168  0.00  0.00     0.300 C 
ATOM     32  O   UNL d   1      -2.604   3.256  -2.716  0.00  0.00    -0.259 OA
BRANCH  31  33
ATOM     33  O   UNL d   1      -4.816   2.964  -2.184  0.00  0.00    -0.322 OA
ATOM     34  C   UNL d   1      -5.140   4.153  -2.906  0.00  0.00     0.213 C 
ENDBRANCH  31  33
ENDBRANCH   4  31
TORSDOF 7
