REMARK  2 active torsions:
REMARK  status: ('A' for Active; 'I' for Inactive)
REMARK    1  A    between atoms: C_3  and  C_1 
REMARK    2  A    between atoms: O_10  and  C_3 
ROOT
ATOM      1  C   UNL d   1       0.959   1.455  -0.015  0.00  0.00     0.067 A 
ATOM      2  C   UNL d   1      -0.221   0.687  -0.012  0.00  0.00     0.058 A 
ATOM      3  N   UNL d   1      -1.544   1.081  -0.014  0.00  0.00    -0.364 N 
ATOM      4  C   UNL d   1      -2.365  -0.014  -0.027  0.00  0.00     0.089 A 
ATOM      5  C   UNL d   1      -0.213  -0.708  -0.008  0.00  0.00    -0.007 A 
ATOM      6  C   UNL d   1      -1.570  -1.137  -0.015  0.00  0.00     0.030 A 
ATOM      7  C   UNL d   1       2.178   0.756  -0.020  0.00  0.00     0.020 A 
ATOM      8  C   UNL d   1       2.210  -0.639  -0.012  0.00  0.00     0.002 A 
ATOM      9  C   UNL d   1       1.023  -1.381  -0.002  0.00  0.00     0.014 A 
ATOM     10  H   UNL d   1      -1.839   2.052  -0.015  0.00  0.00     0.165 HD
ENDROOT
BRANCH   1  11
ATOM     11  C   UNL d   1       0.872   2.938  -0.016  0.00  0.00     0.295 C 
ATOM     12  O   UNL d   1      -0.189   3.547  -0.013  0.00  0.00    -0.259 OA
BRANCH  11  13
ATOM     13  O   UNL d   1       2.108   3.495  -0.017  0.00  0.00    -0.322 OA
ATOM     14  C   UNL d   1       2.106   4.923  -0.015  0.00  0.00     0.213 C 
ENDBRANCH  11  13
ENDBRANCH   1  11
TORSDOF 2
