REMARK  3 active torsions:
REMARK  status: ('A' for Active; 'I' for Inactive)
REMARK    1  A    between atoms: N_4  and  C_1 
REMARK       I    between atoms: C_2  and  N_3 
REMARK    2  A    between atoms: C_7  and  C_2 
REMARK    3  A    between atoms: N_3  and  N_4 
ROOT
ATOM      1  C   UNL d   1       0.244   1.569   3.328  0.00  0.00     0.270 C 
ATOM      2  N   UNL d   1       1.083   0.948   2.416  0.00  0.00    -0.264 N 
ATOM      3  O   UNL d   1      -0.977   1.609   3.217  0.00  0.00    -0.266 OA
ATOM      4  H   UNL d   1       1.960   0.563   2.748  0.00  0.00     0.190 HD
ENDROOT
BRANCH   2   5
ATOM      5  N   UNL d   1       0.483   0.301   1.343  0.00  0.00    -0.274 N 
ATOM      6  H   UNL d   1      -0.538   0.254   1.381  0.00  0.00     0.189 HD
BRANCH   5   7
ATOM      7  C   UNL d   1       1.083  -0.068   0.191  0.00  0.00     0.186 C 
ATOM      8  S   UNL d   1       0.149  -0.751  -1.017  0.00  0.00    -0.040 SA
ATOM      9  N   UNL d   1       2.403   0.065  -0.042  0.00  0.00    -0.370 N 
ATOM     10  C   UNL d   1       3.477   0.663   0.717  0.00  0.00     0.148 C 
ATOM     11  H   UNL d   1       2.671  -0.318  -0.943  0.00  0.00     0.161 HD
ENDBRANCH   5   7
ENDBRANCH   2   5
BRANCH   1  12
ATOM     12  C   UNL d   1       0.931   2.164   4.500  0.00  0.00     0.033 A 
ATOM     13  C   UNL d   1       2.149   2.841   4.348  0.00  0.00     0.017 A 
ATOM     14  C   UNL d   1       2.771   3.408   5.458  0.00  0.00     0.001 A 
ATOM     15  C   UNL d   1       2.182   3.303   6.719  0.00  0.00     0.000 A 
ATOM     16  C   UNL d   1       0.963   2.639   6.870  0.00  0.00     0.001 A 
ATOM     17  C   UNL d   1       0.330   2.076   5.760  0.00  0.00     0.017 A 
ENDBRANCH   1  12
TORSDOF 3
