REMARK  6 active torsions:
REMARK  status: ('A' for Active; 'I' for Inactive)
REMARK       I    between atoms: N_2  and  C_1 
REMARK       I    between atoms: N_3  and  C_1 
REMARK    1  A    between atoms: C_8  and  N_3 
REMARK    2  A    between atoms: C_18  and  N_4 
REMARK    3  A    between atoms: C_14  and  C_7 
REMARK    4  A    between atoms: C_21  and  C_18 
REMARK    5  A    between atoms: O_19  and  C_21 
REMARK    6  A    between atoms: C_20  and  O_19 
ROOT
ATOM      1  C   UNL d   1       0.753  -0.147   0.130  0.00  0.00     0.322 C 
ATOM      2  N   UNL d   1       0.289   0.421  -1.055  0.00  0.00    -0.332 N 
ATOM      3  N   UNL d   1       1.712  -1.127  -0.025  0.00  0.00    -0.309 N 
ATOM      4  N   UNL d   1      -2.153   0.655  -2.963  0.00  0.00     0.092 N 
ATOM      5  O   UNL d   1       0.316   0.224   1.217  0.00  0.00    -0.247 OA
ATOM      6  C   UNL d   1      -0.732   1.476  -0.963  0.00  0.00     0.157 C 
ATOM      7  C   UNL d   1      -2.105   1.103  -1.559  0.00  0.00     0.292 C 
ATOM      8  C   UNL d   1      -0.039  -0.823  -3.199  0.00  0.00     0.050 C 
ATOM      9  C   UNL d   1       0.804   0.158  -2.393  0.00  0.00     0.129 C 
ATOM     10  C   UNL d   1      -1.562  -0.671  -3.127  0.00  0.00     0.274 C 
ATOM     11  H   UNL d   1       1.783  -1.544  -0.936  0.00  0.00     0.170 HD
ENDROOT
BRANCH   3  12
ATOM     12  C   UNL d   1       2.388  -1.820   1.005  0.00  0.00     0.036 A 
ATOM     13  C   UNL d   1       2.331  -1.453   2.348  0.00  0.00     0.030 A 
ATOM     14  C   UNL d   1       2.893  -2.270   3.332  0.00  0.00     0.010 A 
ATOM     15  C   UNL d   1       3.540  -3.464   2.993  0.00  0.00    -0.055 A 
ATOM     16  C   UNL d   1       3.692  -3.774   1.635  0.00  0.00     0.010 A 
ATOM     17  C   UNL d   1       3.124  -2.956   0.650  0.00  0.00     0.030 A 
BRANCH  15  18
ATOM     18  C   UNL d   1       3.981  -4.449   4.060  0.00  0.00     0.010 C 
ATOM     19  C   UNL d   1       4.965  -3.837   5.058  0.00  0.00     0.015 C 
ATOM     20  C   UNL d   1       2.753  -5.016   4.784  0.00  0.00     0.015 C 
ENDBRANCH  15  18
ENDBRANCH   3  12
BRANCH   4  21
ATOM     21  C   UNL d   1      -1.767   1.696  -3.923  0.00  0.00     0.299 C 
BRANCH  21  22
ATOM     22  C   UNL d   1      -1.871   1.288  -5.399  0.00  0.00     0.206 C 
BRANCH  22  23
ATOM     23  O   UNL d   1      -1.431   2.380  -6.213  0.00  0.00    -0.349 OA
BRANCH  23  24
ATOM     24  C   UNL d   1      -1.368   2.142  -7.560  0.00  0.00     0.068 A 
ATOM     25  C   UNL d   1      -1.736   0.954  -8.197  0.00  0.00     0.037 A 
ATOM     26  C   UNL d   1      -1.626   0.836  -9.585  0.00  0.00     0.003 A 
ATOM     27  C   UNL d   1      -1.153   1.904 -10.342  0.00  0.00     0.000 A 
ATOM     28  C   UNL d   1      -0.786   3.089  -9.718  0.00  0.00     0.003 A 
ATOM     29  C   UNL d   1      -0.893   3.206  -8.330  0.00  0.00     0.037 A 
ENDBRANCH  23  24
ENDBRANCH  22  23
ENDBRANCH  21  22
ENDBRANCH   4  21
TORSDOF 6
