REMARK  3 active torsions:
REMARK  status: ('A' for Active; 'I' for Inactive)
REMARK    1  A    between atoms: C_7  and  N_1 
REMARK    2  A    between atoms: C_12  and  N_2 
REMARK    3  A    between atoms: C_17  and  C_12 
ROOT
ATOM      1  N   UNL d   1       0.849   1.474  -0.102  0.00  0.00    -0.247 N 
ATOM      2  N   UNL d   1       2.104  -0.607  -0.033  0.00  0.00    -0.260 N 
ATOM      3  C   UNL d   1       2.127   0.774  -0.177  0.00  0.00     0.338 A 
ATOM      4  C   UNL d   1      -0.304   0.717  -0.035  0.00  0.00     0.150 A 
ATOM      5  C   UNL d   1      -0.283  -0.648   0.043  0.00  0.00     0.147 A 
ATOM      6  C   UNL d   1       0.956  -1.392   0.074  0.00  0.00     0.282 A 
ATOM      7  N   UNL d   1      -1.563  -1.147   0.101  0.00  0.00    -0.345 N 
ATOM      8  HN  UNL d   1      -1.844  -2.126   0.151  1.00  0.00     0.167 HD
ATOM      9  N   UNL d   1      -1.625   1.070   0.021  0.00  0.00    -0.336 N 
ATOM     10  C   UNL d   1      -2.347  -0.092   0.078  0.00  0.00     0.182 A 
ATOM     11  O   UNL d   1       3.140   1.429  -0.402  0.00  0.00    -0.246 OA
ATOM     12  O   UNL d   1       0.984  -2.614   0.174  0.00  0.00    -0.265 OA
ATOM     13  H   UNL d   1      -2.014   2.003   0.016  0.00  0.00     0.168 HD
ENDROOT
BRANCH   1  14
ATOM     14  C   UNL d   1       0.860   2.851  -0.118  0.00  0.00     0.047 A 
ATOM     15  C   UNL d   1       0.101   3.575  -1.047  0.00  0.00     0.054 A 
ATOM     16  C   UNL d   1       0.127   4.972  -1.042  0.00  0.00     0.036 A 
ATOM     17 CL   UNL d   1      -0.792   5.839  -2.209  0.00  0.00    -0.084 Cl
ATOM     18  C   UNL d   1       0.890   5.669  -0.110  0.00  0.00     0.024 A 
ATOM     19  C   UNL d   1       1.639   4.964   0.828  0.00  0.00     0.004 A 
ATOM     20  C   UNL d   1       1.623   3.567   0.821  0.00  0.00     0.030 A 
ENDBRANCH   1  14
BRANCH   2  21
ATOM     21  C   UNL d   1       3.389  -1.294  -0.038  0.00  0.00     0.175 C 
BRANCH  21  22
ATOM     22  C   UNL d   1       4.029  -1.304   1.333  0.00  0.00    -0.040 A 
ATOM     23  C   UNL d   1       3.758  -2.340   2.238  0.00  0.00     0.009 A 
ATOM     24  C   UNL d   1       4.319  -2.328   3.517  0.00  0.00     0.001 A 
ATOM     25  C   UNL d   1       5.150  -1.280   3.907  0.00  0.00     0.000 A 
ATOM     26  C   UNL d   1       5.436  -0.251   3.014  0.00  0.00     0.001 A 
ATOM     27  C   UNL d   1       4.882  -0.263   1.733  0.00  0.00     0.009 A 
ENDBRANCH  21  22
ENDBRANCH   2  21
TORSDOF 3
