REMARK  9 active torsions:
REMARK  status: ('A' for Active; 'I' for Inactive)
REMARK    1  A    between atoms: C_3  and  S_23 
REMARK    2  A    between atoms: S_22  and  C_4 
REMARK    3  A    between atoms: C_25  and  C_5 
REMARK    4  A    between atoms: C_26  and  C_6 
REMARK    5  A    between atoms: C_19  and  S_22 
REMARK    6  A    between atoms: S_23  and  C_20 
REMARK    7  A    between atoms: S_31  and  C_21 
REMARK    8  A    between atoms: C_27  and  C_30 
REMARK    9  A    between atoms: C_28  and  C_29 
ROOT
ATOM      1  N   UNL d   1      -3.352   3.290  -1.135  0.00  0.00    -0.331 N 
ATOM      2  HN  UNL d   1      -2.864   3.654  -1.954  1.00  0.00     0.168 HD
ATOM      3  N   UNL d   1      -5.388   2.942   0.041  0.00  0.00    -0.331 N 
ATOM      4  HN  UNL d   1      -6.400   3.064   0.097  1.00  0.00     0.168 HD
ATOM      5  C   UNL d   1      -2.691   2.697  -0.125  0.00  0.00     0.082 A 
ATOM      6  C   UNL d   1      -4.690   2.332   1.024  0.00  0.00     0.082 A 
ATOM      7  C   UNL d   1      -4.682   3.379  -1.012  0.00  0.00     0.145 A 
ATOM      8  C   UNL d   1      -3.322   2.183   0.987  0.00  0.00     0.074 A 
ENDROOT
BRANCH   5   9
ATOM      9  S   UNL d   1      -0.913   2.760  -0.173  0.00  0.00    -0.035 SA
BRANCH   9  10
ATOM     10  C   UNL d   1      -0.598   1.921  -1.641  0.00  0.00     0.167 A 
ATOM     11  N   UNL d   1      -1.034   2.341  -2.862  0.00  0.00    -0.320 N 
ATOM     12  C   UNL d   1      -0.469   1.493  -3.786  0.00  0.00     0.132 A 
ATOM     13  H   UNL d   1      -1.643   3.125  -3.035  0.00  0.00     0.169 HD
ATOM     14  N   UNL d   1       0.259   0.605  -3.125  0.00  0.00    -0.283 N 
ATOM     15  N   UNL d   1       0.187   0.883  -1.781  0.00  0.00    -0.278 N 
ATOM     16  HN  UNL d   1       0.786  -0.161  -3.545  1.00  0.00     0.188 HD
ATOM     17  HN  UNL d   1       0.658   0.376  -1.032  1.00  0.00     0.189 HD
BRANCH  12  18
ATOM     18  C   UNL d   1      -0.635   1.553  -5.241  0.00  0.00     0.009 A 
ATOM     19  C   UNL d   1      -1.425   2.509  -5.887  0.00  0.00     0.016 A 
ATOM     20  C   UNL d   1      -1.561   2.502  -7.287  0.00  0.00     0.009 A 
ATOM     21  C   UNL d   1      -0.920   1.541  -8.091  0.00  0.00    -0.051 A 
ATOM     22  C   UNL d   1      -0.117   0.600  -7.431  0.00  0.00     0.009 A 
ATOM     23  C   UNL d   1       0.022   0.607  -6.037  0.00  0.00     0.016 A 
BRANCH  21  24
ATOM     24  C   UNL d   1      -1.125   1.522  -9.619  0.00  0.00    -0.024 C 
ATOM     25  C   UNL d   1      -0.350   0.383 -10.321  0.00  0.00     0.019 C 
ATOM     26  C   UNL d   1      -2.623   1.327  -9.940  0.00  0.00     0.019 C 
ATOM     27  C   UNL d   1      -0.655   2.848 -10.254  0.00  0.00     0.019 C 
ENDBRANCH  21  24
ENDBRANCH  12  18
ENDBRANCH   9  10
ENDBRANCH   5   9
BRANCH   7  28
ATOM     28  S   UNL d   1      -5.512   4.309  -2.274  0.00  0.00    -0.098 SA
ATOM     29  C   UNL d   1      -7.112   3.465  -2.310  0.00  0.00     0.099 C 
ENDBRANCH   7  28
BRANCH   6  30
ATOM     30  S   UNL d   1      -5.607   1.727   2.436  0.00  0.00    -0.035 SA
BRANCH  30  31
ATOM     31  C   UNL d   1      -6.323   3.188   3.016  0.00  0.00     0.167 A 
ATOM     32  N   UNL d   1      -6.657   4.220   2.199  0.00  0.00    -0.320 N 
ATOM     33  C   UNL d   1      -7.145   5.222   2.997  0.00  0.00     0.132 A 
ATOM     34  H   UNL d   1      -6.520   4.240   1.204  0.00  0.00     0.169 HD
ATOM     35  N   UNL d   1      -7.174   4.766   4.236  0.00  0.00    -0.283 N 
ATOM     36  N   UNL d   1      -6.663   3.479   4.249  0.00  0.00    -0.278 N 
ATOM     37  HN  UNL d   1      -7.517   5.277   5.049  1.00  0.00     0.188 HD
ATOM     38  HN  UNL d   1      -6.568   2.873   5.063  1.00  0.00     0.189 HD
BRANCH  33  39
ATOM     39  C   UNL d   1      -7.531   6.552   2.518  0.00  0.00     0.009 A 
ATOM     40  C   UNL d   1      -7.418   6.933   1.175  0.00  0.00     0.016 A 
ATOM     41  C   UNL d   1      -7.772   8.226   0.757  0.00  0.00     0.009 A 
ATOM     42  C   UNL d   1      -8.245   9.187   1.667  0.00  0.00    -0.051 A 
ATOM     43  C   UNL d   1      -8.361   8.789   3.008  0.00  0.00     0.009 A 
ATOM     44  C   UNL d   1      -8.011   7.497   3.426  0.00  0.00     0.016 A 
BRANCH  42  45
ATOM     45  C   UNL d   1      -8.588  10.614   1.196  0.00  0.00    -0.024 C 
ATOM     46  C   UNL d   1      -9.082  11.524   2.343  0.00  0.00     0.019 C 
ATOM     47  C   UNL d   1      -7.335  11.278   0.584  0.00  0.00     0.019 C 
ATOM     48  C   UNL d   1      -9.700  10.585   0.126  0.00  0.00     0.019 C 
ENDBRANCH  42  45
ENDBRANCH  33  39
ENDBRANCH  30  31
ENDBRANCH   6  30
TORSDOF 9
