REMARK  6 active torsions:
REMARK  status: ('A' for Active; 'I' for Inactive)
REMARK    1  A    between atoms: C_9  and  S_1 
REMARK    2  A    between atoms: N_16  and  S_1 
REMARK    3  A    between atoms: S_2  and  C_10 
REMARK    4  A    between atoms: N_17  and  S_2 
REMARK    5  A    between atoms: N_11  and  C_5 
REMARK    6  A    between atoms: N_12  and  C_6 
ROOT
ATOM      1  C   UNL d   1      -0.952  -1.849   5.388  0.00  0.00     0.025 A 
ATOM      2  C   UNL d   1      -0.415  -1.153   4.206  0.00  0.00     0.025 C 
ATOM      3  C   UNL d   1      -1.765  -1.513   6.466  0.00  0.00     0.116 A 
ATOM      4  C   UNL d   1      -0.250   0.171   3.807  0.00  0.00     0.116 C 
ATOM      5  C   UNL d   1       0.086  -2.123   3.311  0.00  0.00     0.030 C 
ATOM      6  C   UNL d   1      -0.614  -3.218   5.287  0.00  0.00     0.030 A 
ATOM      7  C   UNL d   1       0.569  -0.526   1.622  0.00  0.00     0.083 C 
ATOM      8  C   UNL d   1      -1.669  -3.787   7.334  0.00  0.00     0.083 A 
ATOM      9  C   UNL d   1       0.032  -3.435   3.979  0.00  0.00     0.194 C 
ATOM     10  C   UNL d   1       0.238   0.496   2.525  0.00  0.00     0.062 C 
ATOM     11  C   UNL d   1      -2.148  -2.473   7.422  0.00  0.00     0.062 A 
ATOM     12  C   UNL d   1       0.564  -1.859   2.033  0.00  0.00     0.041 C 
ATOM     13  C   UNL d   1      -0.919  -4.192   6.231  0.00  0.00     0.041 A 
ATOM     14  O   UNL d   1       0.430  -4.488   3.536  0.00  0.00    -0.287 OA
ENDROOT
BRANCH   7  15
ATOM     15  S   UNL d   1       1.076  -0.105  -0.047  0.00  0.00     0.260 S 
ATOM     16  O   UNL d   1       1.915  -1.181  -0.512  0.00  0.00    -0.200 OA
ATOM     17  O   UNL d   1       1.548   1.262  -0.010  0.00  0.00    -0.200 OA
BRANCH  15  18
ATOM     18  N   UNL d   1      -0.421  -0.151  -0.896  0.00  0.00    -0.307 N 
ATOM     19  C   UNL d   1      -1.043  -1.492  -1.062  0.00  0.00     0.135 C 
ATOM     20  C   UNL d   1      -1.682  -1.671  -2.438  0.00  0.00     0.021 C 
ATOM     21  C   UNL d   1      -3.074  -1.064  -2.569  0.00  0.00     0.002 C 
ATOM     22  C   UNL d   1      -3.100   0.446  -2.393  0.00  0.00     0.002 C 
ATOM     23  C   UNL d   1      -2.777   0.862  -0.964  0.00  0.00     0.021 C 
ATOM     24  C   UNL d   1      -1.293   1.030  -0.679  0.00  0.00     0.135 C 
ENDBRANCH  15  18
ENDBRANCH   7  15
BRANCH   4  25
ATOM     25  N   UNL d   1      -0.419   1.275   4.723  0.00  0.00    -0.115 N 
ATOM     26  O   UNL d   1       0.268   1.245   5.750  0.00  0.00    -0.532 OA
ATOM     27  O   UNL d   1      -1.211   2.163   4.394  0.00  0.00    -0.532 OA
ENDBRANCH   4  25
BRANCH   3  28
ATOM     28  N   UNL d   1      -2.376  -0.213   6.619  0.00  0.00    -0.115 N 
ATOM     29  O   UNL d   1      -3.088   0.170   5.684  0.00  0.00    -0.532 OA
ATOM     30  O   UNL d   1      -2.172   0.381   7.681  0.00  0.00    -0.532 OA
ENDBRANCH   3  28
BRANCH   8  31
ATOM     31  S   UNL d   1      -2.110  -4.950   8.617  0.00  0.00     0.260 S 
ATOM     32  O   UNL d   1      -3.361  -4.495   9.181  0.00  0.00    -0.200 OA
ATOM     33  O   UNL d   1      -1.976  -6.274   8.051  0.00  0.00    -0.200 OA
BRANCH  31  34
ATOM     34  N   UNL d   1      -0.865  -4.698   9.766  0.00  0.00    -0.307 N 
ATOM     35  C   UNL d   1       0.482  -5.181   9.391  0.00  0.00     0.135 C 
ATOM     36  C   UNL d   1       1.217  -5.789  10.584  0.00  0.00     0.021 C 
ATOM     37  C   UNL d   1       1.926  -4.774  11.473  0.00  0.00     0.002 C 
ATOM     38  C   UNL d   1       0.993  -3.775  12.142  0.00  0.00     0.002 C 
ATOM     39  C   UNL d   1       0.294  -2.872  11.136  0.00  0.00     0.021 C 
ATOM     40  C   UNL d   1      -0.995  -3.463  10.583  0.00  0.00     0.135 C 
ENDBRANCH  31  34
ENDBRANCH   8  31
TORSDOF 6
