REMARK  2 active torsions:
REMARK  status: ('A' for Active; 'I' for Inactive)
REMARK    1  A    between atoms: N_2  and  C_1 
REMARK       I    between atoms: N_3  and  C_7 
REMARK       I    between atoms: C_4  and  N_3 
REMARK       I    between atoms: N_8  and  C_4 
REMARK    2  A    between atoms: C_7  and  C_6 
ROOT
ATOM      1  N   UNL d   1      -1.219  -2.727  -0.134  0.00  0.00    -0.274 N 
ATOM      2  C   UNL d   1      -2.501  -2.252   0.026  0.00  0.00     0.325 C 
ATOM      3  C   UNL d   1      -0.801  -4.014   0.159  0.00  0.00     0.266 C 
ATOM      4  N   UNL d   1      -2.661  -0.889  -0.216  0.00  0.00    -0.330 N 
ATOM      5  O   UNL d   1      -3.456  -2.955   0.335  0.00  0.00    -0.247 OA
ATOM      6  O   UNL d   1      -1.488  -4.841   0.759  0.00  0.00    -0.267 OA
ATOM      7  O   UNL d   1      -3.236   1.911  -0.395  0.00  0.00    -0.388 OA
ATOM      8  C   UNL d   1      -1.602   0.077  -0.537  0.00  0.00     0.153 C 
ATOM      9  C   UNL d   1      -4.023  -0.390  -0.451  0.00  0.00     0.153 C 
ATOM     10  C   UNL d   1      -1.922   1.486  -0.015  0.00  0.00     0.187 C 
ATOM     11  C   UNL d   1      -4.221   1.009   0.131  0.00  0.00     0.187 C 
ATOM     12  H   UNL d   1      -0.598  -2.183  -0.705  0.00  0.00     0.173 HD
ENDROOT
BRANCH   3  13
ATOM     13  C   UNL d   1       0.560  -4.353  -0.258  0.00  0.00     0.075 A 
ATOM     14  S   UNL d   1       1.564  -3.292  -1.163  0.00  0.00    -0.061 SA
ATOM     15  C   UNL d   1       2.782  -4.472  -1.316  0.00  0.00     0.144 A 
ATOM     16  C   UNL d   1       2.499  -5.625  -0.622  0.00  0.00     0.045 A 
ATOM     17  C   UNL d   1       1.216  -5.549  -0.004  0.00  0.00     0.027 A 
BRANCH  15  18
ATOM     18  N   UNL d   1       3.942  -4.232  -2.135  0.00  0.00    -0.108 N 
ATOM     19  O   UNL d   1       4.670  -5.210  -2.357  0.00  0.00    -0.531 OA
ATOM     20  O   UNL d   1       4.127  -3.087  -2.564  0.00  0.00    -0.531 OA
ENDBRANCH  15  18
ENDBRANCH   3  13
TORSDOF 2
