REMARK  4 active torsions:
REMARK  status: ('A' for Active; 'I' for Inactive)
REMARK    1  A    between atoms: C_2  and  C_1 
REMARK       I    between atoms: N_8  and  C_2 
REMARK    2  A    between atoms: C_12  and  C_5 
REMARK    3  A    between atoms: C_14  and  N_8 
REMARK    4  A    between atoms: N_9  and  C_10 
ROOT
ATOM      1  C   UNL d   1       0.033  -2.674  -0.086  0.00  0.00     0.261 C 
ATOM      2  N   UNL d   1      -0.931  -3.667   0.002  0.00  0.00    -0.323 N 
ATOM      3  O   UNL d   1      -0.193  -1.529  -0.466  0.00  0.00    -0.267 OA
ATOM      4  H   UNL d   1      -0.661  -4.535   0.431  0.00  0.00     0.169 HD
ENDROOT
BRANCH   1   5
ATOM      5  C   UNL d   1       1.395  -3.062   0.291  0.00  0.00     0.093 C 
ATOM      6  C   UNL d   1       2.465  -2.194   0.725  0.00  0.00     0.083 C 
ATOM      7  N   UNL d   1       3.624  -2.869   0.775  0.00  0.00    -0.259 N 
ATOM      8  O   UNL d   1       3.318  -4.182   0.552  0.00  0.00    -0.241 OA
ATOM      9  HN  UNL d   1       4.551  -2.479   0.945  1.00  0.00     0.195 HD
ATOM     10  C   UNL d   1       1.986  -4.317   0.334  0.00  0.00     0.090 C 
ATOM     11  C   UNL d   1       1.548  -5.721   0.220  0.00  0.00     0.080 C 
BRANCH   6  12
ATOM     12  C   UNL d   1       2.427  -0.820   1.236  0.00  0.00    -0.006 A 
ATOM     13  C   UNL d   1       3.563   0.004   1.164  0.00  0.00     0.014 A 
ATOM     14  C   UNL d   1       3.601   1.227   1.841  0.00  0.00     0.001 A 
ATOM     15  C   UNL d   1       2.503   1.643   2.591  0.00  0.00     0.000 A 
ATOM     16  C   UNL d   1       1.361   0.849   2.650  0.00  0.00     0.001 A 
ATOM     17  C   UNL d   1       1.325  -0.374   1.979  0.00  0.00     0.014 A 
ENDBRANCH   6  12
ENDBRANCH   1   5
BRANCH   2  18
ATOM     18  C   UNL d   1      -2.271  -3.612  -0.460  0.00  0.00     0.035 A 
ATOM     19  C   UNL d   1      -2.855  -2.525  -1.097  0.00  0.00     0.032 A 
ATOM     20  C   UNL d   1      -4.170  -2.601  -1.606  0.00  0.00     0.031 A 
ATOM     21  C   UNL d   1      -4.954  -3.759  -1.504  0.00  0.00     0.030 A 
ATOM     22  C   UNL d   1      -4.364  -4.818  -0.805  0.00  0.00     0.031 A 
ATOM     23  C   UNL d   1      -3.055  -4.758  -0.296  0.00  0.00     0.032 A 
BRANCH  21  24
ATOM     24  N   UNL d   1      -6.230  -3.849  -2.025  0.00  0.00    -0.377 N 
ATOM     25  C   UNL d   1      -7.046  -2.691  -2.433  0.00  0.00     0.149 C 
ATOM     26  C   UNL d   1      -8.463  -2.852  -1.846  0.00  0.00     0.187 C 
ATOM     27  O   UNL d   1      -9.074  -4.093  -2.244  0.00  0.00    -0.388 OA
ATOM     28  C   UNL d   1      -8.264  -5.208  -1.830  0.00  0.00     0.187 C 
ATOM     29  C   UNL d   1      -6.852  -5.126  -2.430  0.00  0.00     0.149 C 
ENDBRANCH  21  24
ENDBRANCH   2  18
TORSDOF 4
