REMARK  7 active torsions:
REMARK  status: ('A' for Active; 'I' for Inactive)
REMARK       I    between atoms: N_3  and  C_1 
REMARK    1  A    between atoms: C_9  and  C_1 
REMARK       I    between atoms: C_2  and  N_4 
REMARK    2  A    between atoms: C_13  and  C_2 
REMARK    3  A    between atoms: N_4  and  N_3 
REMARK    4  A    between atoms: C_5  and  C_14 
REMARK       I    between atoms: N_6  and  C_5 
REMARK    5  A    between atoms: C_12  and  N_6 
REMARK    6  A    between atoms: S_11  and  C_13 
REMARK    7  A    between atoms: C_14  and  S_11 
ROOT
ATOM      1  C   UNL d   1       0.189  -3.739   0.279  0.00  0.00     0.245 C 
ATOM      2  N   UNL d   1      -0.568  -3.580   1.414  0.00  0.00    -0.267 N 
ATOM      3  O   UNL d   1       0.386  -2.812  -0.511  0.00  0.00    -0.271 OA
ATOM      4  H   UNL d   1      -0.957  -4.388   1.904  0.00  0.00     0.190 HD
ENDROOT
BRANCH   1   5
ATOM      5  C   UNL d   1       0.900  -5.074   0.117  0.00  0.00     0.178 C 
BRANCH   5   6
ATOM      6  S   UNL d   1       0.154  -6.483   1.016  0.00  0.00    -0.150 SA
BRANCH   6   7
ATOM      7  C   UNL d   1       1.492  -7.677   0.695  0.00  0.00     0.177 C 
BRANCH   7   8
ATOM      8  C   UNL d   1       1.333  -9.070   1.285  0.00  0.00     0.231 C 
ATOM      9  N   UNL d   1       0.168  -9.325   1.979  0.00  0.00    -0.327 N 
ATOM     10  H   UNL d   1      -0.536  -8.595   1.948  0.00  0.00     0.169 HD
ATOM     11  O   UNL d   1       2.233  -9.887   1.084  0.00  0.00    -0.272 OA
BRANCH   9  12
ATOM     12  C   UNL d   1      -0.197 -10.549   2.584  0.00  0.00     0.034 A 
ATOM     13  C   UNL d   1       0.702 -11.596   2.816  0.00  0.00     0.029 A 
ATOM     14  C   UNL d   1       0.265 -12.809   3.356  0.00  0.00     0.002 A 
ATOM     15  C   UNL d   1      -1.076 -12.987   3.679  0.00  0.00     0.000 A 
ATOM     16  C   UNL d   1      -1.975 -11.941   3.487  0.00  0.00     0.002 A 
ATOM     17  C   UNL d   1      -1.535 -10.723   2.956  0.00  0.00     0.029 A 
ENDBRANCH   9  12
ENDBRANCH   7   8
ENDBRANCH   6   7
ENDBRANCH   5   6
ENDBRANCH   1   5
BRANCH   2  18
ATOM     18  N   UNL d   1      -1.188  -2.344   1.649  0.00  0.00    -0.263 N 
ATOM     19  C   UNL d   1      -2.347  -2.339   2.401  0.00  0.00     0.270 C 
ATOM     20  O   UNL d   1      -2.868  -3.370   2.815  0.00  0.00    -0.266 OA
ATOM     21  H   UNL d   1      -0.858  -1.551   1.107  0.00  0.00     0.190 HD
BRANCH  19  22
ATOM     22  C   UNL d   1      -2.951  -1.013   2.702  0.00  0.00     0.033 A 
ATOM     23  C   UNL d   1      -4.330  -0.950   2.939  0.00  0.00     0.017 A 
ATOM     24  C   UNL d   1      -4.928   0.254   3.314  0.00  0.00     0.001 A 
ATOM     25  C   UNL d   1      -4.149   1.400   3.466  0.00  0.00     0.000 A 
ATOM     26  C   UNL d   1      -2.774   1.347   3.232  0.00  0.00     0.001 A 
ATOM     27  C   UNL d   1      -2.172   0.144   2.849  0.00  0.00     0.017 A 
ENDBRANCH  19  22
ENDBRANCH   2  18
TORSDOF 7
