REMARK  6 active torsions:
REMARK  status: ('A' for Active; 'I' for Inactive)
REMARK    1  A    between atoms: C_9  and  C_1 
REMARK    2  A    between atoms: N_6  and  C_2 
REMARK    3  A    between atoms: C_10  and  N_6 
REMARK    4  A    between atoms: O_14  and  C_9 
REMARK    5  A    between atoms: C_11  and  C_10 
REMARK    6  A    between atoms: C_19  and  O_14 
ROOT
ATOM      1  C   UNL d   1      -0.026   1.394   0.141  0.00  0.00     0.108 A 
ATOM      2  C   UNL d   1      -1.349   0.963   0.166  0.00  0.00     0.138 A 
ATOM      3  N   UNL d   1      -0.036  -0.893  -0.075  0.00  0.00    -0.302 N 
ATOM      4  HN  UNL d   1       0.248  -1.865  -0.195  1.00  0.00     0.186 HD
ATOM      5  N   UNL d   1      -1.275  -0.400   0.038  0.00  0.00    -0.284 N 
ATOM      6  C   UNL d   1       0.741   0.192   0.008  0.00  0.00     0.042 A 
ATOM      7  C   UNL d   1       2.219   0.026  -0.030  0.00  0.00     0.071 C 
ATOM      8  H   UNL d   1      -2.059  -1.040   0.022  0.00  0.00     0.188 HD
ENDROOT
BRANCH   2   9
ATOM      9  N   UNL d   1      -2.582   1.507   0.331  0.00  0.00    -0.349 N 
ATOM     10  HN  UNL d   1      -3.279   1.056   0.924  1.00  0.00     0.166 HD
BRANCH   9  11
ATOM     11  C   UNL d   1      -2.851   2.615  -0.286  0.00  0.00     0.102 C 
BRANCH  11  12
ATOM     12  C   UNL d   1      -4.166   3.280  -0.117  0.00  0.00     0.001 A 
ATOM     13  C   UNL d   1      -4.401   4.586  -0.564  0.00  0.00     0.045 A 
ATOM     14 CL   UNL d   1      -3.189   5.553  -1.328  0.00  0.00    -0.083 Cl
ATOM     15  C   UNL d   1      -5.663   5.167  -0.384  0.00  0.00     0.024 A 
ATOM     16  C   UNL d   1      -6.690   4.450   0.232  0.00  0.00     0.002 A 
ATOM     17  C   UNL d   1      -6.460   3.151   0.679  0.00  0.00     0.001 A 
ATOM     18  C   UNL d   1      -5.203   2.570   0.509  0.00  0.00     0.014 A 
ENDBRANCH  11  12
ENDBRANCH   9  11
ENDBRANCH   2   9
BRANCH   1  19
ATOM     19  C   UNL d   1       0.453   2.764   0.217  0.00  0.00     0.299 C 
ATOM     20  O   UNL d   1      -0.259   3.735   0.445  0.00  0.00    -0.259 OA
BRANCH  19  21
ATOM     21  O   UNL d   1       1.777   2.860  -0.103  0.00  0.00    -0.318 OA
BRANCH  21  22
ATOM     22  C   UNL d   1       2.231   4.149  -0.533  0.00  0.00     0.174 C 
ATOM     23  C   UNL d   1       2.161   4.176  -2.050  0.00  0.00     0.034 C 
ENDBRANCH  21  22
ENDBRANCH  19  21
ENDBRANCH   1  19
TORSDOF 6
