REMARK  4 active torsions:
REMARK  status: ('A' for Active; 'I' for Inactive)
REMARK    1  A    between atoms: C_17  and  C_3 
REMARK    2  A    between atoms: C_8  and  C_4 
REMARK    3  A    between atoms: C_9  and  C_7 
REMARK    4  A    between atoms: C_11  and  C_8 
ROOT
ATOM      1  C   UNL d   1       0.202  -2.116   0.027  0.00  0.00     0.073 C 
ENDROOT
BRANCH   1   2
ATOM      2  C   UNL d   1       0.316  -0.782   0.050  0.00  0.00     0.113 A 
ATOM      3  N   UNL d   1       1.524  -0.123   0.037  0.00  0.00    -0.331 N 
ATOM      4  C   UNL d   1       1.172   1.123   0.013  0.00  0.00     0.162 A 
ATOM      5  HN  UNL d   1       2.464  -0.519   0.045  1.00  0.00     0.168 HD
ATOM      6  O   UNL d   1      -0.151   1.402   0.028  0.00  0.00    -0.256 OA
ATOM      7  C   UNL d   1      -0.799   0.209   0.060  0.00  0.00     0.316 A 
ATOM      8  O   UNL d   1      -2.002   0.049   0.104  0.00  0.00    -0.257 OA
BRANCH   4   9
ATOM      9  C   UNL d   1       2.056   2.298  -0.051  0.00  0.00     0.015 A 
ATOM     10  C   UNL d   1       3.442   2.108  -0.091  0.00  0.00     0.016 A 
ATOM     11  C   UNL d   1       4.296   3.207  -0.204  0.00  0.00     0.001 A 
ATOM     12  C   UNL d   1       3.770   4.497  -0.275  0.00  0.00     0.000 A 
ATOM     13  C   UNL d   1       2.391   4.693  -0.222  0.00  0.00     0.001 A 
ATOM     14  C   UNL d   1       1.533   3.597  -0.108  0.00  0.00     0.016 A 
ENDBRANCH   4   9
ENDBRANCH   1   2
BRANCH   1  15
ATOM     15  C   UNL d   1      -1.046  -2.785   0.028  0.00  0.00     0.078 A 
ATOM     16  O   UNL d   1      -1.636  -3.298  -1.106  0.00  0.00    -0.310 OA
ATOM     17  C   UNL d   1      -2.833  -3.868  -0.758  0.00  0.00     0.088 A 
ATOM     18  C   UNL d   1      -2.995  -3.769   0.606  0.00  0.00     0.041 A 
ATOM     19  C   UNL d   1      -1.869  -3.079   1.106  0.00  0.00     0.040 A 
BRANCH  17  20
ATOM     20  C   UNL d   1      -3.618  -4.468  -1.833  0.00  0.00     0.019 A 
ATOM     21  C   UNL d   1      -5.028  -4.498  -1.831  0.00  0.00     0.048 A 
ATOM     22  C   UNL d   1      -5.734  -5.216  -2.806  0.00  0.00     0.044 A 
ATOM     23 CL   UNL d   1      -5.991  -3.645  -0.671  0.00  0.00    -0.083 Cl
ATOM     24  C   UNL d   1      -5.044  -5.894  -3.804  0.00  0.00     0.012 A 
ATOM     25  C   UNL d   1      -3.656  -5.834  -3.863  0.00  0.00     0.020 A 
ATOM     26 BR   UNL d   1      -6.000  -6.912  -5.077  0.00  0.00    -0.051 Br
ATOM     27  C   UNL d   1      -2.950  -5.122  -2.885  0.00  0.00     0.017 A 
ENDBRANCH  17  20
ENDBRANCH   1  15
TORSDOF 4
