REMARK  3 active torsions:
REMARK  status: ('A' for Active; 'I' for Inactive)
REMARK    1  A    between atoms: C_12  and  C_2 
REMARK    2  A    between atoms: C_16  and  C_10 
REMARK    3  A    between atoms: C_13  and  C_11 
ROOT
ATOM      1  N   UNL d   1       0.280   0.610   0.024  0.00  0.00    -0.235 N 
ATOM      2  C   UNL d   1      -0.839   1.433   0.028  0.00  0.00     0.144 A 
ATOM      3  C   UNL d   1       0.131  -0.779   0.042  0.00  0.00     0.130 A 
ATOM      4  N   UNL d   1       1.589   0.951   0.011  0.00  0.00    -0.291 N 
ATOM      5  HN  UNL d   1       1.974   1.896   0.007  1.00  0.00     0.187 HD
ATOM      6  N   UNL d   1      -1.085  -1.392   0.088  0.00  0.00    -0.340 N 
ATOM      7  HN  UNL d   1      -1.171  -2.408   0.122  1.00  0.00     0.167 HD
ATOM      8  C   UNL d   1      -2.068   0.878   0.053  0.00  0.00     0.067 A 
ATOM      9  C   UNL d   1       1.397  -1.302   0.007  0.00  0.00     0.082 A 
ATOM     10  C   UNL d   1       2.279  -0.198   0.003  0.00  0.00     0.062 A 
ATOM     11  C   UNL d   1      -2.135  -0.619   0.086  0.00  0.00     0.046 A 
ENDROOT
BRANCH  11  12
ATOM     12  C   UNL d   1      -3.492  -1.239   0.149  0.00  0.00    -0.009 A 
ATOM     13  C   UNL d   1      -3.643  -2.440   0.862  0.00  0.00     0.021 A 
ATOM     14  C   UNL d   1      -4.897  -3.027   0.914  0.00  0.00    -0.051 A 
ATOM     15  C   UNL d   1      -5.309  -4.268   1.643  0.00  0.00     0.039 C 
ATOM     16  C   UNL d   1      -5.994  -2.442   0.273  0.00  0.00    -0.052 A 
ATOM     17  C   UNL d   1      -6.642  -4.590   0.950  0.00  0.00     0.009 C 
ATOM     18  C   UNL d   1      -7.235  -3.248   0.496  0.00  0.00     0.039 C 
ATOM     19  C   UNL d   1      -5.863  -1.257  -0.429  0.00  0.00     0.008 A 
ATOM     20  C   UNL d   1      -4.601  -0.659  -0.500  0.00  0.00     0.014 A 
ENDBRANCH  11  12
BRANCH   2  21
ATOM     21  C   UNL d   1      -0.652   2.904   0.015  0.00  0.00     0.434 C 
ATOM     22  F   UNL d   1       0.619   3.365  -0.008  0.00  0.00    -0.165 F 
ATOM     23  F   UNL d   1      -1.275   3.453  -1.066  0.00  0.00    -0.165 F 
ATOM     24  F   UNL d   1      -1.243   3.471   1.104  0.00  0.00    -0.165 F 
ENDBRANCH   2  21
BRANCH  10  25
ATOM     25  C   UNL d   1       3.745  -0.213   0.008  0.00  0.00    -0.008 A 
ATOM     26  C   UNL d   1       4.479   0.982   0.050  0.00  0.00     0.014 A 
ATOM     27  C   UNL d   1       5.877   0.965   0.092  0.00  0.00     0.007 A 
ATOM     28  C   UNL d   1       6.571  -0.249   0.091  0.00  0.00    -0.062 A 
ATOM     29  C   UNL d   1       5.847  -1.443   0.035  0.00  0.00     0.007 A 
ATOM     30  C   UNL d   1       8.068  -0.265   0.167  0.00  0.00     0.048 C 
ATOM     31  C   UNL d   1       4.451  -1.425  -0.007  0.00  0.00     0.014 A 
ENDBRANCH  10  25
TORSDOF 3
