REMARK  7 active torsions:
REMARK  status: ('A' for Active; 'I' for Inactive)
REMARK    1  A    between atoms: C_7  and  C_1 
REMARK    2  A    between atoms: O_27  and  C_7 
REMARK    3  A    between atoms: C_12  and  C_24 
REMARK       I    between atoms: N_14  and  C_12 
REMARK    4  A    between atoms: C_15  and  N_14 
REMARK    5  A    between atoms: O_23  and  C_21 
REMARK    6  A    between atoms: C_24  and  O_23 
REMARK    7  A    between atoms: C_30  and  O_27 
ROOT
ATOM      1  C   UNL d   1      -1.824  -1.474   0.066  0.00  0.00     0.154 A 
ATOM      2  C   UNL d   1      -2.346  -0.254  -0.140  0.00  0.00     0.099 A 
ATOM      3  C   UNL d   1       0.389  -0.674   0.301  0.00  0.00     0.093 A 
ATOM      4  O   UNL d   1      -0.489  -1.724   0.338  0.00  0.00    -0.303 OA
ATOM      5  C   UNL d   1      -1.451   0.914  -0.101  0.00  0.00     0.187 A 
ATOM      6  C   UNL d   1      -0.017   0.637   0.080  0.00  0.00     0.048 A 
ATOM      7  C   UNL d   1       1.741  -0.973   0.482  0.00  0.00     0.075 A 
ATOM      8  C   UNL d   1       0.931   1.659   0.010  0.00  0.00     0.021 A 
ATOM      9  O   UNL d   1      -1.888   2.048  -0.219  0.00  0.00    -0.287 OA
ATOM     10  C   UNL d   1       2.700   0.040   0.420  0.00  0.00     0.072 A 
ATOM     11  C   UNL d   1       2.291   1.355   0.169  0.00  0.00     0.038 A 
ENDROOT
BRANCH  10  12
ATOM     12  O   UNL d   1       4.002  -0.376   0.573  0.00  0.00    -0.342 OA
BRANCH  12  13
ATOM     13  C   UNL d   1       4.881   0.613   1.090  0.00  0.00     0.278 C 
BRANCH  13  14
ATOM     14  C   UNL d   1       6.305   0.143   1.400  0.00  0.00     0.246 C 
ATOM     15  N   UNL d   1       6.609  -1.149   1.008  0.00  0.00    -0.325 N 
ATOM     16  H   UNL d   1       5.903  -1.622   0.453  0.00  0.00     0.169 HD
ATOM     17  O   UNL d   1       7.088   0.941   1.920  0.00  0.00    -0.271 OA
BRANCH  15  18
ATOM     18  C   UNL d   1       7.867  -1.784   1.157  0.00  0.00     0.037 A 
ATOM     19  C   UNL d   1       8.873  -1.295   1.998  0.00  0.00     0.069 A 
ATOM     20  C   UNL d   1      10.132  -1.896   2.032  0.00  0.00     0.104 A 
ATOM     21  O   UNL d   1      11.070  -1.310   2.843  0.00  0.00    -0.346 OA
ATOM     22  C   UNL d   1      10.393  -3.029   1.261  0.00  0.00     0.102 A 
ATOM     23  C   UNL d   1      12.390  -1.669   2.426  0.00  0.00     0.202 C 
ATOM     24  C   UNL d   1      12.499  -3.174   2.248  0.00  0.00     0.202 C 
ATOM     25  O   UNL d   1      11.612  -3.651   1.227  0.00  0.00    -0.346 OA
ATOM     26  C   UNL d   1       9.385  -3.557   0.457  0.00  0.00     0.042 A 
ATOM     27  C   UNL d   1       8.122  -2.942   0.413  0.00  0.00     0.032 A 
ENDBRANCH  15  18
ENDBRANCH  13  14
ENDBRANCH  12  13
ENDBRANCH  10  12
BRANCH   1  28
ATOM     28  C   UNL d   1      -2.759  -2.631   0.061  0.00  0.00     0.317 C 
ATOM     29  O   UNL d   1      -3.964  -2.555  -0.128  0.00  0.00    -0.257 OA
BRANCH  28  30
ATOM     30  O   UNL d   1      -2.064  -3.752   0.381  0.00  0.00    -0.316 OA
BRANCH  30  31
ATOM     31  C   UNL d   1      -2.850  -4.872   0.802  0.00  0.00     0.175 C 
ATOM     32  C   UNL d   1      -3.084  -4.745   2.296  0.00  0.00     0.034 C 
ENDBRANCH  30  31
ENDBRANCH  28  30
ENDBRANCH   1  28
TORSDOF 7
