REMARK  10 active torsions:
REMARK  status: ('A' for Active; 'I' for Inactive)
REMARK    1  A    between atoms: N_2  and  C_1 
REMARK    2  A    between atoms: C_3  and  C_1 
REMARK    3  A    between atoms: C_4  and  C_1 
REMARK    4  A    between atoms: N_6  and  C_1 
REMARK       I    between atoms: C_5  and  N_2 
REMARK    5  A    between atoms: O_14  and  C_5 
REMARK    6  A    between atoms: C_17  and  N_6 
REMARK    7  A    between atoms: C_24  and  O_14 
REMARK    8  A    between atoms: O_22  and  C_15 
REMARK    9  A    between atoms: C_16  and  C_23 
REMARK   10  A    between atoms: C_23  and  C_17 
ROOT
ATOM      1  C   UNL d   1       1.002  -0.054   0.047  0.00  0.00     0.427 C 
ENDROOT
BRANCH   1   2
ATOM      2  N   UNL d   1       0.616  -1.077   1.030  0.00  0.00    -0.286 N 
ATOM      3  C   UNL d   1      -0.683  -1.304   1.333  0.00  0.00     0.363 C 
ATOM      4  O   UNL d   1      -1.613  -0.743   0.798  0.00  0.00    -0.238 OA
ATOM      5  H   UNL d   1       1.320  -1.599   1.513  0.00  0.00     0.168 HD
BRANCH   3   6
ATOM      6  O   UNL d   1      -0.738  -2.167   2.373  0.00  0.00    -0.304 OA
BRANCH   6   7
ATOM      7  C   UNL d   1      -2.000  -2.201   3.053  0.00  0.00     0.176 C 
ATOM      8  C   UNL d   1      -2.018  -1.089   4.085  0.00  0.00     0.034 C 
ENDBRANCH   6   7
ENDBRANCH   3   6
ENDBRANCH   1   2
BRANCH   1   9
ATOM      9  C   UNL d   1       0.366   1.370   0.323  0.00  0.00     0.452 C 
ATOM     10  F   UNL d   1      -0.042   1.481   1.619  0.00  0.00    -0.166 F 
ATOM     11  F   UNL d   1       1.305   2.344   0.156  0.00  0.00    -0.166 F 
ATOM     12  F   UNL d   1      -0.680   1.728  -0.441  0.00  0.00    -0.166 F 
ENDBRANCH   1   9
BRANCH   1  13
ATOM     13  C   UNL d   1       0.579  -0.473  -1.420  0.00  0.00     0.452 C 
ATOM     14  F   UNL d   1       0.025  -1.719  -1.450  0.00  0.00    -0.166 F 
ATOM     15  F   UNL d   1      -0.273   0.346  -2.065  0.00  0.00    -0.166 F 
ATOM     16  F   UNL d   1       1.682  -0.551  -2.223  0.00  0.00    -0.166 F 
ENDBRANCH   1  13
BRANCH   1  17
ATOM     17  N   UNL d   1       2.521  -0.107   0.187  0.00  0.00     0.132 N 
ATOM     18  H   UNL d   1       2.906   0.456  -0.580  0.00  0.00     0.320 HD
BRANCH  17  19
ATOM     19  C   UNL d   1       3.068   0.394   1.456  0.00  0.00     0.278 C 
BRANCH  19  20
ATOM     20  C   UNL d   1       4.607   0.390   1.408  0.00  0.00     0.068 C 
BRANCH  20  21
ATOM     21  C   UNL d   1       5.190   0.820   2.732  0.00  0.00    -0.056 A 
ATOM     22  C   UNL d   1       5.427  -0.120   3.741  0.00  0.00     0.010 A 
ATOM     23  C   UNL d   1       5.918   0.288   4.983  0.00  0.00     0.037 A 
ATOM     24  C   UNL d   1       6.195   1.634   5.229  0.00  0.00     0.068 A 
ATOM     25  C   UNL d   1       5.947   2.577   4.232  0.00  0.00     0.037 A 
ATOM     26  C   UNL d   1       5.448   2.172   2.990  0.00  0.00     0.010 A 
BRANCH  24  27
ATOM     27  O   UNL d   1       6.657   1.916   6.485  0.00  0.00    -0.356 OA
ATOM     28  C   UNL d   1       7.494   3.063   6.587  0.00  0.00     0.210 C 
ENDBRANCH  24  27
ENDBRANCH  20  21
ENDBRANCH  19  20
ENDBRANCH  17  19
ENDBRANCH   1  17
TORSDOF 10
