REMARK  7 active torsions:
REMARK  status: ('A' for Active; 'I' for Inactive)
REMARK    1  A    between atoms: C_5  and  C_1 
REMARK    2  A    between atoms: C_8  and  C_2 
REMARK       I    between atoms: N_16  and  C_8 
REMARK    3  A    between atoms: C_10  and  C_24 
REMARK    4  A    between atoms: C_29  and  N_16 
REMARK    5  A    between atoms: S_23  and  C_30 
REMARK    6  A    between atoms: C_24  and  S_23 
REMARK    7  A    between atoms: C_30  and  C_29 
ROOT
ATOM      1  C   UNL d   1       0.408  -2.686  -0.618  0.00  0.00     0.256 C 
ATOM      2  O   UNL d   1      -0.384  -3.503  -1.077  0.00  0.00    -0.267 OA
ATOM      3  N   UNL d   1       1.710  -2.996  -0.271  0.00  0.00    -0.356 N 
ATOM      4  H   UNL d   1       2.188  -2.345   0.346  0.00  0.00     0.162 HD
ENDROOT
BRANCH   1   5
ATOM      5  C   UNL d   1       0.031  -1.328  -0.304  0.00  0.00     0.092 A 
ATOM      6  C   UNL d   1      -1.134  -0.837   0.376  0.00  0.00     0.086 A 
ATOM      7  N   UNL d   1      -1.040   0.504   0.500  0.00  0.00    -0.259 N 
ATOM      8  O   UNL d   1       0.099   0.894  -0.158  0.00  0.00    -0.241 OA
ATOM      9  HN  UNL d   1      -1.693   1.114   0.991  1.00  0.00     0.195 HD
ATOM     10  C   UNL d   1       0.748  -0.195  -0.632  0.00  0.00     0.090 A 
ATOM     11  C   UNL d   1       1.989   0.086  -1.385  0.00  0.00     0.080 C 
BRANCH   6  12
ATOM     12  C   UNL d   1      -2.303  -1.533   0.948  0.00  0.00     0.037 A 
ATOM     13  C   UNL d   1      -2.185  -2.671   1.773  0.00  0.00     0.048 A 
ATOM     14 CL   UNL d   1      -0.695  -3.417   2.210  0.00  0.00    -0.083 Cl
ATOM     15  C   UNL d   1      -3.313  -3.280   2.356  0.00  0.00     0.025 A 
ATOM     16  C   UNL d   1      -4.584  -2.760   2.155  0.00  0.00     0.003 A 
ATOM     17  C   UNL d   1      -4.731  -1.637   1.356  0.00  0.00     0.025 A 
ATOM     18  C   UNL d   1      -3.613  -1.038   0.745  0.00  0.00     0.048 A 
ATOM     19 CL   UNL d   1      -3.985   0.318  -0.275  0.00  0.00    -0.083 Cl
ENDBRANCH   6  12
ENDBRANCH   1   5
BRANCH   3  20
ATOM     20  C   UNL d   1       2.143  -4.379  -0.198  0.00  0.00     0.133 C 
BRANCH  20  21
ATOM     21  C   UNL d   1       3.634  -4.526   0.115  0.00  0.00     0.093 C 
BRANCH  21  22
ATOM     22  S   UNL d   1       4.188  -3.616   1.610  0.00  0.00    -0.163 SA
BRANCH  22  23
ATOM     23  C   UNL d   1       3.273  -4.526   2.893  0.00  0.00     0.114 C 
BRANCH  23  24
ATOM     24  C   UNL d   1       3.542  -3.991   4.282  0.00  0.00    -0.027 A 
ATOM     25  C   UNL d   1       2.851  -2.893   4.825  0.00  0.00     0.042 A 
ATOM     26  C   UNL d   1       3.058  -2.493   6.147  0.00  0.00     0.048 A 
ATOM     27 CL   UNL d   1       1.757  -1.940   3.895  0.00  0.00    -0.084 Cl
ATOM     28  C   UNL d   1       4.008  -3.145   6.923  0.00  0.00     0.035 A 
ATOM     29  C   UNL d   1       4.753  -4.192   6.390  0.00  0.00     0.024 A 
ATOM     30 CL   UNL d   1       4.276  -2.639   8.545  0.00  0.00    -0.084 Cl
ATOM     31  C   UNL d   1       4.517  -4.618   5.080  0.00  0.00     0.011 A 
ENDBRANCH  23  24
ENDBRANCH  22  23
ENDBRANCH  21  22
ENDBRANCH  20  21
ENDBRANCH   3  20
TORSDOF 7
