REMARK  5 active torsions:
REMARK  status: ('A' for Active; 'I' for Inactive)
REMARK    1  A    between atoms: N_2  and  C_1 
REMARK    2  A    between atoms: C_4  and  C_1 
REMARK    3  A    between atoms: C_10  and  N_2 
REMARK    4  A    between atoms: C_7  and  C_3 
REMARK    5  A    between atoms: C_11  and  N_5 
ROOT
ATOM      1  C   UNL d   1       0.882   0.158   0.059  0.00  0.00     0.044 C 
ATOM      2  C   UNL d   1       0.220  -1.015   0.035  0.00  0.00     0.047 C 
ENDROOT
BRANCH   1   3
ATOM      3  N   UNL d   1       2.254   0.300   0.191  0.00  0.00    -0.356 N 
ATOM      4  H   UNL d   1       2.601   1.244   0.040  0.00  0.00     0.166 HD
BRANCH   3   5
ATOM      5  C   UNL d   1       3.109  -0.449   1.030  0.00  0.00     0.032 A 
ATOM      6  C   UNL d   1       2.655  -1.166   2.143  0.00  0.00     0.030 A 
ATOM      7  C   UNL d   1       3.532  -1.940   2.908  0.00  0.00     0.009 A 
ATOM      8  C   UNL d   1       4.885  -2.022   2.568  0.00  0.00    -0.062 A 
ATOM      9  C   UNL d   1       5.353  -1.286   1.476  0.00  0.00     0.009 A 
ATOM     10  C   UNL d   1       5.808  -2.884   3.378  0.00  0.00     0.048 C 
ATOM     11  C   UNL d   1       4.473  -0.506   0.718  0.00  0.00     0.030 A 
ENDBRANCH   3   5
ENDBRANCH   1   3
BRANCH   1  12
ATOM     12  C   UNL d   1       0.138   1.430  -0.047  0.00  0.00    -0.009 A 
ATOM     13  C   UNL d   1      -0.387   2.016   1.115  0.00  0.00     0.015 A 
ATOM     14  C   UNL d   1      -1.146   3.184   1.035  0.00  0.00     0.024 A 
ATOM     15  C   UNL d   1      -1.380   3.770  -0.207  0.00  0.00     0.034 A 
ATOM     16  C   UNL d   1      -0.854   3.204  -1.368  0.00  0.00     0.024 A 
ATOM     17 CL   UNL d   1      -2.333   5.199  -0.309  0.00  0.00    -0.084 Cl
ATOM     18  C   UNL d   1      -0.091   2.034  -1.289  0.00  0.00     0.015 A 
ENDBRANCH   1  12
BRANCH   2  19
ATOM     19  C   UNL d   1      -1.245  -1.133  -0.112  0.00  0.00     0.090 C 
ATOM     20  N   UNL d   1      -1.882  -2.166   0.326  0.00  0.00    -0.366 N 
ATOM     21  HN  UNL d   1      -1.378  -2.946   0.747  1.00  0.00     0.165 HD
BRANCH  20  22
ATOM     22  C   UNL d   1      -3.285  -2.199   0.212  0.00  0.00     0.031 A 
ATOM     23  C   UNL d   1      -3.896  -3.439   0.021  0.00  0.00     0.030 A 
ATOM     24  C   UNL d   1      -5.288  -3.552  -0.048  0.00  0.00     0.009 A 
ATOM     25  C   UNL d   1      -6.098  -2.418   0.071  0.00  0.00    -0.062 A 
ATOM     26  C   UNL d   1      -5.494  -1.174   0.271  0.00  0.00     0.009 A 
ATOM     27  C   UNL d   1      -7.590  -2.548   0.014  0.00  0.00     0.048 C 
ATOM     28  C   UNL d   1      -4.102  -1.070   0.354  0.00  0.00     0.030 A 
ENDBRANCH  20  22
ENDBRANCH   2  19
TORSDOF 5
