REMARK  6 active torsions:
REMARK  status: ('A' for Active; 'I' for Inactive)
REMARK    1  A    between atoms: N_4  and  C_8 
REMARK    2  A    between atoms: S_15  and  C_7 
REMARK       I    between atoms: C_9  and  N_13 
REMARK    3  A    between atoms: C_22  and  C_9 
REMARK    4  A    between atoms: C_10  and  C_23 
REMARK       I    between atoms: N_16  and  C_10 
REMARK    5  A    between atoms: N_13  and  N_16 
REMARK    6  A    between atoms: C_23  and  S_15 
ROOT
ATOM      1  S   UNL d   1      -2.401   1.925   1.306  0.00  0.00    -0.149 SA
ENDROOT
BRANCH   1   2
ATOM      2  C   UNL d   1      -1.901   0.919   2.761  0.00  0.00     0.096 C 
ATOM      3  C   UNL d   1      -2.515  -0.488   2.775  0.00  0.00     0.165 C 
ATOM      4  S   UNL d   1      -3.550  -0.591   4.229  0.00  0.00     0.177 S 
ATOM      5  C   UNL d   1      -3.028   0.922   4.933  0.00  0.00     0.069 A 
ATOM      6  O   UNL d   1      -3.098  -1.665   5.079  0.00  0.00    -0.223 OA
ATOM      7  O   UNL d   1      -4.925  -0.405   3.813  0.00  0.00    -0.223 OA
ATOM      8  C   UNL d   1      -2.167   1.602   4.078  0.00  0.00    -0.022 A 
ATOM      9  C   UNL d   1      -3.484   1.432   6.136  0.00  0.00     0.060 A 
ATOM     10  C   UNL d   1      -1.694   2.855   4.459  0.00  0.00     0.012 A 
ATOM     11  C   UNL d   1      -2.143   3.420   5.658  0.00  0.00     0.037 A 
ATOM     12  C   UNL d   1      -3.040   2.713   6.484  0.00  0.00     0.104 A 
BRANCH  12  13
ATOM     13  N   UNL d   1      -3.553   3.354   7.700  0.00  0.00    -0.116 N 
ATOM     14  O   UNL d   1      -4.182   2.647   8.498  0.00  0.00    -0.532 OA
ATOM     15  O   UNL d   1      -3.335   4.565   7.847  0.00  0.00    -0.532 OA
ENDBRANCH  12  13
ENDBRANCH   1   2
BRANCH   1  16
ATOM     16  C   UNL d   1      -4.217   2.064   1.483  0.00  0.00     0.179 C 
BRANCH  16  17
ATOM     17  C   UNL d   1      -4.647   2.962   2.629  0.00  0.00     0.245 C 
ATOM     18  N   UNL d   1      -5.635   2.426   3.438  0.00  0.00    -0.267 N 
ATOM     19  H   UNL d   1      -5.902   1.435   3.446  0.00  0.00     0.190 HD
ATOM     20  O   UNL d   1      -4.185   4.086   2.828  0.00  0.00    -0.271 OA
BRANCH  18  21
ATOM     21  N   UNL d   1      -6.021   3.182   4.551  0.00  0.00    -0.263 N 
ATOM     22  C   UNL d   1      -6.870   2.624   5.487  0.00  0.00     0.270 C 
ATOM     23  O   UNL d   1      -7.316   1.486   5.392  0.00  0.00    -0.266 OA
ATOM     24  H   UNL d   1      -5.524   4.061   4.685  0.00  0.00     0.190 HD
BRANCH  22  25
ATOM     25  C   UNL d   1      -7.165   3.472   6.676  0.00  0.00     0.033 A 
ATOM     26  C   UNL d   1      -7.090   4.870   6.622  0.00  0.00     0.017 A 
ATOM     27  C   UNL d   1      -7.306   5.628   7.773  0.00  0.00     0.001 A 
ATOM     28  C   UNL d   1      -7.610   4.996   8.978  0.00  0.00     0.000 A 
ATOM     29  C   UNL d   1      -7.715   3.607   9.031  0.00  0.00     0.001 A 
ATOM     30  C   UNL d   1      -7.501   2.844   7.882  0.00  0.00     0.017 A 
ENDBRANCH  22  25
ENDBRANCH  18  21
ENDBRANCH  16  17
ENDBRANCH   1  16
TORSDOF 6
