REMARK  6 active torsions:
REMARK  status: ('A' for Active; 'I' for Inactive)
REMARK    1  A    between atoms: N_5  and  S_1 
REMARK    2  A    between atoms: C_7  and  S_1 
REMARK    3  A    between atoms: C_2  and  C_8 
REMARK    4  A    between atoms: C_19  and  N_5 
REMARK    5  A    between atoms: N_22  and  C_6 
REMARK    6  A    between atoms: C_9  and  C_15 
ROOT
ATOM      1  C   UNL d   1       1.190   5.413   0.261  0.00  0.00    -0.009 A 
ATOM      2  C   UNL d   1       0.783   2.747  -0.589  0.00  0.00     0.042 A 
ATOM      3  C   UNL d   1       2.244   4.479   0.242  0.00  0.00     0.016 A 
ATOM      4  C   UNL d   1      -0.067   4.974  -0.197  0.00  0.00     0.016 A 
ATOM      5  C   UNL d   1      -0.268   3.657  -0.624  0.00  0.00     0.031 A 
ATOM      6  C   UNL d   1       2.042   3.154  -0.164  0.00  0.00     0.031 A 
ENDROOT
BRANCH   2   7
ATOM      7  N   UNL d   1       0.561   1.419  -1.038  0.00  0.00    -0.281 N 
ATOM      8  H   UNL d   1       0.869   0.654  -0.441  0.00  0.00     0.179 HD
BRANCH   7   9
ATOM      9  S   UNL d   1       0.692   1.080  -2.683  0.00  0.00     0.263 S 
ATOM     10  O   UNL d   1      -0.092   2.032  -3.439  0.00  0.00    -0.200 OA
ATOM     11  O   UNL d   1       0.479  -0.345  -2.819  0.00  0.00    -0.200 OA
BRANCH   9  12
ATOM     12  C   UNL d   1       2.415   1.382  -3.029  0.00  0.00     0.080 A 
ATOM     13  C   UNL d   1       3.336   0.334  -2.892  0.00  0.00     0.041 A 
ATOM     14  C   UNL d   1       4.689   0.540  -3.202  0.00  0.00     0.049 A 
ATOM     15  C   UNL d   1       5.098   1.810  -3.644  0.00  0.00     0.016 A 
ATOM     16  C   UNL d   1       4.173   2.848  -3.790  0.00  0.00     0.002 A 
ATOM     17  C   UNL d   1       2.826   2.634  -3.494  0.00  0.00     0.025 A 
BRANCH  14  18
ATOM     18  C   UNL d   1       5.698  -0.579  -3.084  0.00  0.00     0.417 C 
ATOM     19  F   UNL d   1       5.159  -1.749  -2.643  0.00  0.00    -0.166 F 
ATOM     20  F   UNL d   1       6.301  -0.866  -4.270  0.00  0.00    -0.166 F 
ATOM     21  F   UNL d   1       6.702  -0.281  -2.213  0.00  0.00    -0.166 F 
ENDBRANCH  14  18
ENDBRANCH   9  12
ENDBRANCH   7   9
ENDBRANCH   2   7
BRANCH   1  22
ATOM     22  C   UNL d   1       1.404   6.789   0.762  0.00  0.00     0.046 A 
ATOM     23  N   UNL d   1       2.640   7.306   0.576  0.00  0.00    -0.332 N 
ATOM     24  C   UNL d   1       2.861   8.548   1.023  0.00  0.00     0.155 A 
ATOM     25  HN  UNL d   1       3.374   6.770   0.112  1.00  0.00     0.168 HD
ATOM     26  N   UNL d   1       1.975   9.291   1.685  0.00  0.00    -0.343 N 
ATOM     27  C   UNL d   1       0.760   8.750   1.867  0.00  0.00     0.093 A 
ATOM     28  HN  UNL d   1       2.207  10.220   2.034  1.00  0.00     0.167 HD
ATOM     29  C   UNL d   1       0.416   7.498   1.420  0.00  0.00     0.047 A 
BRANCH  24  30
ATOM     30  N   UNL d   1       4.117   9.086   0.837  0.00  0.00    -0.274 NA
ATOM     31  H   UNL d   1       4.799   8.350   0.743  0.00  0.00     0.127 HD
ATOM     32  H   UNL d   1       4.286   9.794   1.542  0.00  0.00     0.127 HD
ENDBRANCH  24  30
ENDBRANCH   1  22
TORSDOF 6
