REMARK  7 active torsions:
REMARK  status: ('A' for Active; 'I' for Inactive)
REMARK    1  A    between atoms: C_10  and  C_2 
REMARK    2  A    between atoms: C_11  and  C_3 
REMARK    3  A    between atoms: N_14  and  C_4 
REMARK    4  A    between atoms: O_17  and  C_10 
REMARK    5  A    between atoms: O_18  and  C_11 
REMARK    6  A    between atoms: C_23  and  O_17 
REMARK    7  A    between atoms: C_22  and  O_18 
ROOT
ATOM      1  C   UNL d   1      -0.733   0.640   0.032  0.00  0.00     0.142 A 
ATOM      2  C   UNL d   1      -1.519   0.372  -1.241  0.00  0.00     0.090 C 
ATOM      3  C   UNL d   1      -1.557   0.354   1.297  0.00  0.00     0.074 C 
ATOM      4  C   UNL d   1      -2.623  -0.401  -1.212  0.00  0.00     0.134 C 
ATOM      5  C   UNL d   1      -0.235   2.126   0.047  0.00  0.00     0.245 A 
ATOM      6  C   UNL d   1      -2.690  -0.383   1.204  0.00  0.00     0.065 C 
ATOM      7  O   UNL d   1      -3.135  -0.865  -0.020  0.00  0.00    -0.302 OA
ATOM      8  N   UNL d   1       1.162   2.100   0.053  0.00  0.00    -0.325 N 
ATOM      9  C   UNL d   1       0.591  -0.116   0.036  0.00  0.00    -0.004 A 
ATOM     10  C   UNL d   1       1.649   0.798   0.049  0.00  0.00     0.043 A 
ATOM     11  O   UNL d   1      -0.924   3.134   0.044  0.00  0.00    -0.271 OA
ATOM     12  C   UNL d   1      -3.622  -0.878   2.275  0.00  0.00     0.077 C 
ATOM     13  C   UNL d   1       0.833  -1.480   0.017  0.00  0.00     0.011 A 
ATOM     14  C   UNL d   1       2.968   0.396   0.043  0.00  0.00     0.030 A 
ATOM     15  C   UNL d   1       2.163  -1.908   0.010  0.00  0.00     0.001 A 
ATOM     16  C   UNL d   1       3.220  -0.979   0.023  0.00  0.00     0.002 A 
ATOM     17  H   UNL d   1       1.726   2.935   0.076  0.00  0.00     0.169 HD
ENDROOT
BRANCH   2  18
ATOM     18  C   UNL d   1      -1.091   0.875  -2.570  0.00  0.00     0.295 C 
ATOM     19  O   UNL d   1      -1.835   0.959  -3.540  0.00  0.00    -0.259 OA
BRANCH  18  20
ATOM     20  O   UNL d   1       0.237   1.115  -2.599  0.00  0.00    -0.318 OA
BRANCH  20  21
ATOM     21  C   UNL d   1       0.844   1.125  -3.898  0.00  0.00     0.174 C 
ATOM     22  C   UNL d   1       1.325  -0.286  -4.183  0.00  0.00     0.034 C 
ENDBRANCH  20  21
ENDBRANCH  18  20
ENDBRANCH   2  18
BRANCH   3  23
ATOM     23  C   UNL d   1      -0.965   0.836   2.584  0.00  0.00     0.293 C 
ATOM     24  O   UNL d   1       0.219   1.069   2.741  0.00  0.00    -0.259 OA
BRANCH  23  25
ATOM     25  O   UNL d   1      -1.887   0.917   3.572  0.00  0.00    -0.318 OA
BRANCH  25  26
ATOM     26  C   UNL d   1      -1.366   0.837   4.909  0.00  0.00     0.174 C 
ATOM     27  C   UNL d   1      -1.129  -0.626   5.259  0.00  0.00     0.034 C 
ENDBRANCH  25  26
ENDBRANCH  23  25
ENDBRANCH   3  23
BRANCH   4  28
ATOM     28  N   UNL d   1      -3.344  -0.849  -2.293  0.00  0.00    -0.282 NA
ATOM     29  H   UNL d   1      -3.210  -0.275  -3.131  0.00  0.00     0.126 HD
ATOM     30  H   UNL d   1      -4.324  -0.994  -2.066  0.00  0.00     0.126 HD
ENDBRANCH   4  28
TORSDOF 7
