REMARK  5 active torsions:
REMARK  status: ('A' for Active; 'I' for Inactive)
REMARK    1  A    between atoms: C_3  and  C_1 
REMARK    2  A    between atoms: C_9  and  C_3 
REMARK    3  A    between atoms: N_8  and  C_12 
REMARK    4  A    between atoms: C_10  and  N_8 
REMARK    5  A    between atoms: C_12  and  C_9 
ROOT
ATOM      1  N   UNL d   1       1.470   6.050  -0.349  0.00  0.00    -0.390 N 
ATOM      2  H   UNL d   1       2.297   5.937   0.232  0.00  0.00     0.159 HD
ENDROOT
BRANCH   1   3
ATOM      3  C   UNL d   1       0.373   5.133  -0.051  0.00  0.00     0.127 C 
BRANCH   3   4
ATOM      4  C   UNL d   1       0.931   3.715   0.014  0.00  0.00     0.104 C 
BRANCH   4   5
ATOM      5  C   UNL d   1      -0.171   2.674   0.117  0.00  0.00     0.167 C 
ATOM      6  O   UNL d   1      -1.347   3.023   0.240  0.00  0.00    -0.292 OA
BRANCH   5   7
ATOM      7  C   UNL d   1       0.204   1.261   0.067  0.00  0.00     0.050 A 
ATOM      8  S   UNL d   1       1.836   0.738   0.044  0.00  0.00    -0.098 SA
ATOM      9  C   UNL d   1       1.389  -0.910  -0.005  0.00  0.00     0.050 A 
ATOM     10  C   UNL d   1       0.022  -1.070  -0.004  0.00  0.00     0.009 A 
ATOM     11  C   UNL d   1      -0.659   0.181   0.041  0.00  0.00     0.023 A 
ENDBRANCH   5   7
ENDBRANCH   4   5
ENDBRANCH   3   4
ENDBRANCH   1   3
BRANCH   1  12
ATOM     12  C   UNL d   1       1.250   7.377  -0.706  0.00  0.00     0.028 A 
ATOM     13  C   UNL d   1      -0.015   7.966  -0.802  0.00  0.00     0.031 A 
ATOM     14  C   UNL d   1      -0.167   9.280  -1.262  0.00  0.00     0.026 A 
ATOM     15  C   UNL d   1       0.949  10.009  -1.660  0.00  0.00     0.034 A 
ATOM     16  C   UNL d   1       2.215   9.441  -1.591  0.00  0.00     0.026 A 
ATOM     17 CL   UNL d   1       0.760  11.611  -2.258  0.00  0.00    -0.084 Cl
ATOM     18  C   UNL d   1       2.359   8.134  -1.115  0.00  0.00     0.031 A 
ENDBRANCH   1  12
TORSDOF 5
