REMARK  10 active torsions:
REMARK  status: ('A' for Active; 'I' for Inactive)
REMARK    1  A    between atoms: C_4  and  C_1 
REMARK    2  A    between atoms: N_3  and  C_2 
REMARK    3  A    between atoms: C_6  and  N_3 
REMARK    4  A    between atoms: O_16  and  C_4 
REMARK    5  A    between atoms: N_5  and  C_7 
REMARK       I    between atoms: C_8  and  N_5 
REMARK    6  A    between atoms: C_19  and  C_8 
REMARK    7  A    between atoms: C_10  and  C_20 
REMARK    8  A    between atoms: O_18  and  C_10 
REMARK    9  A    between atoms: O_17  and  C_19 
REMARK   10  A    between atoms: C_20  and  O_17 
ROOT
ATOM      1  C   UNL d   1       3.504  -0.987  -0.445  0.00  0.00     0.039 A 
ATOM      2  C   UNL d   1       3.916  -0.093   0.565  0.00  0.00     0.056 A 
ATOM      3  C   UNL d   1       4.405  -1.304  -1.474  0.00  0.00     0.026 A 
ATOM      4  C   UNL d   1       5.216   0.424   0.556  0.00  0.00     0.031 A 
ATOM      5  C   UNL d   1       6.106   0.076  -0.459  0.00  0.00     0.002 A 
ATOM      6  C   UNL d   1       5.699  -0.780  -1.477  0.00  0.00     0.002 A 
ENDROOT
BRANCH   1   7
ATOM      7  N   UNL d   1       2.126  -1.389  -0.495  0.00  0.00    -0.260 NA
ATOM      8  H   UNL d   1       1.613  -0.549  -0.782  0.00  0.00     0.133 HD
BRANCH   7   9
ATOM      9  C   UNL d   1       1.720  -2.501  -1.223  0.00  0.00     0.012 C 
ATOM     10  C   UNL d   1       2.037  -3.793  -1.008  0.00  0.00     0.044 C 
ATOM     11  C   UNL d   1       1.574  -4.791  -2.019  0.00  0.00     0.120 C 
ATOM     12  S   UNL d   1       0.446  -3.891  -3.120  0.00  0.00    -0.159 SA
ATOM     13  C   UNL d   1       0.838  -2.267  -2.430  0.00  0.00     0.126 C 
BRANCH  10  14
ATOM     14  C   UNL d   1       2.821  -4.351   0.113  0.00  0.00     0.291 C 
ATOM     15  O   UNL d   1       3.410  -5.420   0.030  0.00  0.00    -0.260 OA
BRANCH  14  16
ATOM     16  O   UNL d   1       2.706  -3.587   1.226  0.00  0.00    -0.323 OA
ATOM     17  C   UNL d   1       3.427  -4.033   2.376  0.00  0.00     0.213 C 
ENDBRANCH  14  16
ENDBRANCH  10  14
ENDBRANCH   7   9
ENDBRANCH   1   7
BRANCH   2  18
ATOM     18  N   UNL d   1       3.005   0.214   1.599  0.00  0.00    -0.324 N 
ATOM     19  C   UNL d   1       2.999   1.397   2.309  0.00  0.00     0.245 C 
ATOM     20  O   UNL d   1       3.634   2.408   2.018  0.00  0.00    -0.271 OA
ATOM     21  H   UNL d   1       2.234  -0.441   1.701  0.00  0.00     0.169 HD
BRANCH  19  22
ATOM     22  C   UNL d   1       2.155   1.354   3.583  0.00  0.00     0.271 C 
BRANCH  22  23
ATOM     23  O   UNL d   1       2.786   0.652   4.654  0.00  0.00    -0.372 OA
BRANCH  23  24
ATOM     24  C   UNL d   1       4.022   1.286   5.043  0.00  0.00     0.277 C 
BRANCH  24  25
ATOM     25  C   UNL d   1       4.617   0.533   6.222  0.00  0.00     0.164 C 
ATOM     26  O   UNL d   1       5.688   0.791   6.744  0.00  0.00    -0.648 OA
BRANCH  25  27
ATOM     27  O   UNL d   1       3.809  -0.479   6.638  0.00  0.00    -0.775 OA
ATOM     28  H   UNL d   1       3.019  -0.486   6.053  0.00  0.00     0.167 HD
ENDBRANCH  25  27
ENDBRANCH  24  25
ENDBRANCH  23  24
ENDBRANCH  22  23
ENDBRANCH  19  22
ENDBRANCH   2  18
TORSDOF 10
