REMARK  0 active torsions:
REMARK  status: ('A' for Active; 'I' for Inactive)
ROOT
ATOM      1  C   UNL d   1       0.010  -1.597  -0.001  0.00  0.00     0.057 A 
ATOM      2  C   UNL d   1      -1.261  -0.807  -0.001  0.00  0.00     0.020 A 
ATOM      3  C   UNL d   1       1.275  -0.796  -0.001  0.00  0.00     0.020 A 
ATOM      4  O   UNL d   1      -0.002   1.291  -0.001  0.00  0.00    -0.309 OA
ATOM      5  C   UNL d   1       1.178   0.596  -0.001  0.00  0.00     0.088 A 
ATOM      6  C   UNL d   1      -1.177   0.586  -0.001  0.00  0.00     0.088 A 
ATOM      7  S   UNL d   1       0.017  -3.295  -0.000  0.00  0.00    -0.078 SA
ATOM      8  C   UNL d   1      -2.535  -1.403   0.000  0.00  0.00     0.016 A 
ATOM      9  C   UNL d   1       2.554  -1.381   0.000  0.00  0.00     0.016 A 
ATOM     10  C   UNL d   1       2.333   1.389  -0.001  0.00  0.00     0.038 A 
ATOM     11  C   UNL d   1      -2.338   1.369  -0.000  0.00  0.00     0.038 A 
ATOM     12  C   UNL d   1      -3.693  -0.619   0.001  0.00  0.00     0.001 A 
ATOM     13  C   UNL d   1       3.705  -0.587   0.000  0.00  0.00     0.001 A 
ATOM     14  C   UNL d   1       3.595   0.799  -0.001  0.00  0.00     0.003 A 
ATOM     15  C   UNL d   1      -3.594   0.768   0.001  0.00  0.00     0.003 A 
ENDROOT
TORSDOF 0
