REMARK  6 active torsions:
REMARK  status: ('A' for Active; 'I' for Inactive)
REMARK       I    between atoms: C_2  and  N_1 
REMARK       I    between atoms: C_3  and  N_1 
REMARK    1  A    between atoms: C_4  and  C_2 
REMARK    2  A    between atoms: O_9  and  C_3 
REMARK    3  A    between atoms: C_5  and  C_4 
REMARK    4  A    between atoms: O_10  and  C_5 
REMARK    5  A    between atoms: C_11  and  O_9 
REMARK    6  A    between atoms: C_12  and  O_10 
ROOT
ATOM      1  N   UNL d   1       1.092   0.266  -0.150  0.00  0.00    -0.273 N 
ATOM      2  C   UNL d   1       0.256   0.526  -1.219  0.00  0.00     0.235 C 
ATOM      3  C   UNL d   1       0.794  -0.176   1.117  0.00  0.00     0.367 C 
ATOM      4  O   UNL d   1       1.683  -0.314   1.951  0.00  0.00    -0.238 OA
ATOM      5  O   UNL d   1      -0.970   0.428  -1.183  0.00  0.00    -0.273 OA
ATOM      6  H   UNL d   1       2.088   0.433  -0.260  0.00  0.00     0.174 HD
ENDROOT
BRANCH   2   7
ATOM      7  C   UNL d   1       0.916   0.964  -2.514  0.00  0.00     0.214 C 
BRANCH   7   8
ATOM      8  C   UNL d   1       2.409   1.080  -2.540  0.00  0.00     0.267 C 
ATOM      9  O   UNL d   1       3.130   0.983  -1.554  0.00  0.00    -0.265 OA
BRANCH   8  10
ATOM     10  O   UNL d   1       2.848   1.326  -3.805  0.00  0.00    -0.322 OA
BRANCH  10  11
ATOM     11  C   UNL d   1       4.264   1.526  -3.944  0.00  0.00     0.174 C 
ATOM     12  C   UNL d   1       4.985   0.198  -4.088  0.00  0.00     0.034 C 
ENDBRANCH  10  11
ENDBRANCH   8  10
ENDBRANCH   7   8
ENDBRANCH   2   7
BRANCH   3  13
ATOM     13  O   UNL d   1      -0.516  -0.439   1.329  0.00  0.00    -0.304 OA
BRANCH  13  14
ATOM     14  C   UNL d   1      -0.886  -0.923   2.628  0.00  0.00     0.176 C 
ATOM     15  C   UNL d   1      -1.744   0.121   3.318  0.00  0.00     0.034 C 
ENDBRANCH  13  14
ENDBRANCH   3  13
TORSDOF 6
