REMARK  4 active torsions:
REMARK  status: ('A' for Active; 'I' for Inactive)
REMARK    1  A    between atoms: S_7  and  C_1 
REMARK    2  A    between atoms: S_8  and  C_2 
REMARK    3  A    between atoms: C_11  and  S_7 
REMARK    4  A    between atoms: C_12  and  S_8 
ROOT
ATOM      1  C   UNL d   1       2.208   0.834  -0.382  0.00  0.00     0.109 A 
ATOM      2  C   UNL d   1       2.308  -0.543  -0.151  0.00  0.00     0.109 A 
ATOM      3  N   UNL d   1       1.008   1.468  -0.314  0.00  0.00    -0.346 N 
ATOM      4  HN  UNL d   1       0.939   2.481  -0.413  1.00  0.00     0.167 HD
ATOM      5  N   UNL d   1       1.202  -1.308   0.061  0.00  0.00    -0.346 N 
ATOM      6  HN  UNL d   1       1.274  -2.312   0.222  1.00  0.00     0.167 HD
ATOM      7  C   UNL d   1      -0.082   0.716  -0.113  0.00  0.00     0.060 A 
ATOM      8  C   UNL d   1       0.009  -0.684   0.049  0.00  0.00     0.060 A 
ATOM      9  C   UNL d   1      -1.329   1.327  -0.086  0.00  0.00     0.032 A 
ATOM     10  C   UNL d   1      -1.160  -1.420   0.187  0.00  0.00     0.032 A 
ATOM     11  C   UNL d   1      -2.496   0.579   0.058  0.00  0.00     0.002 A 
ATOM     12  C   UNL d   1      -2.412  -0.802   0.182  0.00  0.00     0.002 A 
ENDROOT
BRANCH   1  13
ATOM     13  S   UNL d   1       3.592   1.885  -0.802  0.00  0.00    -0.070 SA
BRANCH  13  14
ATOM     14  C   UNL d   1       3.057   2.531  -2.384  0.00  0.00     0.007 A 
ATOM     15  C   UNL d   1       1.968   3.406  -2.483  0.00  0.00     0.019 A 
ATOM     16  C   UNL d   1       1.561   3.901  -3.726  0.00  0.00     0.001 A 
ATOM     17  C   UNL d   1       2.257   3.544  -4.877  0.00  0.00     0.000 A 
ATOM     18  C   UNL d   1       3.356   2.691  -4.786  0.00  0.00     0.001 A 
ATOM     19  C   UNL d   1       3.755   2.185  -3.546  0.00  0.00     0.019 A 
ENDBRANCH  13  14
ENDBRANCH   1  13
BRANCH   2  20
ATOM     20  S   UNL d   1       3.855  -1.429  -0.035  0.00  0.00    -0.070 SA
BRANCH  20  21
ATOM     21  C   UNL d   1       4.039  -2.038  -1.698  0.00  0.00     0.007 A 
ATOM     22  C   UNL d   1       5.225  -1.770  -2.391  0.00  0.00     0.019 A 
ATOM     23  C   UNL d   1       5.405  -2.241  -3.693  0.00  0.00     0.001 A 
ATOM     24  C   UNL d   1       4.404  -2.992  -4.307  0.00  0.00     0.000 A 
ATOM     25  C   UNL d   1       3.230  -3.282  -3.616  0.00  0.00     0.001 A 
ATOM     26  C   UNL d   1       3.050  -2.814  -2.313  0.00  0.00     0.019 A 
ENDBRANCH  20  21
ENDBRANCH   2  20
TORSDOF 4
