REMARK  2 active torsions:
REMARK  status: ('A' for Active; 'I' for Inactive)
REMARK    1  A    between atoms: C_13  and  N_1 
REMARK    2  A    between atoms: N_4  and  C_8 
ROOT
ATOM      1  N   UNL d   1       0.063  -1.631   0.007  0.00  0.00    -0.346 N 
ATOM      2  C   UNL d   1       0.744   0.495  -0.013  0.00  0.00     0.006 A 
ATOM      3  C   UNL d   1       1.190  -0.829  -0.010  0.00  0.00     0.046 A 
ATOM      4  C   UNL d   1      -1.087  -0.864  -0.008  0.00  0.00     0.046 A 
ATOM      5  C   UNL d   1      -0.686   0.472  -0.012  0.00  0.00     0.003 A 
ATOM      6  C   UNL d   1       1.692   1.541  -0.015  0.00  0.00     0.050 A 
ATOM      7  C   UNL d   1       3.057   1.220  -0.015  0.00  0.00     0.103 A 
ATOM      8  C   UNL d   1       2.558  -1.155  -0.019  0.00  0.00     0.033 A 
ATOM      9  C   UNL d   1       3.488  -0.110  -0.019  0.00  0.00     0.038 A 
ATOM     10  C   UNL d   1      -2.445  -1.230  -0.014  0.00  0.00     0.030 A 
ATOM     11  C   UNL d   1      -1.673   1.481  -0.013  0.00  0.00     0.014 A 
ATOM     12  C   UNL d   1      -3.026   1.126  -0.013  0.00  0.00     0.001 A 
ATOM     13  C   UNL d   1      -3.403  -0.212  -0.016  0.00  0.00     0.002 A 
ENDROOT
BRANCH   7  14
ATOM     14  N   UNL d   1       4.049   2.303  -0.010  0.00  0.00    -0.116 N 
ATOM     15  O   UNL d   1       3.631   3.470  -0.014  0.00  0.00    -0.532 OA
ATOM     16  O   UNL d   1       5.248   1.988  -0.001  0.00  0.00    -0.532 OA
ENDBRANCH   7  14
BRANCH   1  17
ATOM     17  C   UNL d   1       0.078  -3.086   0.075  0.00  0.00     0.125 C 
ATOM     18  C   UNL d   1       0.022  -3.733  -1.298  0.00  0.00     0.027 C 
ENDBRANCH   1  17
TORSDOF 2
