REMARK  5 active torsions:
REMARK  status: ('A' for Active; 'I' for Inactive)
REMARK    1  A    between atoms: C_7  and  C_1 
REMARK    2  A    between atoms: C_4  and  C_12 
REMARK    3  A    between atoms: O_11  and  N_8 
REMARK    4  A    between atoms: C_10  and  O_11 
REMARK    5  A    between atoms: C_13  and  C_10 
ROOT
ATOM      1  C   UNL d   1       3.639   0.115  -0.028  0.00  0.00     0.046 C 
ATOM      2  N   UNL d   1       4.584  -0.774  -0.124  0.00  0.00    -0.261 N 
ATOM      3  HN  UNL d   1       5.578  -0.549  -0.082  1.00  0.00     0.194 HD
ATOM      4  C   UNL d   1       2.173  -0.275   0.048  0.00  0.00     0.071 C 
ENDROOT
BRANCH   2   5
ATOM      5  O   UNL d   1       4.084  -2.081  -0.292  0.00  0.00    -0.195 OA
BRANCH   5   6
ATOM      6  C   UNL d   1       4.827  -2.956   0.448  0.00  0.00     0.315 C 
ATOM      7  O   UNL d   1       5.337  -2.737   1.537  0.00  0.00    -0.257 OA
BRANCH   6   8
ATOM      8  C   UNL d   1       4.956  -4.256  -0.269  0.00  0.00     0.041 A 
ATOM      9  C   UNL d   1       5.623  -5.303   0.381  0.00  0.00     0.018 A 
ATOM     10  C   UNL d   1       5.879  -6.506  -0.285  0.00  0.00     0.017 A 
ATOM     11  C   UNL d   1       5.471  -6.683  -1.615  0.00  0.00     0.048 A 
ATOM     12  C   UNL d   1       4.776  -5.644  -2.254  0.00  0.00     0.017 A 
ATOM     13  C   UNL d   1       4.519  -4.439  -1.589  0.00  0.00     0.018 A 
BRANCH  11  14
ATOM     14  C   UNL d   1       5.790  -7.953  -2.369  0.00  0.00     0.417 C 
ATOM     15  F   UNL d   1       6.486  -8.865  -1.635  0.00  0.00    -0.166 F 
ATOM     16  F   UNL d   1       4.671  -8.596  -2.802  0.00  0.00    -0.166 F 
ATOM     17  F   UNL d   1       6.541  -7.720  -3.482  0.00  0.00    -0.166 F 
ENDBRANCH  11  14
ENDBRANCH   6   8
ENDBRANCH   5   6
ENDBRANCH   2   5
BRANCH   1  18
ATOM     18  C   UNL d   1       4.020   1.528  -0.037  0.00  0.00     0.036 A 
ATOM     19  S   UNL d   1       2.945   2.672  -0.723  0.00  0.00    -0.087 SA
ATOM     20  C   UNL d   1       4.022   3.982  -0.500  0.00  0.00     0.016 A 
ATOM     21  C   UNL d   1       3.798   5.325  -0.854  0.00  0.00     0.019 A 
ATOM     22  C   UNL d   1       5.210   3.562   0.096  0.00  0.00    -0.012 A 
ATOM     23  C   UNL d   1       4.797   6.268  -0.609  0.00  0.00     0.001 A 
ATOM     24  C   UNL d   1       5.994   5.883  -0.026  0.00  0.00     0.001 A 
ATOM     25  C   UNL d   1       6.207   4.545   0.327  0.00  0.00     0.013 A 
ATOM     26  C   UNL d   1       5.203   2.135   0.377  0.00  0.00    -0.031 A 
ATOM     27  C   UNL d   1       6.366   1.448   1.030  0.00  0.00     0.050 C 
ENDBRANCH   1  18
TORSDOF 5
