REMARK  2 active torsions:
REMARK  status: ('A' for Active; 'I' for Inactive)
REMARK       I    between atoms: N_2  and  C_1 
REMARK    1  A    between atoms: C_6  and  C_1 
REMARK    2  A    between atoms: C_3  and  N_2 
ROOT
ATOM      1  C   UNL d   1       0.865  -0.718   0.051  0.00  0.00     0.252 C 
ATOM      2  N   UNL d   1       0.348  -0.272   1.250  0.00  0.00    -0.352 N 
ATOM      3  O   UNL d   1       1.892  -1.380  -0.036  0.00  0.00    -0.268 OA
ATOM      4  H   UNL d   1      -0.617   0.029   1.282  0.00  0.00     0.163 HD
ENDROOT
BRANCH   2   5
ATOM      5  C   UNL d   1       1.001  -0.584   2.512  0.00  0.00     0.093 C 
ATOM      6  C   UNL d   1       0.589  -1.953   3.097  0.00  0.00     0.064 C 
ATOM      7  C   UNL d   1       0.805  -1.721   4.562  0.00  0.00    -0.050 A 
ATOM      8  C   UNL d   1       0.909  -2.663   5.572  0.00  0.00     0.007 A 
ATOM      9  C   UNL d   1       0.865  -0.352   4.849  0.00  0.00    -0.050 A 
ATOM     10  C   UNL d   1       1.089  -2.214   6.883  0.00  0.00     0.001 A 
ATOM     11  C   UNL d   1       1.148  -0.840   7.168  0.00  0.00     0.001 A 
ATOM     12  C   UNL d   1       1.028   0.103   6.147  0.00  0.00     0.007 A 
ATOM     13  C   UNL d   1       0.694   0.462   3.606  0.00  0.00     0.064 C 
ENDBRANCH   2   5
BRANCH   1  14
ATOM     14  C   UNL d   1       0.093  -0.375  -1.178  0.00  0.00     0.032 A 
ATOM     15  C   UNL d   1      -0.745   0.748  -1.244  0.00  0.00     0.018 A 
ATOM     16  C   UNL d   1      -1.435   1.039  -2.426  0.00  0.00     0.025 A 
ATOM     17  C   UNL d   1      -1.280   0.217  -3.542  0.00  0.00     0.034 A 
ATOM     18  C   UNL d   1      -0.437  -0.891  -3.491  0.00  0.00     0.025 A 
ATOM     19 CL   UNL d   1      -2.128   0.581  -4.994  0.00  0.00    -0.084 Cl
ATOM     20  C   UNL d   1       0.253  -1.184  -2.312  0.00  0.00     0.018 A 
ENDBRANCH   1  14
TORSDOF 2
