REMARK  6 active torsions:
REMARK  status: ('A' for Active; 'I' for Inactive)
REMARK    1  A    between atoms: C_10  and  N_1 
REMARK    2  A    between atoms: S_17  and  C_2 
REMARK    3  A    between atoms: C_14  and  C_3 
REMARK    4  A    between atoms: N_4  and  C_9 
REMARK    5  A    between atoms: S_12  and  C_14 
REMARK    6  A    between atoms: C_13  and  S_12 
ROOT
ATOM      1  N   UNL d   1      -0.202  -1.331  -0.081  0.00  0.00    -0.277 N 
ATOM      2  C   UNL d   1       0.997  -0.670  -0.317  0.00  0.00     0.164 C 
ATOM      3  C   UNL d   1      -1.137  -0.289  -0.003  0.00  0.00     0.114 C 
ATOM      4  N   UNL d   1       0.840   0.624  -0.184  0.00  0.00    -0.278 N 
ATOM      5  HN  UNL d   1       1.576   1.328  -0.241  1.00  0.00     0.189 HD
ATOM      6  N   UNL d   1      -0.482   0.860   0.043  0.00  0.00    -0.286 N 
ATOM      7  HN  UNL d   1      -0.899   1.774   0.220  1.00  0.00     0.188 HD
ENDROOT
BRANCH   3   8
ATOM      8  C   UNL d   1      -2.625  -0.422   0.127  0.00  0.00     0.158 C 
BRANCH   8   9
ATOM      9  S   UNL d   1      -3.492   1.130  -0.353  0.00  0.00    -0.120 SA
BRANCH   9  10
ATOM     10  C   UNL d   1      -5.174   0.846   0.192  0.00  0.00     0.034 A 
ATOM     11  C   UNL d   1      -6.132   0.049  -0.455  0.00  0.00     0.119 A 
ATOM     12  C   UNL d   1      -7.480   0.024  -0.055  0.00  0.00     0.037 A 
ATOM     13  C   UNL d   1      -7.893   0.822   1.008  0.00  0.00     0.003 A 
ATOM     14  C   UNL d   1      -6.962   1.625   1.667  0.00  0.00     0.002 A 
ATOM     15  C   UNL d   1      -5.622   1.637   1.259  0.00  0.00     0.021 A 
BRANCH  11  16
ATOM     16  N   UNL d   1      -5.790  -0.770  -1.594  0.00  0.00    -0.114 N 
ATOM     17  O   UNL d   1      -5.130  -1.796  -1.372  0.00  0.00    -0.532 OA
ATOM     18  O   UNL d   1      -6.244  -0.431  -2.695  0.00  0.00    -0.532 OA
ENDBRANCH  11  16
ENDBRANCH   9  10
ENDBRANCH   8   9
ENDBRANCH   3   8
BRANCH   1  19
ATOM     19  C   UNL d   1      -0.427  -2.738   0.012  0.00  0.00     0.064 A 
ATOM     20  C   UNL d   1       0.388  -3.578   0.796  0.00  0.00     0.061 A 
ATOM     21 CL   UNL d   1       1.597  -3.001   1.892  0.00  0.00    -0.082 Cl
ATOM     22  C   UNL d   1       0.172  -4.963   0.807  0.00  0.00     0.026 A 
ATOM     23  C   UNL d   1      -0.887  -5.518   0.093  0.00  0.00     0.002 A 
ATOM     24  C   UNL d   1      -1.721  -4.693  -0.651  0.00  0.00     0.002 A 
ATOM     25  C   UNL d   1      -1.481  -3.316  -0.713  0.00  0.00     0.032 A 
ENDBRANCH   1  19
BRANCH   2  26
ATOM     26  S   UNL d   1       2.435  -1.373  -0.992  0.00  0.00    -0.105 SA
ATOM     27  H   UNL d   1       2.556  -2.428  -0.176  0.00  0.00     0.110 HD
ENDBRANCH   2  26
TORSDOF 6
