REMARK  5 active torsions:
REMARK  status: ('A' for Active; 'I' for Inactive)
REMARK    1  A    between atoms: S_9  and  C_1 
REMARK    2  A    between atoms: C_7  and  N_8 
REMARK       I    between atoms: N_8  and  C_10 
REMARK    3  A    between atoms: C_14  and  S_9 
REMARK    4  A    between atoms: C_10  and  C_14 
REMARK    5  A    between atoms: O_20  and  C_12 
ROOT
ATOM      1  N   UNL d   1      -1.608  -5.352   0.239  0.00  0.00    -0.324 N 
ATOM      2  C   UNL d   1      -2.527  -4.311   0.184  0.00  0.00     0.232 C 
ATOM      3  O   UNL d   1      -2.226  -3.116   0.139  0.00  0.00    -0.272 OA
ATOM      4  H   UNL d   1      -1.954  -6.288   0.096  0.00  0.00     0.169 HD
ENDROOT
BRANCH   1   5
ATOM      5  C   UNL d   1      -0.207  -5.168   0.195  0.00  0.00     0.070 A 
ATOM      6  C   UNL d   1       0.380  -4.038   0.782  0.00  0.00     0.056 A 
ATOM      7  C   UNL d   1       1.758  -3.840   0.728  0.00  0.00     0.036 A 
ATOM      8 CL   UNL d   1       2.455  -2.467   1.496  0.00  0.00    -0.084 Cl
ATOM      9  C   UNL d   1       2.574  -4.757   0.075  0.00  0.00     0.026 A 
ATOM     10  C   UNL d   1       2.008  -5.906  -0.482  0.00  0.00     0.041 A 
ATOM     11  C   UNL d   1       0.623  -6.124  -0.414  0.00  0.00     0.095 A 
BRANCH  11  12
ATOM     12  O   UNL d   1       0.203  -7.329  -0.918  0.00  0.00    -0.354 OA
ATOM     13  C   UNL d   1      -0.800  -7.256  -1.928  0.00  0.00     0.210 C 
ENDBRANCH  11  12
ENDBRANCH   1   5
BRANCH   2  14
ATOM     14  C   UNL d   1      -3.969  -4.723  -0.010  0.00  0.00     0.185 C 
BRANCH  14  15
ATOM     15  S   UNL d   1      -4.506  -6.017   1.143  0.00  0.00    -0.082 SA
BRANCH  15  16
ATOM     16  C   UNL d   1      -6.195  -6.017   0.771  0.00  0.00     0.172 A 
ATOM     17  N   UNL d   1      -7.152  -6.674   1.482  0.00  0.00    -0.260 N 
ATOM     18  N   UNL d   1      -8.354  -6.463   0.915  0.00  0.00    -0.005 NA
ATOM     19  C   UNL d   1      -7.047  -7.512   2.645  0.00  0.00     0.177 C 
ATOM     20  N   UNL d   1      -8.111  -5.676  -0.127  0.00  0.00    -0.007 NA
ATOM     21  N   UNL d   1      -6.772  -5.397  -0.230  0.00  0.00    -0.265 N 
ATOM     22  HN  UNL d   1      -6.317  -4.825  -0.942  1.00  0.00     0.186 HD
ENDBRANCH  15  16
ENDBRANCH  14  15
ENDBRANCH   2  14
TORSDOF 5
