REMARK  6 active torsions:
REMARK  status: ('A' for Active; 'I' for Inactive)
REMARK    1  A    between atoms: C_5  and  C_1 
REMARK    2  A    between atoms: N_4  and  C_7 
REMARK       I    between atoms: N_10  and  C_5 
REMARK       I    between atoms: C_9  and  N_12 
REMARK    3  A    between atoms: C_19  and  C_9 
REMARK    4  A    between atoms: N_12  and  N_10 
REMARK    5  A    between atoms: C_13  and  S_14 
REMARK    6  A    between atoms: S_14  and  C_19 
ROOT
ATOM      1  C   UNL d   1       5.031  -3.609   0.102  0.00  0.00     0.245 C 
ATOM      2  N   UNL d   1       4.170  -2.527   0.206  0.00  0.00    -0.267 N 
ATOM      3  O   UNL d   1       6.239  -3.453  -0.063  0.00  0.00    -0.271 OA
ATOM      4  H   UNL d   1       3.158  -2.617   0.114  0.00  0.00     0.190 HD
ENDROOT
BRANCH   2   5
ATOM      5  N   UNL d   1       4.680  -1.239  -0.045  0.00  0.00    -0.263 N 
ATOM      6  C   UNL d   1       3.793  -0.255  -0.450  0.00  0.00     0.278 C 
ATOM      7  O   UNL d   1       2.598  -0.551  -0.555  0.00  0.00    -0.265 OA
ATOM      8  H   UNL d   1       5.694  -1.125  -0.018  0.00  0.00     0.190 HD
BRANCH   6   9
ATOM      9  C   UNL d   1       4.333   1.072  -0.714  0.00  0.00     0.097 A 
ATOM     10  S   UNL d   1       3.228   2.267  -1.266  0.00  0.00    -0.082 SA
ATOM     11  C   UNL d   1       4.419   3.496  -1.321  0.00  0.00     0.017 A 
ATOM     12  C   UNL d   1       4.220   4.841  -1.695  0.00  0.00     0.020 A 
ATOM     13  C   UNL d   1       5.670   3.012  -0.940  0.00  0.00     0.004 A 
ATOM     14  C   UNL d   1       5.305   5.718  -1.679  0.00  0.00     0.001 A 
ATOM     15  C   UNL d   1       6.561   5.270  -1.306  0.00  0.00     0.001 A 
ATOM     16  C   UNL d   1       6.755   3.933  -0.940  0.00  0.00     0.014 A 
ATOM     17  C   UNL d   1       5.604   1.607  -0.599  0.00  0.00     0.068 A 
ATOM     18 CL   UNL d   1       7.011   0.758  -0.086  0.00  0.00    -0.082 Cl
ENDBRANCH   6   9
ENDBRANCH   2   5
BRANCH   1  19
ATOM     19  C   UNL d   1       4.316  -4.949   0.269  0.00  0.00     0.184 C 
BRANCH  19  20
ATOM     20  S   UNL d   1       5.414  -6.356  -0.106  0.00  0.00    -0.118 SA
BRANCH  20  21
ATOM     21  C   UNL d   1       4.463  -7.826   0.301  0.00  0.00     0.034 A 
ATOM     22  C   UNL d   1       5.045  -9.108   0.240  0.00  0.00     0.119 A 
ATOM     23  C   UNL d   1       4.324 -10.288   0.491  0.00  0.00     0.037 A 
ATOM     24  C   UNL d   1       2.979 -10.202   0.829  0.00  0.00     0.003 A 
ATOM     25  C   UNL d   1       2.374  -8.950   0.913  0.00  0.00     0.002 A 
ATOM     26  C   UNL d   1       3.104  -7.779   0.649  0.00  0.00     0.021 A 
BRANCH  22  27
ATOM     27  N   UNL d   1       6.447  -9.278  -0.085  0.00  0.00    -0.114 N 
ATOM     28  O   UNL d   1       7.268  -9.012   0.803  0.00  0.00    -0.532 OA
ATOM     29  O   UNL d   1       6.708  -9.760  -1.196  0.00  0.00    -0.532 OA
ENDBRANCH  22  27
ENDBRANCH  20  21
ENDBRANCH  19  20
ENDBRANCH   1  19
TORSDOF 6
