REMARK  5 active torsions:
REMARK  status: ('A' for Active; 'I' for Inactive)
REMARK    1  A    between atoms: C_7  and  N_1 
REMARK    2  A    between atoms: S_12  and  C_5 
REMARK    3  A    between atoms: C_11  and  C_6 
REMARK    4  A    between atoms: C_9  and  C_7 
REMARK       I    between atoms: N_14  and  C_9 
REMARK    5  A    between atoms: N_15  and  N_14 
ROOT
ATOM      1  N   UNL d   1      -0.244  -1.092   0.085  0.00  0.00    -0.275 N 
ATOM      2  C   UNL d   1      -0.489   1.086   0.056  0.00  0.00     0.108 A 
ATOM      3  N   UNL d   1       1.021  -0.611   0.030  0.00  0.00    -0.295 N 
ATOM      4  HN  UNL d   1       1.887  -1.148  -0.014  1.00  0.00     0.187 HD
ATOM      5  C   UNL d   1      -1.192  -0.100   0.071  0.00  0.00     0.110 A 
ATOM      6  C   UNL d   1       0.889   0.727   0.044  0.00  0.00     0.082 A 
ATOM      7  C   UNL d   1      -1.044   2.394  -0.006  0.00  0.00     0.104 C 
ATOM      8  N   UNL d   1      -1.495   3.466  -0.027  0.00  0.00    -0.191 NA
ENDROOT
BRANCH   5   9
ATOM      9  S   UNL d   1      -2.897  -0.443  -0.017  0.00  0.00    -0.114 SA
ATOM     10  C   UNL d   1      -3.552   0.471   1.406  0.00  0.00     0.097 C 
ENDBRANCH   5   9
BRANCH   6  11
ATOM     11  C   UNL d   1       2.073   1.595  -0.009  0.00  0.00    -0.006 A 
ATOM     12  C   UNL d   1       3.211   1.190  -0.725  0.00  0.00     0.014 A 
ATOM     13  C   UNL d   1       4.336   2.014  -0.809  0.00  0.00     0.001 A 
ATOM     14  C   UNL d   1       4.339   3.255  -0.175  0.00  0.00     0.000 A 
ATOM     15  C   UNL d   1       3.224   3.665   0.550  0.00  0.00     0.001 A 
ATOM     16  C   UNL d   1       2.100   2.839   0.639  0.00  0.00     0.014 A 
ENDBRANCH   6  11
BRANCH   1  17
ATOM     17  C   UNL d   1      -0.419  -2.532  -0.018  0.00  0.00     0.254 C 
BRANCH  17  18
ATOM     18  C   UNL d   1      -1.012  -3.161   1.220  0.00  0.00     0.251 C 
ATOM     19  O   UNL d   1      -1.359  -2.554   2.232  0.00  0.00    -0.270 OA
ATOM     20  N   UNL d   1      -1.114  -4.552   1.117  0.00  0.00    -0.292 N 
ATOM     21  H   UNL d   1      -0.982  -5.022   0.223  0.00  0.00     0.183 HD
BRANCH  20  22
ATOM     22  N   UNL d   1      -1.705  -5.278   2.174  0.00  0.00    -0.247 NA
ATOM     23  H   UNL d   1      -2.092  -4.587   2.834  0.00  0.00     0.143 HD
ATOM     24  H   UNL d   1      -0.958  -5.732   2.707  0.00  0.00     0.143 HD
ENDBRANCH  20  22
ENDBRANCH  17  18
ENDBRANCH   1  17
TORSDOF 5
