REMARK  8 active torsions:
REMARK  status: ('A' for Active; 'I' for Inactive)
REMARK    1  A    between atoms: S_4  and  C_1 
REMARK    2  A    between atoms: C_12  and  N_2 
REMARK    3  A    between atoms: N_7  and  C_3 
REMARK    4  A    between atoms: C_8  and  S_4 
REMARK    5  A    between atoms: O_28  and  C_9 
REMARK    6  A    between atoms: C_18  and  C_13 
REMARK    7  A    between atoms: C_14  and  C_19 
REMARK    8  A    between atoms: O_29  and  C_18 
ROOT
ATOM      1  C   UNL d   1      -0.131  -1.302  -0.251  0.00  0.00     0.175 A 
ATOM      2  N   UNL d   1       1.116  -0.698  -0.080  0.00  0.00    -0.255 N 
ATOM      3  N   UNL d   1      -1.092  -0.410  -0.163  0.00  0.00    -0.276 N 
ATOM      4  HN  UNL d   1      -2.091  -0.597  -0.242  1.00  0.00     0.189 HD
ATOM      5  C   UNL d   1       0.777   0.646   0.076  0.00  0.00     0.245 A 
ATOM      6  N   UNL d   1      -0.520   0.812   0.054  0.00  0.00    -0.263 N 
ATOM      7  HN  UNL d   1      -1.015   1.695   0.176  1.00  0.00     0.190 HD
ENDROOT
BRANCH   1   8
ATOM      8  S   UNL d   1      -0.488  -3.002  -0.236  0.00  0.00    -0.032 SA
BRANCH   8   9
ATOM      9  C   UNL d   1      -0.567  -3.350  -1.990  0.00  0.00     0.110 A 
ATOM     10  C   UNL d   1      -1.236  -4.439  -2.542  0.00  0.00     0.137 A 
ATOM     11  C   UNL d   1      -1.033  -4.813  -3.881  0.00  0.00     0.058 A 
ATOM     12  C   UNL d   1      -0.138  -4.073  -4.650  0.00  0.00     0.057 A 
ATOM     13  C   UNL d   1       0.448  -2.962  -4.064  0.00  0.00     0.106 A 
ATOM     14  N   UNL d   1       0.242  -2.588  -2.775  0.00  0.00    -0.357 N 
ATOM     15  HN  UNL d   1       0.686  -1.749  -2.401  1.00  0.00     0.166 HD
BRANCH  10  16
ATOM     16  N   UNL d   1      -2.146  -5.229  -1.756  0.00  0.00    -0.113 N 
ATOM     17  O   UNL d   1      -1.666  -5.928  -0.857  0.00  0.00    -0.532 OA
ATOM     18  O   UNL d   1      -3.336  -5.201  -2.096  0.00  0.00    -0.532 OA
ENDBRANCH  10  16
BRANCH  12  19
ATOM     19  C   UNL d   1       0.262  -4.408  -6.034  0.00  0.00     0.294 C 
ATOM     20  O   UNL d   1       1.042  -3.731  -6.678  0.00  0.00    -0.259 OA
BRANCH  19  21
ATOM     21  O   UNL d   1      -0.318  -5.565  -6.433  0.00  0.00    -0.322 OA
ATOM     22  C   UNL d   1       0.080  -5.982  -7.742  0.00  0.00     0.213 C 
ENDBRANCH  19  21
ENDBRANCH  12  19
ENDBRANCH   8   9
ENDBRANCH   1   8
BRANCH   2  23
ATOM     23  C   UNL d   1       2.444  -1.239  -0.084  0.00  0.00     0.046 A 
ATOM     24  C   UNL d   1       2.763  -2.369  -0.842  0.00  0.00     0.046 A 
ATOM     25  C   UNL d   1       4.075  -2.859  -0.949  0.00  0.00     0.050 A 
ATOM     26  C   UNL d   1       5.091  -2.212  -0.244  0.00  0.00     0.016 A 
ATOM     27  C   UNL d   1       4.792  -1.102   0.548  0.00  0.00     0.003 A 
ATOM     28  C   UNL d   1       3.480  -0.617   0.627  0.00  0.00     0.030 A 
BRANCH  25  29
ATOM     29  C   UNL d   1       4.372  -4.052  -1.830  0.00  0.00     0.417 C 
ATOM     30  F   UNL d   1       3.274  -4.526  -2.488  0.00  0.00    -0.166 F 
ATOM     31  F   UNL d   1       5.287  -3.772  -2.797  0.00  0.00    -0.166 F 
ATOM     32  F   UNL d   1       4.868  -5.107  -1.130  0.00  0.00    -0.166 F 
ENDBRANCH  25  29
ENDBRANCH   2  23
BRANCH   5  33
ATOM     33  O   UNL d   1       1.612   1.678   0.139  0.00  0.00    -0.331 OA
ATOM     34  H   UNL d   1       2.413   1.452  -0.357  0.00  0.00     0.221 HD
ENDBRANCH   5  33
TORSDOF 8
