REMARK  1 active torsions:
REMARK  status: ('A' for Active; 'I' for Inactive)
REMARK    1  A    between atoms: C_2  and  N_1 
REMARK       I    between atoms: C_3  and  N_1 
ROOT
ATOM      1  C   UNL d   1       0.231   0.600   1.183  0.00  0.00     0.040 A 
ATOM      2  C   UNL d   1       0.592   1.685   1.999  0.00  0.00    -0.034 A 
ATOM      3  C   UNL d   1      -0.122   1.907   3.193  0.00  0.00     0.027 A 
ATOM      4  C   UNL d   1      -0.823  -0.240   1.562  0.00  0.00     0.031 A 
ATOM      5  C   UNL d   1      -1.168   1.062   3.562  0.00  0.00     0.007 A 
ATOM      6  C   UNL d   1      -1.522  -0.013   2.752  0.00  0.00     0.020 A 
ATOM      7  I   UNL d   1      -2.201   1.408   5.331  0.00  0.00    -0.045 I 
ATOM      8  C   UNL d   1       1.665   2.674   1.630  0.00  0.00     0.050 C 
ENDROOT
BRANCH   1   9
ATOM      9  N   UNL d   1       0.986   0.318   0.035  0.00  0.00    -0.327 N 
ATOM     10  C   UNL d   1       0.569  -0.077  -1.202  0.00  0.00     0.218 C 
ATOM     11  O   UNL d   1       1.399  -0.456  -2.030  0.00  0.00    -0.274 OA
ATOM     12  C   UNL d   1      -0.886   0.058  -1.575  0.00  0.00     0.117 C 
ATOM     13  H   UNL d   1       1.988   0.467   0.084  0.00  0.00     0.169 HD
ENDBRANCH   1   9
TORSDOF 1
