REMARK  8 active torsions:
REMARK  status: ('A' for Active; 'I' for Inactive)
REMARK    1  A    between atoms: N_2  and  C_1 
REMARK    2  A    between atoms: C_3  and  C_1 
REMARK    3  A    between atoms: C_5  and  C_1 
REMARK    4  A    between atoms: N_6  and  C_1 
REMARK       I    between atoms: C_4  and  N_2 
REMARK    5  A    between atoms: C_7  and  C_4 
REMARK    6  A    between atoms: O_16  and  C_5 
REMARK    7  A    between atoms: C_14  and  N_6 
REMARK    8  A    between atoms: C_27  and  O_16 
ROOT
ATOM      1  C   UNL d   1       0.930   0.029   0.102  0.00  0.00     0.297 C 
ENDROOT
BRANCH   1   2
ATOM      2  N   UNL d   1       0.455   0.364   1.453  0.00  0.00    -0.315 N 
ATOM      3  C   UNL d   1       0.295   1.636   1.923  0.00  0.00     0.254 C 
ATOM      4  O   UNL d   1       0.552   2.640   1.276  0.00  0.00    -0.268 OA
ATOM      5  H   UNL d   1       0.047  -0.404   1.973  0.00  0.00     0.166 HD
BRANCH   3   6
ATOM      6  C   UNL d   1      -0.272   1.722   3.297  0.00  0.00     0.033 A 
ATOM      7  C   UNL d   1       0.168   0.853   4.304  0.00  0.00     0.041 A 
ATOM      8  C   UNL d   1      -0.409   0.920   5.572  0.00  0.00     0.035 A 
ATOM      9 CL   UNL d   1       0.123  -0.155   6.805  0.00  0.00    -0.084 Cl
ATOM     10  C   UNL d   1      -1.416   1.845   5.847  0.00  0.00     0.024 A 
ATOM     11  C   UNL d   1      -1.842   2.723   4.848  0.00  0.00     0.003 A 
ATOM     12  C   UNL d   1      -1.267   2.668   3.575  0.00  0.00     0.017 A 
ENDBRANCH   3   6
ENDBRANCH   1   2
BRANCH   1  13
ATOM     13  C   UNL d   1       0.262   0.822  -1.084  0.00  0.00     0.442 C 
ATOM     14  F   UNL d   1      -0.881   1.451  -0.717  0.00  0.00    -0.166 F 
ATOM     15  F   UNL d   1       1.103   1.766  -1.587  0.00  0.00    -0.166 F 
ATOM     16  F   UNL d   1      -0.076   0.027  -2.133  0.00  0.00    -0.166 F 
ENDBRANCH   1  13
BRANCH   1  17
ATOM     17  C   UNL d   1       0.493  -1.425  -0.175  0.00  0.00     0.318 C 
ATOM     18  O   UNL d   1      -0.461  -1.958   0.395  0.00  0.00    -0.260 OA
BRANCH  17  19
ATOM     19  O   UNL d   1       1.301  -2.060  -1.072  0.00  0.00    -0.318 OA
BRANCH  19  20
ATOM     20  C   UNL d   1       1.013  -3.441  -1.327  0.00  0.00     0.174 C 
ATOM     21  C   UNL d   1       1.559  -4.321  -0.217  0.00  0.00     0.034 C 
ENDBRANCH  19  20
ENDBRANCH  17  19
ENDBRANCH   1  17
BRANCH   1  22
ATOM     22  N   UNL d   1       2.417   0.162   0.141  0.00  0.00    -0.348 N 
ATOM     23  H   UNL d   1       2.711   1.109  -0.102  0.00  0.00     0.163 HD
BRANCH  22  24
ATOM     24  C   UNL d   1       3.298  -0.501   0.982  0.00  0.00     0.030 A 
ATOM     25  C   UNL d   1       2.931  -1.514   1.879  0.00  0.00     0.032 A 
ATOM     26  C   UNL d   1       3.884  -2.186   2.653  0.00  0.00     0.044 A 
ATOM     27  C   UNL d   1       5.225  -1.875   2.514  0.00  0.00     0.116 A 
ATOM     28  C   UNL d   1       5.632  -0.912   1.605  0.00  0.00     0.044 A 
ATOM     29  F   UNL d   1       6.135  -2.523   3.252  0.00  0.00    -0.206 F 
ATOM     30  C   UNL d   1       4.672  -0.237   0.842  0.00  0.00     0.032 A 
ENDBRANCH  22  24
ENDBRANCH   1  22
TORSDOF 8
