REMARK  5 active torsions:
REMARK  status: ('A' for Active; 'I' for Inactive)
REMARK    1  A    between atoms: C_2  and  C_1 
REMARK       I    between atoms: N_5  and  C_1 
REMARK    2  A    between atoms: C_4  and  C_3 
REMARK    3  A    between atoms: O_16  and  C_4 
REMARK    4  A    between atoms: C_14  and  N_5 
REMARK    5  A    between atoms: N_6  and  C_9 
REMARK       I    between atoms: C_10  and  N_6 
ROOT
ATOM      1  C   UNL d   1       0.975  -0.225   0.062  0.00  0.00     0.257 C 
ATOM      2  N   UNL d   1       0.215  -0.589  -1.032  0.00  0.00    -0.322 N 
ATOM      3  O   UNL d   1       0.529   0.245   1.104  0.00  0.00    -0.267 OA
ATOM      4  H   UNL d   1       0.629  -1.137  -1.778  0.00  0.00     0.169 HD
ENDROOT
BRANCH   2   5
ATOM      5  C   UNL d   1      -1.147  -0.263  -1.216  0.00  0.00     0.050 A 
ATOM      6  C   UNL d   1      -1.833   0.698  -0.483  0.00  0.00     0.119 A 
ATOM      7  N   UNL d   1      -3.109   1.077  -0.737  0.00  0.00    -0.350 N 
ATOM      8  C   UNL d   1      -3.763   0.484  -1.744  0.00  0.00     0.107 A 
ATOM      9  HN  UNL d   1      -3.561   1.797  -0.174  1.00  0.00     0.166 HD
ATOM     10  C   UNL d   1      -3.175  -0.526  -2.501  0.00  0.00     0.051 A 
ATOM     11  C   UNL d   1      -1.850  -0.891  -2.241  0.00  0.00     0.035 A 
BRANCH   8  12
ATOM     12  N   UNL d   1      -5.058   0.894  -2.089  0.00  0.00    -0.314 N 
ATOM     13  C   UNL d   1      -5.740   1.942  -1.501  0.00  0.00     0.219 C 
ATOM     14  O   UNL d   1      -5.370   2.658  -0.576  0.00  0.00    -0.274 OA
ATOM     15  C   UNL d   1      -7.082   2.196  -2.139  0.00  0.00     0.117 C 
ATOM     16  H   UNL d   1      -5.496   0.415  -2.861  0.00  0.00     0.170 HD
ENDBRANCH   8  12
ENDBRANCH   2   5
BRANCH   1  17
ATOM     17  C   UNL d   1       2.448  -0.425  -0.010  0.00  0.00     0.049 A 
ATOM     18  C   UNL d   1       3.105  -1.496  -0.623  0.00  0.00     0.053 A 
ATOM     19  C   UNL d   1       4.512  -1.523  -0.659  0.00  0.00     0.019 A 
ATOM     20  C   UNL d   1       5.258  -0.515  -0.052  0.00  0.00     0.001 A 
ATOM     21  C   UNL d   1       4.612   0.531   0.598  0.00  0.00     0.001 A 
ATOM     22  C   UNL d   1       3.218   0.576   0.619  0.00  0.00     0.018 A 
BRANCH  18  23
ATOM     23  C   UNL d   1       2.424  -2.629  -1.277  0.00  0.00     0.177 C 
ATOM     24  O   UNL d   1       2.760  -3.040  -2.374  0.00  0.00    -0.646 OA
BRANCH  23  25
ATOM     25  O   UNL d   1       1.398  -3.151  -0.580  0.00  0.00    -0.773 OA
ATOM     26  H   UNL d   1       1.255  -2.814   0.328  0.00  0.00     0.167 HD
ENDBRANCH  23  25
ENDBRANCH  18  23
ENDBRANCH   1  17
TORSDOF 5
