REMARK  3 active torsions:
REMARK  status: ('A' for Active; 'I' for Inactive)
REMARK    1  A    between atoms: C_6  and  C_7 
REMARK    2  A    between atoms: O_8  and  C_6 
REMARK    3  A    between atoms: C_15  and  O_8 
ROOT
ATOM      1  C   UNL d   1      -1.082  -0.663   0.035  0.00  0.00     0.042 A 
ATOM      2  C   UNL d   1       0.119  -1.539   0.019  0.00  0.00     0.195 A 
ATOM      3  C   UNL d   1      -0.605   0.668   0.022  0.00  0.00    -0.010 A 
ATOM      4  C   UNL d   1       1.299  -0.652  -0.057  0.00  0.00     0.026 A 
ATOM      5  C   UNL d   1       0.841   0.671  -0.041  0.00  0.00    -0.011 A 
ATOM      6  C   UNL d   1      -2.431  -0.950   0.130  0.00  0.00     0.054 A 
ATOM      7  O   UNL d   1       0.175  -2.745   0.106  0.00  0.00    -0.287 OA
ATOM      8  C   UNL d   1      -1.485   1.737   0.104  0.00  0.00     0.013 A 
ATOM      9  C   UNL d   1       2.639  -0.987  -0.100  0.00  0.00     0.016 A 
ATOM     10  C   UNL d   1       1.754   1.713  -0.058  0.00  0.00     0.013 A 
ATOM     11  C   UNL d   1      -3.319   0.140   0.230  0.00  0.00     0.018 A 
ATOM     12  C   UNL d   1      -2.851   1.465   0.212  0.00  0.00     0.002 A 
ATOM     13  C   UNL d   1       3.120   1.399  -0.097  0.00  0.00     0.001 A 
ATOM     14  C   UNL d   1       3.558   0.062  -0.120  0.00  0.00     0.001 A 
ENDROOT
BRANCH   6  15
ATOM     15  C   UNL d   1      -3.014  -2.303   0.208  0.00  0.00     0.294 C 
ATOM     16  O   UNL d   1      -3.990  -2.542   0.906  0.00  0.00    -0.259 OA
BRANCH  15  17
ATOM     17  O   UNL d   1      -2.412  -3.159  -0.648  0.00  0.00    -0.313 OA
BRANCH  17  18
ATOM     18  C   UNL d   1      -2.885  -4.519  -0.592  0.00  0.00     0.124 C 
ATOM     19  C   UNL d   1      -4.016  -4.705  -1.596  0.00  0.00     0.040 C 
ATOM     20  C   UNL d   1      -1.719  -5.445  -0.916  0.00  0.00     0.040 C 
ENDBRANCH  17  18
ENDBRANCH  15  17
ENDBRANCH   6  15
TORSDOF 3
