REMARK  5 active torsions:
REMARK  status: ('A' for Active; 'I' for Inactive)
REMARK    1  A    between atoms: C_9  and  N_1 
REMARK    2  A    between atoms: O_17  and  C_6 
REMARK    3  A    between atoms: C_12  and  C_7 
REMARK    4  A    between atoms: C_11  and  C_8 
REMARK    5  A    between atoms: C_10  and  C_9 
ROOT
ATOM      1  C   UNL d   1       4.819   4.038  -0.232  0.00  0.00     0.079 C 
ATOM      2  C   UNL d   1       5.182   3.187  -1.309  0.00  0.00    -0.016 C 
ATOM      3  C   UNL d   1       4.200   3.583   0.954  0.00  0.00    -0.016 C 
ATOM      4  C   UNL d   1       3.995   1.384  -0.140  0.00  0.00    -0.038 C 
ATOM      5  C   UNL d   1       4.727   1.854  -1.237  0.00  0.00     0.019 C 
ATOM      6  C   UNL d   1       3.796   2.233   0.956  0.00  0.00     0.019 C 
ENDROOT
BRANCH   4   7
ATOM      7  C   UNL d   1       3.353   0.013  -0.149  0.00  0.00     0.174 C 
BRANCH   7   8
ATOM      8  N   UNL d   1       4.225  -1.048   0.288  0.00  0.00    -0.276 N 
ATOM      9  C   UNL d   1       4.326  -1.484   1.585  0.00  0.00     0.262 A 
ATOM     10  C   UNL d   1       5.221  -2.644   1.558  0.00  0.00     0.048 A 
ATOM     11  O   UNL d   1       3.773  -1.068   2.580  0.00  0.00    -0.267 OA
ATOM     12  C   UNL d   1       5.674  -3.455   2.580  0.00  0.00     0.018 A 
ATOM     13  C   UNL d   1       5.579  -2.866   0.243  0.00  0.00     0.048 A 
ATOM     14  C   UNL d   1       6.518  -4.515   2.229  0.00  0.00     0.001 A 
ATOM     15  C   UNL d   1       6.878  -4.743   0.883  0.00  0.00     0.001 A 
ATOM     16  C   UNL d   1       6.400  -3.912  -0.133  0.00  0.00     0.018 A 
ATOM     17  C   UNL d   1       4.925  -1.842  -0.571  0.00  0.00     0.262 A 
ATOM     18  O   UNL d   1       4.995  -1.792  -1.782  0.00  0.00    -0.267 OA
ENDBRANCH   7   8
ENDBRANCH   4   7
BRANCH   2  19
ATOM     19  C   UNL d   1       5.970   3.669  -2.558  0.00  0.00    -0.021 C 
ATOM     20  C   UNL d   1       4.975   4.184  -3.615  0.00  0.00     0.019 C 
ATOM     21  C   UNL d   1       7.000   4.782  -2.238  0.00  0.00     0.019 C 
ATOM     22  C   UNL d   1       6.813   2.544  -3.221  0.00  0.00     0.019 C 
ENDBRANCH   2  19
BRANCH   3  23
ATOM     23  C   UNL d   1       3.835   4.469   2.174  0.00  0.00    -0.021 C 
ATOM     24  C   UNL d   1       2.388   4.967   1.992  0.00  0.00     0.019 C 
ATOM     25  C   UNL d   1       3.930   3.658   3.496  0.00  0.00     0.019 C 
ATOM     26  C   UNL d   1       4.727   5.710   2.417  0.00  0.00     0.019 C 
ENDBRANCH   3  23
BRANCH   1  27
ATOM     27  O   UNL d   1       4.976   5.384  -0.403  0.00  0.00    -0.360 OA
ATOM     28  H   UNL d   1       5.743   5.631   0.138  0.00  0.00     0.217 HD
ENDBRANCH   1  27
TORSDOF 5
