REMARK  4 active torsions:
REMARK  status: ('A' for Active; 'I' for Inactive)
REMARK    1  A    between atoms: C_3  and  N_1 
REMARK       I    between atoms: C_4  and  N_1 
REMARK    2  A    between atoms: C_5  and  C_2 
REMARK    3  A    between atoms: C_7  and  C_4 
REMARK    4  A    between atoms: O_21  and  C_9 
ROOT
ATOM      1  N   UNL d   1       3.267  -0.223  -1.081  0.00  0.00    -0.321 N 
ATOM      2  C   UNL d   1       2.519   0.114   0.028  0.00  0.00     0.245 C 
ATOM      3  O   UNL d   1       1.327   0.395   0.060  0.00  0.00    -0.268 OA
ATOM      4  H   UNL d   1       4.174  -0.638  -0.914  0.00  0.00     0.169 HD
ENDROOT
BRANCH   2   5
ATOM      5  C   UNL d   1       3.298   0.005   1.290  0.00  0.00     0.075 C 
ATOM      6  C   UNL d   1       2.680   0.260   2.455  0.00  0.00     0.020 C 
BRANCH   6   7
ATOM      7  C   UNL d   1       3.349   0.095   3.744  0.00  0.00    -0.001 A 
ATOM      8  C   UNL d   1       4.132   1.073   4.380  0.00  0.00     0.078 A 
ATOM      9  C   UNL d   1       4.784   0.756   5.580  0.00  0.00     0.039 A 
ATOM     10  C   UNL d   1       4.656  -0.507   6.160  0.00  0.00     0.022 A 
ATOM     11  C   UNL d   1       3.876  -1.470   5.531  0.00  0.00     0.011 A 
ATOM     12  C   UNL d   1       3.223  -1.176   4.336  0.00  0.00     0.033 A 
ATOM     13 BR   UNL d   1       3.725  -3.199   6.279  0.00  0.00    -0.051 Br
BRANCH   8  14
ATOM     14  O   UNL d   1       4.425   2.326   3.912  0.00  0.00    -0.355 OA
ATOM     15  C   UNL d   1       3.350   3.060   3.335  0.00  0.00     0.210 C 
ENDBRANCH   8  14
ENDBRANCH   6   7
ENDBRANCH   2   5
BRANCH   1  16
ATOM     16  C   UNL d   1       2.814  -0.234  -2.421  0.00  0.00     0.074 A 
ATOM     17  C   UNL d   1       1.699   0.469  -2.905  0.00  0.00     0.146 A 
ATOM     18  C   UNL d   1       1.288   0.354  -4.229  0.00  0.00     0.086 A 
ATOM     19  F   UNL d   1       1.035   1.350  -2.144  0.00  0.00    -0.204 F 
ATOM     20  C   UNL d   1       2.008  -0.452  -5.095  0.00  0.00     0.119 A 
ATOM     21  C   UNL d   1       3.146  -1.123  -4.663  0.00  0.00     0.044 A 
ATOM     22  F   UNL d   1       1.616  -0.572  -6.370  0.00  0.00    -0.206 F 
ATOM     23  C   UNL d   1       3.554  -1.008  -3.330  0.00  0.00     0.036 A 
ENDBRANCH   1  16
TORSDOF 4
