REMARK  4 active torsions:
REMARK  status: ('A' for Active; 'I' for Inactive)
REMARK    1  A    between atoms: C_3  and  C_1 
REMARK    2  A    between atoms: C_11  and  N_2 
REMARK    3  A    between atoms: N_19  and  C_4 
REMARK    4  A    between atoms: C_18  and  N_5 
ROOT
ATOM      1  C   UNL d   1       0.852  -0.680  -0.062  0.00  0.00     0.145 A 
ATOM      2  N   UNL d   1      -0.329  -1.094  -0.631  0.00  0.00    -0.269 N 
ATOM      3  N   UNL d   1       0.842   0.542   0.390  0.00  0.00    -0.282 N 
ATOM      4  HN  UNL d   1       1.594   1.038   0.868  1.00  0.00     0.188 HD
ATOM      5  C   UNL d   1      -1.149   0.022  -0.552  0.00  0.00     0.199 A 
ATOM      6  N   UNL d   1      -0.401   1.006   0.079  0.00  0.00    -0.274 N 
ATOM      7  S   UNL d   1      -2.728   0.289  -0.988  0.00  0.00    -0.039 SA
ATOM      8  H   UNL d   1      -0.698   1.950   0.304  0.00  0.00     0.189 HD
ENDROOT
BRANCH   1   9
ATOM      9  C   UNL d   1       2.078  -1.437  -0.016  0.00  0.00     0.072 A 
ATOM     10  C   UNL d   1       3.004  -1.436   1.017  0.00  0.00     0.136 A 
ATOM     11  N   UNL d   1       4.031  -2.310   0.632  0.00  0.00    -0.240 N 
ATOM     12  N   UNL d   1       3.854  -2.732  -0.654  0.00  0.00    -0.302 N 
ATOM     13  C   UNL d   1       2.665  -2.248  -1.006  0.00  0.00     0.127 A 
ATOM     14  HN  UNL d   1       4.491  -3.293  -1.220  1.00  0.00     0.186 HD
BRANCH  10  15
ATOM     15  N   UNL d   1       2.979  -0.714   2.174  0.00  0.00    -0.383 N 
ATOM     16  H   UNL d   1       2.300   0.051   2.223  0.00  0.00     0.157 HD
ATOM     17  H   UNL d   1       3.859  -0.441   2.606  0.00  0.00     0.157 HD
ENDBRANCH  10  15
BRANCH  11  18
ATOM     18  C   UNL d   1       5.166  -2.757   1.370  0.00  0.00     0.058 A 
ATOM     19  C   UNL d   1       5.185  -2.747   2.772  0.00  0.00     0.031 A 
ATOM     20  C   UNL d   1       6.325  -3.171   3.461  0.00  0.00     0.002 A 
ATOM     21  C   UNL d   1       7.446  -3.611   2.760  0.00  0.00     0.000 A 
ATOM     22  C   UNL d   1       7.425  -3.651   1.368  0.00  0.00     0.002 A 
ATOM     23  C   UNL d   1       6.285  -3.240   0.673  0.00  0.00     0.031 A 
ENDBRANCH  11  18
ENDBRANCH   1   9
BRANCH   2  24
ATOM     24  C   UNL d   1      -0.673  -2.377  -1.139  0.00  0.00     0.065 A 
ATOM     25  C   UNL d   1      -0.373  -3.585  -0.474  0.00  0.00     0.063 A 
ATOM     26  C   UNL d   1      -0.638  -4.824  -1.073  0.00  0.00     0.050 A 
ATOM     27 CL   UNL d   1       0.156  -3.646   1.174  0.00  0.00    -0.082 Cl
ATOM     28  C   UNL d   1      -1.276  -4.877  -2.306  0.00  0.00     0.035 A 
ATOM     29  C   UNL d   1      -1.651  -3.704  -2.949  0.00  0.00     0.026 A 
ATOM     30 CL   UNL d   1      -1.630  -6.398  -3.026  0.00  0.00    -0.084 Cl
ATOM     31  C   UNL d   1      -1.337  -2.466  -2.377  0.00  0.00     0.033 A 
ENDBRANCH   2  24
TORSDOF 4
