REMARK  3 active torsions:
REMARK  status: ('A' for Active; 'I' for Inactive)
REMARK    1  A    between atoms: C_5  and  C_1 
REMARK       I    between atoms: C_2  and  N_4 
REMARK    2  A    between atoms: C_3  and  C_2 
REMARK    3  A    between atoms: N_4  and  C_6 
ROOT
ATOM      1  C   UNL d   1      -1.088  -2.785  -3.604  0.00  0.00     0.257 C 
ATOM      2  N   UNL d   1      -0.861  -1.494  -4.057  0.00  0.00    -0.323 N 
ATOM      3  O   UNL d   1      -0.728  -3.253  -2.533  0.00  0.00    -0.267 OA
ATOM      4  H   UNL d   1      -1.244  -1.239  -4.956  0.00  0.00     0.169 HD
ENDROOT
BRANCH   2   5
ATOM      5  C   UNL d   1      -0.285  -0.426  -3.334  0.00  0.00     0.035 A 
ATOM      6  C   UNL d   1       0.164  -0.527  -2.015  0.00  0.00     0.045 A 
ATOM      7  C   UNL d   1       0.623   0.605  -1.320  0.00  0.00     0.050 A 
ATOM      8  C   UNL d   1       0.673   1.840  -1.982  0.00  0.00     0.016 A 
ATOM      9  C   UNL d   1       0.262   1.943  -3.309  0.00  0.00     0.003 A 
ATOM     10  C   UNL d   1      -0.221   0.817  -3.977  0.00  0.00     0.029 A 
BRANCH   7  11
ATOM     11  C   UNL d   1       1.009   0.517   0.136  0.00  0.00     0.417 C 
ATOM     12  F   UNL d   1       0.945  -0.740   0.654  0.00  0.00    -0.166 F 
ATOM     13  F   UNL d   1       0.205   1.286   0.924  0.00  0.00    -0.166 F 
ATOM     14  F   UNL d   1       2.279   0.953   0.368  0.00  0.00    -0.166 F 
ENDBRANCH   7  11
ENDBRANCH   2   5
BRANCH   1  15
ATOM     15  C   UNL d   1      -1.901  -3.645  -4.504  0.00  0.00     0.047 A 
ATOM     16  C   UNL d   1      -2.674  -4.648  -3.928  0.00  0.00     0.104 A 
ATOM     17  N   UNL d   1      -3.505  -5.460  -4.630  0.00  0.00    -0.374 N 
ATOM     18  C   UNL d   1      -3.552  -5.274  -5.965  0.00  0.00     0.087 A 
ATOM     19  HN  UNL d   1      -4.066  -6.176  -4.169  1.00  0.00     0.164 HD
ATOM     20  C   UNL d   1      -2.798  -4.322  -6.634  0.00  0.00     0.018 A 
ATOM     21  C   UNL d   1      -1.954  -3.498  -5.892  0.00  0.00     0.020 A 
ENDBRANCH   1  15
TORSDOF 3
