REMARK  3 active torsions:
REMARK  status: ('A' for Active; 'I' for Inactive)
REMARK       I    between atoms: N_2  and  C_1 
REMARK    1  A    between atoms: C_5  and  C_1 
REMARK    2  A    between atoms: N_3  and  N_2 
REMARK    3  A    between atoms: C_6  and  N_3 
ROOT
ATOM      1  N   UNL d   1       0.845   2.087   1.438  0.00  0.00    -0.203 NA
ATOM      2  H   UNL d   1       1.120   2.823   0.790  0.00  0.00     0.153 HD
ENDROOT
BRANCH   1   3
ATOM      3  N   UNL d   1       0.266   0.981   0.808  0.00  0.00    -0.287 N 
ATOM      4  C   UNL d   1       1.083   0.131   0.083  0.00  0.00     0.236 C 
ATOM      5  O   UNL d   1       2.294   0.344  -0.064  0.00  0.00    -0.272 OA
ATOM      6  H   UNL d   1      -0.739   0.872   0.881  0.00  0.00     0.184 HD
BRANCH   4   7
ATOM      7  C   UNL d   1       0.378  -1.099  -0.536  0.00  0.00     0.079 C 
ATOM      8  C   UNL d   1       0.435  -1.208  -2.085  0.00  0.00     0.014 C 
ATOM      9  C   UNL d   1      -0.948  -1.877  -2.034  0.00  0.00     0.002 C 
ATOM     10  C   UNL d   1      -1.166  -1.170  -0.682  0.00  0.00     0.014 C 
ENDBRANCH   4   7
ENDBRANCH   1   3
BRANCH   1  11
ATOM     11  C   UNL d   1       0.191   2.519   2.609  0.00  0.00     0.027 A 
ATOM     12  C   UNL d   1      -0.408   1.615   3.502  0.00  0.00     0.028 A 
ATOM     13  C   UNL d   1      -0.998   2.061   4.687  0.00  0.00     0.044 A 
ATOM     14  C   UNL d   1      -0.971   3.412   4.996  0.00  0.00     0.116 A 
ATOM     15  C   UNL d   1      -0.354   4.324   4.150  0.00  0.00     0.044 A 
ATOM     16  F   UNL d   1      -1.534   3.841   6.133  0.00  0.00    -0.206 F 
ATOM     17  C   UNL d   1       0.238   3.875   2.966  0.00  0.00     0.028 A 
ENDBRANCH   1  11
TORSDOF 3
