REMARK  6 active torsions:
REMARK  status: ('A' for Active; 'I' for Inactive)
REMARK    1  A    between atoms: C_17  and  N_1 
REMARK    2  A    between atoms: C_18  and  N_2 
REMARK    3  A    between atoms: C_22  and  C_17 
REMARK    4  A    between atoms: C_21  and  C_18 
REMARK    5  A    between atoms: O_19  and  C_22 
REMARK    6  A    between atoms: O_20  and  C_21 
ROOT
ATOM      1  N   UNL d   1       3.318   0.362   0.062  0.00  0.00    -0.278 N 
ATOM      2  N   UNL d   1      -3.323   0.364  -0.066  0.00  0.00    -0.278 N 
ATOM      3  C   UNL d   1       2.528   1.471  -0.034  0.00  0.00     0.261 A 
ATOM      4  C   UNL d   1      -2.535   1.469   0.032  0.00  0.00     0.261 A 
ATOM      5  C   UNL d   1      -2.588  -0.793  -0.036  0.00  0.00     0.261 A 
ATOM      6  C   UNL d   1       2.582  -0.794   0.030  0.00  0.00     0.261 A 
ATOM      7  C   UNL d   1      -1.173  -0.391  -0.014  0.00  0.00     0.049 A 
ATOM      8  C   UNL d   1       1.168  -0.392   0.010  0.00  0.00     0.049 A 
ATOM      9  C   UNL d   1       1.154   1.005  -0.005  0.00  0.00     0.049 A 
ATOM     10  C   UNL d   1      -1.158   1.005   0.004  0.00  0.00     0.049 A 
ATOM     11  C   UNL d   1      -0.002   1.755   0.000  0.00  0.00     0.036 A 
ATOM     12  C   UNL d   1      -0.003  -1.141  -0.003  0.00  0.00     0.036 A 
ATOM     13  O   UNL d   1       2.837   2.640  -0.161  0.00  0.00    -0.267 OA
ATOM     14  O   UNL d   1       2.951  -1.952  -0.015  0.00  0.00    -0.267 OA
ATOM     15  O   UNL d   1      -2.841   2.640   0.162  0.00  0.00    -0.267 OA
ATOM     16  O   UNL d   1      -2.959  -1.950   0.005  0.00  0.00    -0.267 OA
ENDROOT
BRANCH   1  17
ATOM     17  C   UNL d   1       4.771   0.440   0.062  0.00  0.00     0.161 C 
BRANCH  17  18
ATOM     18  C   UNL d   1       5.314   1.317   1.198  0.00  0.00     0.184 C 
BRANCH  18  19
ATOM     19  O   UNL d   1       5.045   0.714   2.460  0.00  0.00    -0.399 OA
ATOM     20  H   UNL d   1       5.356   1.335   3.142  0.00  0.00     0.209 HD
ENDBRANCH  18  19
ENDBRANCH  17  18
ENDBRANCH   1  17
BRANCH   2  21
ATOM     21  C   UNL d   1      -4.776   0.444  -0.069  0.00  0.00     0.161 C 
BRANCH  21  22
ATOM     22  C   UNL d   1      -5.314   1.321  -1.206  0.00  0.00     0.184 C 
BRANCH  22  23
ATOM     23  O   UNL d   1      -5.037   0.720  -2.467  0.00  0.00    -0.399 OA
ATOM     24  H   UNL d   1      -5.346   1.342  -3.150  0.00  0.00     0.209 HD
ENDBRANCH  22  23
ENDBRANCH  21  22
ENDBRANCH   2  21
TORSDOF 6
