REMARK  7 active torsions:
REMARK  status: ('A' for Active; 'I' for Inactive)
REMARK    1  A    between atoms: C_10  and  C_1 
REMARK    2  A    between atoms: C_2  and  C_12 
REMARK    3  A    between atoms: C_4  and  C_9 
REMARK    4  A    between atoms: C_17  and  C_5 
REMARK    5  A    between atoms: N_13  and  N_6 
REMARK    6  A    between atoms: C_8  and  N_13 
REMARK    7  A    between atoms: O_24  and  C_17 
ROOT
ATOM      1  N   UNL d   1       0.198  -3.414   0.038  0.00  0.00    -0.303 N 
ATOM      2  HN  UNL d   1      -0.140  -4.376   0.070  1.00  0.00     0.186 HD
ATOM      3  C   UNL d   1      -0.660  -2.433   0.024  0.00  0.00     0.039 C 
ATOM      4  C   UNL d   1      -0.286  -0.961  -0.001  0.00  0.00     0.071 C 
ENDROOT
BRANCH   1   5
ATOM      5  N   UNL d   1       1.532  -3.176   0.011  0.00  0.00    -0.299 N 
ATOM      6  H   UNL d   1       1.964  -2.264   0.137  0.00  0.00     0.187 HD
BRANCH   5   7
ATOM      7  C   UNL d   1       2.425  -4.268   0.076  0.00  0.00     0.070 A 
ATOM      8  C   UNL d   1       1.941  -5.584   0.083  0.00  0.00     0.048 A 
ATOM      9  C   UNL d   1       2.800  -6.693   0.095  0.00  0.00     0.050 A 
ATOM     10  C   UNL d   1       4.185  -6.476   0.094  0.00  0.00     0.018 A 
ATOM     11  C   UNL d   1       4.693  -5.175   0.080  0.00  0.00     0.027 A 
ATOM     12  C   UNL d   1       3.820  -4.081   0.067  0.00  0.00     0.062 A 
ATOM     13 CL   UNL d   1       4.502  -2.491   0.042  0.00  0.00    -0.082 Cl
BRANCH   9  14
ATOM     14  C   UNL d   1       2.235  -8.090   0.095  0.00  0.00     0.417 C 
ATOM     15  F   UNL d   1       0.873  -8.131   0.099  0.00  0.00    -0.166 F 
ATOM     16  F   UNL d   1       2.625  -8.808  -0.994  0.00  0.00    -0.166 F 
ATOM     17  F   UNL d   1       2.631  -8.810   1.181  0.00  0.00    -0.166 F 
ENDBRANCH   9  14
ENDBRANCH   5   7
ENDBRANCH   1   5
BRANCH   3  18
ATOM     18  C   UNL d   1      -2.084  -2.787   0.024  0.00  0.00     0.029 A 
ATOM     19  S   UNL d   1      -3.290  -1.569   0.002  0.00  0.00    -0.079 SA
ATOM     20  C   UNL d   1      -4.565  -2.696  -0.001  0.00  0.00     0.059 A 
ATOM     21  C   UNL d   1      -4.102  -3.991   0.019  0.00  0.00     0.029 A 
ATOM     22  C   UNL d   1      -2.669  -4.044   0.034  0.00  0.00     0.023 A 
BRANCH  20  23
ATOM     23  C   UNL d   1      -5.925  -2.272  -0.026  0.00  0.00    -0.056 C 
ATOM     24  C   UNL d   1      -7.032  -1.797  -0.056  0.00  0.00    -0.063 C 
BRANCH  24  25
ATOM     25  C   UNL d   1      -8.349  -1.144  -0.105  0.00  0.00     0.114 C 
ATOM     26  C   UNL d   1      -8.327   0.181   0.660  0.00  0.00     0.060 C 
ATOM     27  C   UNL d   1      -8.777  -0.910  -1.552  0.00  0.00     0.060 C 
BRANCH  25  28
ATOM     28  O   UNL d   1      -9.312  -1.998   0.506  0.00  0.00    -0.378 OA
ATOM     29  H   UNL d   1      -8.989  -2.195   1.401  0.00  0.00     0.211 HD
ENDBRANCH  25  28
ENDBRANCH  24  25
ENDBRANCH  20  23
ENDBRANCH   3  18
TORSDOF 7
