REMARK  9 active torsions:
REMARK  status: ('A' for Active; 'I' for Inactive)
REMARK    1  A    between atoms: N_4  and  C_1 
REMARK    2  A    between atoms: C_2  and  N_4 
REMARK    3  A    between atoms: N_9  and  C_2 
REMARK    4  A    between atoms: N_5  and  C_3 
REMARK    5  A    between atoms: C_6  and  C_7 
REMARK    6  A    between atoms: O_18  and  C_6 
REMARK    7  A    between atoms: C_13  and  N_9 
REMARK    8  A    between atoms: S_19  and  C_17 
REMARK    9  A    between atoms: C_28  and  O_18 
ROOT
ATOM      1  C   UNL d   1       2.060  -0.049   0.262  0.00  0.00     0.057 A 
ATOM      2  C   UNL d   1       1.145  -1.147   0.317  0.00  0.00     0.037 A 
ATOM      3  C   UNL d   1       0.189   1.542   0.274  0.00  0.00     0.041 A 
ATOM      4  C   UNL d   1       1.571   1.283   0.176  0.00  0.00     0.049 A 
ATOM      5  C   UNL d   1      -0.222  -0.844   0.421  0.00  0.00     0.027 A 
ATOM      6  C   UNL d   1      -0.689   0.465   0.416  0.00  0.00     0.019 A 
ENDROOT
BRANCH   1   7
ATOM      7  N   UNL d   1       3.482  -0.266   0.273  0.00  0.00    -0.332 N 
ATOM      8  H   UNL d   1       4.047   0.406  -0.220  0.00  0.00     0.168 HD
BRANCH   7   9
ATOM      9  C   UNL d   1       4.149  -1.114   1.143  0.00  0.00     0.176 C 
ATOM     10  S   UNL d   1       3.638  -1.595   2.673  0.00  0.00    -0.041 SA
BRANCH   9  11
ATOM     11  N   UNL d   1       5.285  -1.732   0.662  0.00  0.00    -0.333 N 
ATOM     12  H   UNL d   1       5.354  -2.651   1.095  0.00  0.00     0.168 HD
BRANCH  11  13
ATOM     13  C   UNL d   1       6.584  -1.160   0.534  0.00  0.00     0.035 A 
ATOM     14  C   UNL d   1       7.683  -2.017   0.742  0.00  0.00     0.048 A 
ATOM     15  C   UNL d   1       9.013  -1.552   0.718  0.00  0.00     0.002 A 
ATOM     16  C   UNL d   1       9.230  -0.207   0.425  0.00  0.00     0.018 A 
ATOM     17  C   UNL d   1       8.147   0.648   0.195  0.00  0.00     0.004 A 
ATOM     18  C   UNL d   1       6.825   0.178   0.263  0.00  0.00     0.029 A 
BRANCH  15  19
ATOM     19  S   UNL d   1      10.303  -2.739   1.091  0.00  0.00    -0.134 SA
ATOM     20  C   UNL d   1      11.822  -1.745   1.152  0.00  0.00     0.095 C 
ENDBRANCH  15  19
ENDBRANCH  11  13
ENDBRANCH   9  11
ENDBRANCH   7   9
ENDBRANCH   1   7
BRANCH   2  21
ATOM     21  N   UNL d   1       1.566  -2.491   0.231  0.00  0.00    -0.278 NA
ATOM     22  C   UNL d   1       0.649  -3.534   0.743  0.00  0.00     0.122 C 
ATOM     23  C   UNL d   1       1.370  -4.886   0.806  0.00  0.00     0.182 C 
ATOM     24  O   UNL d   1       1.886  -5.257  -0.484  0.00  0.00    -0.389 OA
ATOM     25  C   UNL d   1       2.818  -4.262  -0.942  0.00  0.00     0.182 C 
ATOM     26  C   UNL d   1       2.162  -2.875  -1.070  0.00  0.00     0.122 C 
ENDBRANCH   2  21
BRANCH   3  27
ATOM     27  C   UNL d   1      -0.478   2.881   0.249  0.00  0.00     0.293 C 
ATOM     28  O   UNL d   1      -1.689   2.995   0.387  0.00  0.00    -0.259 OA
BRANCH  27  29
ATOM     29  O   UNL d   1       0.368   3.915   0.018  0.00  0.00    -0.318 OA
BRANCH  29  30
ATOM     30  C   UNL d   1      -0.309   5.176  -0.180  0.00  0.00     0.174 C 
ATOM     31  C   UNL d   1      -0.636   5.866   1.135  0.00  0.00     0.034 C 
ENDBRANCH  29  30
ENDBRANCH  27  29
ENDBRANCH   3  27
TORSDOF 9
