REMARK  7 active torsions:
REMARK  status: ('A' for Active; 'I' for Inactive)
REMARK    1  A    between atoms: C_2  and  C_1 
REMARK    2  A    between atoms: N_19  and  C_4 
REMARK    3  A    between atoms: S_20  and  C_10 
REMARK    4  A    between atoms: C_18  and  C_11 
REMARK    5  A    between atoms: C_21  and  C_16 
REMARK    6  A    between atoms: C_25  and  S_20 
REMARK    7  A    between atoms: C_23  and  C_25 
ROOT
ATOM      1  C   UNL d   1       2.443  -0.025   0.027  0.00  0.00     0.150 A 
ATOM      2  C   UNL d   1       1.721   1.160   0.015  0.00  0.00     0.079 A 
ATOM      3  C   UNL d   1       0.330   0.836  -0.046  0.00  0.00     0.056 A 
ATOM      4  C   UNL d   1       0.302  -0.562  -0.052  0.00  0.00     0.162 A 
ATOM      5  O   UNL d   1       1.566  -1.070  -0.040  0.00  0.00    -0.287 OA
ATOM      6  C   UNL d   1      -0.921   1.504  -0.081  0.00  0.00    -0.007 A 
ATOM      7  N   UNL d   1      -0.776  -1.367  -0.071  0.00  0.00    -0.335 N 
ATOM      8  HN  UNL d   1      -0.704  -2.385  -0.067  1.00  0.00     0.168 HD
ATOM      9  C   UNL d   1      -1.959  -0.720  -0.095  0.00  0.00     0.045 A 
ATOM     10  C   UNL d   1      -2.060   0.673  -0.090  0.00  0.00     0.043 A 
ENDROOT
BRANCH   1  11
ATOM     11  C   UNL d   1       3.858  -0.188   0.170  0.00  0.00     0.161 A 
ATOM     12  N   UNL d   1       4.654  -1.151  -0.398  0.00  0.00    -0.314 N 
ATOM     13  C   UNL d   1       5.901  -0.953   0.143  0.00  0.00     0.162 A 
ATOM     14  C   UNL d   1       4.287  -2.110  -1.405  0.00  0.00     0.160 C 
ATOM     15  N   UNL d   1       5.888   0.112   0.908  0.00  0.00    -0.278 N 
ATOM     16  N   UNL d   1       4.610   0.607   0.910  0.00  0.00    -0.281 N 
ATOM     17  HN  UNL d   1       6.686   0.501   1.411  1.00  0.00     0.189 HD
ATOM     18  HN  UNL d   1       4.294   1.445   1.399  1.00  0.00     0.188 HD
BRANCH  13  19
ATOM     19  S   UNL d   1       7.265  -1.975  -0.145  0.00  0.00    -0.089 SA
BRANCH  19  20
ATOM     20  C   UNL d   1       8.170  -1.706   1.412  0.00  0.00     0.108 C 
BRANCH  20  21
ATOM     21  C   UNL d   1       9.470  -2.455   1.391  0.00  0.00    -0.026 C 
ATOM     22  C   UNL d   1      10.668  -1.886   1.601  0.00  0.00     0.007 C 
ENDBRANCH  20  21
ENDBRANCH  19  20
ENDBRANCH  13  19
ENDBRANCH   1  11
BRANCH   2  23
ATOM     23  N   UNL d   1       2.287   2.391   0.066  0.00  0.00    -0.396 N 
ATOM     24  H   UNL d   1       3.286   2.463   0.275  0.00  0.00     0.156 HD
ATOM     25  H   UNL d   1       1.771   3.174   0.459  0.00  0.00     0.156 HD
ENDBRANCH   2  23
BRANCH   6  26
ATOM     26  C   UNL d   1      -1.058   2.974  -0.100  0.00  0.00    -0.025 A 
ATOM     27  C   UNL d   1      -0.246   3.788  -0.905  0.00  0.00     0.012 A 
ATOM     28  C   UNL d   1      -0.336   5.183  -0.864  0.00  0.00     0.001 A 
ATOM     29  C   UNL d   1      -1.302   5.796  -0.074  0.00  0.00     0.000 A 
ATOM     30  C   UNL d   1      -2.175   5.014   0.673  0.00  0.00     0.001 A 
ATOM     31  C   UNL d   1      -2.045   3.621   0.670  0.00  0.00     0.012 A 
ENDBRANCH   6  26
BRANCH   9  32
ATOM     32  C   UNL d   1      -3.167  -1.580  -0.152  0.00  0.00    -0.009 A 
ATOM     33  C   UNL d   1      -3.207  -2.832   0.488  0.00  0.00     0.013 A 
ATOM     34  C   UNL d   1      -4.343  -3.647   0.432  0.00  0.00     0.001 A 
ATOM     35  C   UNL d   1      -5.468  -3.231  -0.278  0.00  0.00     0.000 A 
ATOM     36  C   UNL d   1      -5.458  -1.998  -0.919  0.00  0.00     0.001 A 
ATOM     37  C   UNL d   1      -4.322  -1.185  -0.857  0.00  0.00     0.013 A 
ENDBRANCH   9  32
TORSDOF 7
