REMARK  4 active torsions:
REMARK  status: ('A' for Active; 'I' for Inactive)
REMARK    1  A    between atoms: C_5  and  C_1 
REMARK    2  A    between atoms: C_8  and  C_2 
REMARK    3  A    between atoms: C_6  and  N_10 
REMARK       I    between atoms: N_11  and  C_8 
REMARK    4  A    between atoms: N_10  and  N_11 
ROOT
ATOM      1  C   UNL d   1      -1.416  -0.702   0.101  0.00  0.00     0.086 A 
ATOM      2  C   UNL d   1      -0.115  -1.306   0.046  0.00  0.00     0.094 A 
ATOM      3  N   UNL d   1      -1.297   0.631  -0.031  0.00  0.00    -0.259 N 
ATOM      4  HN  UNL d   1      -2.061   1.305  -0.082  1.00  0.00     0.195 HD
ATOM      5  O   UNL d   1       0.042   0.916  -0.085  0.00  0.00    -0.241 OA
ATOM      6  C   UNL d   1       0.751  -0.234  -0.042  0.00  0.00     0.090 A 
ATOM      7  C   UNL d   1       2.219  -0.076  -0.083  0.00  0.00     0.080 C 
ENDROOT
BRANCH   2   8
ATOM      8  C   UNL d   1       0.330  -2.684   0.019  0.00  0.00     0.271 C 
ATOM      9  N   UNL d   1      -0.321  -3.546   0.890  0.00  0.00    -0.282 N 
ATOM     10  H   UNL d   1      -0.785  -3.168   1.711  0.00  0.00     0.184 HD
ATOM     11  O   UNL d   1       1.232  -3.050  -0.727  0.00  0.00    -0.266 OA
BRANCH   9  12
ATOM     12  N   UNL d   1       0.253  -4.832   1.004  0.00  0.00    -0.200 NA
ATOM     13  H   UNL d   1       0.275  -5.306   0.090  0.00  0.00     0.153 HD
BRANCH  12  14
ATOM     14  C   UNL d   1      -0.232  -5.671   2.042  0.00  0.00     0.073 A 
ATOM     15  C   UNL d   1      -0.391  -7.047   1.789  0.00  0.00     0.073 A 
ATOM     16 CL   UNL d   1      -0.153  -7.710   0.210  0.00  0.00    -0.081 Cl
ATOM     17  C   UNL d   1      -0.764  -7.902   2.822  0.00  0.00     0.113 A 
ATOM     18  N   UNL d   1      -0.976  -7.494   4.093  0.00  0.00    -0.372 N 
ATOM     19  C   UNL d   1      -0.791  -6.177   4.334  0.00  0.00     0.113 A 
ATOM     20  HN  UNL d   1      -1.258  -8.142   4.828  1.00  0.00     0.164 HD
ATOM     21  C   UNL d   1      -0.425  -5.243   3.368  0.00  0.00     0.073 A 
ATOM     22 CL   UNL d   1      -0.184  -3.611   3.889  0.00  0.00    -0.081 Cl
ENDBRANCH  12  14
ENDBRANCH   9  12
ENDBRANCH   2   8
BRANCH   1  23
ATOM     23  C   UNL d   1      -2.766  -1.280   0.229  0.00  0.00     0.037 A 
ATOM     24  C   UNL d   1      -3.705  -0.719   1.131  0.00  0.00     0.048 A 
ATOM     25 CL   UNL d   1      -3.333   0.578   2.225  0.00  0.00    -0.083 Cl
ATOM     26  C   UNL d   1      -5.017  -1.210   1.221  0.00  0.00     0.025 A 
ATOM     27  C   UNL d   1      -5.414  -2.299   0.457  0.00  0.00     0.003 A 
ATOM     28  C   UNL d   1      -4.508  -2.877  -0.424  0.00  0.00     0.025 A 
ATOM     29  C   UNL d   1      -3.210  -2.357  -0.564  0.00  0.00     0.048 A 
ATOM     30 CL   UNL d   1      -2.260  -3.079  -1.819  0.00  0.00    -0.083 Cl
ENDBRANCH   1  23
TORSDOF 4
