REMARK  2 active torsions:
REMARK  status: ('A' for Active; 'I' for Inactive)
REMARK    1  A    between atoms: C_2  and  C_1 
REMARK       I    between atoms: N_3  and  C_2 
REMARK    2  A    between atoms: C_14  and  N_3 
ROOT
ATOM      1  C   UNL d   1      -3.008   0.170   0.122  0.00  0.00     0.231 C 
ATOM      2  N   UNL d   1      -3.667   1.375  -0.069  0.00  0.00    -0.327 N 
ATOM      3  O   UNL d   1      -3.570  -0.880   0.409  0.00  0.00    -0.272 OA
ATOM      4  H   UNL d   1      -3.132   2.162  -0.411  0.00  0.00     0.169 HD
ENDROOT
BRANCH   1   5
ATOM      5  C   UNL d   1      -1.464   0.193  -0.013  0.00  0.00     0.042 C 
ATOM      6  C   UNL d   1      -0.795   0.981   1.140  0.00  0.00     0.024 C 
ATOM      7  C   UNL d   1       0.744   0.889   1.036  0.00  0.00    -0.013 C 
ATOM      8  C   UNL d   1       1.187  -0.583   1.107  0.00  0.00     0.009 C 
ATOM      9  C   UNL d   1       1.202   1.474  -0.310  0.00  0.00     0.009 C 
ATOM     10  C   UNL d   1       0.555  -1.374  -0.048  0.00  0.00    -0.013 C 
ATOM     11  C   UNL d   1      -0.968  -1.282   0.073  0.00  0.00     0.024 C 
ATOM     12  C   UNL d   1       0.982  -0.773  -1.395  0.00  0.00     0.009 C 
ATOM     13  C   UNL d   1       0.550   0.700  -1.471  0.00  0.00    -0.013 C 
ATOM     14  C   UNL d   1      -0.984   0.793  -1.353  0.00  0.00     0.024 C 
ENDBRANCH   1   5
BRANCH   2  15
ATOM     15  C   UNL d   1      -5.048   1.616   0.172  0.00  0.00     0.034 A 
ATOM     16  C   UNL d   1      -5.904   0.686   0.767  0.00  0.00     0.030 A 
ATOM     17  C   UNL d   1      -7.219   1.020   1.106  0.00  0.00     0.009 A 
ATOM     18  C   UNL d   1      -7.712   2.302   0.858  0.00  0.00    -0.062 A 
ATOM     19  C   UNL d   1      -6.894   3.211   0.181  0.00  0.00     0.009 A 
ATOM     20  C   UNL d   1      -9.090   2.669   1.323  0.00  0.00     0.048 C 
ATOM     21  C   UNL d   1      -5.572   2.875  -0.154  0.00  0.00     0.030 A 
ENDBRANCH   2  15
TORSDOF 2
