REMARK  4 active torsions:
REMARK  status: ('A' for Active; 'I' for Inactive)
REMARK    1  A    between atoms: N_7  and  C_1 
REMARK    2  A    between atoms: N_8  and  C_2 
REMARK    3  A    between atoms: S_6  and  C_3 
REMARK    4  A    between atoms: N_14  and  S_6 
ROOT
ATOM      1  C   UNL d   1       1.493   0.776  -0.100  0.00  0.00     0.138 A 
ATOM      2  C   UNL d   1       0.218   1.308   0.049  0.00  0.00     0.107 A 
ATOM      3  C   UNL d   1       0.260  -1.194   0.019  0.00  0.00     0.119 A 
ATOM      4  C   UNL d   1       1.516  -0.652  -0.142  0.00  0.00     0.071 A 
ATOM      5  S   UNL d   1      -0.933   0.014   0.139  0.00  0.00    -0.057 SA
ENDROOT
BRANCH   2   6
ATOM      6  N   UNL d   1      -0.152   2.627   0.143  0.00  0.00    -0.370 N 
ATOM      7  C   UNL d   1      -1.364   3.021   0.892  0.00  0.00     0.154 C 
ATOM      8  C   UNL d   1      -1.230   4.481   1.386  0.00  0.00     0.291 C 
ATOM      9  N   UNL d   1      -0.963   5.431   0.283  0.00  0.00     0.087 N 
ATOM     10  C   UNL d   1       0.255   5.003  -0.441  0.00  0.00     0.291 C 
ATOM     11  C   UNL d   1      -0.803   6.787   0.805  0.00  0.00     0.310 C 
ATOM     12  C   UNL d   1       0.141   3.554  -0.971  0.00  0.00     0.154 C 
ENDBRANCH   2   6
BRANCH   1  13
ATOM     13  N   UNL d   1       2.687   1.569  -0.167  0.00  0.00    -0.113 N 
ATOM     14  O   UNL d   1       2.944   2.300   0.796  0.00  0.00    -0.532 OA
ATOM     15  O   UNL d   1       3.380   1.421  -1.182  0.00  0.00    -0.532 OA
ENDBRANCH   1  13
BRANCH   3  16
ATOM     16  S   UNL d   1      -0.307  -2.874   0.116  0.00  0.00     0.246 S 
ATOM     17  O   UNL d   1       0.870  -3.666  -0.160  0.00  0.00    -0.206 OA
ATOM     18  O   UNL d   1      -1.056  -2.968   1.346  0.00  0.00    -0.206 OA
BRANCH  16  19
ATOM     19  N   UNL d   1      -1.367  -3.109  -1.157  0.00  0.00    -0.225 NA
ATOM     20  H   UNL d   1      -0.910  -3.089  -2.066  0.00  0.00     0.136 HD
ATOM     21  H   UNL d   1      -2.222  -2.564  -1.069  0.00  0.00     0.136 HD
ENDBRANCH  16  19
ENDBRANCH   3  16
TORSDOF 4
