REMARK  6 active torsions:
REMARK  status: ('A' for Active; 'I' for Inactive)
REMARK    1  A    between atoms: S_3  and  C_1 
REMARK    2  A    between atoms: N_5  and  C_2 
REMARK    3  A    between atoms: C_14  and  S_3 
REMARK    4  A    between atoms: S_4  and  N_5 
REMARK    5  A    between atoms: C_9  and  S_4 
REMARK    6  A    between atoms: S_15  and  C_6 
ROOT
ATOM      1  C   UNL d   1       1.477   0.980   0.050  0.00  0.00     0.105 C 
ATOM      2  C   UNL d   1       1.627  -0.455  -0.062  0.00  0.00     0.052 C 
ATOM      3  C   UNL d   1       0.178   1.388  -0.225  0.00  0.00     0.064 C 
ATOM      4  S   UNL d   1      -0.872   0.050  -0.431  0.00  0.00    -0.091 SA
ATOM      5  C   UNL d   1       0.394  -1.060  -0.199  0.00  0.00     0.077 C 
ENDROOT
BRANCH   2   6
ATOM      6  N   UNL d   1       2.808  -1.198   0.128  0.00  0.00    -0.179 NA
ATOM      7  H   UNL d   1       2.731  -1.929   0.840  0.00  0.00     0.146 HD
BRANCH   6   8
ATOM      8  S   UNL d   1       3.729  -1.902  -1.116  0.00  0.00     0.245 S 
ATOM      9  O   UNL d   1       4.853  -1.041  -1.408  0.00  0.00    -0.206 OA
ATOM     10  O   UNL d   1       3.929  -3.279  -0.707  0.00  0.00    -0.206 OA
BRANCH   8  11
ATOM     11  C   UNL d   1       2.711  -1.965  -2.578  0.00  0.00     0.074 A 
ATOM     12  C   UNL d   1       3.031  -1.168  -3.685  0.00  0.00     0.026 A 
ATOM     13  C   UNL d   1       2.265  -1.254  -4.850  0.00  0.00     0.025 A 
ATOM     14  C   UNL d   1       1.198  -2.148  -4.912  0.00  0.00     0.034 A 
ATOM     15  C   UNL d   1       0.907  -2.978  -3.829  0.00  0.00     0.025 A 
ATOM     16 CL   UNL d   1       0.248  -2.245  -6.343  0.00  0.00    -0.084 Cl
ATOM     17  C   UNL d   1       1.677  -2.903  -2.665  0.00  0.00     0.026 A 
ENDBRANCH   8  11
ENDBRANCH   6   8
ENDBRANCH   2   6
BRANCH   1  18
ATOM     18  S   UNL d   1       2.749   2.078   0.522  0.00  0.00     0.182 S 
ATOM     19  O   UNL d   1       2.103   3.004   1.430  0.00  0.00    -0.222 OA
ATOM     20  O   UNL d   1       3.837   1.244   0.988  0.00  0.00    -0.222 OA
BRANCH  18  21
ATOM     21  C   UNL d   1       3.256   2.946  -0.963  0.00  0.00     0.105 C 
ATOM     22  C   UNL d   1       4.470   3.820  -0.654  0.00  0.00     0.026 C 
ATOM     23  C   UNL d   1       3.579   2.004  -2.109  0.00  0.00     0.026 C 
ENDBRANCH  18  21
ENDBRANCH   1  18
BRANCH   3  24
ATOM     24  S   UNL d   1      -0.463   3.022  -0.411  0.00  0.00    -0.126 SA
ATOM     25  C   UNL d   1      -1.339   3.234   1.161  0.00  0.00     0.096 C 
ENDBRANCH   3  24
TORSDOF 6
