REMARK  2 active torsions:
REMARK  status: ('A' for Active; 'I' for Inactive)
REMARK    1  A    between atoms: C_10  and  C_4 
REMARK    2  A    between atoms: N_17  and  C_5 
ROOT
ATOM      1  C   UNL d   1      -0.241  -0.588   0.066  0.00  0.00     0.173 A 
ATOM      2  C   UNL d   1      -0.300   0.782   0.052  0.00  0.00     0.032 A 
ATOM      3  C   UNL d   1       2.176   0.644  -0.121  0.00  0.00     0.081 A 
ATOM      4  C   UNL d   1       0.966   1.576   0.021  0.00  0.00     0.107 A 
ATOM      5  C   UNL d   1       2.073  -0.713  -0.091  0.00  0.00     0.140 A 
ATOM      6  O   UNL d   1       0.833  -1.365   0.028  0.00  0.00    -0.279 OA
ATOM      7  N   UNL d   1      -1.518  -1.042   0.123  0.00  0.00    -0.279 N 
ATOM      8  N   UNL d   1      -2.424  -0.045   0.127  0.00  0.00    -0.303 N 
ATOM      9  HN  UNL d   1      -3.440  -0.125   0.148  1.00  0.00     0.186 HD
ATOM     10  C   UNL d   1      -1.686   1.077   0.098  0.00  0.00     0.033 A 
ATOM     11  C   UNL d   1       3.453   1.264  -0.267  0.00  0.00     0.100 C 
ATOM     12  N   UNL d   1       4.488   1.762  -0.423  0.00  0.00    -0.191 NA
ATOM     13  C   UNL d   1      -2.372   2.394   0.091  0.00  0.00     0.070 C 
ATOM     14  H   UNL d   1      -1.845  -2.002   0.153  0.00  0.00     0.189 HD
ENDROOT
BRANCH   5  15
ATOM     15  N   UNL d   1       3.125  -1.597  -0.174  0.00  0.00    -0.282 NA
ATOM     16  H   UNL d   1       3.967  -1.252  -0.628  0.00  0.00     0.126 HD
ATOM     17  H   UNL d   1       2.838  -2.517  -0.497  0.00  0.00     0.126 HD
ENDBRANCH   5  15
BRANCH   4  18
ATOM     18  C   UNL d   1       0.825   2.579  -1.118  0.00  0.00    -0.022 A 
ATOM     19  C   UNL d   1       0.951   3.967  -0.904  0.00  0.00     0.043 A 
ATOM     20  C   UNL d   1       0.809   4.876  -1.957  0.00  0.00     0.048 A 
ATOM     21 CL   UNL d   1       1.275   4.638   0.657  0.00  0.00    -0.084 Cl
ATOM     22  C   UNL d   1       0.551   4.411  -3.241  0.00  0.00     0.035 A 
ATOM     23  C   UNL d   1       0.443   3.046  -3.488  0.00  0.00     0.024 A 
ATOM     24 CL   UNL d   1       0.361   5.530  -4.534  0.00  0.00    -0.084 Cl
ATOM     25  C   UNL d   1       0.586   2.136  -2.440  0.00  0.00     0.011 A 
ENDBRANCH   4  18
TORSDOF 2
