REMARK  3 active torsions:
REMARK  status: ('A' for Active; 'I' for Inactive)
REMARK    1  A    between atoms: C_2  and  S_1 
REMARK    2  A    between atoms: N_7  and  S_1 
REMARK    3  A    between atoms: C_12  and  N_7 
ROOT
ATOM      1  S   UNL d   1       1.006   0.083   0.243  0.00  0.00     0.253 S 
ATOM      2  O   UNL d   1       0.234   0.991  -0.577  0.00  0.00    -0.205 OA
ATOM      3  O   UNL d   1       2.454   0.105   0.184  0.00  0.00    -0.205 OA
ENDROOT
BRANCH   1   4
ATOM      4  C   UNL d   1       0.489  -1.568  -0.224  0.00  0.00     0.122 A 
ATOM      5  S   UNL d   1       1.593  -2.810   0.175  0.00  0.00    -0.076 SA
ATOM      6  C   UNL d   1       0.599  -4.040  -0.486  0.00  0.00     0.017 A 
ATOM      7  C   UNL d   1       0.879  -5.421  -0.531  0.00  0.00     0.021 A 
ATOM      8  C   UNL d   1      -0.587  -3.512  -0.998  0.00  0.00    -0.009 A 
ATOM      9  C   UNL d   1      -0.059  -6.285  -1.102  0.00  0.00     0.025 A 
ATOM     10  C   UNL d   1      -1.240  -5.783  -1.624  0.00  0.00     0.035 A 
ATOM     11  C   UNL d   1      -1.514  -4.414  -1.583  0.00  0.00     0.037 A 
ATOM     12 CL   UNL d   1      -2.389  -6.857  -2.326  0.00  0.00    -0.084 Cl
ATOM     13  C   UNL d   1      -0.660  -2.074  -0.821  0.00  0.00    -0.021 A 
ATOM     14  C   UNL d   1      -1.846  -1.265  -1.244  0.00  0.00     0.051 C 
ENDBRANCH   1   4
BRANCH   1  15
ATOM     15  N   UNL d   1       0.592   0.336   1.873  0.00  0.00    -0.181 NA
ATOM     16  H   UNL d   1       1.103   1.160   2.192  0.00  0.00     0.146 HD
BRANCH  15  17
ATOM     17  C   UNL d   1      -0.803   0.386   2.177  0.00  0.00     0.022 A 
ATOM     18  C   UNL d   1      -1.462  -0.786   2.543  0.00  0.00     0.025 A 
ATOM     19  C   UNL d   1      -2.832  -0.761   2.811  0.00  0.00     0.008 A 
ATOM     20  C   UNL d   1      -3.554   0.436   2.710  0.00  0.00    -0.062 A 
ATOM     21  C   UNL d   1      -2.885   1.605   2.328  0.00  0.00     0.008 A 
ATOM     22  C   UNL d   1      -5.032   0.443   2.971  0.00  0.00     0.048 C 
ATOM     23  C   UNL d   1      -1.513   1.580   2.059  0.00  0.00     0.025 A 
ENDBRANCH  15  17
ENDBRANCH   1  15
TORSDOF 3
