REMARK  5 active torsions:
REMARK  status: ('A' for Active; 'I' for Inactive)
REMARK    1  A    between atoms: C_13  and  C_1 
REMARK    2  A    between atoms: C_2  and  C_7 
REMARK    3  A    between atoms: C_19  and  C_3 
REMARK    4  A    between atoms: C_8  and  N_4 
REMARK    5  A    between atoms: N_12  and  C_13 
ROOT
ATOM      1  N   UNL d   1       3.367  -1.964  -0.284  0.00  0.00    -0.364 N 
ATOM      2  N   UNL d   1       3.361   0.989  -0.255  0.00  0.00     0.096 N 
ATOM      3  C   UNL d   1       3.595  -1.257   0.977  0.00  0.00     0.154 C 
ATOM      4  C   UNL d   1       2.749  -1.224  -1.388  0.00  0.00     0.154 C 
ATOM      5  C   UNL d   1       4.102   0.190   0.747  0.00  0.00     0.292 C 
ATOM      6  C   UNL d   1       3.319   0.204  -1.512  0.00  0.00     0.292 C 
ENDROOT
BRANCH   2   7
ATOM      7  C   UNL d   1       2.041   1.379   0.253  0.00  0.00     0.315 C 
BRANCH   7   8
ATOM      8  C   UNL d   1       1.317   2.279  -0.702  0.00  0.00     0.016 A 
ATOM      9  C   UNL d   1       1.722   3.524  -1.296  0.00  0.00     0.067 A 
ATOM     10  N   UNL d   1       0.783   3.968  -2.151  0.00  0.00    -0.300 N 
ATOM     11  N   UNL d   1      -0.208   3.078  -2.064  0.00  0.00    -0.311 N 
ATOM     12  HN  UNL d   1       0.820   4.802  -2.737  1.00  0.00     0.187 HD
ATOM     13  C   UNL d   1       0.046   2.061  -1.201  0.00  0.00     0.118 A 
ATOM     14  H   UNL d   1      -1.039   3.232  -2.626  0.00  0.00     0.186 HD
BRANCH   9  15
ATOM     15  C   UNL d   1       2.946   4.308  -1.086  0.00  0.00    -0.007 A 
ATOM     16  C   UNL d   1       3.567   4.952  -2.168  0.00  0.00     0.014 A 
ATOM     17  C   UNL d   1       4.708   5.735  -1.972  0.00  0.00     0.001 A 
ATOM     18  C   UNL d   1       5.239   5.883  -0.693  0.00  0.00     0.000 A 
ATOM     19  C   UNL d   1       4.628   5.256   0.389  0.00  0.00     0.001 A 
ATOM     20  C   UNL d   1       3.482   4.478   0.194  0.00  0.00     0.014 A 
ENDBRANCH   9  15
ENDBRANCH   7   8
ENDBRANCH   2   7
BRANCH   1  21
ATOM     21  C   UNL d   1       3.863  -3.232  -0.500  0.00  0.00     0.103 A 
ATOM     22  N   UNL d   1       4.321  -3.552  -1.730  0.00  0.00    -0.352 N 
ATOM     23  C   UNL d   1       4.869  -4.776  -1.930  0.00  0.00     0.106 A 
ATOM     24  HN  UNL d   1       4.255  -2.883  -2.498  1.00  0.00     0.166 HD
ATOM     25  C   UNL d   1       4.967  -5.753  -0.956  0.00  0.00     0.063 A 
ATOM     26  C   UNL d   1       4.447  -5.442   0.298  0.00  0.00     0.021 A 
ATOM     27  C   UNL d   1       3.902  -4.178   0.524  0.00  0.00     0.049 A 
BRANCH  25  28
ATOM     28  C   UNL d   1       5.608  -7.073  -1.238  0.00  0.00     0.418 C 
ATOM     29  F   UNL d   1       6.088  -7.192  -2.506  0.00  0.00    -0.166 F 
ATOM     30  F   UNL d   1       6.666  -7.324  -0.416  0.00  0.00    -0.166 F 
ATOM     31  F   UNL d   1       4.752  -8.118  -1.065  0.00  0.00    -0.166 F 
ENDBRANCH  25  28
ENDBRANCH   1  21
TORSDOF 5
