REMARK  5 active torsions:
REMARK  status: ('A' for Active; 'I' for Inactive)
REMARK    1  A    between atoms: C_20  and  N_11 
REMARK    2  A    between atoms: C_14  and  O_18 
REMARK    3  A    between atoms: O_18  and  C_19 
REMARK    4  A    between atoms: C_19  and  C_20 
REMARK    5  A    between atoms: C_22  and  C_20 
ROOT
ATOM      1  C   UNL d   1      -0.997  -0.179  -0.778  0.00  0.00     0.160 A 
ATOM      2  C   UNL d   1      -1.031   1.044  -0.185  0.00  0.00     0.162 A 
ATOM      3  N   UNL d   1       0.156  -0.653  -1.355  0.00  0.00    -0.287 N 
ATOM      4  N   UNL d   1       1.208   1.417  -0.755  0.00  0.00    -0.269 N 
ATOM      5  C   UNL d   1       1.300   0.155  -1.375  0.00  0.00     0.332 A 
ATOM      6  N   UNL d   1      -2.217  -0.789  -0.737  0.00  0.00    -0.174 N 
ATOM      7  HN  UNL d   1      -2.459  -1.723  -1.071  1.00  0.00     0.186 HD
ATOM      8  C   UNL d   1       0.076   1.919  -0.106  0.00  0.00     0.282 A 
ATOM      9  C   UNL d   1      -3.015   0.094  -0.172  0.00  0.00     0.680 A 
ATOM     10  N   UNL d   1      -2.315   1.203   0.235  0.00  0.00    -0.182 N 
ATOM     11  N   UNL d   1      -4.346   0.066   0.022  0.00  0.00    -0.219 N 
ATOM     12  O   UNL d   1       2.341  -0.226  -1.919  0.00  0.00    -0.246 OA
ATOM     13  O   UNL d   1       0.025   3.005   0.463  0.00  0.00    -0.265 OA
ATOM     14  C   UNL d   1       0.215  -1.949  -1.999  0.00  0.00     0.163 C 
ATOM     15  C   UNL d   1       2.357   2.298  -0.803  0.00  0.00     0.164 C 
ATOM     16  H   UNL d   1      -2.703   2.006   0.712  0.00  0.00     0.184 HD
ATOM     17  H   UNL d   1      -4.793   0.805   0.566  0.00  0.00     0.178 HD
ENDROOT
BRANCH  11  18
ATOM     18  C   UNL d   1      -5.067  -1.209   0.060  0.00  0.00     0.123 C 
BRANCH  18  19
ATOM     19  C   UNL d   1      -5.827  -1.333   1.405  0.00  0.00     0.204 C 
BRANCH  19  20
ATOM     20  O   UNL d   1      -4.931  -1.331   2.534  0.00  0.00    -0.320 OA
BRANCH  20  21
ATOM     21  C   UNL d   1      -4.572  -0.106   3.006  0.00  0.00     0.254 C 
ATOM     22  O   UNL d   1      -4.960   0.970   2.566  0.00  0.00    -0.266 OA
ATOM     23  C   UNL d   1      -3.604  -0.236   4.143  0.00  0.00     0.126 C 
ENDBRANCH  20  21
ENDBRANCH  19  20
ENDBRANCH  18  19
BRANCH  18  24
ATOM     24  C   UNL d   1      -6.082  -1.249  -1.095  0.00  0.00     0.023 C 
ATOM     25  C   UNL d   1      -5.435  -1.175  -2.472  0.00  0.00     0.007 C 
ENDBRANCH  18  24
ENDBRANCH  11  18
TORSDOF 5
