REMARK  4 active torsions:
REMARK  status: ('A' for Active; 'I' for Inactive)
REMARK    1  A    between atoms: C_4  and  C_1 
REMARK       I    between atoms: N_7  and  C_4 
REMARK    2  A    between atoms: C_12  and  N_7 
REMARK    3  A    between atoms: C_14  and  C_13 
REMARK    4  A    between atoms: C_20  and  C_14 
ROOT
ATOM      1  C   UNL d   1       3.952  -2.508  -0.207  0.00  0.00     0.035 C 
ATOM      2  C   UNL d   1       2.510  -4.908   0.007  0.00  0.00    -0.054 C 
ATOM      3  C   UNL d   1       2.848  -2.747  -1.027  0.00  0.00     0.030 C 
ATOM      4  C   UNL d   1       4.430  -3.543   0.602  0.00  0.00     0.030 C 
ATOM      5  C   UNL d   1       2.129  -3.936  -0.921  0.00  0.00     0.010 C 
ATOM      6  C   UNL d   1       3.702  -4.732   0.721  0.00  0.00     0.010 C 
ENDROOT
BRANCH   1   7
ATOM      7  N   UNL d   1       4.572  -1.242  -0.103  0.00  0.00    -0.322 N 
ATOM      8  C   UNL d   1       3.981  -0.029  -0.431  0.00  0.00     0.264 C 
ATOM      9  O   UNL d   1       2.858   0.052  -0.932  0.00  0.00    -0.267 OA
ATOM     10  H   UNL d   1       5.421  -1.191   0.449  0.00  0.00     0.169 HD
BRANCH   8  11
ATOM     11  C   UNL d   1       4.763   1.167  -0.142  0.00  0.00     0.096 C 
ATOM     12  S   UNL d   1       6.356   1.083   0.480  0.00  0.00    -0.082 SA
ATOM     13  C   UNL d   1       6.600   2.779   0.332  0.00  0.00     0.017 A 
ATOM     14  C   UNL d   1       7.769   3.502   0.641  0.00  0.00     0.020 A 
ATOM     15  C   UNL d   1       5.462   3.413  -0.169  0.00  0.00     0.004 A 
ATOM     16  C   UNL d   1       7.810   4.872   0.367  0.00  0.00     0.001 A 
ATOM     17  C   UNL d   1       6.715   5.514  -0.190  0.00  0.00     0.001 A 
ATOM     18  C   UNL d   1       5.540   4.804  -0.439  0.00  0.00     0.014 A 
ATOM     19  C   UNL d   1       4.377   2.484  -0.316  0.00  0.00     0.068 C 
ATOM     20 CL   UNL d   1       2.797   3.032  -0.733  0.00  0.00    -0.082 Cl
ENDBRANCH   8  11
ENDBRANCH   1   7
BRANCH   2  21
ATOM     21  C   UNL d   1       1.560  -6.035   0.342  0.00  0.00     0.077 C 
BRANCH  21  22
ATOM     22  C   UNL d   1       0.534  -5.602   1.369  0.00  0.00    -0.051 A 
ATOM     23  C   UNL d   1      -0.671  -5.008   0.977  0.00  0.00     0.024 A 
ATOM     24  C   UNL d   1      -1.542  -4.551   1.956  0.00  0.00     0.088 A 
ATOM     25  N   UNL d   1      -1.302  -4.648   3.280  0.00  0.00    -0.375 N 
ATOM     26  C   UNL d   1      -0.130  -5.213   3.640  0.00  0.00     0.088 A 
ATOM     27  HN  UNL d   1      -1.970  -4.311   3.973  1.00  0.00     0.164 HD
ATOM     28  C   UNL d   1       0.805  -5.698   2.737  0.00  0.00     0.024 A 
ENDBRANCH  21  22
ENDBRANCH   2  21
TORSDOF 4
