REMARK  8 active torsions:
REMARK  status: ('A' for Active; 'I' for Inactive)
REMARK       I    between atoms: N_8  and  C_1 
REMARK       I    between atoms: N_9  and  C_1 
REMARK    1  A    between atoms: N_2  and  N_8 
REMARK    2  A    between atoms: N_4  and  N_9 
REMARK    3  A    between atoms: O_23  and  C_6 
REMARK    4  A    between atoms: O_24  and  C_7 
REMARK    5  A    between atoms: O_25  and  C_11 
REMARK    6  A    between atoms: O_26  and  C_12 
REMARK    7  A    between atoms: C_19  and  C_17 
REMARK    8  A    between atoms: C_20  and  C_18 
ROOT
ATOM      1  C   UNL d   1       1.096  -0.025  -0.015  0.00  0.00     0.353 C 
ATOM      2  N   UNL d   1       0.409   0.113  -1.221  0.00  0.00    -0.251 N 
ATOM      3  N   UNL d   1       0.225  -0.073   1.071  0.00  0.00    -0.251 N 
ATOM      4  O   UNL d   1       2.317  -0.101   0.078  0.00  0.00    -0.244 OA
ATOM      5  H   UNL d   1      -0.597   0.191  -1.240  0.00  0.00     0.191 HD
ATOM      6  H   UNL d   1      -0.768   0.038   0.931  0.00  0.00     0.191 HD
ENDROOT
BRANCH   2   7
ATOM      7  N   UNL d   1       1.111   0.169  -2.387  0.00  0.00    -0.307 N 
ATOM      8  C   UNL d   1       0.430   0.295  -3.479  0.00  0.00     0.118 C 
ATOM      9  HN  UNL d   1       2.129   0.114  -2.399  1.00  0.00     0.186 HD
BRANCH   8  10
ATOM     10  C   UNL d   1       1.111   0.363  -4.790  0.00  0.00    -0.017 A 
ATOM     11  C   UNL d   1       0.344   0.505  -5.952  0.00  0.00     0.052 A 
ATOM     12  C   UNL d   1       0.977   0.564  -7.200  0.00  0.00     0.102 A 
ATOM     13  C   UNL d   1       2.377   0.475  -7.258  0.00  0.00     0.099 A 
ATOM     14  C   UNL d   1       3.142   0.337  -6.100  0.00  0.00     0.040 A 
ATOM     15  C   UNL d   1       2.505   0.282  -4.862  0.00  0.00     0.016 A 
BRANCH  12  16
ATOM     16  O   UNL d   1       0.332   0.701  -8.401  0.00  0.00    -0.353 OA
ATOM     17  C   UNL d   1      -1.084   0.801  -8.382  0.00  0.00     0.210 C 
ENDBRANCH  12  16
BRANCH  13  18
ATOM     18  O   UNL d   1       3.000   0.523  -8.477  0.00  0.00    -0.358 OA
ATOM     19  H   UNL d   1       3.955   0.414  -8.350  0.00  0.00     0.217 HD
ENDBRANCH  13  18
ENDBRANCH   8  10
ENDBRANCH   2   7
BRANCH   3  20
ATOM     20  N   UNL d   1       0.717  -0.167   2.341  0.00  0.00    -0.307 N 
ATOM     21  C   UNL d   1      -0.168  -0.206   3.282  0.00  0.00     0.118 C 
ATOM     22  HN  UNL d   1       1.718  -0.203   2.535  1.00  0.00     0.186 HD
BRANCH  21  23
ATOM     23  C   UNL d   1       0.204  -0.266   4.710  0.00  0.00    -0.017 A 
ATOM     24  C   UNL d   1      -0.825  -0.285   5.659  0.00  0.00     0.052 A 
ATOM     25  C   UNL d   1      -0.521  -0.291   7.022  0.00  0.00     0.102 A 
ATOM     26  C   UNL d   1       0.826  -0.281   7.415  0.00  0.00     0.099 A 
ATOM     27  C   UNL d   1       1.855  -0.279   6.471  0.00  0.00     0.040 A 
ATOM     28  C   UNL d   1       1.543  -0.272   5.111  0.00  0.00     0.016 A 
BRANCH  25  29
ATOM     29  O   UNL d   1      -1.452  -0.296   8.028  0.00  0.00    -0.353 OA
ATOM     30  C   UNL d   1      -2.822  -0.318   7.650  0.00  0.00     0.210 C 
ENDBRANCH  25  29
BRANCH  26  31
ATOM     31  O   UNL d   1       1.131  -0.268   8.751  0.00  0.00    -0.358 OA
ATOM     32  H   UNL d   1       2.093  -0.213   8.858  0.00  0.00     0.217 HD
ENDBRANCH  26  31
ENDBRANCH  21  23
ENDBRANCH   3  20
TORSDOF 8
