REMARK  3 active torsions:
REMARK  status: ('A' for Active; 'I' for Inactive)
REMARK    1  A    between atoms: N_2  and  S_1 
REMARK    2  A    between atoms: C_3  and  S_1 
REMARK    3  A    between atoms: C_8  and  N_2 
ROOT
ATOM      1  C   UNL d   1       2.653   1.988  -1.739  0.00  0.00    -0.086 C 
ATOM      2  C   UNL d   1       3.676   2.401  -1.268  0.00  0.00     0.015 C 
ATOM      3  C   UNL d   1       1.387   1.424  -2.247  0.00  0.00     0.096 C 
ATOM      4  C   UNL d   1       1.631   0.211  -3.143  0.00  0.00     0.053 C 
ATOM      5  C   UNL d   1       0.684   2.506  -3.094  0.00  0.00     0.053 C 
ENDROOT
BRANCH   3   6
ATOM      6  N   UNL d   1       0.481   1.073  -1.133  0.00  0.00    -0.295 N 
ATOM      7  H   UNL d   1      -0.017   1.858  -0.713  0.00  0.00     0.174 HD
BRANCH   6   8
ATOM      8  S   UNL d   1       0.886  -0.037   0.064  0.00  0.00     0.260 S 
ATOM      9  O   UNL d   1      -0.005   0.254   1.169  0.00  0.00    -0.200 OA
ATOM     10  O   UNL d   1       2.317  -0.073   0.254  0.00  0.00    -0.200 OA
BRANCH   8  11
ATOM     11  C   UNL d   1       0.382  -1.617  -0.580  0.00  0.00     0.079 A 
ATOM     12  C   UNL d   1       1.353  -2.584  -0.878  0.00  0.00     0.028 A 
ATOM     13  C   UNL d   1       0.960  -3.859  -1.287  0.00  0.00     0.044 A 
ATOM     14  C   UNL d   1      -0.396  -4.160  -1.375  0.00  0.00     0.116 A 
ATOM     15  C   UNL d   1      -1.366  -3.209  -1.066  0.00  0.00     0.044 A 
ATOM     16  F   UNL d   1      -0.772  -5.390  -1.750  0.00  0.00    -0.206 F 
ATOM     17  C   UNL d   1      -0.980  -1.930  -0.662  0.00  0.00     0.028 A 
ENDBRANCH   8  11
ENDBRANCH   6   8
ENDBRANCH   3   6
TORSDOF 3
