REMARK  2 active torsions:
REMARK  status: ('A' for Active; 'I' for Inactive)
REMARK    1  A    between atoms: C_2  and  C_1 
REMARK       I    between atoms: N_3  and  C_1 
REMARK    2  A    between atoms: C_11  and  N_3 
ROOT
ATOM      1  N   UNL d   1      -6.454  -1.716  -1.299  0.00  0.00    -0.191 NA
ATOM      2  C   UNL d   1      -5.322  -1.601  -1.076  0.00  0.00     0.099 C 
ATOM      3  C   UNL d   1      -1.155  -1.168  -0.324  0.00  0.00     0.035 A 
ATOM      4  C   UNL d   1      -3.920  -1.457  -0.809  0.00  0.00     0.044 A 
ATOM      5  C   UNL d   1      -1.903  -0.115  -0.861  0.00  0.00     0.031 A 
ATOM      6  C   UNL d   1      -1.808  -2.373  -0.033  0.00  0.00     0.031 A 
ATOM      7  C   UNL d   1      -3.274  -0.257  -1.105  0.00  0.00     0.025 A 
ATOM      8  C   UNL d   1      -3.184  -2.514  -0.265  0.00  0.00     0.025 A 
ENDROOT
BRANCH   3   9
ATOM      9  N   UNL d   1       0.235  -1.089  -0.093  0.00  0.00    -0.321 N 
ATOM     10  C   UNL d   1       1.021   0.052  -0.141  0.00  0.00     0.279 C 
ATOM     11  O   UNL d   1       0.588   1.194  -0.270  0.00  0.00    -0.265 OA
ATOM     12  H   UNL d   1       0.725  -1.943   0.153  0.00  0.00     0.169 HD
BRANCH  10  13
ATOM     13  C   UNL d   1       2.444  -0.196  -0.003  0.00  0.00     0.142 A 
ATOM     14  O   UNL d   1       2.925  -1.478   0.074  0.00  0.00    -0.317 OA
ATOM     15  C   UNL d   1       4.281  -1.385   0.154  0.00  0.00     0.143 A 
ATOM     16  C   UNL d   1       4.681  -0.069   0.145  0.00  0.00     0.027 A 
ATOM     17  C   UNL d   1       3.498   0.697   0.046  0.00  0.00     0.045 A 
ENDBRANCH  10  13
ENDBRANCH   3   9
TORSDOF 2
