REMARK  4 active torsions:
REMARK  status: ('A' for Active; 'I' for Inactive)
REMARK    1  A    between atoms: C_2  and  C_1 
REMARK    2  A    between atoms: C_9  and  C_5 
REMARK    3  A    between atoms: S_10  and  C_9 
REMARK    4  A    between atoms: C_14  and  S_10 
ROOT
ATOM      1  C   UNL d   1       0.497   1.280   0.022  0.00  0.00     0.064 A 
ATOM      2  N   UNL d   1      -1.137   3.051   0.085  0.00  0.00    -0.366 N 
ATOM      3  HN  UNL d   1      -2.078   3.382  -0.126  1.00  0.00     0.165 HD
ATOM      4  C   UNL d   1      -0.230   3.871   0.696  0.00  0.00     0.040 A 
ATOM      5  C   UNL d   1       1.412   2.115   0.670  0.00  0.00     0.043 A 
ATOM      6  C   UNL d   1       1.048   3.417   1.027  0.00  0.00     0.058 A 
ATOM      7  C   UNL d   1      -0.762   1.791  -0.232  0.00  0.00     0.104 A 
ATOM      8 CL   UNL d   1       2.199   4.356   1.899  0.00  0.00    -0.082 Cl
ENDROOT
BRANCH   4   9
ATOM      9  C   UNL d   1      -0.757   5.247   1.029  0.00  0.00     0.138 C 
BRANCH   9  10
ATOM     10  S   UNL d   1       0.147   6.690   0.375  0.00  0.00    -0.124 SA
BRANCH  10  11
ATOM     11  C   UNL d   1       0.111   6.563  -1.405  0.00  0.00     0.001 A 
ATOM     12  C   UNL d   1      -0.557   5.590  -2.154  0.00  0.00     0.020 A 
ATOM     13  C   UNL d   1      -0.457   5.571  -3.551  0.00  0.00     0.025 A 
ATOM     14  C   UNL d   1       0.287   6.543  -4.213  0.00  0.00     0.034 A 
ATOM     15  C   UNL d   1       0.929   7.540  -3.490  0.00  0.00     0.025 A 
ATOM     16 CL   UNL d   1       0.411   6.512  -5.928  0.00  0.00    -0.084 Cl
ATOM     17  C   UNL d   1       0.841   7.544  -2.095  0.00  0.00     0.020 A 
ENDBRANCH  10  11
ENDBRANCH   9  10
ENDBRANCH   4   9
BRANCH   1  18
ATOM     18  C   UNL d   1       0.819  -0.124  -0.381  0.00  0.00     0.418 C 
ATOM     19  F   UNL d   1       2.106  -0.481  -0.125  0.00  0.00    -0.166 F 
ATOM     20  F   UNL d   1       0.629  -0.338  -1.712  0.00  0.00    -0.166 F 
ATOM     21  F   UNL d   1       0.041  -1.039   0.259  0.00  0.00    -0.166 F 
ENDBRANCH   1  18
TORSDOF 4
