REMARK  4 active torsions:
REMARK  status: ('A' for Active; 'I' for Inactive)
REMARK    1  A    between atoms: C_7  and  N_1 
REMARK    2  A    between atoms: N_17  and  C_3 
REMARK    3  A    between atoms: C_8  and  C_10 
REMARK    4  A    between atoms: C_9  and  C_11 
ROOT
ATOM      1  N   UNL d   1      -0.343  -1.137   0.076  0.00  0.00    -0.222 N 
ATOM      2  N   UNL d   1       0.803  -0.621   0.594  0.00  0.00    -0.012 NA
ATOM      3  C   UNL d   1      -1.195  -0.093  -0.309  0.00  0.00     0.158 A 
ATOM      4  C   UNL d   1      -0.417   1.030  -0.112  0.00  0.00     0.172 A 
ATOM      5  N   UNL d   1       0.788   0.694   0.428  0.00  0.00    -0.271 N 
ATOM      6  HN  UNL d   1       1.543   1.339   0.662  1.00  0.00     0.185 HD
ATOM      7  C   UNL d   1      -0.771   2.397  -0.313  0.00  0.00     0.122 C 
ATOM      8  N   UNL d   1      -1.105   3.498  -0.470  0.00  0.00    -0.190 NA
ENDROOT
BRANCH   3   9
ATOM      9  N   UNL d   1      -2.499  -0.243  -0.692  0.00  0.00    -0.382 N 
ATOM     10  H   UNL d   1      -3.027  -1.069  -0.402  0.00  0.00     0.157 HD
ATOM     11  H   UNL d   1      -3.107   0.576  -0.725  0.00  0.00     0.157 HD
ENDBRANCH   3   9
BRANCH   1  12
ATOM     12  C   UNL d   1      -0.557  -2.540   0.046  0.00  0.00     0.058 A 
ATOM     13  C   UNL d   1       0.069  -3.344   1.012  0.00  0.00     0.047 A 
ATOM     14  C   UNL d   1      -0.195  -4.720   1.070  0.00  0.00     0.050 A 
ATOM     15  C   UNL d   1      -1.034  -5.293   0.099  0.00  0.00     0.032 A 
ATOM     16  C   UNL d   1      -1.630  -4.509  -0.903  0.00  0.00     0.050 A 
ATOM     17  C   UNL d   1      -1.391  -3.125  -0.916  0.00  0.00     0.047 A 
BRANCH  14  18
ATOM     18  C   UNL d   1       0.368  -5.577   2.182  0.00  0.00     0.417 C 
ATOM     19  F   UNL d   1       1.099  -4.879   3.092  0.00  0.00    -0.166 F 
ATOM     20  F   UNL d   1      -0.617  -6.196   2.892  0.00  0.00    -0.166 F 
ATOM     21  F   UNL d   1       1.178  -6.566   1.720  0.00  0.00    -0.166 F 
ENDBRANCH  14  18
BRANCH  16  22
ATOM     22  C   UNL d   1      -2.524  -5.160  -1.936  0.00  0.00     0.417 C 
ATOM     23  F   UNL d   1      -3.063  -4.275  -2.819  0.00  0.00    -0.166 F 
ATOM     24  F   UNL d   1      -1.869  -6.088  -2.683  0.00  0.00    -0.166 F 
ATOM     25  F   UNL d   1      -3.578  -5.806  -1.366  0.00  0.00    -0.166 F 
ENDBRANCH  16  22
ENDBRANCH   1  12
TORSDOF 4
