REMARK  5 active torsions:
REMARK  status: ('A' for Active; 'I' for Inactive)
REMARK    1  A    between atoms: N_8  and  C_3 
REMARK    2  A    between atoms: C_11  and  C_4 
REMARK       I    between atoms: C_9  and  N_10 
REMARK    3  A    between atoms: C_14  and  C_9 
REMARK    4  A    between atoms: C_12  and  O_19 
REMARK    5  A    between atoms: O_19  and  C_29 
ROOT
ATOM      1  N   UNL d   1       0.257  -2.604  -0.121  0.00  0.00    -0.357 N 
ATOM      2  C   UNL d   1      -1.067  -6.515   0.123  0.00  0.00     0.253 C 
ATOM      3  N   UNL d   1      -0.392  -5.388  -0.331  0.00  0.00    -0.345 N 
ATOM      4  C   UNL d   1       0.774  -3.562   0.887  0.00  0.00     0.145 C 
ATOM      5  C   UNL d   1      -0.977  -3.047  -0.808  0.00  0.00     0.145 C 
ATOM      6  C   UNL d   1       0.865  -4.996   0.320  0.00  0.00     0.146 C 
ATOM      7  C   UNL d   1      -0.784  -4.459  -1.394  0.00  0.00     0.146 C 
ATOM      8  O   UNL d   1      -0.597  -7.274   0.975  0.00  0.00    -0.267 OA
ENDROOT
BRANCH   2   9
ATOM      9  C   UNL d   1      -2.412  -6.864  -0.413  0.00  0.00     0.032 A 
ATOM     10  C   UNL d   1      -2.691  -8.203  -0.720  0.00  0.00     0.020 A 
ATOM     11  C   UNL d   1      -3.946  -8.573  -1.230  0.00  0.00     0.038 A 
ATOM     12  C   UNL d   1      -4.930  -7.604  -1.414  0.00  0.00     0.078 A 
ATOM     13  C   UNL d   1      -4.657  -6.273  -1.087  0.00  0.00     0.038 A 
ATOM     14  C   UNL d   1      -3.421  -5.910  -0.551  0.00  0.00     0.020 A 
BRANCH  12  15
ATOM     15  O   UNL d   1      -6.167  -7.807  -1.944  0.00  0.00    -0.255 OA
BRANCH  15  16
ATOM     16  C   UNL d   1      -6.849  -9.011  -1.630  0.00  0.00     0.530 C 
ATOM     17  F   UNL d   1      -6.331  -9.669  -0.574  0.00  0.00    -0.144 F 
ATOM     18  F   UNL d   1      -8.134  -8.703  -1.340  0.00  0.00    -0.144 F 
ATOM     19  F   UNL d   1      -6.845  -9.826  -2.706  0.00  0.00    -0.144 F 
ENDBRANCH  15  16
ENDBRANCH  12  15
ENDBRANCH   2   9
BRANCH   1  20
ATOM     20  C   UNL d   1       0.348  -1.260   0.131  0.00  0.00     0.165 A 
ATOM     21  N   UNL d   1      -0.520  -0.358  -0.280  0.00  0.00    -0.320 N 
ATOM     22  C   UNL d   1      -0.102   0.917   0.099  0.00  0.00     0.131 A 
ATOM     23  HN  UNL d   1      -1.373  -0.562  -0.800  1.00  0.00     0.169 HD
ATOM     24  N   UNL d   1       1.042   1.043   0.777  0.00  0.00    -0.308 N 
ATOM     25  S   UNL d   1       1.657  -0.487   0.972  0.00  0.00     0.024 SA
ATOM     26  HN  UNL d   1       1.459   1.912   1.111  1.00  0.00     0.176 HD
BRANCH  22  27
ATOM     27  C   UNL d   1      -0.920   2.133  -0.246  0.00  0.00     0.049 A 
ATOM     28  S   UNL d   1      -2.424   2.077  -1.057  0.00  0.00    -0.098 SA
ATOM     29  C   UNL d   1      -2.591   3.781  -1.000  0.00  0.00     0.050 A 
ATOM     30  C   UNL d   1      -1.516   4.384  -0.385  0.00  0.00     0.009 A 
ATOM     31  C   UNL d   1      -0.551   3.430   0.053  0.00  0.00     0.023 A 
ENDBRANCH  22  27
ENDBRANCH   1  20
TORSDOF 5
