REMARK  4 active torsions:
REMARK  status: ('A' for Active; 'I' for Inactive)
REMARK    1  A    between atoms: C_3  and  C_1 
REMARK    2  A    between atoms: C_12  and  C_2 
REMARK    3  A    between atoms: C_15  and  N_4 
REMARK    4  A    between atoms: C_14  and  N_5 
ROOT
ATOM      1  C   UNL d   1      -0.226   1.269   0.002  0.00  0.00     0.061 A 
ATOM      2  C   UNL d   1       1.098   0.875  -0.103  0.00  0.00     0.155 A 
ATOM      3  N   UNL d   1       1.091  -0.513  -0.059  0.00  0.00    -0.251 N 
ATOM      4  N   UNL d   1      -0.179  -0.984   0.110  0.00  0.00    -0.304 N 
ATOM      5  HN  UNL d   1      -0.465  -1.957   0.223  1.00  0.00     0.186 HD
ATOM      6  C   UNL d   1      -0.961   0.084   0.096  0.00  0.00     0.125 A 
ENDROOT
BRANCH   1   7
ATOM      7  C   UNL d   1      -0.773   2.649   0.037  0.00  0.00     0.152 C 
ATOM      8  N   UNL d   1      -1.935   3.075   0.666  0.00  0.00    -0.224 N 
ATOM      9  N   UNL d   1      -2.274   4.275   0.143  0.00  0.00     0.001 NA
ATOM     10  N   UNL d   1      -1.232   4.653  -0.585  0.00  0.00    -0.007 NA
ATOM     11  N   UNL d   1      -0.283   3.663  -0.647  0.00  0.00    -0.269 N 
ATOM     12  HN  UNL d   1       0.617   3.703  -1.125  1.00  0.00     0.185 HD
BRANCH   8  13
ATOM     13  C   UNL d   1      -2.641   2.498   1.747  0.00  0.00     0.056 A 
ATOM     14  C   UNL d   1      -1.975   1.689   2.679  0.00  0.00     0.032 A 
ATOM     15  C   UNL d   1      -2.677   1.107   3.732  0.00  0.00     0.009 A 
ATOM     16  C   UNL d   1      -4.049   1.325   3.872  0.00  0.00    -0.062 A 
ATOM     17  C   UNL d   1      -4.707   2.163   2.960  0.00  0.00     0.009 A 
ATOM     18  C   UNL d   1      -4.787   0.694   5.018  0.00  0.00     0.048 C 
ATOM     19  C   UNL d   1      -4.006   2.762   1.909  0.00  0.00     0.032 A 
ENDBRANCH   8  13
ENDBRANCH   1   7
BRANCH   2  20
ATOM     20  C   UNL d   1       2.323   1.687  -0.083  0.00  0.00     0.435 C 
ATOM     21  F   UNL d   1       2.110   2.951   0.357  0.00  0.00    -0.165 F 
ATOM     22  F   UNL d   1       3.261   1.175   0.754  0.00  0.00    -0.165 F 
ATOM     23  F   UNL d   1       2.888   1.788  -1.310  0.00  0.00    -0.165 F 
ENDBRANCH   2  20
BRANCH   3  24
ATOM     24  C   UNL d   1       2.138  -1.488  -0.110  0.00  0.00     0.059 A 
ATOM     25  C   UNL d   1       1.869  -2.774   0.398  0.00  0.00     0.073 A 
ATOM     26  C   UNL d   1       2.861  -3.746   0.410  0.00  0.00     0.118 A 
ATOM     27  F   UNL d   1       2.595  -4.954   0.924  0.00  0.00    -0.206 F 
ATOM     28  C   UNL d   1       4.125  -3.480  -0.093  0.00  0.00     0.042 A 
ATOM     29  C   UNL d   1       4.394  -2.225  -0.632  0.00  0.00     0.005 A 
ATOM     30  C   UNL d   1       3.404  -1.232  -0.647  0.00  0.00     0.032 A 
ENDBRANCH   3  24
TORSDOF 4
