REMARK  2 active torsions:
REMARK  status: ('A' for Active; 'I' for Inactive)
REMARK    1  A    between atoms: C_7  and  N_1 
REMARK    2  A    between atoms: C_6  and  C_3 
ROOT
ATOM      1  N   UNL d   1       1.102   0.098   0.199  0.00  0.00    -0.364 N 
ATOM      2  HN  UNL d   1       0.644  -0.714   0.614  1.00  0.00     0.165 HD
ATOM      3  C   UNL d   1       0.390   1.103  -0.194  0.00  0.00     0.099 C 
ENDROOT
BRANCH   1   4
ATOM      4  C   UNL d   1       2.500   0.111   0.061  0.00  0.00     0.047 A 
ATOM      5  C   UNL d   1       3.160  -1.086  -0.217  0.00  0.00     0.117 A 
ATOM      6  N   UNL d   1       4.506  -1.232  -0.326  0.00  0.00    -0.373 N 
ATOM      7  C   UNL d   1       5.242  -0.119  -0.133  0.00  0.00     0.088 A 
ATOM      8  HN  UNL d   1       4.935  -2.132  -0.541  1.00  0.00     0.164 HD
ATOM      9  C   UNL d   1       4.695   1.121   0.157  0.00  0.00     0.019 A 
ATOM     10  C   UNL d   1       3.307   1.231   0.261  0.00  0.00     0.032 A 
ENDBRANCH   1   4
BRANCH   3  11
ATOM     11  C   UNL d   1      -1.083   1.078  -0.070  0.00  0.00    -0.021 A 
ATOM     12  C   UNL d   1      -1.736  -0.074   0.385  0.00  0.00     0.014 A 
ATOM     13  C   UNL d   1      -3.129  -0.095   0.484  0.00  0.00     0.024 A 
ATOM     14  C   UNL d   1      -3.863   1.036   0.131  0.00  0.00     0.034 A 
ATOM     15  C   UNL d   1      -3.217   2.188  -0.320  0.00  0.00     0.024 A 
ATOM     16 CL   UNL d   1      -5.579   1.010   0.252  0.00  0.00    -0.084 Cl
ATOM     17  C   UNL d   1      -1.821   2.211  -0.424  0.00  0.00     0.014 A 
ENDBRANCH   3  11
TORSDOF 2
