REMARK  5 active torsions:
REMARK  status: ('A' for Active; 'I' for Inactive)
REMARK    1  A    between atoms: S_11  and  C_1 
REMARK    2  A    between atoms: C_21  and  N_2 
REMARK    3  A    between atoms: C_20  and  C_3 
REMARK    4  A    between atoms: C_23  and  N_4 
REMARK    5  A    between atoms: C_14  and  S_11 
ROOT
ATOM      1  C   UNL d   1       0.643  -2.206   0.681  0.00  0.00     0.174 C 
ATOM      2  N   UNL d   1       1.695  -1.361   0.378  0.00  0.00    -0.275 N 
ATOM      3  C   UNL d   1       1.185  -0.083   0.567  0.00  0.00     0.139 C 
ATOM      4  N   UNL d   1      -0.022  -0.191   1.110  0.00  0.00    -0.282 N 
ATOM      5  HN  UNL d   1      -0.605   0.587   1.420  1.00  0.00     0.188 HD
ATOM      6  N   UNL d   1      -0.358  -1.524   1.186  0.00  0.00    -0.277 N 
ATOM      7  HN  UNL d   1      -1.224  -1.909   1.563  1.00  0.00     0.189 HD
ENDROOT
BRANCH   1   8
ATOM      8  S   UNL d   1       0.520  -3.749  -0.090  0.00  0.00    -0.033 SA
BRANCH   8   9
ATOM      9  C   UNL d   1      -0.190  -4.781   1.150  0.00  0.00     0.093 C 
ATOM     10  C   UNL d   1      -1.531  -5.124   0.989  0.00  0.00     0.061 C 
ATOM     11  C   UNL d   1      -1.862  -6.439   1.270  0.00  0.00     0.142 C 
ATOM     12  C   UNL d   1      -2.720  -4.554   0.502  0.00  0.00     0.126 C 
ATOM     13  N   UNL d   1      -3.098  -6.636   0.659  0.00  0.00    -0.239 N 
ATOM     14  N   UNL d   1      -1.062  -7.343   1.875  0.00  0.00    -0.336 N 
ATOM     15  N   UNL d   1      -3.719  -5.438   0.429  0.00  0.00    -0.302 N 
ATOM     16  HN  UNL d   1      -4.707  -5.263   0.245  1.00  0.00     0.186 HD
ATOM     17  C   UNL d   1       0.146  -6.833   2.162  0.00  0.00     0.183 C 
ATOM     18  HN  UNL d   1      -1.342  -8.300   2.089  1.00  0.00     0.168 HD
ATOM     19  N   UNL d   1       0.641  -5.637   1.794  0.00  0.00    -0.346 N 
ATOM     20  HN  UNL d   1       1.609  -5.383   1.992  1.00  0.00     0.167 HD
BRANCH  13  21
ATOM     21  C   UNL d   1      -3.623  -7.828   0.083  0.00  0.00     0.058 A 
ATOM     22  C   UNL d   1      -2.790  -8.925  -0.180  0.00  0.00     0.031 A 
ATOM     23  C   UNL d   1      -3.282 -10.022  -0.893  0.00  0.00     0.002 A 
ATOM     24  C   UNL d   1      -4.607 -10.043  -1.323  0.00  0.00     0.000 A 
ATOM     25  C   UNL d   1      -5.446  -8.965  -1.045  0.00  0.00     0.002 A 
ATOM     26  C   UNL d   1      -4.956  -7.854  -0.355  0.00  0.00     0.031 A 
ENDBRANCH  13  21
ENDBRANCH   8   9
ENDBRANCH   1   8
BRANCH   2  27
ATOM     27  C   UNL d   1       2.959  -1.749  -0.131  0.00  0.00     0.043 A 
ATOM     28  C   UNL d   1       3.473  -1.163  -1.295  0.00  0.00     0.030 A 
ATOM     29  C   UNL d   1       4.716  -1.572  -1.780  0.00  0.00     0.002 A 
ATOM     30  C   UNL d   1       5.441  -2.556  -1.107  0.00  0.00     0.000 A 
ATOM     31  C   UNL d   1       4.926  -3.145   0.047  0.00  0.00     0.002 A 
ATOM     32  C   UNL d   1       3.680  -2.752   0.534  0.00  0.00     0.030 A 
ENDBRANCH   2  27
BRANCH   3  33
ATOM     33  C   UNL d   1       1.834   1.177   0.193  0.00  0.00     0.010 A 
ATOM     34  C   UNL d   1       1.126   2.105  -0.587  0.00  0.00     0.017 A 
ATOM     35  C   UNL d   1       1.756   3.252  -1.078  0.00  0.00     0.025 A 
ATOM     36  C   UNL d   1       3.097   3.485  -0.783  0.00  0.00     0.034 A 
ATOM     37  C   UNL d   1       3.801   2.599   0.028  0.00  0.00     0.025 A 
ATOM     38 CL   UNL d   1       3.891   4.863  -1.437  0.00  0.00    -0.084 Cl
ATOM     39  C   UNL d   1       3.167   1.458   0.528  0.00  0.00     0.017 A 
ENDBRANCH   3  33
TORSDOF 5
