REMARK  1 active torsions:
REMARK  status: ('A' for Active; 'I' for Inactive)
REMARK    1  A    between atoms: C_10  and  C_4 
ROOT
ATOM      1  N   UNL d   1      -0.708  -0.948   0.383  0.00  0.00    -0.294 N 
ATOM      2  HN  UNL d   1      -1.202  -1.769   0.732  1.00  0.00     0.172 HD
ATOM      3  N   UNL d   1      -0.744   1.210  -0.501  0.00  0.00    -0.318 N 
ATOM      4  C   UNL d   1      -1.367   0.076  -0.048  0.00  0.00     0.121 A 
ATOM      5  C   UNL d   1       0.661  -0.919   0.368  0.00  0.00     0.328 A 
ATOM      6  C   UNL d   1       0.607   1.300  -0.521  0.00  0.00     0.181 A 
ATOM      7  N   UNL d   1       1.281   0.209  -0.091  0.00  0.00    -0.285 N 
ATOM      8  S   UNL d   1       1.379   2.676  -1.042  0.00  0.00    -0.040 SA
ATOM      9  O   UNL d   1       1.348  -1.861   0.752  0.00  0.00    -0.247 OA
ATOM     10  H   UNL d   1      -1.268   2.031  -0.775  0.00  0.00     0.170 HD
ATOM     11  H   UNL d   1       2.289   0.204  -0.078  0.00  0.00     0.173 HD
ENDROOT
BRANCH   4  12
ATOM     12  C   UNL d   1      -2.851   0.097  -0.046  0.00  0.00     0.008 A 
ATOM     13  C   UNL d   1      -3.567   0.795  -1.029  0.00  0.00     0.015 A 
ATOM     14  C   UNL d   1      -4.961   0.843  -0.977  0.00  0.00     0.001 A 
ATOM     15  C   UNL d   1      -5.643   0.188   0.048  0.00  0.00     0.000 A 
ATOM     16  C   UNL d   1      -4.936  -0.532   1.011  0.00  0.00     0.001 A 
ATOM     17  C   UNL d   1      -3.542  -0.585   0.962  0.00  0.00     0.015 A 
ENDBRANCH   4  12
TORSDOF 1
