REMARK  3 active torsions:
REMARK  status: ('A' for Active; 'I' for Inactive)
REMARK    1  A    between atoms: C_9  and  C_3 
REMARK    2  A    between atoms: C_8  and  C_7 
REMARK    3  A    between atoms: C_13  and  C_9 
ROOT
ATOM      1  N   UNL d   1       1.225  -1.128  -0.062  0.00  0.00    -0.297 N 
ATOM      2  HN  UNL d   1       1.747  -2.004  -0.046  1.00  0.00     0.187 HD
ATOM      3  C   UNL d   1      -0.228   1.313  -0.083  0.00  0.00     0.018 A 
ATOM      4  N   UNL d   1      -0.136  -1.109  -0.132  0.00  0.00    -0.266 N 
ATOM      5  C   UNL d   1      -0.930   0.008  -0.180  0.00  0.00     0.266 A 
ATOM      6  C   UNL d   1       1.108   1.319   0.011  0.00  0.00     0.045 A 
ATOM      7  C   UNL d   1       1.826   0.022  -0.018  0.00  0.00     0.059 A 
ATOM      8  O   UNL d   1      -2.154  -0.063  -0.266  0.00  0.00    -0.266 OA
ATOM      9  H   UNL d   1      -0.598  -2.011  -0.180  0.00  0.00     0.190 HD
ENDROOT
BRANCH   3  10
ATOM     10  C   UNL d   1      -1.064   2.556   0.010  0.00  0.00     0.083 C 
BRANCH  10  11
ATOM     11  C   UNL d   1      -1.310   3.224  -1.325  0.00  0.00    -0.054 A 
ATOM     12  C   UNL d   1      -2.435   2.884  -2.092  0.00  0.00     0.010 A 
ATOM     13  C   UNL d   1      -2.664   3.502  -3.322  0.00  0.00     0.043 A 
ATOM     14  C   UNL d   1      -1.767   4.454  -3.789  0.00  0.00     0.116 A 
ATOM     15  C   UNL d   1      -0.642   4.801  -3.050  0.00  0.00     0.043 A 
ATOM     16  F   UNL d   1      -1.988   5.048  -4.970  0.00  0.00    -0.206 F 
ATOM     17  C   UNL d   1      -0.412   4.186  -1.819  0.00  0.00     0.010 A 
ENDBRANCH  10  11
ENDBRANCH   3  10
BRANCH   7  18
ATOM     18  C   UNL d   1       3.317   0.072   0.051  0.00  0.00    -0.008 A 
ATOM     19  C   UNL d   1       4.001  -0.975   0.680  0.00  0.00     0.014 A 
ATOM     20  C   UNL d   1       5.396  -0.955   0.767  0.00  0.00     0.007 A 
ATOM     21  C   UNL d   1       6.126   0.107   0.222  0.00  0.00    -0.062 A 
ATOM     22  C   UNL d   1       5.443   1.145  -0.420  0.00  0.00     0.007 A 
ATOM     23  C   UNL d   1       7.624   0.112   0.310  0.00  0.00     0.048 C 
ATOM     24  C   UNL d   1       4.048   1.126  -0.513  0.00  0.00     0.014 A 
ENDBRANCH   7  18
TORSDOF 3
