REMARK  3 active torsions:
REMARK  status: ('A' for Active; 'I' for Inactive)
REMARK    1  A    between atoms: C_2  and  C_1 
REMARK       I    between atoms: N_10  and  C_2 
REMARK    2  A    between atoms: O_9  and  C_5 
REMARK    3  A    between atoms: C_11  and  O_9 
ROOT
ATOM      1  C   UNL d   1       0.774   1.258  -0.076  0.00  0.00     0.047 A 
ATOM      2  N   UNL d   1      -1.310   0.015  -0.054  0.00  0.00    -0.346 N 
ATOM      3  HN  UNL d   1      -2.330   0.001  -0.063  1.00  0.00     0.167 HD
ATOM      4  C   UNL d   1      -0.587  -1.126  -0.029  0.00  0.00     0.147 A 
ATOM      5  C   UNL d   1      -0.615   1.178  -0.066  0.00  0.00     0.107 A 
ATOM      6  C   UNL d   1       1.490   0.060  -0.102  0.00  0.00     0.022 A 
ATOM      7  C   UNL d   1       0.799  -1.154  -0.085  0.00  0.00     0.057 A 
ENDROOT
BRANCH   4   8
ATOM      8  O   UNL d   1      -1.237  -2.350   0.042  0.00  0.00    -0.294 OA
BRANCH   8   9
ATOM      9  C   UNL d   1      -2.419  -2.409   0.749  0.00  0.00     0.077 A 
ATOM     10  C   UNL d   1      -3.388  -3.293   0.271  0.00  0.00     0.039 A 
ATOM     11  C   UNL d   1      -4.604  -3.432   0.946  0.00  0.00     0.026 A 
ATOM     12  C   UNL d   1      -4.843  -2.692   2.103  0.00  0.00     0.034 A 
ATOM     13  C   UNL d   1      -3.869  -1.828   2.602  0.00  0.00     0.026 A 
ATOM     14 CL   UNL d   1      -6.345  -2.849   2.926  0.00  0.00    -0.084 Cl
ATOM     15  C   UNL d   1      -2.650  -1.700   1.934  0.00  0.00     0.039 A 
ENDBRANCH   8   9
ENDBRANCH   4   8
BRANCH   1  16
ATOM     16  C   UNL d   1       1.387   2.608  -0.032  0.00  0.00     0.250 C 
ATOM     17  O   UNL d   1       0.695   3.618   0.024  0.00  0.00    -0.268 OA
ATOM     18  N   UNL d   1       2.749   2.713  -0.043  0.00  0.00    -0.366 N 
ATOM     19  H   UNL d   1       3.399   1.945  -0.086  0.00  0.00     0.159 HD
ATOM     20  H   UNL d   1       3.130   3.650   0.002  0.00  0.00     0.159 HD
ENDBRANCH   1  16
TORSDOF 3
