REMARK  5 active torsions:
REMARK  status: ('A' for Active; 'I' for Inactive)
REMARK    1  A    between atoms: C_3  and  C_1 
REMARK    2  A    between atoms: C_2  and  C_4 
REMARK    3  A    between atoms: C_6  and  C_5 
REMARK       I    between atoms: N_10  and  C_6 
REMARK    4  A    between atoms: C_20  and  N_10 
REMARK    5  A    between atoms: C_21  and  C_20 
ROOT
ATOM      1  C   UNL d   1       0.548  -0.957  -1.004  0.00  0.00     0.049 A 
ATOM      2  C   UNL d   1       0.717  -3.104  -2.155  0.00  0.00     0.049 A 
ATOM      3  C   UNL d   1      -0.724  -1.334  -3.056  0.00  0.00     0.033 A 
ATOM      4  C   UNL d   1       1.071  -2.258  -1.095  0.00  0.00     0.032 A 
ATOM      5  C   UNL d   1      -0.340  -0.498  -1.999  0.00  0.00     0.033 A 
ATOM      6  C   UNL d   1      -0.181  -2.630  -3.125  0.00  0.00     0.033 A 
ENDROOT
BRANCH   3   7
ATOM      7  C   UNL d   1      -1.717  -0.946  -4.109  0.00  0.00     0.252 C 
ATOM      8  N   UNL d   1      -2.322   0.285  -4.027  0.00  0.00    -0.351 N 
ATOM      9  H   UNL d   1      -2.133   0.971  -3.310  0.00  0.00     0.163 HD
ATOM     10  O   UNL d   1      -1.991  -1.744  -5.004  0.00  0.00    -0.268 OA
BRANCH   8  11
ATOM     11  C   UNL d   1      -3.370   0.653  -4.961  0.00  0.00     0.179 C 
BRANCH  11  12
ATOM     12  C   UNL d   1      -3.916   2.044  -4.713  0.00  0.00     0.026 A 
ATOM     13  N   UNL d   1      -3.353   2.788  -3.719  0.00  0.00    -0.368 N 
ATOM     14  C   UNL d   1      -3.857   4.028  -3.518  0.00  0.00     0.088 A 
ATOM     15  HN  UNL d   1      -2.586   2.426  -3.152  1.00  0.00     0.165 HD
ATOM     16  C   UNL d   1      -4.901   4.568  -4.252  0.00  0.00     0.017 A 
ATOM     17  C   UNL d   1      -5.465   3.794  -5.260  0.00  0.00     0.003 A 
ATOM     18  C   UNL d   1      -4.968   2.518  -5.498  0.00  0.00     0.027 A 
ENDBRANCH  11  12
ENDBRANCH   8  11
ENDBRANCH   3   7
BRANCH   1  19
ATOM     19  C   UNL d   1       0.910  -0.059   0.158  0.00  0.00     0.417 C 
ATOM     20  F   UNL d   1       1.711  -0.662   1.080  0.00  0.00    -0.166 F 
ATOM     21  F   UNL d   1      -0.187   0.369   0.840  0.00  0.00    -0.166 F 
ATOM     22  F   UNL d   1       1.571   1.062  -0.237  0.00  0.00    -0.166 F 
ENDBRANCH   1  19
BRANCH   2  23
ATOM     23  C   UNL d   1       1.271  -4.507  -2.258  0.00  0.00     0.417 C 
ATOM     24  F   UNL d   1       2.096  -4.837  -1.226  0.00  0.00    -0.166 F 
ATOM     25  F   UNL d   1       0.294  -5.454  -2.270  0.00  0.00    -0.166 F 
ATOM     26  F   UNL d   1       1.999  -4.697  -3.392  0.00  0.00    -0.166 F 
ENDBRANCH   2  23
TORSDOF 5
