REMARK  1 active torsions:
REMARK  status: ('A' for Active; 'I' for Inactive)
REMARK    1  A    between atoms: C_3  and  C_2 
ROOT
ATOM      1  C   UNL d   1      -0.132  -0.747   0.001  0.00  0.00     0.067 A 
ATOM      2  C   UNL d   1      -2.540  -0.715  -0.049  0.00  0.00     0.050 A 
ATOM      3  S   UNL d   1       2.159   0.004   0.049  0.00  0.00     0.068 SA
ATOM      4  C   UNL d   1      -0.132   0.758   0.019  0.00  0.00     0.067 A 
ATOM      5  C   UNL d   1      -1.346  -1.475  -0.032  0.00  0.00     0.048 A 
ATOM      6  N   UNL d   1       1.100  -1.276   0.016  0.00  0.00    -0.310 N 
ATOM      7  HN  UNL d   1       1.340  -2.268   0.010  1.00  0.00     0.176 HD
ATOM      8  N   UNL d   1       1.101   1.286   0.047  0.00  0.00    -0.310 N 
ATOM      9  HN  UNL d   1       1.342   2.277   0.064  1.00  0.00     0.176 HD
ATOM     10  C   UNL d   1      -2.525   0.712  -0.028  0.00  0.00     0.018 A 
ATOM     11  C   UNL d   1      -1.346   1.483   0.006  0.00  0.00     0.033 A 
ENDROOT
BRANCH   2  12
ATOM     12  C   UNL d   1      -3.879  -1.427  -0.095  0.00  0.00     0.417 C 
ATOM     13  F   UNL d   1      -3.775  -2.784  -0.121  0.00  0.00    -0.166 F 
ATOM     14  F   UNL d   1      -4.659  -1.130   0.980  0.00  0.00    -0.166 F 
ATOM     15  F   UNL d   1      -4.606  -1.085  -1.194  0.00  0.00    -0.166 F 
ENDBRANCH   2  12
TORSDOF 1
