REMARK  3 active torsions:
REMARK  status: ('A' for Active; 'I' for Inactive)
REMARK    1  A    between atoms: N_2  and  C_1 
REMARK    2  A    between atoms: N_3  and  C_1 
REMARK    3  A    between atoms: C_7  and  N_3 
ROOT
ATOM      1  C   UNL d   1       1.006  -0.043   0.090  0.00  0.00     0.174 C 
ATOM      2  S   UNL d   1       2.642   0.082  -0.246  0.00  0.00    -0.041 SA
ENDROOT
BRANCH   1   3
ATOM      3  N   UNL d   1       0.425  -1.194   0.593  0.00  0.00    -0.358 N 
ATOM      4  C   UNL d   1      -0.736  -1.796  -0.059  0.00  0.00     0.125 C 
ATOM      5  C   UNL d   1      -0.532  -3.303  -0.218  0.00  0.00     0.024 C 
ATOM      6  C   UNL d   1      -0.213  -3.957   1.135  0.00  0.00    -0.015 C 
ATOM      7  C   UNL d   1       1.014  -3.284   1.770  0.00  0.00     0.024 C 
ATOM      8  C   UNL d   1       0.024  -5.457   0.980  0.00  0.00     0.010 C 
ATOM      9  C   UNL d   1       0.828  -1.778   1.869  0.00  0.00     0.125 C 
ENDBRANCH   1   3
BRANCH   1  10
ATOM     10  N   UNL d   1       0.166   0.975  -0.284  0.00  0.00    -0.333 N 
ATOM     11  H   UNL d   1       0.520   1.599  -0.996  0.00  0.00     0.168 HD
BRANCH  10  12
ATOM     12  C   UNL d   1      -1.017   1.374   0.373  0.00  0.00     0.034 A 
ATOM     13  C   UNL d   1      -1.251   1.078   1.719  0.00  0.00     0.036 A 
ATOM     14  C   UNL d   1      -2.454   1.427   2.345  0.00  0.00    -0.060 A 
ATOM     15  C   UNL d   1      -2.707   1.048   3.772  0.00  0.00     0.048 C 
ATOM     16  C   UNL d   1      -3.423   2.104   1.602  0.00  0.00     0.007 A 
ATOM     17  C   UNL d   1      -3.171   2.462   0.274  0.00  0.00     0.003 A 
ATOM     18  C   UNL d   1      -1.961   2.115  -0.334  0.00  0.00     0.029 A 
ENDBRANCH  10  12
ENDBRANCH   1  10
TORSDOF 3
