REMARK  6 active torsions:
REMARK  status: ('A' for Active; 'I' for Inactive)
REMARK    1  A    between atoms: C_5  and  C_1 
REMARK    2  A    between atoms: C_7  and  C_2 
REMARK    3  A    between atoms: O_9  and  C_7 
REMARK    4  A    between atoms: C_15  and  O_9 
REMARK    5  A    between atoms: C_12  and  C_15 
REMARK    6  A    between atoms: C_13  and  C_12 
ROOT
ATOM      1  C   UNL d   1      -1.375  -0.587  -0.013  0.00  0.00     0.087 A 
ATOM      2  C   UNL d   1      -0.093  -1.234  -0.020  0.00  0.00     0.100 A 
ATOM      3  N   UNL d   1      -1.218   0.736  -0.202  0.00  0.00    -0.259 N 
ATOM      4  HN  UNL d   1      -1.962   1.427  -0.296  1.00  0.00     0.195 HD
ATOM      5  O   UNL d   1       0.127   0.979  -0.243  0.00  0.00    -0.241 OA
ATOM      6  C   UNL d   1       0.806  -0.186  -0.133  0.00  0.00     0.091 A 
ATOM      7  C   UNL d   1       2.275  -0.040  -0.122  0.00  0.00     0.080 C 
ENDROOT
BRANCH   2   8
ATOM      8  C   UNL d   1       0.250  -2.630   0.099  0.00  0.00     0.298 C 
ATOM      9  O   UNL d   1      -0.403  -3.438   0.751  0.00  0.00    -0.259 OA
BRANCH   8  10
ATOM     10  O   UNL d   1       1.395  -2.935  -0.577  0.00  0.00    -0.310 OA
BRANCH  10  11
ATOM     11  C   UNL d   1       1.919  -4.262  -0.461  0.00  0.00     0.263 C 
BRANCH  11  12
ATOM     12  C   UNL d   1       2.025  -4.976  -1.807  0.00  0.00     0.183 C 
ATOM     13  O   UNL d   1       1.616  -4.489  -2.859  0.00  0.00    -0.290 OA
BRANCH  12  14
ATOM     14  C   UNL d   1       2.637  -6.344  -1.828  0.00  0.00     0.012 A 
ATOM     15  C   UNL d   1       2.338  -7.201  -2.898  0.00  0.00     0.017 A 
ATOM     16  C   UNL d   1       2.874  -8.493  -2.943  0.00  0.00     0.025 A 
ATOM     17  C   UNL d   1       3.724  -8.926  -1.927  0.00  0.00     0.034 A 
ATOM     18  C   UNL d   1       4.044  -8.077  -0.871  0.00  0.00     0.025 A 
ATOM     19 CL   UNL d   1       4.380 -10.515  -1.975  0.00  0.00    -0.084 Cl
ATOM     20  C   UNL d   1       3.503  -6.787  -0.819  0.00  0.00     0.017 A 
ENDBRANCH  12  14
ENDBRANCH  11  12
ENDBRANCH  10  11
ENDBRANCH   8  10
ENDBRANCH   2   8
BRANCH   1  21
ATOM     21  C   UNL d   1      -2.743  -1.113   0.101  0.00  0.00     0.037 A 
ATOM     22  C   UNL d   1      -3.664  -0.524   0.999  0.00  0.00     0.048 A 
ATOM     23 CL   UNL d   1      -3.215   0.670   2.178  0.00  0.00    -0.083 Cl
ATOM     24  C   UNL d   1      -5.018  -0.892   1.000  0.00  0.00     0.025 A 
ATOM     25  C   UNL d   1      -5.476  -1.883   0.141  0.00  0.00     0.003 A 
ATOM     26  C   UNL d   1      -4.579  -2.509  -0.718  0.00  0.00     0.025 A 
ATOM     27  C   UNL d   1      -3.230  -2.119  -0.756  0.00  0.00     0.048 A 
ATOM     28 CL   UNL d   1      -2.261  -2.888  -1.968  0.00  0.00    -0.083 Cl
ENDBRANCH   1  21
TORSDOF 6
