REMARK  2 active torsions:
REMARK  status: ('A' for Active; 'I' for Inactive)
REMARK    1  A    between atoms: C_8  and  N_7 
REMARK    2  A    between atoms: O_11  and  C_10 
ROOT
ATOM      1  C   UNL d   1      -2.164  -1.217  -0.653  0.00  0.00     0.150 A 
ATOM      2  N   UNL d   1      -1.773  -0.168  -1.338  0.00  0.00    -0.335 N 
ATOM      3  HN  UNL d   1      -2.252   0.733  -1.333  1.00  0.00     0.168 HD
ATOM      4  S   UNL d   1      -1.091  -2.566  -0.754  0.00  0.00    -0.052 SA
ATOM      5  C   UNL d   1      -0.635  -0.438  -2.063  0.00  0.00     0.051 A 
ATOM      6  C   UNL d   1      -0.115  -1.719  -1.894  0.00  0.00     0.035 A 
ATOM      7  N   UNL d   1      -3.295  -1.304   0.092  0.00  0.00    -0.336 N 
ATOM      8  C   UNL d   1       0.005   0.454  -2.946  0.00  0.00     0.031 A 
ATOM      9  C   UNL d   1       1.027  -2.147  -2.591  0.00  0.00     0.021 A 
ATOM     10  C   UNL d   1       1.641  -1.246  -3.470  0.00  0.00     0.002 A 
ATOM     11  C   UNL d   1       1.140   0.040  -3.645  0.00  0.00     0.002 A 
ATOM     12  H   UNL d   1      -3.419  -2.137   0.653  0.00  0.00     0.168 HD
ENDROOT
BRANCH   7  13
ATOM     13  C   UNL d   1      -4.483  -0.561  -0.096  0.00  0.00     0.036 A 
ATOM     14  C   UNL d   1      -4.672   0.321  -1.173  0.00  0.00     0.066 A 
ATOM     15  C   UNL d   1      -5.835   1.082  -1.311  0.00  0.00     0.070 A 
ATOM     16  C   UNL d   1      -6.835   0.968  -0.349  0.00  0.00     0.037 A 
ATOM     17  C   UNL d   1      -6.671   0.109   0.737  0.00  0.00     0.005 A 
ATOM     18  C   UNL d   1      -5.499  -0.643   0.866  0.00  0.00     0.029 A 
BRANCH  15  19
ATOM     19  O   UNL d   1      -6.096   1.955  -2.333  0.00  0.00    -0.356 OA
ATOM     20  C   UNL d   1      -5.069   2.117  -3.306  0.00  0.00     0.210 C 
ENDBRANCH  15  19
ENDBRANCH   7  13
TORSDOF 2
