REMARK  6 active torsions:
REMARK  status: ('A' for Active; 'I' for Inactive)
REMARK    1  A    between atoms: C_4  and  C_1 
REMARK       I    between atoms: N_8  and  C_1 
REMARK    2  A    between atoms: C_2  and  C_3 
REMARK       I    between atoms: N_7  and  C_2 
REMARK    3  A    between atoms: C_3  and  C_11 
REMARK    4  A    between atoms: C_10  and  C_4 
REMARK    5  A    between atoms: S_9  and  C_10 
REMARK    6  A    between atoms: C_11  and  S_9 
ROOT
ATOM      1  S   UNL d   1       0.062  -0.387   3.975  0.00  0.00    -0.168 SA
ENDROOT
BRANCH   1   2
ATOM      2  C   UNL d   1       1.113  -0.247   2.485  0.00  0.00     0.083 C 
BRANCH   2   3
ATOM      3  C   UNL d   1       0.214  -0.131   1.256  0.00  0.00     0.112 C 
BRANCH   3   4
ATOM      4  C   UNL d   1       1.020  -0.011  -0.018  0.00  0.00     0.216 C 
ATOM      5  O   UNL d   1       2.243  -0.007  -0.070  0.00  0.00    -0.274 OA
ATOM      6  N   UNL d   1       0.267   0.096  -1.153  0.00  0.00    -0.370 N 
ATOM      7  H   UNL d   1      -0.743   0.097  -1.152  0.00  0.00     0.159 HD
ATOM      8  H   UNL d   1       0.754   0.179  -2.036  0.00  0.00     0.159 HD
ENDBRANCH   3   4
ENDBRANCH   2   3
ENDBRANCH   1   2
BRANCH   1   9
ATOM      9  C   UNL d   1       1.359  -0.508   5.258  0.00  0.00     0.083 C 
BRANCH   9  10
ATOM     10  C   UNL d   1       0.694  -0.637   6.625  0.00  0.00     0.112 C 
BRANCH  10  11
ATOM     11  C   UNL d   1       1.715  -0.743   7.734  0.00  0.00     0.216 C 
ATOM     12  O   UNL d   1       2.928  -0.729   7.571  0.00  0.00    -0.274 OA
ATOM     13  N   UNL d   1       1.175  -0.861   8.983  0.00  0.00    -0.370 N 
ATOM     14  H   UNL d   1       0.180  -0.877   9.159  0.00  0.00     0.159 HD
ATOM     15  H   UNL d   1       1.810  -0.936   9.769  0.00  0.00     0.159 HD
ENDBRANCH  10  11
ENDBRANCH   9  10
ENDBRANCH   1   9
TORSDOF 6
