REMARK  4 active torsions:
REMARK  status: ('A' for Active; 'I' for Inactive)
REMARK    1  A    between atoms: C_2  and  C_1 
REMARK       I    between atoms: N_4  and  C_2 
REMARK    2  A    between atoms: C_7  and  C_3 
REMARK    3  A    between atoms: C_6  and  N_4 
REMARK    4  A    between atoms: O_15  and  C_7 
ROOT
ATOM      1  C   UNL d   1      -3.756  -3.816  -0.435  0.00  0.00     0.257 C 
ATOM      2  N   UNL d   1      -2.533  -3.482   0.096  0.00  0.00    -0.322 N 
ATOM      3  O   UNL d   1      -4.137  -4.976  -0.591  0.00  0.00    -0.267 OA
ATOM      4  H   UNL d   1      -2.443  -2.562   0.520  0.00  0.00     0.169 HD
ENDROOT
BRANCH   2   5
ATOM      5  C   UNL d   1      -1.420  -4.346   0.262  0.00  0.00     0.051 A 
ATOM      6  C   UNL d   1      -0.368  -4.020   1.143  0.00  0.00     0.066 A 
ATOM      7  C   UNL d   1       0.776  -4.841   1.198  0.00  0.00     0.020 A 
ATOM      8  C   UNL d   1       0.877  -5.980   0.402  0.00  0.00     0.001 A 
ATOM      9  C   UNL d   1      -0.163  -6.313  -0.456  0.00  0.00     0.002 A 
ATOM     10  C   UNL d   1      -1.299  -5.503  -0.526  0.00  0.00     0.030 A 
BRANCH   6  11
ATOM     11  C   UNL d   1      -0.381  -2.867   2.090  0.00  0.00     0.295 C 
ATOM     12  O   UNL d   1       0.624  -2.413   2.614  0.00  0.00    -0.259 OA
BRANCH  11  13
ATOM     13  O   UNL d   1      -1.650  -2.458   2.334  0.00  0.00    -0.322 OA
ATOM     14  C   UNL d   1      -1.772  -1.437   3.326  0.00  0.00     0.213 C 
ENDBRANCH  11  13
ENDBRANCH   6  11
ENDBRANCH   2   5
BRANCH   1  15
ATOM     15  C   UNL d   1      -4.685  -2.710  -0.852  0.00  0.00     0.054 A 
ATOM     16  C   UNL d   1      -4.429  -1.328  -0.815  0.00  0.00     0.051 A 
ATOM     17  C   UNL d   1      -5.347  -0.421  -1.371  0.00  0.00     0.048 A 
ATOM     18 CL   UNL d   1      -3.018  -0.609  -0.123  0.00  0.00    -0.083 Cl
ATOM     19  C   UNL d   1      -6.522  -0.878  -1.960  0.00  0.00     0.035 A 
ATOM     20  C   UNL d   1      -6.812  -2.235  -1.977  0.00  0.00     0.025 A 
ATOM     21 CL   UNL d   1      -7.611   0.239  -2.682  0.00  0.00    -0.084 Cl
ATOM     22  C   UNL d   1      -5.904  -3.138  -1.424  0.00  0.00     0.020 A 
ENDBRANCH   1  15
TORSDOF 4
