REMARK  5 active torsions:
REMARK  status: ('A' for Active; 'I' for Inactive)
REMARK    1  A    between atoms: C_9  and  N_1 
REMARK    2  A    between atoms: C_12  and  N_2 
REMARK    3  A    between atoms: C_17  and  C_12 
REMARK    4  A    between atoms: S_18  and  C_16 
REMARK    5  A    between atoms: O_25  and  C_19 
ROOT
ATOM      1  N   UNL d   1       0.904  -1.409   0.105  0.00  0.00    -0.247 N 
ATOM      2  N   UNL d   1       2.111   0.675   0.038  0.00  0.00    -0.260 N 
ATOM      3  C   UNL d   1       2.136  -0.732   0.193  0.00  0.00     0.338 A 
ATOM      4  C   UNL d   1      -0.268  -0.682   0.026  0.00  0.00     0.150 A 
ATOM      5  C   UNL d   1      -0.238   0.680  -0.051  0.00  0.00     0.147 A 
ATOM      6  C   UNL d   1       0.954   1.450  -0.073  0.00  0.00     0.282 A 
ATOM      7  N   UNL d   1      -1.558  -1.137  -0.021  0.00  0.00    -0.336 N 
ATOM      8  HN  UNL d   1      -1.874  -2.106  -0.010  1.00  0.00     0.168 HD
ATOM      9  N   UNL d   1      -1.537   1.083  -0.098  0.00  0.00    -0.345 N 
ATOM     10  C   UNL d   1      -2.304  -0.051  -0.085  0.00  0.00     0.182 A 
ATOM     11  O   UNL d   1       3.194  -1.312   0.455  0.00  0.00    -0.246 OA
ATOM     12  O   UNL d   1       0.934   2.673  -0.164  0.00  0.00    -0.265 OA
ATOM     13  H   UNL d   1      -1.869   2.041  -0.132  0.00  0.00     0.167 HD
ENDROOT
BRANCH   2  14
ATOM     14  C   UNL d   1       3.385   1.380   0.061  0.00  0.00     0.175 C 
BRANCH  14  15
ATOM     15  C   UNL d   1       4.050   1.410  -1.300  0.00  0.00    -0.040 A 
ATOM     16  C   UNL d   1       3.790   2.450  -2.204  0.00  0.00     0.011 A 
ATOM     17  C   UNL d   1       4.333   2.430  -3.495  0.00  0.00     0.037 A 
ATOM     18  C   UNL d   1       5.144   1.370  -3.900  0.00  0.00     0.068 A 
ATOM     19  C   UNL d   1       5.441   0.355  -2.990  0.00  0.00     0.037 A 
ATOM     20  C   UNL d   1       4.900   0.372  -1.702  0.00  0.00     0.011 A 
BRANCH  18  21
ATOM     21  O   UNL d   1       5.699   1.208  -5.140  0.00  0.00    -0.356 OA
ATOM     22  C   UNL d   1       5.342   2.160  -6.133  0.00  0.00     0.210 C 
ENDBRANCH  18  21
ENDBRANCH  14  15
ENDBRANCH   2  14
BRANCH   1  23
ATOM     23  C   UNL d   1       0.831  -2.832   0.154  0.00  0.00     0.047 A 
ATOM     24  C   UNL d   1      -0.066  -3.494   1.011  0.00  0.00     0.048 A 
ATOM     25  C   UNL d   1      -0.055  -4.891   1.130  0.00  0.00     0.002 A 
ATOM     26  C   UNL d   1       0.849  -5.629   0.356  0.00  0.00     0.018 A 
ATOM     27  C   UNL d   1       1.716  -4.990  -0.528  0.00  0.00     0.004 A 
ATOM     28  C   UNL d   1       1.715  -3.599  -0.618  0.00  0.00     0.030 A 
BRANCH  25  29
ATOM     29  S   UNL d   1      -1.057  -5.801   2.301  0.00  0.00    -0.134 SA
ATOM     30  C   UNL d   1      -2.544  -4.775   2.429  0.00  0.00     0.095 C 
ENDBRANCH  25  29
ENDBRANCH   1  23
TORSDOF 5
