REMARK  0 active torsions:
REMARK  status: ('A' for Active; 'I' for Inactive)
ROOT
ATOM      1  C   UNL d   1      -2.522   0.651  -0.000  0.00  0.00     0.110 A 
ATOM      2  C   UNL d   1      -2.510  -0.687   0.000  0.00  0.00     0.110 A 
ATOM      3  C   UNL d   1      -1.262   1.439  -0.002  0.00  0.00     0.206 A 
ATOM      4  C   UNL d   1      -1.236  -1.454  -0.001  0.00  0.00     0.206 A 
ATOM      5  C   UNL d   1       0.013   0.700  -0.002  0.00  0.00     0.030 A 
ATOM      6  C   UNL d   1       0.026  -0.692  -0.002  0.00  0.00     0.030 A 
ATOM      7  O   UNL d   1      -1.251   2.665  -0.004  0.00  0.00    -0.286 OA
ATOM      8  O   UNL d   1      -1.204  -2.679  -0.002  0.00  0.00    -0.286 OA
ATOM      9 CL   UNL d   1      -3.987   1.579   0.001  0.00  0.00    -0.078 Cl
ATOM     10 CL   UNL d   1      -3.959  -1.639   0.003  0.00  0.00    -0.078 Cl
ATOM     11  C   UNL d   1       1.223   1.410  -0.002  0.00  0.00     0.016 A 
ATOM     12  C   UNL d   1       1.249  -1.378  -0.002  0.00  0.00     0.016 A 
ATOM     13  C   UNL d   1       2.438   0.724  -0.002  0.00  0.00     0.001 A 
ATOM     14  C   UNL d   1       2.452  -0.669  -0.001  0.00  0.00     0.001 A 
ENDROOT
TORSDOF 0
