REMARK  2 active torsions:
REMARK  status: ('A' for Active; 'I' for Inactive)
REMARK    1  A    between atoms: C_3  and  C_1 
REMARK       I    between atoms: N_4  and  C_1 
REMARK    2  A    between atoms: C_6  and  N_5 
ROOT
ATOM      1  C   UNL d   1       0.817   0.012   0.006  0.00  0.00     0.254 C 
ATOM      2  N   UNL d   1       0.334  -0.492   1.213  0.00  0.00    -0.345 N 
ATOM      3  N   UNL d   1      -0.522  -1.429   3.772  0.00  0.00    -0.377 N 
ATOM      4  C   UNL d   1       0.805   0.150   2.453  0.00  0.00     0.146 C 
ATOM      5  C   UNL d   1      -0.859  -1.350   1.351  0.00  0.00     0.146 C 
ATOM      6  C   UNL d   1       0.818  -0.814   3.659  0.00  0.00     0.143 C 
ATOM      7  C   UNL d   1      -0.841  -2.251   2.599  0.00  0.00     0.143 C 
ATOM      8  O   UNL d   1       1.734   0.826  -0.071  0.00  0.00    -0.267 OA
ENDROOT
BRANCH   3   9
ATOM      9  C   UNL d   1      -1.032  -1.760   5.028  0.00  0.00     0.044 A 
ATOM     10  C   UNL d   1      -1.269  -0.769   6.030  0.00  0.00     0.017 A 
ATOM     11  C   UNL d   1      -1.822  -1.186   7.265  0.00  0.00     0.046 A 
ATOM     12  C   UNL d   1      -1.032   0.619   5.854  0.00  0.00     0.018 A 
ATOM     13  C   UNL d   1      -2.048  -0.256   8.266  0.00  0.00     0.054 A 
ATOM     14  N   UNL d   1      -2.163  -2.457   7.521  0.00  0.00    -0.365 N 
ATOM     15  C   UNL d   1      -1.755   1.093   8.085  0.00  0.00     0.036 A 
ATOM     16  C   UNL d   1      -1.250   1.538   6.873  0.00  0.00     0.025 A 
ATOM     17 CL   UNL d   1      -2.037   2.215   9.357  0.00  0.00    -0.084 Cl
ATOM     18  C   UNL d   1      -1.965  -3.367   6.554  0.00  0.00     0.090 A 
ATOM     19  HN  UNL d   1      -2.561  -2.724   8.422  1.00  0.00     0.165 HD
ATOM     20  C   UNL d   1      -1.405  -3.076   5.324  0.00  0.00     0.047 A 
ENDBRANCH   3   9
BRANCH   1  21
ATOM     21  C   UNL d   1       0.260  -0.496  -1.268  0.00  0.00     0.035 A 
ATOM     22  C   UNL d   1      -1.104  -0.413  -1.561  0.00  0.00     0.041 A 
ATOM     23  C   UNL d   1      -1.585  -0.994  -2.732  0.00  0.00     0.036 A 
ATOM     24 CL   UNL d   1      -3.277  -0.995  -3.043  0.00  0.00    -0.084 Cl
ATOM     25  C   UNL d   1      -0.715  -1.599  -3.636  0.00  0.00     0.047 A 
ATOM     26  C   UNL d   1       0.653  -1.610  -3.367  0.00  0.00     0.036 A 
ATOM     27  C   UNL d   1       1.148  -1.062  -2.187  0.00  0.00     0.041 A 
ATOM     28 CL   UNL d   1       1.736  -2.328  -4.493  0.00  0.00    -0.084 Cl
ENDBRANCH   1  21
TORSDOF 2
