REMARK  7 active torsions:
REMARK  status: ('A' for Active; 'I' for Inactive)
REMARK    1  A    between atoms: S_16  and  C_2 
REMARK    2  A    between atoms: S_18  and  C_3 
REMARK    3  A    between atoms: C_8  and  C_9 
REMARK    4  A    between atoms: C_12  and  C_21 
REMARK    5  A    between atoms: C_21  and  S_16 
REMARK    6  A    between atoms: C_17  and  C_25 
REMARK    7  A    between atoms: C_25  and  S_18 
ROOT
ATOM      1  S   UNL d   1       0.290   2.553  -0.932  0.00  0.00    -0.097 SA
ENDROOT
BRANCH   1   2
ATOM      2  C   UNL d   1      -0.019   0.997  -0.203  0.00  0.00     0.129 A 
ATOM      3  S   UNL d   1      -0.950  -0.222  -0.972  0.00  0.00    -0.038 SA
ATOM      4  C   UNL d   1      -0.772  -1.146   0.459  0.00  0.00     0.129 A 
ATOM      5  N   UNL d   1      -0.039  -0.573   1.387  0.00  0.00    -0.287 N 
ATOM      6  N   UNL d   1       0.396   0.679   1.002  0.00  0.00    -0.287 N 
ATOM      7  HN  UNL d   1       0.182  -1.002   2.286  1.00  0.00     0.188 HD
ATOM      8  HN  UNL d   1       0.973   1.287   1.584  1.00  0.00     0.188 HD
BRANCH   4   9
ATOM      9  S   UNL d   1      -1.513  -2.715   0.691  0.00  0.00    -0.103 SA
BRANCH   9  10
ATOM     10  C   UNL d   1      -1.893  -2.595   2.458  0.00  0.00     0.086 C 
BRANCH  10  11
ATOM     11  C   UNL d   1      -2.526  -3.863   2.944  0.00  0.00    -0.005 A 
ATOM     12  C   UNL d   1      -3.953  -4.240   2.621  0.00  0.00     0.006 A 
ATOM     13  C   UNL d   1      -3.595  -3.779   4.006  0.00  0.00     0.006 A 
ENDBRANCH  10  11
ENDBRANCH   9  10
ENDBRANCH   4   9
ENDBRANCH   1   2
BRANCH   1  14
ATOM     14  C   UNL d   1       1.808   3.058  -0.058  0.00  0.00     0.140 C 
BRANCH  14  15
ATOM     15  C   UNL d   1       3.041   2.316  -0.524  0.00  0.00     0.040 A 
ATOM     16  N   UNL d   1       3.304   2.391  -1.863  0.00  0.00    -0.366 N 
ATOM     17  C   UNL d   1       4.401   1.763  -2.342  0.00  0.00     0.104 A 
ATOM     18  HN  UNL d   1       2.685   2.909  -2.488  1.00  0.00     0.165 HD
ATOM     19  C   UNL d   1       5.288   1.056  -1.551  0.00  0.00     0.064 A 
ATOM     20  C   UNL d   1       5.025   1.003  -0.179  0.00  0.00     0.043 A 
ATOM     21  C   UNL d   1       3.898   1.640   0.347  0.00  0.00     0.058 A 
ATOM     22 CL   UNL d   1       3.660   1.569   2.051  0.00  0.00    -0.082 Cl
BRANCH  19  23
ATOM     23  C   UNL d   1       6.474   0.394  -2.179  0.00  0.00     0.418 C 
ATOM     24  F   UNL d   1       7.278  -0.240  -1.283  0.00  0.00    -0.166 F 
ATOM     25  F   UNL d   1       6.118  -0.548  -3.094  0.00  0.00    -0.166 F 
ATOM     26  F   UNL d   1       7.273   1.275  -2.840  0.00  0.00    -0.166 F 
ENDBRANCH  19  23
ENDBRANCH  14  15
ENDBRANCH   1  14
TORSDOF 7
