REMARK  2 active torsions:
REMARK  status: ('A' for Active; 'I' for Inactive)
REMARK    1  A    between atoms: C_5  and  C_1 
REMARK    2  A    between atoms: C_9  and  C_2 
ROOT
ATOM      1  C   UNL d   1      -1.321  -0.801   0.107  0.00  0.00     0.083 A 
ATOM      2  C   UNL d   1       0.020  -1.284  -0.071  0.00  0.00     0.070 A 
ATOM      3  N   UNL d   1      -1.301   0.512   0.383  0.00  0.00    -0.259 N 
ATOM      4  HN  UNL d   1      -2.104   1.098   0.609  1.00  0.00     0.195 HD
ATOM      5  O   UNL d   1       0.006   0.915   0.302  0.00  0.00    -0.241 OA
ATOM      6  C   UNL d   1       0.802  -0.150   0.032  0.00  0.00     0.088 A 
ATOM      7  C   UNL d   1       2.234   0.186  -0.109  0.00  0.00     0.080 C 
ENDROOT
BRANCH   1   8
ATOM      8  C   UNL d   1      -2.591  -1.542   0.139  0.00  0.00     0.017 A 
ATOM      9  C   UNL d   1      -3.775  -1.074  -0.475  0.00  0.00     0.068 A 
ATOM     10  C   UNL d   1      -4.973  -1.799  -0.317  0.00  0.00     0.056 A 
ATOM     11 CL   UNL d   1      -3.777   0.359  -1.463  0.00  0.00    -0.082 Cl
ATOM     12 CL   UNL d   1      -6.482  -1.273  -0.986  0.00  0.00    -0.083 Cl
ATOM     13  C   UNL d   1      -4.992  -2.993   0.409  0.00  0.00     0.026 A 
ATOM     14  C   UNL d   1      -3.825  -3.474   0.990  0.00  0.00     0.003 A 
ATOM     15  C   UNL d   1      -2.640  -2.748   0.867  0.00  0.00     0.015 A 
ENDBRANCH   1   8
BRANCH   2  16
ATOM     16  C   UNL d   1       0.455  -2.643  -0.341  0.00  0.00     0.160 C 
ATOM     17  O   UNL d   1      -0.210  -3.388  -1.058  0.00  0.00    -0.293 OA
ATOM     18  C   UNL d   1       1.671  -3.192   0.365  0.00  0.00     0.097 C 
ENDBRANCH   2  16
TORSDOF 2
