REMARK  5 active torsions:
REMARK  status: ('A' for Active; 'I' for Inactive)
REMARK    1  A    between atoms: N_2  and  S_1 
REMARK    2  A    between atoms: C_9  and  S_1 
REMARK    3  A    between atoms: C_3  and  N_2 
REMARK       I    between atoms: C_4  and  N_12 
REMARK       I    between atoms: N_13  and  C_4 
REMARK    4  A    between atoms: N_12  and  C_20 
REMARK    5  A    between atoms: C_21  and  N_13 
ROOT
ATOM      1  C   UNL d   1       0.773  -0.318  -1.731  0.00  0.00     0.075 A 
ATOM      2  C   UNL d   1       1.545  -1.361  -2.254  0.00  0.00     0.027 A 
ATOM      3  C   UNL d   1      -0.356   0.123  -2.413  0.00  0.00     0.027 A 
ATOM      4  C   UNL d   1      -0.065  -1.657  -4.058  0.00  0.00     0.036 A 
ATOM      5  C   UNL d   1       1.129  -2.021  -3.422  0.00  0.00     0.031 A 
ATOM      6  C   UNL d   1      -0.754  -0.534  -3.580  0.00  0.00     0.031 A 
ENDROOT
BRANCH   1   7
ATOM      7  S   UNL d   1       1.086   0.287  -0.077  0.00  0.00     0.248 S 
ATOM      8  O   UNL d   1      -0.165   0.799   0.447  0.00  0.00    -0.205 OA
ATOM      9  O   UNL d   1       1.780  -0.784   0.608  0.00  0.00    -0.205 OA
BRANCH   7  10
ATOM     10  N   UNL d   1       2.208   1.513  -0.280  0.00  0.00    -0.151 NA
ATOM     11  H   UNL d   1       3.032   1.156  -0.746  0.00  0.00     0.149 HD
BRANCH  10  12
ATOM     12  C   UNL d   1       1.721   2.604  -0.993  0.00  0.00     0.171 A 
ATOM     13  N   UNL d   1       0.983   3.508  -0.354  0.00  0.00    -0.336 N 
ATOM     14  C   UNL d   1       0.519   4.524  -1.105  0.00  0.00     0.009 A 
ATOM     15  HN  UNL d   1       0.781   3.435   0.643  1.00  0.00     0.168 HD
ATOM     16  C   UNL d   1      -0.291   5.582  -0.417  0.00  0.00     0.068 C 
ATOM     17  C   UNL d   1       0.778   4.613  -2.461  0.00  0.00     0.049 A 
ATOM     18  C   UNL d   1       1.549   3.607  -3.016  0.00  0.00     0.009 A 
ATOM     19  N   UNL d   1       2.045   2.590  -2.287  0.00  0.00    -0.336 N 
ATOM     20  C   UNL d   1       1.871   3.615  -4.479  0.00  0.00     0.068 C 
ATOM     21  HN  UNL d   1       2.628   1.859  -2.695  1.00  0.00     0.168 HD
ENDBRANCH  10  12
ENDBRANCH   7  10
ENDBRANCH   1   7
BRANCH   4  22
ATOM     22  N   UNL d   1      -0.558  -2.493  -5.098  0.00  0.00    -0.309 N 
ATOM     23  C   UNL d   1      -1.826  -2.401  -5.663  0.00  0.00     0.325 C 
ATOM     24  N   UNL d   1      -2.103  -3.442  -6.539  0.00  0.00    -0.309 N 
ATOM     25  O   UNL d   1      -2.621  -1.511  -5.393  0.00  0.00    -0.247 OA
ATOM     26  H   UNL d   1      -1.414  -4.170  -6.642  0.00  0.00     0.170 HD
ATOM     27  H   UNL d   1      -0.015  -3.317  -5.307  0.00  0.00     0.170 HD
BRANCH  24  28
ATOM     28  C   UNL d   1      -3.353  -3.657  -7.184  0.00  0.00     0.036 A 
ATOM     29  C   UNL d   1      -4.419  -2.750  -7.134  0.00  0.00     0.029 A 
ATOM     30  C   UNL d   1      -5.658  -3.053  -7.702  0.00  0.00     0.002 A 
ATOM     31  C   UNL d   1      -5.847  -4.264  -8.352  0.00  0.00     0.000 A 
ATOM     32  C   UNL d   1      -4.784  -5.161  -8.456  0.00  0.00     0.002 A 
ATOM     33  C   UNL d   1      -3.541  -4.856  -7.881  0.00  0.00     0.029 A 
ENDBRANCH  24  28
ENDBRANCH   4  22
TORSDOF 5
