REMARK  6 active torsions:
REMARK  status: ('A' for Active; 'I' for Inactive)
REMARK    1  A    between atoms: S_14  and  C_2 
REMARK    2  A    between atoms: C_3  and  S_13 
REMARK    3  A    between atoms: C_15  and  C_4 
REMARK    4  A    between atoms: S_13  and  C_15 
REMARK    5  A    between atoms: C_17  and  S_14 
REMARK    6  A    between atoms: C_20  and  C_17 
ROOT
ATOM      1  N   UNL d   1       0.946   0.128   0.069  0.00  0.00    -0.319 N 
ATOM      2  C   UNL d   1       0.025   1.134   0.194  0.00  0.00     0.162 A 
ATOM      3  C   UNL d   1       0.218  -1.047   0.077  0.00  0.00     0.109 A 
ATOM      4  N   UNL d   1      -1.182   0.623   0.250  0.00  0.00    -0.278 N 
ATOM      5  HN  UNL d   1      -2.053   1.147   0.333  1.00  0.00     0.189 HD
ATOM      6  N   UNL d   1      -1.063  -0.744   0.176  0.00  0.00    -0.286 N 
ATOM      7  HN  UNL d   1      -1.834  -1.411   0.194  1.00  0.00     0.188 HD
ATOM      8  C   UNL d   1       2.378   0.250  -0.020  0.00  0.00     0.159 C 
ENDROOT
BRANCH   3   9
ATOM      9  C   UNL d   1       0.761  -2.435  -0.074  0.00  0.00     0.157 C 
BRANCH   9  10
ATOM     10  S   UNL d   1       2.001  -2.854   1.185  0.00  0.00    -0.119 SA
BRANCH  10  11
ATOM     11  C   UNL d   1       2.437  -4.477   0.696  0.00  0.00     0.035 A 
ATOM     12  C   UNL d   1       3.593  -4.849   0.038  0.00  0.00     0.023 A 
ATOM     13  N   UNL d   1       3.565  -6.219  -0.074  0.00  0.00    -0.358 N 
ATOM     14  C   UNL d   1       4.741  -4.060  -0.477  0.00  0.00     0.069 C 
ATOM     15  C   UNL d   1       2.430  -6.733   0.511  0.00  0.00     0.044 A 
ATOM     16  H   UNL d   1       4.288  -6.784  -0.496  0.00  0.00     0.166 HD
ATOM     17  C   UNL d   1       1.688  -5.652   0.990  0.00  0.00     0.009 A 
ATOM     18  C   UNL d   1       2.019  -8.063   0.661  0.00  0.00     0.030 A 
ATOM     19  C   UNL d   1       0.463  -5.916   1.639  0.00  0.00     0.015 A 
ATOM     20  C   UNL d   1       0.034  -7.240   1.792  0.00  0.00     0.001 A 
ATOM     21  C   UNL d   1       0.805  -8.296   1.315  0.00  0.00     0.002 A 
ENDBRANCH  10  11
ENDBRANCH   9  10
ENDBRANCH   3   9
BRANCH   2  22
ATOM     22  S   UNL d   1       0.422   2.816   0.265  0.00  0.00    -0.088 SA
BRANCH  22  23
ATOM     23  C   UNL d   1      -1.151   3.500   0.866  0.00  0.00     0.121 C 
BRANCH  23  24
ATOM     24  C   UNL d   1      -1.076   4.995   1.076  0.00  0.00    -0.049 A 
ATOM     25  C   UNL d   1      -1.571   5.878   0.105  0.00  0.00     0.008 A 
ATOM     26  C   UNL d   1      -1.531   7.259   0.314  0.00  0.00     0.001 A 
ATOM     27  C   UNL d   1      -0.989   7.772   1.491  0.00  0.00     0.000 A 
ATOM     28  C   UNL d   1      -0.478   6.906   2.456  0.00  0.00     0.001 A 
ATOM     29  C   UNL d   1      -0.519   5.526   2.250  0.00  0.00     0.008 A 
ENDBRANCH  23  24
ENDBRANCH  22  23
ENDBRANCH   2  22
TORSDOF 6
