REMARK  3 active torsions:
REMARK  status: ('A' for Active; 'I' for Inactive)
REMARK    1  A    between atoms: C_8  and  C_3 
REMARK    2  A    between atoms: C_9  and  C_4 
REMARK    3  A    between atoms: C_10  and  C_5 
ROOT
ATOM      1  N   UNL d   1      -1.330  -0.034  -0.033  0.00  0.00    -0.355 N 
ATOM      2  HN  UNL d   1      -2.350  -0.072  -0.034  1.00  0.00     0.166 HD
ATOM      3  C   UNL d   1      -0.684   1.158  -0.024  0.00  0.00     0.043 A 
ATOM      4  C   UNL d   1      -0.598  -1.176  -0.040  0.00  0.00     0.043 A 
ATOM      5  C   UNL d   1       1.486   0.069  -0.022  0.00  0.00    -0.022 A 
ATOM      6  C   UNL d   1       0.709   1.233  -0.019  0.00  0.00     0.042 A 
ATOM      7  C   UNL d   1       0.797  -1.148  -0.041  0.00  0.00     0.042 A 
ENDROOT
BRANCH   3   8
ATOM      8  C   UNL d   1      -1.540   2.367  -0.037  0.00  0.00    -0.009 A 
ATOM      9  C   UNL d   1      -1.135   3.577   0.561  0.00  0.00     0.015 A 
ATOM     10  C   UNL d   1      -1.933   4.726   0.504  0.00  0.00     0.020 A 
ATOM     11  C   UNL d   1      -3.161   4.681  -0.145  0.00  0.00     0.011 A 
ATOM     12  C   UNL d   1      -3.602   3.498  -0.728  0.00  0.00     0.020 A 
ATOM     13 BR   UNL d   1      -4.232   6.235  -0.235  0.00  0.00    -0.051 Br
ATOM     14  C   UNL d   1      -2.798   2.353  -0.669  0.00  0.00     0.015 A 
ENDBRANCH   3   8
BRANCH   4  15
ATOM     15  C   UNL d   1      -1.357  -2.445   0.008  0.00  0.00    -0.009 A 
ATOM     16  C   UNL d   1      -0.876  -3.627  -0.590  0.00  0.00     0.013 A 
ATOM     17  C   UNL d   1      -1.571  -4.836  -0.482  0.00  0.00     0.001 A 
ATOM     18  C   UNL d   1      -2.772  -4.889   0.217  0.00  0.00     0.000 A 
ATOM     19  C   UNL d   1      -3.283  -3.732   0.796  0.00  0.00     0.001 A 
ATOM     20  C   UNL d   1      -2.585  -2.525   0.689  0.00  0.00     0.013 A 
ENDBRANCH   4  15
BRANCH   5  21
ATOM     21  C   UNL d   1       2.967   0.126   0.022  0.00  0.00    -0.026 A 
ATOM     22  C   UNL d   1       3.686   1.152  -0.617  0.00  0.00     0.012 A 
ATOM     23  C   UNL d   1       5.080   1.225  -0.542  0.00  0.00     0.001 A 
ATOM     24  C   UNL d   1       5.792   0.258   0.160  0.00  0.00     0.000 A 
ATOM     25  C   UNL d   1       5.109  -0.778   0.788  0.00  0.00     0.001 A 
ATOM     26  C   UNL d   1       3.715  -0.839   0.724  0.00  0.00     0.012 A 
ENDBRANCH   5  21
TORSDOF 3
