REMARK  3 active torsions:
REMARK  status: ('A' for Active; 'I' for Inactive)
REMARK    1  A    between atoms: C_7  and  C_1 
REMARK    2  A    between atoms: O_10  and  C_2 
REMARK    3  A    between atoms: O_11  and  C_7 
ROOT
ATOM      1  C   UNL d   1      -1.871  -0.903   0.011  0.00  0.00     0.141 A 
ATOM      2  C   UNL d   1      -0.613  -1.407   0.005  0.00  0.00     0.100 A 
ATOM      3  C   UNL d   1      -2.058   0.581   0.012  0.00  0.00     0.265 A 
ATOM      4  N   UNL d   1      -0.934   1.364   0.021  0.00  0.00    -0.322 N 
ATOM      5  C   UNL d   1       0.566  -0.520   0.001  0.00  0.00     0.025 A 
ATOM      6  C   UNL d   1       0.368   0.864   0.013  0.00  0.00     0.048 A 
ATOM      7  O   UNL d   1      -3.156   1.129   0.004  0.00  0.00    -0.267 OA
ATOM      8  C   UNL d   1       1.881  -1.003  -0.013  0.00  0.00     0.016 A 
ATOM      9  C   UNL d   1       1.446   1.752   0.013  0.00  0.00     0.030 A 
ATOM     10  C   UNL d   1       2.966  -0.122  -0.013  0.00  0.00     0.001 A 
ATOM     11  C   UNL d   1       2.749   1.255   0.000  0.00  0.00     0.002 A 
ATOM     12  H   UNL d   1      -1.098   2.362   0.026  0.00  0.00     0.169 HD
ENDROOT
BRANCH   1  13
ATOM     13  C   UNL d   1      -3.006  -1.860   0.018  0.00  0.00     0.301 C 
ATOM     14  O   UNL d   1      -2.841  -3.078   0.017  0.00  0.00    -0.259 OA
BRANCH  13  15
ATOM     15  O   UNL d   1      -4.213  -1.255   0.030  0.00  0.00    -0.322 OA
ATOM     16  C   UNL d   1      -5.336  -2.138   0.042  0.00  0.00     0.213 C 
ENDBRANCH  13  15
ENDBRANCH   1  13
BRANCH   2  17
ATOM     17  O   UNL d   1      -0.302  -2.759   0.006  0.00  0.00    -0.358 OA
ATOM     18  H   UNL d   1      -1.133  -3.284   0.013  0.00  0.00     0.217 HD
ENDBRANCH   2  17
TORSDOF 3
