REMARK  4 active torsions:
REMARK  status: ('A' for Active; 'I' for Inactive)
REMARK    1  A    between atoms: C_14  and  N_3 
REMARK    2  A    between atoms: C_9  and  C_4 
REMARK    3  A    between atoms: N_15  and  C_5 
REMARK    4  A    between atoms: C_13  and  C_10 
ROOT
ATOM      1  N   UNL d   1       0.915  -0.631  -0.336  0.00  0.00    -0.290 N 
ATOM      2  HN  UNL d   1       1.716  -1.177  -0.653  1.00  0.00     0.188 HD
ATOM      3  N   UNL d   1       0.876   0.698  -0.038  0.00  0.00    -0.240 N 
ATOM      4  C   UNL d   1      -0.334  -1.056  -0.118  0.00  0.00     0.079 C 
ATOM      5  C   UNL d   1      -0.440   1.134   0.159  0.00  0.00     0.123 C 
ATOM      6  C   UNL d   1      -1.217   0.000   0.172  0.00  0.00     0.083 C 
ENDROOT
BRANCH   4   7
ATOM      7  C   UNL d   1      -0.733  -2.470  -0.197  0.00  0.00     0.068 A 
ATOM      8  N   UNL d   1      -2.055  -2.836   0.045  0.00  0.00    -0.348 N 
ATOM      9  C   UNL d   1      -2.183  -4.147  -0.014  0.00  0.00     0.086 A 
ATOM     10  HN  UNL d   1      -2.815  -2.183   0.240  1.00  0.00     0.166 HD
ATOM     11  S   UNL d   1      -0.735  -4.994  -0.430  0.00  0.00    -0.081 SA
ATOM     12  C   UNL d   1       0.118  -3.516  -0.479  0.00  0.00     0.083 A 
BRANCH   9  13
ATOM     13  C   UNL d   1      -3.443  -4.878   0.202  0.00  0.00     0.013 A 
ATOM     14  C   UNL d   1      -4.662  -4.260  -0.063  0.00  0.00     0.101 A 
ATOM     15  N   UNL d   1      -5.877  -4.852   0.082  0.00  0.00    -0.374 N 
ATOM     16  C   UNL d   1      -5.883  -6.125   0.527  0.00  0.00     0.087 A 
ATOM     17  HN  UNL d   1      -6.743  -4.358  -0.137  1.00  0.00     0.164 HD
ATOM     18  C   UNL d   1      -4.734  -6.829   0.842  0.00  0.00     0.018 A 
ATOM     19  C   UNL d   1      -3.503  -6.194   0.678  0.00  0.00     0.017 A 
ENDBRANCH   9  13
ENDBRANCH   4   7
BRANCH   3  20
ATOM     20  C   UNL d   1       2.082   1.453   0.031  0.00  0.00     0.058 A 
ATOM     21  C   UNL d   1       3.197   1.045  -0.717  0.00  0.00     0.033 A 
ATOM     22  C   UNL d   1       4.374   1.800  -0.686  0.00  0.00     0.026 A 
ATOM     23  C   UNL d   1       4.452   2.934   0.121  0.00  0.00     0.034 A 
ATOM     24  C   UNL d   1       3.364   3.321   0.901  0.00  0.00     0.026 A 
ATOM     25 CL   UNL d   1       5.902   3.858   0.162  0.00  0.00    -0.084 Cl
ATOM     26  C   UNL d   1       2.176   2.585   0.854  0.00  0.00     0.033 A 
ENDBRANCH   3  20
BRANCH   5  27
ATOM     27  N   UNL d   1      -0.830   2.433   0.249  0.00  0.00    -0.384 N 
ATOM     28  H   UNL d   1      -0.243   3.160  -0.158  0.00  0.00     0.157 HD
ATOM     29  H   UNL d   1      -1.818   2.651   0.132  0.00  0.00     0.157 HD
ENDBRANCH   5  27
TORSDOF 4
