REMARK  5 active torsions:
REMARK  status: ('A' for Active; 'I' for Inactive)
REMARK    1  A    between atoms: C_7  and  N_1 
REMARK    2  A    between atoms: C_8  and  N_3 
REMARK    3  A    between atoms: N_13  and  C_4 
REMARK    4  A    between atoms: C_16  and  C_8 
REMARK    5  A    between atoms: O_18  and  C_15 
ROOT
ATOM      1  N   UNL d   1      -0.582   1.251   0.118  0.00  0.00    -0.253 N 
ATOM      2  C   UNL d   1      -1.364   0.077   0.199  0.00  0.00     0.338 C 
ATOM      3  N   UNL d   1      -0.677  -1.128   0.066  0.00  0.00    -0.262 N 
ATOM      4  C   UNL d   1       0.814   1.216   0.118  0.00  0.00     0.094 C 
ATOM      5  C   UNL d   1       0.689  -1.222  -0.065  0.00  0.00     0.254 C 
ATOM      6  C   UNL d   1       1.434   0.034   0.030  0.00  0.00     0.117 C 
ATOM      7  O   UNL d   1      -2.589   0.095   0.360  0.00  0.00    -0.246 OA
ATOM      8  O   UNL d   1       1.316  -2.266  -0.214  0.00  0.00    -0.268 OA
ENDROOT
BRANCH   1   9
ATOM      9  C   UNL d   1      -1.298   2.498   0.048  0.00  0.00     0.053 A 
ATOM     10  C   UNL d   1      -2.107   2.876   1.136  0.00  0.00     0.067 A 
ATOM     11  C   UNL d   1      -2.806   4.083   1.124  0.00  0.00     0.070 A 
ATOM     12  C   UNL d   1      -2.696   4.923   0.018  0.00  0.00     0.037 A 
ATOM     13  C   UNL d   1      -1.908   4.560  -1.074  0.00  0.00     0.012 A 
ATOM     14  C   UNL d   1      -1.212   3.340  -1.083  0.00  0.00    -0.034 A 
ATOM     15  C   UNL d   1      -0.450   2.994  -2.334  0.00  0.00     0.050 C 
BRANCH  11  16
ATOM     16  O   UNL d   1      -3.618   4.554   2.119  0.00  0.00    -0.356 OA
ATOM     17  C   UNL d   1      -3.791   3.716   3.255  0.00  0.00     0.210 C 
ENDBRANCH  11  16
ENDBRANCH   1   9
BRANCH   4  18
ATOM     18  N   UNL d   1       1.587   2.355   0.255  0.00  0.00    -0.288 NA
ATOM     19  H   UNL d   1       1.106   3.223   0.042  0.00  0.00     0.125 HD
ATOM     20  H   UNL d   1       2.524   2.301  -0.132  0.00  0.00     0.125 HD
ENDBRANCH   4  18
BRANCH   3  21
ATOM     21  C   UNL d   1      -1.449  -2.367   0.047  0.00  0.00     0.175 C 
BRANCH  21  22
ATOM     22  C   UNL d   1      -1.946  -2.730  -1.339  0.00  0.00    -0.040 A 
ATOM     23  C   UNL d   1      -1.159  -3.506  -2.204  0.00  0.00     0.009 A 
ATOM     24  C   UNL d   1      -1.610  -3.813  -3.490  0.00  0.00     0.001 A 
ATOM     25  C   UNL d   1      -2.849  -3.348  -3.927  0.00  0.00     0.000 A 
ATOM     26  C   UNL d   1      -3.644  -2.586  -3.074  0.00  0.00     0.001 A 
ATOM     27  C   UNL d   1      -3.196  -2.279  -1.788  0.00  0.00     0.009 A 
ENDBRANCH  21  22
ENDBRANCH   3  21
TORSDOF 5
