REMARK  1 active torsions:
REMARK  status: ('A' for Active; 'I' for Inactive)
REMARK    1  A    between atoms: C_4  and  N_1 
ROOT
ATOM      1  N   UNL d   1       0.368  -1.015  -0.036  0.00  0.00    -0.266 N 
ATOM      2  C   UNL d   1      -0.727  -0.168  -0.038  0.00  0.00     0.148 A 
ATOM      3  C   UNL d   1       1.625  -0.423  -0.092  0.00  0.00     0.239 A 
ATOM      4  S   UNL d   1      -0.197   1.505  -0.134  0.00  0.00    -0.090 SA
ATOM      5  S   UNL d   1      -2.354  -0.531   0.110  0.00  0.00    -0.052 SA
ATOM      6  C   UNL d   1       1.545   1.077  -0.051  0.00  0.00     0.185 A 
ATOM      7  O   UNL d   1       2.705  -1.004  -0.174  0.00  0.00    -0.272 OA
ENDROOT
BRANCH   1   8
ATOM      8  C   UNL d   1       0.261  -2.437  -0.016  0.00  0.00     0.050 A 
ATOM      9  C   UNL d   1       0.823  -3.210   1.020  0.00  0.00    -0.035 A 
ATOM     10  C   UNL d   1       1.525  -2.632   2.219  0.00  0.00     0.050 C 
ATOM     11  C   UNL d   1       0.694  -4.611   0.970  0.00  0.00     0.009 A 
ATOM     12  C   UNL d   1       0.017  -5.235  -0.077  0.00  0.00     0.001 A 
ATOM     13  C   UNL d   1      -0.536  -4.471  -1.097  0.00  0.00     0.002 A 
ATOM     14  C   UNL d   1      -0.414  -3.081  -1.069  0.00  0.00     0.031 A 
ENDBRANCH   1   8
TORSDOF 1
