REMARK  2 active torsions:
REMARK  status: ('A' for Active; 'I' for Inactive)
REMARK    1  A    between atoms: S_10  and  C_3 
REMARK    2  A    between atoms: C_7  and  C_4 
ROOT
ATOM      1  N   UNL d   1       1.213   0.556   0.034  0.00  0.00    -0.336 N 
ATOM      2  HN  UNL d   1       2.136   0.989   0.060  1.00  0.00     0.168 HD
ATOM      3  C   UNL d   1       0.096   1.303   0.023  0.00  0.00     0.144 A 
ATOM      4  C   UNL d   1       1.072  -0.787   0.008  0.00  0.00     0.047 A 
ATOM      5  N   UNL d   1      -1.151   0.808  -0.001  0.00  0.00    -0.347 N 
ATOM      6  HN  UNL d   1      -1.971   1.414  -0.009  1.00  0.00     0.167 HD
ATOM      7  C   UNL d   1      -0.178  -1.378  -0.009  0.00  0.00     0.047 A 
ATOM      8  C   UNL d   1      -1.259  -0.529  -0.012  0.00  0.00     0.092 A 
ENDROOT
BRANCH   4   9
ATOM      9  C   UNL d   1       2.323  -1.567   0.013  0.00  0.00     0.006 A 
ATOM     10  C   UNL d   1       3.485  -1.078   0.616  0.00  0.00     0.101 A 
ATOM     11  N   UNL d   1       4.668  -1.743   0.688  0.00  0.00    -0.374 N 
ATOM     12  C   UNL d   1       4.715  -2.961   0.114  0.00  0.00     0.087 A 
ATOM     13  HN  UNL d   1       5.480  -1.340   1.155  1.00  0.00     0.164 HD
ATOM     14  C   UNL d   1       3.638  -3.542  -0.529  0.00  0.00     0.018 A 
ATOM     15  C   UNL d   1       2.436  -2.835  -0.579  0.00  0.00     0.016 A 
ENDBRANCH   4   9
BRANCH   3  16
ATOM     16  S   UNL d   1       0.327   3.064   0.046  0.00  0.00    -0.098 SA
ATOM     17  C   UNL d   1      -1.394   3.622   0.003  0.00  0.00     0.099 C 
ENDBRANCH   3  16
TORSDOF 2
