REMARK  1 active torsions:
REMARK  status: ('A' for Active; 'I' for Inactive)
REMARK    1  A    between atoms: S_4  and  N_1 
ROOT
ATOM      1  N   UNL d   1       0.045  -0.130  -0.213  0.00  0.00    -0.181 N 
ATOM      2  C   UNL d   1      -0.649  -1.087   0.507  0.00  0.00     0.087 A 
ATOM      3  C   UNL d   1      -1.399  -2.173  -0.050  0.00  0.00     0.042 C 
ATOM      4  S   UNL d   1      -2.946  -1.884  -0.709  0.00  0.00    -0.087 SA
ATOM      5  C   UNL d   1      -1.066  -3.518  -0.088  0.00  0.00    -0.031 C 
ATOM      6  C   UNL d   1      -1.962  -4.248  -0.969  0.00  0.00    -0.010 A 
ATOM      7  C   UNL d   1      -3.058  -3.470  -1.348  0.00  0.00     0.016 A 
ATOM      8  N   UNL d   1       0.671   0.786   0.585  0.00  0.00    -0.295 N 
ATOM      9  HN  UNL d   1       1.240   1.585   0.304  1.00  0.00     0.187 HD
ATOM     10  C   UNL d   1      -0.439  -0.770   1.834  0.00  0.00     0.052 A 
ATOM     11  C   UNL d   1       0.362   0.386   1.819  0.00  0.00     0.111 A 
ATOM     12  C   UNL d   1      -1.889  -5.573  -1.472  0.00  0.00     0.037 A 
ATOM     13  C   UNL d   1      -4.092  -3.980  -2.158  0.00  0.00     0.021 A 
ATOM     14  C   UNL d   1      -2.884  -6.061  -2.324  0.00  0.00     0.035 A 
ATOM     15  C   UNL d   1       0.091  -4.159   0.618  0.00  0.00     0.050 C 
ATOM     16  C   UNL d   1      -3.984  -5.282  -2.650  0.00  0.00     0.025 A 
ATOM     17 CL   UNL d   1      -2.733  -7.642  -2.988  0.00  0.00    -0.084 Cl
ENDROOT
BRANCH   1  18
ATOM     18  S   UNL d   1       0.160  -0.109  -1.936  0.00  0.00     0.246 S 
ATOM     19  O   UNL d   1       0.760  -1.386  -2.294  0.00  0.00    -0.204 OA
ATOM     20  O   UNL d   1      -1.154   0.282  -2.410  0.00  0.00    -0.204 OA
ATOM     21  C   UNL d   1       1.296   1.176  -2.372  0.00  0.00     0.188 C 
ENDBRANCH   1  18
TORSDOF 1
