REMARK  6 active torsions:
REMARK  status: ('A' for Active; 'I' for Inactive)
REMARK    1  A    between atoms: N_3  and  C_1 
REMARK    2  A    between atoms: N_4  and  C_1 
REMARK    3  A    between atoms: C_2  and  N_3 
REMARK    4  A    between atoms: C_8  and  N_4 
REMARK    5  A    between atoms: O_14  and  C_6 
REMARK    6  A    between atoms: O_15  and  C_9 
ROOT
ATOM      1  C   UNL d   1       1.134   0.001  -0.000  0.00  0.00     0.176 C 
ATOM      2  S   UNL d   1       0.643  -1.566  -0.340  0.00  0.00    -0.041 SA
ENDROOT
BRANCH   1   3
ATOM      3  N   UNL d   1       2.466   0.403   0.180  0.00  0.00    -0.332 N 
ATOM      4  H   UNL d   1       2.573   0.920   1.042  0.00  0.00     0.168 HD
BRANCH   3   5
ATOM      5  C   UNL d   1       3.615  -0.292  -0.277  0.00  0.00     0.046 A 
ATOM      6  C   UNL d   1       3.769  -0.596  -1.651  0.00  0.00    -0.035 A 
ATOM      7  C   UNL d   1       4.901  -1.311  -2.077  0.00  0.00     0.009 A 
ATOM      8  C   UNL d   1       2.812  -0.151  -2.728  0.00  0.00     0.050 C 
ATOM      9  C   UNL d   1       5.901  -1.663  -1.180  0.00  0.00     0.001 A 
ATOM     10  C   UNL d   1       5.787  -1.293   0.155  0.00  0.00     0.009 A 
ATOM     11  C   UNL d   1       4.657  -0.597   0.626  0.00  0.00    -0.035 A 
ATOM     12  C   UNL d   1       4.639  -0.291   2.100  0.00  0.00     0.050 C 
ENDBRANCH   3   5
ENDBRANCH   1   3
BRANCH   1  13
ATOM     13  N   UNL d   1       0.319   1.128   0.150  0.00  0.00    -0.333 N 
ATOM     14  H   UNL d   1       0.789   1.978  -0.139  0.00  0.00     0.168 HD
BRANCH  13  15
ATOM     15  C   UNL d   1      -1.087   1.217   0.245  0.00  0.00     0.037 A 
ATOM     16  C   UNL d   1      -1.870   0.245   0.874  0.00  0.00     0.069 A 
ATOM     17  C   UNL d   1      -3.264   0.366   0.926  0.00  0.00     0.103 A 
ATOM     18  C   UNL d   1      -3.880   1.483   0.342  0.00  0.00     0.101 A 
ATOM     19  C   UNL d   1      -3.095   2.495  -0.220  0.00  0.00     0.042 A 
ATOM     20  C   UNL d   1      -1.704   2.365  -0.258  0.00  0.00     0.032 A 
BRANCH  17  21
ATOM     21  O   UNL d   1      -4.099  -0.551   1.519  0.00  0.00    -0.353 OA
ATOM     22  C   UNL d   1      -3.500  -1.716   2.071  0.00  0.00     0.210 C 
ENDBRANCH  17  21
BRANCH  18  23
ATOM     23  O   UNL d   1      -5.249   1.557   0.405  0.00  0.00    -0.353 OA
ATOM     24  C   UNL d   1      -5.872   2.122  -0.744  0.00  0.00     0.210 C 
ENDBRANCH  18  23
ENDBRANCH  13  15
ENDBRANCH   1  13
TORSDOF 6
