REMARK  6 active torsions:
REMARK  status: ('A' for Active; 'I' for Inactive)
REMARK    1  A    between atoms: N_17  and  C_5 
REMARK    2  A    between atoms: C_14  and  C_6 
REMARK    3  A    between atoms: O_22  and  C_7 
REMARK    4  A    between atoms: N_16  and  C_15 
REMARK    5  A    between atoms: C_24  and  N_16 
REMARK    6  A    between atoms: C_23  and  C_24 
ROOT
ATOM      1  C   UNL d   1       0.624  -0.141   0.462  0.00  0.00     0.095 A 
ATOM      2  C   UNL d   1      -1.359   0.110  -0.876  0.00  0.00     0.108 A 
ATOM      3  N   UNL d   1      -0.171   2.060  -0.057  0.00  0.00    -0.325 N 
ATOM      4  HN  UNL d   1      -0.081   3.075   0.001  1.00  0.00     0.169 HD
ATOM      5  C   UNL d   1       0.682   1.253   0.582  0.00  0.00     0.101 A 
ATOM      6  C   UNL d   1      -0.439  -0.770  -0.254  0.00  0.00     0.023 A 
ATOM      7  C   UNL d   1      -1.155   1.488  -0.780  0.00  0.00     0.165 A 
ATOM      8  C   UNL d   1       1.693  -0.868   1.079  0.00  0.00     0.103 C 
ATOM      9  C   UNL d   1      -2.549  -0.329  -1.549  0.00  0.00     0.104 C 
ATOM     10  N   UNL d   1      -3.510  -0.686  -2.093  0.00  0.00    -0.191 NA
ATOM     11  N   UNL d   1       2.578  -1.422   1.596  0.00  0.00    -0.191 NA
ENDROOT
BRANCH   5  12
ATOM     12  N   UNL d   1       1.525   1.898   1.479  0.00  0.00    -0.287 NA
ATOM     13  H   UNL d   1       1.441   2.905   1.370  0.00  0.00     0.125 HD
ATOM     14  H   UNL d   1       2.486   1.577   1.513  0.00  0.00     0.125 HD
ENDBRANCH   5  12
BRANCH   6  15
ATOM     15  C   UNL d   1      -0.587  -2.267  -0.301  0.00  0.00    -0.022 C 
ATOM     16  C   UNL d   1      -1.078  -2.971  -1.412  0.00  0.00     0.014 C 
ATOM     17  C   UNL d   1      -1.248  -4.374  -1.403  0.00  0.00     0.030 C 
ATOM     18  C   UNL d   1      -0.850  -5.173  -0.327  0.00  0.00     0.029 C 
ATOM     19  C   UNL d   1      -0.301  -4.471   0.749  0.00  0.00     0.030 C 
ATOM     20  C   UNL d   1      -0.243  -3.072   0.793  0.00  0.00     0.014 C 
BRANCH  18  21
ATOM     21  N   UNL d   1      -0.984  -6.553  -0.297  0.00  0.00    -0.384 N 
ATOM     22  C   UNL d   1      -1.392  -7.338  -1.460  0.00  0.00     0.149 C 
BRANCH  21  23
ATOM     23  C   UNL d   1      -0.895  -7.303   0.973  0.00  0.00     0.136 C 
BRANCH  23  24
ATOM     24  C   UNL d   1      -2.055  -6.975   1.920  0.00  0.00     0.143 C 
ATOM     25  C   UNL d   1      -1.987  -7.816   3.118  0.00  0.00     0.060 C 
ATOM     26  N   UNL d   1      -1.928  -8.480   4.067  0.00  0.00    -0.197 NA
ENDBRANCH  23  24
ENDBRANCH  21  23
ENDBRANCH  18  21
ENDBRANCH   6  15
BRANCH   7  27
ATOM     27  O   UNL d   1      -2.009   2.321  -1.477  0.00  0.00    -0.340 OA
ATOM     28  C   UNL d   1      -1.954   3.675  -1.037  0.00  0.00     0.211 C 
ENDBRANCH   7  27
TORSDOF 6
