REMARK  4 active torsions:
REMARK  status: ('A' for Active; 'I' for Inactive)
REMARK    1  A    between atoms: C_9  and  C_1 
REMARK    2  A    between atoms: C_8  and  C_3 
REMARK    3  A    between atoms: O_28  and  C_9 
REMARK    4  A    between atoms: C_11  and  C_10 
ROOT
ATOM      1  C   UNL d   1       2.101  -1.330  -0.014  0.00  0.00     0.052 A 
ATOM      2  C   UNL d   1      -0.318  -0.497   0.029  0.00  0.00     0.023 A 
ATOM      3  C   UNL d   1       0.610  -1.705  -0.082  0.00  0.00     0.098 A 
ATOM      4  C   UNL d   1       0.168   0.761   0.061  0.00  0.00     0.021 A 
ATOM      5  C   UNL d   1       2.489  -0.032   0.074  0.00  0.00     0.018 A 
ATOM      6  N   UNL d   1       1.530   0.972   0.087  0.00  0.00    -0.362 N 
ATOM      7  C   UNL d   1      -1.797  -0.696   0.048  0.00  0.00     0.159 C 
ATOM      8  C   UNL d   1      -2.146   1.710  -0.447  0.00  0.00     0.056 C 
ATOM      9  C   UNL d   1      -0.708   1.997   0.017  0.00  0.00     0.069 C 
ATOM     10  C   UNL d   1      -2.670   0.508   0.332  0.00  0.00     0.095 C 
ATOM     11  O   UNL d   1      -2.303  -1.796  -0.162  0.00  0.00    -0.293 OA
ATOM     12  C   UNL d   1       3.908   0.482   0.135  0.00  0.00     0.069 C 
ATOM     13  H   UNL d   1       1.862   1.934   0.089  0.00  0.00     0.165 HD
ENDROOT
BRANCH   3  14
ATOM     14  C   UNL d   1       0.240  -2.811   0.911  0.00  0.00    -0.042 A 
ATOM     15  C   UNL d   1       0.255  -2.594   2.297  0.00  0.00     0.048 A 
ATOM     16  C   UNL d   1      -0.158  -3.627   3.115  0.00  0.00     0.105 A 
ATOM     17  O   UNL d   1      -0.249  -3.575   4.471  0.00  0.00    -0.323 OA
ATOM     18  C   UNL d   1      -0.548  -4.847   2.612  0.00  0.00     0.105 A 
ATOM     19  C   UNL d   1      -0.807  -4.876   4.751  0.00  0.00     0.352 A 
ATOM     20  O   UNL d   1      -0.926  -5.716   3.587  0.00  0.00    -0.323 OA
ATOM     21  C   UNL d   1      -0.552  -5.109   1.262  0.00  0.00     0.040 A 
ATOM     22  C   UNL d   1      -0.165  -4.077   0.408  0.00  0.00     0.011 A 
ENDBRANCH   3  14
BRANCH   1  23
ATOM     23  C   UNL d   1       3.084  -2.448  -0.044  0.00  0.00     0.291 C 
ATOM     24  O   UNL d   1       4.150  -2.458   0.552  0.00  0.00    -0.260 OA
BRANCH  23  25
ATOM     25  O   UNL d   1       2.609  -3.459  -0.815  0.00  0.00    -0.323 OA
ATOM     26  C   UNL d   1       3.352  -4.679  -0.760  0.00  0.00     0.213 C 
ENDBRANCH  23  25
ENDBRANCH   1  23
BRANCH   8  27
ATOM     27  C   UNL d   1      -2.234   1.514  -1.937  0.00  0.00     0.057 A 
ATOM     28  O   UNL d   1      -1.814   2.557  -2.709  0.00  0.00    -0.327 OA
ATOM     29  C   UNL d   1      -1.937   2.170  -4.004  0.00  0.00     0.142 A 
ATOM     30  C   UNL d   1      -2.442   0.899  -4.084  0.00  0.00     0.027 A 
ATOM     31  C   UNL d   1      -2.654   0.476  -2.753  0.00  0.00     0.035 A 
ENDBRANCH   8  27
TORSDOF 4
