REMARK  3 active torsions:
REMARK  status: ('A' for Active; 'I' for Inactive)
REMARK    1  A    between atoms: C_2  and  O_1 
REMARK    2  A    between atoms: C_3  and  O_1 
REMARK    3  A    between atoms: C_4  and  C_3 
ROOT
ATOM      1  C   UNL d   1       2.253  -0.075   0.095  0.00  0.00     0.298 C 
ATOM      2  O   UNL d   1       2.618   0.253  -1.020  0.00  0.00    -0.259 OA
ENDROOT
BRANCH   1   3
ATOM      3  O   UNL d   1       0.970  -0.402   0.493  0.00  0.00    -0.271 OA
BRANCH   3   4
ATOM      4  C   UNL d   1       0.066  -0.670  -0.543  0.00  0.00     0.122 A 
ATOM      5  C   UNL d   1       0.128  -1.887  -1.232  0.00  0.00     0.069 A 
ATOM      6 CL   UNL d   1       1.374  -3.044  -0.929  0.00  0.00    -0.081 Cl
ATOM      7  C   UNL d   1      -0.870  -2.216  -2.149  0.00  0.00     0.027 A 
ATOM      8  C   UNL d   1      -1.939  -1.343  -2.364  0.00  0.00     0.003 A 
ATOM      9  C   UNL d   1      -2.004  -0.133  -1.669  0.00  0.00     0.027 A 
ATOM     10  C   UNL d   1      -1.002   0.205  -0.756  0.00  0.00     0.069 A 
ATOM     11 CL   UNL d   1      -1.140   1.685   0.118  0.00  0.00    -0.081 Cl
ENDBRANCH   3   4
ENDBRANCH   1   3
BRANCH   1  12
ATOM     12  C   UNL d   1       3.165  -0.281   1.259  0.00  0.00     0.041 A 
ATOM     13  C   UNL d   1       2.679  -0.588   2.539  0.00  0.00     0.043 A 
ATOM     14  C   UNL d   1       3.564  -0.863   3.587  0.00  0.00     0.056 A 
ATOM     15 CL   UNL d   1       2.881  -1.261   5.123  0.00  0.00    -0.083 Cl
ATOM     16  C   UNL d   1       4.944  -0.824   3.365  0.00  0.00     0.055 A 
ATOM     17  C   UNL d   1       5.433  -0.501   2.095  0.00  0.00     0.026 A 
ATOM     18 CL   UNL d   1       6.090  -1.173   4.609  0.00  0.00    -0.083 Cl
ATOM     19  C   UNL d   1       4.548  -0.230   1.045  0.00  0.00     0.019 A 
ENDBRANCH   1  12
TORSDOF 3
