REMARK  2 active torsions:
REMARK  status: ('A' for Active; 'I' for Inactive)
REMARK       I    between atoms: N_2  and  C_1 
REMARK       I    between atoms: N_5  and  C_1 
REMARK    1  A    between atoms: C_3  and  N_2 
REMARK    2  A    between atoms: C_6  and  N_5 
ROOT
ATOM      1  C   UNL d   1       1.056  -0.327   0.123  0.00  0.00     0.321 C 
ATOM      2  N   UNL d   1       2.402  -0.290  -0.181  0.00  0.00    -0.308 N 
ATOM      3  N   UNL d   1       0.323  -0.730  -0.975  0.00  0.00    -0.338 N 
ATOM      4  O   UNL d   1       0.558  -0.004   1.193  0.00  0.00    -0.247 OA
ATOM      5  H   UNL d   1       2.587  -0.070  -1.146  0.00  0.00     0.170 HD
ATOM      6  H   UNL d   1       0.804  -1.368  -1.592  0.00  0.00     0.164 HD
ENDROOT
BRANCH   2   7
ATOM      7  C   UNL d   1       3.417  -0.005   0.764  0.00  0.00     0.043 A 
ATOM      8  C   UNL d   1       4.516   0.808   0.418  0.00  0.00    -0.013 A 
ATOM      9  C   UNL d   1       5.555   0.963   1.361  0.00  0.00     0.042 A 
ATOM     10  C   UNL d   1       4.587   1.550  -0.892  0.00  0.00     0.052 C 
ATOM     11 CL   UNL d   1       6.961   1.914   1.020  0.00  0.00    -0.084 Cl
ATOM     12  C   UNL d   1       5.490   0.355   2.618  0.00  0.00     0.024 A 
ATOM     13  C   UNL d   1       4.387  -0.418   2.959  0.00  0.00     0.004 A 
ATOM     14  C   UNL d   1       3.357  -0.597   2.036  0.00  0.00     0.030 A 
ENDBRANCH   2   7
BRANCH   3  15
ATOM     15  C   UNL d   1      -1.135  -0.798  -0.975  0.00  0.00     0.094 C 
ATOM     16  C   UNL d   1      -1.837   0.576  -0.864  0.00  0.00     0.064 C 
ATOM     17  C   UNL d   1      -3.132   0.213  -0.202  0.00  0.00    -0.050 A 
ATOM     18  C   UNL d   1      -4.254   1.012  -0.043  0.00  0.00     0.007 A 
ATOM     19  C   UNL d   1      -3.087  -1.077   0.335  0.00  0.00    -0.050 A 
ATOM     20  C   UNL d   1      -5.342   0.496   0.661  0.00  0.00     0.001 A 
ATOM     21  C   UNL d   1      -5.298  -0.801   1.199  0.00  0.00     0.001 A 
ATOM     22  C   UNL d   1      -4.161  -1.593   1.040  0.00  0.00     0.007 A 
ATOM     23  C   UNL d   1      -1.753  -1.720   0.103  0.00  0.00     0.064 C 
ENDBRANCH   3  15
TORSDOF 2
