REMARK  7 active torsions:
REMARK  status: ('A' for Active; 'I' for Inactive)
REMARK    1  A    between atoms: N_2  and  C_1 
REMARK    2  A    between atoms: S_5  and  C_3 
REMARK    3  A    between atoms: C_8  and  S_5 
REMARK    4  A    between atoms: C_10  and  C_6 
REMARK    5  A    between atoms: O_17  and  N_11 
REMARK    6  A    between atoms: C_26  and  O_17 
REMARK    7  A    between atoms: C_19  and  C_26 
ROOT
ATOM      1  C   UNL d   1      -4.329   4.428   0.728  0.00  0.00     0.120 A 
ATOM      2  C   UNL d   1      -5.282   3.433   0.463  0.00  0.00     0.040 A 
ATOM      3  C   UNL d   1      -2.950   4.153   0.716  0.00  0.00     0.051 A 
ATOM      4  C   UNL d   1      -2.502   2.853   0.464  0.00  0.00    -0.010 A 
ATOM      5  C   UNL d   1      -4.811   2.129   0.239  0.00  0.00     0.022 A 
ATOM      6  C   UNL d   1      -3.437   1.839   0.240  0.00  0.00     0.015 A 
ENDROOT
BRANCH   4   7
ATOM      7  C   UNL d   1      -1.032   2.603   0.374  0.00  0.00     0.038 C 
ATOM      8  N   UNL d   1      -0.276   3.561  -0.079  0.00  0.00    -0.270 N 
ATOM      9  HN  UNL d   1      -0.615   4.481  -0.358  1.00  0.00     0.194 HD
ATOM     10  C   UNL d   1      -0.482   1.249   0.778  0.00  0.00     0.071 C 
BRANCH   8  11
ATOM     11  O   UNL d   1       1.069   3.160  -0.132  0.00  0.00    -0.276 OA
BRANCH  11  12
ATOM     12  C   UNL d   1       1.749   3.951  -1.108  0.00  0.00     0.239 C 
BRANCH  12  13
ATOM     13  C   UNL d   1       3.185   3.495  -1.177  0.00  0.00    -0.032 A 
ATOM     14  C   UNL d   1       3.698   2.912  -2.345  0.00  0.00     0.011 A 
ATOM     15  C   UNL d   1       5.024   2.475  -2.394  0.00  0.00     0.019 A 
ATOM     16  C   UNL d   1       5.843   2.622  -1.278  0.00  0.00     0.011 A 
ATOM     17  C   UNL d   1       5.351   3.206  -0.112  0.00  0.00     0.019 A 
ATOM     18 BR   UNL d   1       7.633   2.017  -1.339  0.00  0.00    -0.051 Br
ATOM     19  C   UNL d   1       4.025   3.641  -0.064  0.00  0.00     0.011 A 
ENDBRANCH  12  13
ENDBRANCH  11  12
ENDBRANCH   8  11
ENDBRANCH   4   7
BRANCH   1  20
ATOM     20  N   UNL d   1      -4.721   5.779   1.070  0.00  0.00    -0.114 N 
ATOM     21  O   UNL d   1      -5.457   5.923   2.059  0.00  0.00    -0.532 OA
ATOM     22  O   UNL d   1      -4.233   6.700   0.404  0.00  0.00    -0.532 OA
ENDBRANCH   1  20
BRANCH   2  23
ATOM     23  S   UNL d   1      -7.052   3.680   0.381  0.00  0.00    -0.070 SA
BRANCH  23  24
ATOM     24  C   UNL d   1      -7.263   4.585  -1.149  0.00  0.00     0.074 A 
ATOM     25  N   UNL d   1      -6.164   5.065  -1.771  0.00  0.00    -0.360 N 
ATOM     26  C   UNL d   1      -6.354   5.769  -2.911  0.00  0.00     0.089 A 
ATOM     27  HN  UNL d   1      -5.228   4.903  -1.397  1.00  0.00     0.166 HD
ATOM     28  C   UNL d   1      -7.596   5.999  -3.479  0.00  0.00     0.017 A 
ATOM     29  C   UNL d   1      -8.714   5.484  -2.832  0.00  0.00     0.004 A 
ATOM     30  C   UNL d   1      -8.548   4.776  -1.646  0.00  0.00     0.037 A 
ENDBRANCH  23  24
ENDBRANCH   2  23
TORSDOF 7
