REMARK  6 active torsions:
REMARK  status: ('A' for Active; 'I' for Inactive)
REMARK    1  A    between atoms: N_2  and  C_1 
REMARK    2  A    between atoms: N_3  and  C_1 
REMARK    3  A    between atoms: C_8  and  N_2 
REMARK    4  A    between atoms: C_12  and  N_2 
REMARK    5  A    between atoms: C_7  and  N_3 
REMARK    6  A    between atoms: C_9  and  C_12 
ROOT
ATOM      1  N   UNL d   1       0.395  -0.692  -4.591  0.00  0.00    -0.197 NA
ATOM      2  C   UNL d   1       0.967  -0.018  -3.840  0.00  0.00     0.060 C 
ATOM      3  C   UNL d   1       1.708   0.818  -2.864  0.00  0.00     0.143 C 
ENDROOT
BRANCH   3   4
ATOM      4  C   UNL d   1       0.786   1.514  -1.854  0.00  0.00     0.139 C 
BRANCH   4   5
ATOM      5  N   UNL d   1       0.045   0.540  -1.036  0.00  0.00    -0.353 N 
BRANCH   5   6
ATOM      6  C   UNL d   1       0.707  -0.212  -0.040  0.00  0.00     0.174 C 
ATOM      7  S   UNL d   1       1.790   0.430   1.064  0.00  0.00    -0.041 SA
BRANCH   6   8
ATOM      8  N   UNL d   1       0.410  -1.556  -0.203  0.00  0.00    -0.333 N 
ATOM      9  H   UNL d   1       0.261  -1.819  -1.170  0.00  0.00     0.168 HD
BRANCH   8  10
ATOM     10  C   UNL d   1       0.369  -2.602   0.735  0.00  0.00     0.034 A 
ATOM     11  C   UNL d   1       0.074  -2.391   2.083  0.00  0.00     0.031 A 
ATOM     12  C   UNL d   1      -0.170  -3.479   2.927  0.00  0.00     0.026 A 
ATOM     13  C   UNL d   1      -0.096  -4.777   2.427  0.00  0.00     0.034 A 
ATOM     14  C   UNL d   1       0.252  -5.000   1.098  0.00  0.00     0.026 A 
ATOM     15 CL   UNL d   1      -0.485  -6.109   3.445  0.00  0.00    -0.084 Cl
ATOM     16  C   UNL d   1       0.474  -3.912   0.250  0.00  0.00     0.031 A 
ENDBRANCH   8  10
ENDBRANCH   6   8
ENDBRANCH   5   6
BRANCH   5  17
ATOM     17  C   UNL d   1      -1.408   0.752  -0.841  0.00  0.00     0.078 C 
ATOM     18  C   UNL d   1      -1.690   1.962   0.062  0.00  0.00     0.032 C 
ATOM     19  C   UNL d   1      -2.174   0.848  -2.161  0.00  0.00     0.032 C 
ENDBRANCH   5  17
ENDBRANCH   4   5
ENDBRANCH   3   4
TORSDOF 6
