REMARK  7 active torsions:
REMARK  status: ('A' for Active; 'I' for Inactive)
REMARK    1  A    between atoms: C_2  and  C_1 
REMARK       I    between atoms: N_5  and  C_1 
REMARK    2  A    between atoms: S_4  and  C_3 
REMARK    3  A    between atoms: C_6  and  S_4 
REMARK    4  A    between atoms: C_9  and  N_5 
REMARK    5  A    between atoms: C_17  and  C_7 
REMARK    6  A    between atoms: O_16  and  C_10 
REMARK    7  A    between atoms: O_19  and  C_17 
ROOT
ATOM      1  C   UNL d   1       0.273   0.943   1.012  0.00  0.00     0.049 A 
ATOM      2  C   UNL d   1       0.759   2.232   0.709  0.00  0.00     0.021 A 
ATOM      3  C   UNL d   1      -0.958   0.810   1.692  0.00  0.00     0.018 A 
ATOM      4  C   UNL d   1      -0.031   3.345   1.060  0.00  0.00     0.020 A 
ATOM      5  C   UNL d   1      -1.721   1.923   2.032  0.00  0.00     0.001 A 
ATOM      6  C   UNL d   1      -1.260   3.192   1.709  0.00  0.00     0.001 A 
ENDROOT
BRANCH   1   7
ATOM      7  C   UNL d   1       0.933  -0.355   0.672  0.00  0.00     0.257 C 
ATOM      8  N   UNL d   1       1.589  -0.414  -0.540  0.00  0.00    -0.323 N 
ATOM      9  H   UNL d   1       1.700   0.459  -1.042  0.00  0.00     0.169 HD
ATOM     10  O   UNL d   1       0.820  -1.275   1.474  0.00  0.00    -0.267 OA
BRANCH   8  11
ATOM     11  C   UNL d   1       2.199  -1.547  -1.123  0.00  0.00     0.035 A 
ATOM     12  C   UNL d   1       2.073  -2.845  -0.625  0.00  0.00     0.032 A 
ATOM     13  C   UNL d   1       2.735  -3.920  -1.238  0.00  0.00     0.039 A 
ATOM     14  C   UNL d   1       3.539  -3.705  -2.355  0.00  0.00     0.068 A 
ATOM     15  C   UNL d   1       3.632  -2.416  -2.882  0.00  0.00     0.039 A 
ATOM     16  C   UNL d   1       2.965  -1.345  -2.276  0.00  0.00     0.032 A 
BRANCH  14  17
ATOM     17  O   UNL d   1       4.271  -4.652  -3.014  0.00  0.00    -0.356 OA
ATOM     18  C   UNL d   1       4.345  -5.939  -2.412  0.00  0.00     0.210 C 
ENDBRANCH  14  17
ENDBRANCH   8  11
ENDBRANCH   1   7
BRANCH   2  19
ATOM     19  S   UNL d   1       2.263   2.597  -0.196  0.00  0.00    -0.089 SA
BRANCH  19  20
ATOM     20  C   UNL d   1       3.496   2.817   1.089  0.00  0.00     0.014 A 
ATOM     21  C   UNL d   1       4.214   4.021   1.274  0.00  0.00    -0.018 A 
ATOM     22  C   UNL d   1       5.291   4.041   2.187  0.00  0.00     0.011 A 
ATOM     23  C   UNL d   1       5.640   2.910   2.921  0.00  0.00     0.001 A 
ATOM     24  C   UNL d   1       4.915   1.739   2.759  0.00  0.00     0.001 A 
ATOM     25  C   UNL d   1       3.859   1.691   1.845  0.00  0.00     0.019 A 
BRANCH  21  26
ATOM     26  C   UNL d   1       3.934   5.303   0.525  0.00  0.00     0.204 C 
BRANCH  26  27
ATOM     27  O   UNL d   1       3.677   6.379   1.428  0.00  0.00    -0.396 OA
ATOM     28  H   UNL d   1       3.469   5.997   2.298  0.00  0.00     0.209 HD
ENDBRANCH  26  27
ENDBRANCH  21  26
ENDBRANCH  19  20
ENDBRANCH   2  19
TORSDOF 7
