REMARK  9 active torsions:
REMARK  status: ('A' for Active; 'I' for Inactive)
REMARK    1  A    between atoms: N_2  and  S_1 
REMARK    2  A    between atoms: C_4  and  S_1 
REMARK    3  A    between atoms: C_5  and  N_2 
REMARK    4  A    between atoms: C_13  and  N_2 
REMARK       I    between atoms: C_3  and  N_6 
REMARK    5  A    between atoms: C_14  and  C_3 
REMARK    6  A    between atoms: C_8  and  C_5 
REMARK    7  A    between atoms: N_6  and  N_12 
REMARK    8  A    between atoms: C_7  and  C_11 
REMARK       I    between atoms: N_12  and  C_7 
REMARK    9  A    between atoms: C_11  and  C_13 
ROOT
ATOM      1  N   UNL d   1       0.378   1.524  -0.005  0.00  0.00    -0.200 NA
ENDROOT
BRANCH   1   2
ATOM      2  S   UNL d   1       1.132  -0.012  -0.174  0.00  0.00     0.244 S 
ATOM      3  O   UNL d   1       0.899  -0.723   1.069  0.00  0.00    -0.206 OA
ATOM      4  O   UNL d   1       2.478   0.230  -0.652  0.00  0.00    -0.206 OA
BRANCH   2   5
ATOM      5  C   UNL d   1       0.314  -0.908  -1.470  0.00  0.00     0.074 A 
ATOM      6  C   UNL d   1       0.333  -0.415  -2.777  0.00  0.00     0.026 A 
ATOM      7  C   UNL d   1      -0.116  -1.228  -3.824  0.00  0.00     0.025 A 
ATOM      8  C   UNL d   1      -0.568  -2.524  -3.558  0.00  0.00     0.034 A 
ATOM      9  C   UNL d   1      -0.608  -3.007  -2.251  0.00  0.00     0.025 A 
ATOM     10 CL   UNL d   1      -1.037  -3.550  -4.857  0.00  0.00    -0.084 Cl
ATOM     11  C   UNL d   1      -0.171  -2.198  -1.200  0.00  0.00     0.026 A 
ENDBRANCH   2   5
ENDBRANCH   1   2
BRANCH   1  12
ATOM     12  C   UNL d   1      -1.123   1.438   0.099  0.00  0.00     0.172 C 
BRANCH  12  13
ATOM     13  C   UNL d   1      -1.742   2.797   0.183  0.00  0.00     0.066 A 
ATOM     14  O   UNL d   1      -2.455   3.065   1.319  0.00  0.00    -0.326 OA
ATOM     15  C   UNL d   1      -2.880   4.351   1.234  0.00  0.00     0.142 A 
ATOM     16  C   UNL d   1      -2.454   4.921   0.058  0.00  0.00     0.027 A 
ATOM     17  C   UNL d   1      -1.729   3.914  -0.629  0.00  0.00     0.036 A 
ENDBRANCH  12  13
ENDBRANCH   1  12
BRANCH   1  18
ATOM     18  C   UNL d   1       0.936   2.295   1.191  0.00  0.00     0.117 C 
BRANCH  18  19
ATOM     19  C   UNL d   1       2.444   2.512   1.222  0.00  0.00     0.120 C 
BRANCH  19  20
ATOM     20  C   UNL d   1       2.897   3.513   0.190  0.00  0.00     0.237 C 
ATOM     21  N   UNL d   1       3.385   2.978  -0.979  0.00  0.00    -0.267 N 
ATOM     22  H   UNL d   1       3.436   1.970  -1.159  0.00  0.00     0.190 HD
ATOM     23  O   UNL d   1       2.824   4.730   0.381  0.00  0.00    -0.272 OA
BRANCH  21  24
ATOM     24  N   UNL d   1       3.849   3.855  -1.975  0.00  0.00    -0.263 N 
ATOM     25  C   UNL d   1       4.810   3.407  -2.859  0.00  0.00     0.270 C 
ATOM     26  O   UNL d   1       5.272   2.271  -2.846  0.00  0.00    -0.266 OA
ATOM     27  H   UNL d   1       3.743   4.848  -1.764  0.00  0.00     0.190 HD
BRANCH  25  28
ATOM     28  C   UNL d   1       5.262   4.383  -3.890  0.00  0.00     0.033 A 
ATOM     29  C   UNL d   1       6.573   4.299  -4.381  0.00  0.00     0.019 A 
ATOM     30  C   UNL d   1       6.987   5.125  -5.432  0.00  0.00     0.025 A 
ATOM     31  C   UNL d   1       6.087   6.025  -6.002  0.00  0.00     0.034 A 
ATOM     32  C   UNL d   1       4.783   6.121  -5.515  0.00  0.00     0.025 A 
ATOM     33 CL   UNL d   1       6.578   7.003  -7.329  0.00  0.00    -0.084 Cl
ATOM     34  C   UNL d   1       4.369   5.304  -4.457  0.00  0.00     0.019 A 
ENDBRANCH  25  28
ENDBRANCH  21  24
ENDBRANCH  19  20
ENDBRANCH  18  19
ENDBRANCH   1  18
TORSDOF 9
