REMARK  3 active torsions:
REMARK  status: ('A' for Active; 'I' for Inactive)
REMARK    1  A    between atoms: N_2  and  C_5 
REMARK    2  A    between atoms: C_6  and  C_3 
REMARK       I    between atoms: N_8  and  C_6 
REMARK    3  A    between atoms: C_10  and  N_8 
ROOT
ATOM      1  N   UNL d   1      -1.605   0.945  -0.307  0.00  0.00    -0.349 N 
ATOM      2  C   UNL d   1      -2.359  -0.209  -0.298  0.00  0.00     0.102 A 
ATOM      3  C   UNL d   1      -0.261   0.664  -0.201  0.00  0.00     0.076 A 
ATOM      4  C   UNL d   1       0.861   1.513  -0.178  0.00  0.00     0.130 A 
ATOM      5  C   UNL d   1      -1.467  -1.259  -0.178  0.00  0.00     0.049 A 
ATOM      6  C   UNL d   1      -0.148  -0.723  -0.121  0.00  0.00    -0.005 A 
ATOM      7  C   UNL d   1       2.132   0.915  -0.073  0.00  0.00     0.038 A 
ATOM      8  C   UNL d   1       1.134  -1.297  -0.021  0.00  0.00     0.014 A 
ATOM      9  C   UNL d   1       2.261  -0.471   0.006  0.00  0.00     0.003 A 
ATOM     10  H   UNL d   1      -2.000   1.879  -0.388  0.00  0.00     0.166 HD
ENDROOT
BRANCH   2  11
ATOM     11  C   UNL d   1      -3.798  -0.167  -0.438  0.00  0.00     0.273 C 
ATOM     12  N   UNL d   1      -4.450  -1.311  -0.041  0.00  0.00    -0.308 N 
ATOM     13  H   UNL d   1      -3.978  -1.934   0.596  0.00  0.00     0.170 HD
ATOM     14  O   UNL d   1      -4.355   0.858  -0.826  0.00  0.00    -0.266 OA
BRANCH  12  15
ATOM     15  C   UNL d   1      -5.837  -1.469  -0.050  0.00  0.00     0.108 A 
ATOM     16  N   UNL d   1      -6.322  -2.248   0.939  0.00  0.00    -0.346 N 
ATOM     17  C   UNL d   1      -7.670  -2.345   1.055  0.00  0.00     0.007 A 
ATOM     18  HN  UNL d   1      -5.699  -2.744   1.576  1.00  0.00     0.167 HD
ATOM     19  C   UNL d   1      -8.210  -3.074   2.249  0.00  0.00     0.068 C 
ATOM     20  C   UNL d   1      -8.550  -1.748   0.157  0.00  0.00     0.025 A 
ATOM     21  C   UNL d   1      -8.027  -1.016  -0.900  0.00  0.00     0.006 A 
ATOM     22  C   UNL d   1      -6.649  -0.865  -1.002  0.00  0.00     0.049 A 
ENDBRANCH  12  15
ENDBRANCH   2  11
BRANCH   4  23
ATOM     23  N   UNL d   1       0.769   2.977  -0.270  0.00  0.00    -0.113 N 
ATOM     24  O   UNL d   1      -0.365   3.468  -0.360  0.00  0.00    -0.532 OA
ATOM     25  O   UNL d   1       1.821   3.632  -0.252  0.00  0.00    -0.532 OA
ENDBRANCH   4  23
TORSDOF 3
