REMARK  2 active torsions:
REMARK  status: ('A' for Active; 'I' for Inactive)
REMARK    1  A    between atoms: C_2  and  C_1 
REMARK    2  A    between atoms: O_14  and  N_9 
ROOT
ATOM      1  C   UNL d   1      -3.516   1.937   0.093  0.00  0.00     0.001 C 
ATOM      2  C   UNL d   1      -3.132   2.558  -1.278  0.00  0.00     0.020 C 
ATOM      3  C   UNL d   1      -2.905   2.822   1.208  0.00  0.00     0.020 C 
ATOM      4  C   UNL d   1      -5.059   1.973   0.217  0.00  0.00     0.020 C 
ATOM      5  C   UNL d   1      -5.579   3.418   0.106  0.00  0.00    -0.013 C 
ATOM      6  C   UNL d   1      -3.646   4.000  -1.396  0.00  0.00    -0.013 C 
ATOM      7  C   UNL d   1      -3.422   4.268   1.097  0.00  0.00    -0.013 C 
ATOM      8  C   UNL d   1      -5.176   4.000  -1.258  0.00  0.00     0.009 C 
ATOM      9  C   UNL d   1      -4.955   4.269   1.225  0.00  0.00     0.009 C 
ATOM     10  C   UNL d   1      -3.029   4.846  -0.271  0.00  0.00     0.009 C 
ENDROOT
BRANCH   1  11
ATOM     11  C   UNL d   1      -2.995   0.488   0.209  0.00  0.00     0.014 C 
ATOM     12  N   UNL d   1      -2.339  -0.026  -0.792  0.00  0.00    -0.277 N 
ATOM     13  HN  UNL d   1      -2.142   0.470  -1.661  1.00  0.00     0.193 HD
ATOM     14  C   UNL d   1      -3.264  -0.290   1.482  0.00  0.00     0.066 C 
BRANCH  12  15
ATOM     15  O   UNL d   1      -1.936  -1.340  -0.533  0.00  0.00    -0.290 OA
ATOM     16  H   UNL d   1      -1.467  -1.579  -1.354  0.00  0.00     0.244 HD
ENDBRANCH  12  15
ENDBRANCH   1  11
TORSDOF 2
