REMARK  2 active torsions:
REMARK  status: ('A' for Active; 'I' for Inactive)
REMARK    1  A    between atoms: C_2  and  C_1 
REMARK       I    between atoms: N_5  and  C_2 
REMARK    2  A    between atoms: O_19  and  C_15 
ROOT
ATOM      1  C   UNL d   1       5.656  -1.927   0.647  0.00  0.00     0.246 C 
ATOM      2  N   UNL d   1       4.875  -2.827  -0.118  0.00  0.00    -0.214 NA
ATOM      3  C   UNL d   1       5.298  -4.210  -0.058  0.00  0.00     0.024 A 
ATOM      4  C   UNL d   1       4.375  -5.261   0.088  0.00  0.00    -0.034 A 
ATOM      5  C   UNL d   1       6.665  -4.528  -0.150  0.00  0.00     0.027 A 
ATOM      6  O   UNL d   1       5.946  -2.180   1.815  0.00  0.00    -0.273 OA
ATOM      7  C   UNL d   1       4.840  -6.580   0.232  0.00  0.00     0.045 A 
ATOM      8  C   UNL d   1       3.431  -2.601   0.027  0.00  0.00     0.105 C 
ATOM      9  C   UNL d   1       6.195  -6.879   0.147  0.00  0.00     0.068 A 
ATOM     10  C   UNL d   1       7.113  -5.852  -0.049  0.00  0.00     0.038 A 
ATOM     11  C   UNL d   1       2.901  -5.011   0.185  0.00  0.00     0.042 C 
ATOM     12  C   UNL d   1       2.554  -3.715  -0.520  0.00  0.00     0.020 C 
ENDROOT
BRANCH   1  13
ATOM     13  C   UNL d   1       6.138  -0.714   0.009  0.00  0.00     0.090 C 
ATOM     14  S   UNL d   1       7.813  -0.645  -0.333  0.00  0.00    -0.083 SA
ATOM     15  C   UNL d   1       7.795   1.060  -0.512  0.00  0.00     0.017 A 
ATOM     16  C   UNL d   1       8.917   1.903  -0.675  0.00  0.00     0.020 A 
ATOM     17  C   UNL d   1       6.496   1.566  -0.461  0.00  0.00     0.004 A 
ATOM     18  C   UNL d   1       8.723   3.282  -0.764  0.00  0.00     0.001 A 
ATOM     19  C   UNL d   1       7.444   3.814  -0.737  0.00  0.00     0.001 A 
ATOM     20  C   UNL d   1       6.332   2.972  -0.601  0.00  0.00     0.014 A 
ATOM     21  C   UNL d   1       5.538   0.515  -0.184  0.00  0.00     0.067 C 
ATOM     22 CL   UNL d   1       3.875   0.876   0.052  0.00  0.00    -0.082 Cl
ENDBRANCH   1  13
BRANCH   9  23
ATOM     23  O   UNL d   1       6.517  -8.194   0.325  0.00  0.00    -0.356 OA
ATOM     24  C   UNL d   1       7.567  -8.669  -0.508  0.00  0.00     0.210 C 
ENDBRANCH   9  23
TORSDOF 2
