REMARK  5 active torsions:
REMARK  status: ('A' for Active; 'I' for Inactive)
REMARK    1  A    between atoms: O_2  and  C_1 
REMARK    2  A    between atoms: C_9  and  O_2 
REMARK    3  A    between atoms: C_4  and  C_9 
REMARK    4  A    between atoms: O_12  and  C_4 
REMARK    5  A    between atoms: O_13  and  C_7 
ROOT
ATOM      1  C   UNL d   1       1.322   0.652  -0.043  0.00  0.00     0.124 A 
ATOM      2  C   UNL d   1       1.197  -0.731   0.131  0.00  0.00     0.041 A 
ATOM      3  N   UNL d   1      -0.018  -1.352   0.134  0.00  0.00    -0.367 N 
ATOM      4  HN  UNL d   1      -0.081  -2.367   0.220  1.00  0.00     0.165 HD
ATOM      5  C   UNL d   1       0.127   1.380  -0.125  0.00  0.00     0.102 A 
ATOM      6  C   UNL d   1      -1.135  -0.603   0.021  0.00  0.00     0.091 A 
ATOM      7  C   UNL d   1      -1.117   0.764  -0.095  0.00  0.00     0.056 A 
ATOM      8  C   UNL d   1       2.329  -1.686   0.355  0.00  0.00     0.071 C 
ENDROOT
BRANCH   1   9
ATOM      9  O   UNL d   1       2.466   1.410  -0.075  0.00  0.00    -0.336 OA
BRANCH   9  10
ATOM     10  C   UNL d   1       3.567   0.863  -0.807  0.00  0.00     0.285 C 
BRANCH  10  11
ATOM     11  C   UNL d   1       4.354   1.966  -1.497  0.00  0.00     0.164 C 
ATOM     12  O   UNL d   1       5.085   1.784  -2.456  0.00  0.00    -0.648 OA
BRANCH  11  13
ATOM     13  O   UNL d   1       4.224   3.171  -0.897  0.00  0.00    -0.775 OA
ATOM     14  H   UNL d   1       3.643   3.118  -0.114  0.00  0.00     0.167 HD
ENDBRANCH  11  13
ENDBRANCH  10  11
ENDBRANCH   9  10
ENDBRANCH   1   9
BRANCH   5  15
ATOM     15  O   UNL d   1       0.133   2.745  -0.244  0.00  0.00    -0.358 OA
ATOM     16  H   UNL d   1       1.064   3.021  -0.273  0.00  0.00     0.217 HD
ENDBRANCH   5  15
TORSDOF 5
