REMARK  1 active torsions:
REMARK  status: ('A' for Active; 'I' for Inactive)
REMARK    1  A    between atoms: O_8  and  N_1 
ROOT
ATOM      1  N   UNL d   1       1.859   0.031   0.091  0.00  0.00    -0.146 N 
ATOM      2  C   UNL d   1       1.135  -1.118   0.008  0.00  0.00     0.286 A 
ATOM      3  C   UNL d   1       1.110   1.162   0.001  0.00  0.00     0.286 A 
ATOM      4  C   UNL d   1      -0.263  -0.688   0.012  0.00  0.00     0.050 A 
ATOM      5  C   UNL d   1      -0.279   0.699   0.004  0.00  0.00     0.050 A 
ATOM      6  O   UNL d   1       1.436   2.331  -0.088  0.00  0.00    -0.265 OA
ATOM      7  O   UNL d   1       1.490  -2.278  -0.079  0.00  0.00    -0.265 OA
ATOM      8  C   UNL d   1      -1.460   1.415  -0.008  0.00  0.00     0.018 A 
ATOM      9  C   UNL d   1      -1.425  -1.434   0.015  0.00  0.00     0.018 A 
ATOM     10  C   UNL d   1      -2.651   0.681   0.000  0.00  0.00     0.001 A 
ATOM     11  C   UNL d   1      -2.633  -0.730   0.013  0.00  0.00     0.001 A 
ENDROOT
BRANCH   1  12
ATOM     12  O   UNL d   1       3.241   0.045  -0.084  0.00  0.00    -0.272 OA
ATOM     13  C   UNL d   1       3.857  -0.015   1.198  0.00  0.00     0.238 C 
ENDBRANCH   1  12
TORSDOF 1
