REMARK  9 active torsions:
REMARK  status: ('A' for Active; 'I' for Inactive)
REMARK    1  A    between atoms: N_4  and  C_1 
REMARK    2  A    between atoms: C_10  and  N_4 
REMARK    3  A    between atoms: C_16  and  N_8 
REMARK    4  A    between atoms: O_13  and  C_18 
REMARK    5  A    between atoms: C_15  and  O_13 
REMARK    6  A    between atoms: C_14  and  C_16 
REMARK    7  A    between atoms: C_18  and  C_14 
REMARK    8  A    between atoms: O_24  and  C_14 
REMARK    9  A    between atoms: O_25  and  C_19 
ROOT
ATOM      1  C   UNL d   1       1.651   2.740   1.184  0.00  0.00     0.172 C 
ATOM      2  S   UNL d   1       1.578   3.866   2.416  0.00  0.00    -0.041 SA
ATOM      3  N   UNL d   1       2.884   2.247   0.866  0.00  0.00    -0.364 N 
ATOM      4  H   UNL d   1       3.648   2.637   1.413  0.00  0.00     0.162 HD
ENDROOT
BRANCH   3   5
ATOM      5  C   UNL d   1       3.229   1.157  -0.038  0.00  0.00     0.155 C 
BRANCH   5   6
ATOM      6  C   UNL d   1       4.733   0.826   0.009  0.00  0.00     0.160 C 
BRANCH   6   7
ATOM      7  C   UNL d   1       5.086  -0.197  -1.083  0.00  0.00     0.209 C 
BRANCH   7   8
ATOM      8  O   UNL d   1       6.454  -0.603  -0.958  0.00  0.00    -0.349 OA
BRANCH   8   9
ATOM      9  C   UNL d   1       6.919  -1.466  -1.917  0.00  0.00     0.069 A 
ATOM     10  C   UNL d   1       6.350  -1.661  -3.175  0.00  0.00     0.039 A 
ATOM     11  C   UNL d   1       6.924  -2.557  -4.085  0.00  0.00     0.039 A 
ATOM     12  C   UNL d   1       8.075  -3.266  -3.749  0.00  0.00     0.068 A 
ATOM     13  C   UNL d   1       8.649  -3.067  -2.492  0.00  0.00     0.039 A 
ATOM     14  C   UNL d   1       8.081  -2.164  -1.584  0.00  0.00     0.039 A 
BRANCH  12  15
ATOM     15  O   UNL d   1       8.723  -4.167  -4.548  0.00  0.00    -0.356 OA
ATOM     16  C   UNL d   1       8.206  -4.346  -5.862  0.00  0.00     0.210 C 
ENDBRANCH  12  15
ENDBRANCH   8   9
ENDBRANCH   7   8
ENDBRANCH   6   7
BRANCH   6  17
ATOM     17  O   UNL d   1       5.482   2.040  -0.173  0.00  0.00    -0.392 OA
ATOM     18  H   UNL d   1       5.335   2.362  -1.079  0.00  0.00     0.210 HD
ENDBRANCH   6  17
ENDBRANCH   5   6
ENDBRANCH   3   5
BRANCH   1  19
ATOM     19  N   UNL d   1       0.615   2.286   0.404  0.00  0.00    -0.333 N 
ATOM     20  H   UNL d   1       0.853   2.178  -0.572  0.00  0.00     0.168 HD
BRANCH  19  21
ATOM     21  C   UNL d   1      -0.769   2.260   0.697  0.00  0.00     0.037 A 
ATOM     22  C   UNL d   1      -1.672   2.343  -0.372  0.00  0.00     0.069 A 
ATOM     23  C   UNL d   1      -3.019   2.215  -0.098  0.00  0.00     0.107 A 
ATOM     24  O   UNL d   1      -4.027   2.269  -1.012  0.00  0.00    -0.323 OA
ATOM     25  C   UNL d   1      -3.485   1.991   1.176  0.00  0.00     0.105 A 
ATOM     26  C   UNL d   1      -5.172   2.008  -0.171  0.00  0.00     0.352 A 
ATOM     27  O   UNL d   1      -4.836   1.853   1.222  0.00  0.00    -0.323 OA
ATOM     28  C   UNL d   1      -2.627   1.905   2.248  0.00  0.00     0.042 A 
ATOM     29  C   UNL d   1      -1.256   2.042   2.002  0.00  0.00     0.032 A 
ENDBRANCH  19  21
ENDBRANCH   1  19
TORSDOF 9
