REMARK  2 active torsions:
REMARK  status: ('A' for Active; 'I' for Inactive)
REMARK    1  A    between atoms: C_4  and  C_3 
REMARK    2  A    between atoms: N_17  and  C_6 
ROOT
ATOM      1  N   UNL d   1       1.566  -0.639   1.145  0.00  0.00    -0.333 N 
ATOM      2  HN  UNL d   1       2.117  -1.010   1.919  1.00  0.00     0.168 HD
ATOM      3  C   UNL d   1       2.169  -0.108   0.057  0.00  0.00     0.114 A 
ATOM      4  C   UNL d   1       0.225  -0.666   1.182  0.00  0.00     0.101 A 
ATOM      5  C   UNL d   1      -0.543  -0.147   0.159  0.00  0.00     0.098 A 
ATOM      6  N   UNL d   1       1.492   0.414  -0.989  0.00  0.00    -0.352 N 
ATOM      7  HN  UNL d   1       1.973   0.817  -1.793  1.00  0.00     0.166 HD
ATOM      8  C   UNL d   1      -1.961  -0.154   0.175  0.00  0.00     0.104 C 
ATOM      9  N   UNL d   1      -3.124  -0.177   0.161  0.00  0.00    -0.191 NA
ATOM     10  C   UNL d   1       0.147   0.373  -0.913  0.00  0.00     0.115 A 
ENDROOT
BRANCH   4  11
ATOM     11  N   UNL d   1      -0.332  -1.145   2.367  0.00  0.00    -0.287 NA
ATOM     12  H   UNL d   1       0.405  -1.568   2.929  0.00  0.00     0.125 HD
ATOM     13  H   UNL d   1      -1.137  -1.751   2.251  0.00  0.00     0.125 HD
ENDBRANCH   4  11
BRANCH   3  14
ATOM     14  C   UNL d   1       3.693  -0.006   0.026  0.00  0.00     0.220 C 
ATOM     15  O   UNL d   1       4.336  -0.517   1.210  0.00  0.00    -0.333 OA
ATOM     16  C   UNL d   1       4.493  -1.878   1.164  0.00  0.00     0.103 A 
ATOM     17  C   UNL d   1       4.746  -2.517   2.377  0.00  0.00     0.040 A 
ATOM     18  C   UNL d   1       4.383  -2.623  -0.013  0.00  0.00     0.102 A 
ATOM     19  C   UNL d   1       4.843  -3.908   2.422  0.00  0.00     0.003 A 
ATOM     20  C   UNL d   1       4.688  -4.657   1.255  0.00  0.00     0.003 A 
ATOM     21  C   UNL d   1       4.463  -4.014   0.036  0.00  0.00     0.039 A 
ATOM     22  O   UNL d   1       4.166  -2.066  -1.244  0.00  0.00    -0.345 OA
ATOM     23  C   UNL d   1       4.300  -0.640  -1.225  0.00  0.00     0.216 C 
ENDBRANCH   3  14
TORSDOF 2
