REMARK  3 active torsions:
REMARK  status: ('A' for Active; 'I' for Inactive)
REMARK    1  A    between atoms: C_11  and  C_4 
REMARK       I    between atoms: C_7  and  N_10 
REMARK    2  A    between atoms: C_8  and  C_7 
REMARK    3  A    between atoms: N_10  and  C_19 
ROOT
ATOM      1  C   UNL d   1       3.688  -0.729  -0.308  0.00  0.00    -0.008 A 
ATOM      2  C   UNL d   1       4.567  -0.131   0.602  0.00  0.00     0.016 A 
ATOM      3  C   UNL d   1       4.196  -1.714  -1.161  0.00  0.00     0.016 A 
ATOM      4  C   UNL d   1       6.413  -1.514  -0.184  0.00  0.00     0.035 A 
ATOM      5  C   UNL d   1       5.540  -2.099  -1.100  0.00  0.00     0.030 A 
ATOM      6  C   UNL d   1       5.917  -0.517   0.664  0.00  0.00     0.030 A 
ENDROOT
BRANCH   1   7
ATOM      7  C   UNL d   1       2.287  -0.333  -0.357  0.00  0.00     0.060 A 
ATOM      8  N   UNL d   1       1.724   0.610   0.497  0.00  0.00    -0.335 N 
ATOM      9  C   UNL d   1       0.480   0.675   0.115  0.00  0.00     0.147 A 
ATOM     10  HN  UNL d   1       2.180   1.130   1.247  1.00  0.00     0.168 HD
ATOM     11  N   UNL d   1       0.208  -0.156  -0.917  0.00  0.00    -0.335 N 
ATOM     12  S   UNL d   1      -0.892   1.569   0.632  0.00  0.00    -0.092 SA
ATOM     13  C   UNL d   1       1.335  -0.823  -1.246  0.00  0.00     0.123 A 
ATOM     14  C   UNL d   1      -1.121  -0.121  -1.478  0.00  0.00     0.141 C 
ATOM     15  C   UNL d   1      -2.010   0.573  -0.442  0.00  0.00     0.102 C 
ENDBRANCH   1   7
BRANCH   4  16
ATOM     16  N   UNL d   1       7.764  -1.895  -0.048  0.00  0.00    -0.321 N 
ATOM     17  C   UNL d   1       8.436  -2.877  -0.762  0.00  0.00     0.279 C 
ATOM     18  O   UNL d   1       7.971  -3.516  -1.701  0.00  0.00    -0.265 OA
ATOM     19  H   UNL d   1       8.308  -1.441   0.678  0.00  0.00     0.169 HD
BRANCH  17  20
ATOM     20  C   UNL d   1       9.786  -3.121  -0.291  0.00  0.00     0.142 A 
ATOM     21  O   UNL d   1      10.311  -2.374   0.731  0.00  0.00    -0.317 OA
ATOM     22  C   UNL d   1      11.567  -2.845   0.960  0.00  0.00     0.143 A 
ATOM     23  C   UNL d   1      11.860  -3.884   0.107  0.00  0.00     0.027 A 
ATOM     24  C   UNL d   1      10.716  -4.058  -0.704  0.00  0.00     0.045 A 
ENDBRANCH  17  20
ENDBRANCH   4  16
TORSDOF 3
