REMARK  4 active torsions:
REMARK  status: ('A' for Active; 'I' for Inactive)
REMARK    1  A    between atoms: C_4  and  N_1 
REMARK    2  A    between atoms: S_15  and  C_2 
REMARK    3  A    between atoms: O_17  and  C_10 
REMARK    4  A    between atoms: O_19  and  C_12 
ROOT
ATOM      1  N   UNL d   1       2.398  -0.604   0.073  0.00  0.00    -0.255 N 
ATOM      2  C   UNL d   1       2.303   0.787   0.019  0.00  0.00     0.154 C 
ATOM      3  C   UNL d   1       1.277  -1.384   0.355  0.00  0.00     0.267 C 
ATOM      4  N   UNL d   1       1.182   1.429   0.072  0.00  0.00    -0.335 N 
ATOM      5  HN  UNL d   1       1.165   2.449   0.069  1.00  0.00     0.168 HD
ATOM      6  C   UNL d   1      -0.020  -0.689   0.284  0.00  0.00     0.059 A 
ATOM      7  C   UNL d   1      -0.006   0.695   0.135  0.00  0.00     0.049 A 
ATOM      8  O   UNL d   1       1.297  -2.581   0.630  0.00  0.00    -0.267 OA
ATOM      9  C   UNL d   1      -1.223  -1.405   0.289  0.00  0.00     0.019 A 
ATOM     10  C   UNL d   1      -1.220   1.369  -0.003  0.00  0.00     0.030 A 
ATOM     11  C   UNL d   1      -2.428  -0.723   0.128  0.00  0.00     0.001 A 
ATOM     12  C   UNL d   1      -2.426   0.665  -0.013  0.00  0.00     0.002 A 
ENDROOT
BRANCH   1  13
ATOM     13  C   UNL d   1       3.636  -1.290  -0.076  0.00  0.00     0.081 A 
ATOM     14  C   UNL d   1       4.457  -1.393   1.071  0.00  0.00     0.071 A 
ATOM     15  C   UNL d   1       5.722  -1.985   1.005  0.00  0.00     0.092 A 
ATOM     16  C   UNL d   1       6.142  -2.525  -0.215  0.00  0.00     0.070 A 
ATOM     17  C   UNL d   1       5.319  -2.462  -1.342  0.00  0.00     0.065 A 
ATOM     18 CL   UNL d   1       7.693  -3.271  -0.389  0.00  0.00    -0.081 Cl
ATOM     19  C   UNL d   1       4.064  -1.840  -1.298  0.00  0.00     0.097 A 
BRANCH  15  20
ATOM     20  O   UNL d   1       6.601  -2.069   2.051  0.00  0.00    -0.354 OA
ATOM     21  C   UNL d   1       6.253  -1.432   3.272  0.00  0.00     0.210 C 
ENDBRANCH  15  20
BRANCH  19  22
ATOM     22  O   UNL d   1       3.465  -1.860  -2.525  0.00  0.00    -0.354 OA
ATOM     23  C   UNL d   1       2.184  -1.301  -2.741  0.00  0.00     0.210 C 
ENDBRANCH  19  22
ENDBRANCH   1  13
BRANCH   2  24
ATOM     24  S   UNL d   1       3.785   1.724  -0.157  0.00  0.00    -0.098 SA
ATOM     25  C   UNL d   1       3.130   3.397  -0.321  0.00  0.00     0.099 C 
ENDBRANCH   2  24
TORSDOF 4
