REMARK  2 active torsions:
REMARK  status: ('A' for Active; 'I' for Inactive)
REMARK    1  A    between atoms: C_9  and  C_2 
REMARK    2  A    between atoms: O_11  and  N_7 
ROOT
ATOM      1  C   UNL d   1      -0.134  -0.358   0.751  0.00  0.00     0.160 C 
ATOM      2  C   UNL d   1      -1.288   0.032  -0.076  0.00  0.00     0.100 C 
ATOM      3  N   UNL d   1      -0.853   0.506  -1.204  0.00  0.00    -0.254 N 
ATOM      4  HN  UNL d   1      -1.436   0.896  -1.944  1.00  0.00     0.195 HD
ATOM      5  C   UNL d   1       1.065  -0.220  -0.127  0.00  0.00     0.336 C 
ATOM      6  O   UNL d   1       0.581   0.395  -1.247  0.00  0.00    -0.193 OA
ATOM      7  N   UNL d   1      -0.010  -0.656   2.008  0.00  0.00    -0.261 N 
ATOM      8  HN  UNL d   1       0.874  -0.940   2.430  1.00  0.00     0.194 HD
ATOM      9  O   UNL d   1       2.205  -0.544   0.127  0.00  0.00    -0.255 OA
ENDROOT
BRANCH   2  10
ATOM     10  C   UNL d   1      -2.722  -0.102   0.208  0.00  0.00    -0.005 A 
ATOM     11  C   UNL d   1      -3.596   0.867  -0.304  0.00  0.00     0.014 A 
ATOM     12  C   UNL d   1      -4.970   0.764  -0.078  0.00  0.00     0.001 A 
ATOM     13  C   UNL d   1      -5.476  -0.309   0.653  0.00  0.00     0.000 A 
ATOM     14  C   UNL d   1      -4.614  -1.294   1.134  0.00  0.00     0.001 A 
ATOM     15  C   UNL d   1      -3.240  -1.202   0.895  0.00  0.00     0.014 A 
ENDBRANCH   2  10
BRANCH   7  16
ATOM     16  O   UNL d   1      -1.198  -0.551   2.724  0.00  0.00    -0.289 OA
ATOM     17  H   UNL d   1      -0.930  -0.814   3.626  0.00  0.00     0.244 HD
ENDBRANCH   7  16
TORSDOF 2
