REMARK  2 active torsions:
REMARK  status: ('A' for Active; 'I' for Inactive)
REMARK    1  A    between atoms: C_10  and  N_1 
REMARK    2  A    between atoms: N_2  and  C_11 
ROOT
ATOM      1  C   UNL d   1       0.302  -3.211  -1.569  0.00  0.00     0.005 A 
ATOM      2  C   UNL d   1       0.540  -4.610  -1.749  0.00  0.00     0.005 A 
ATOM      3  N   UNL d   1      -1.060  -3.971  -3.159  0.00  0.00    -0.355 N 
ATOM      4  C   UNL d   1      -0.310  -5.054  -2.760  0.00  0.00     0.044 A 
ATOM      5  C   UNL d   1      -0.708  -2.841  -2.456  0.00  0.00     0.044 A 
ATOM      6  C   UNL d   1       1.418  -5.532  -1.141  0.00  0.00     0.050 A 
ATOM      7  C   UNL d   1       0.867  -2.229  -0.731  0.00  0.00     0.050 A 
ATOM      8  C   UNL d   1       0.395  -0.910  -0.823  0.00  0.00     0.103 A 
ATOM      9  C   UNL d   1       1.410  -6.864  -1.585  0.00  0.00     0.103 A 
ATOM     10  C   UNL d   1      -0.325  -6.378  -3.217  0.00  0.00     0.033 A 
ATOM     11  C   UNL d   1      -1.203  -1.533  -2.544  0.00  0.00     0.033 A 
ATOM     12  C   UNL d   1       0.555  -7.282  -2.612  0.00  0.00     0.038 A 
ATOM     13  C   UNL d   1      -0.632  -0.566  -1.710  0.00  0.00     0.038 A 
ATOM     14  H   UNL d   1      -1.767  -3.999  -3.881  0.00  0.00     0.166 HD
ENDROOT
BRANCH   8  15
ATOM     15  N   UNL d   1       1.002   0.127   0.022  0.00  0.00    -0.116 N 
ATOM     16  O   UNL d   1       1.928  -0.210   0.774  0.00  0.00    -0.532 OA
ATOM     17  O   UNL d   1       0.558   1.280  -0.071  0.00  0.00    -0.532 OA
ENDBRANCH   8  15
BRANCH   9  18
ATOM     18  N   UNL d   1       2.320  -7.831  -0.958  0.00  0.00    -0.116 N 
ATOM     19  O   UNL d   1       3.058  -7.425  -0.049  0.00  0.00    -0.532 OA
ATOM     20  O   UNL d   1       2.297  -8.998  -1.375  0.00  0.00    -0.532 OA
ENDBRANCH   9  18
TORSDOF 2
