REMARK  1 active torsions:
REMARK  status: ('A' for Active; 'I' for Inactive)
REMARK    1  A    between atoms: N_6  and  C_1 
ROOT
ATOM      1  C   UNL d   1      -0.711   1.272  -0.006  0.00  0.00     0.052 A 
ATOM      2  C   UNL d   1      -1.394   0.045  -0.028  0.00  0.00     0.072 A 
ATOM      3  C   UNL d   1       0.691   1.227  -0.022  0.00  0.00     0.072 A 
ATOM      4  N   UNL d   1       0.686  -1.196   0.041  0.00  0.00    -0.372 N 
ATOM      5  HN  UNL d   1       1.188  -2.082   0.081  1.00  0.00     0.164 HD
ATOM      6 CL   UNL d   1       1.639   2.670  -0.059  0.00  0.00    -0.081 Cl
ATOM      7 CL   UNL d   1      -3.119  -0.026  -0.070  0.00  0.00    -0.081 Cl
ATOM      8  C   UNL d   1      -0.666  -1.139   0.011  0.00  0.00     0.113 A 
ATOM      9  C   UNL d   1       1.333  -0.006   0.016  0.00  0.00     0.113 A 
ENDROOT
BRANCH   1  10
ATOM     10  N   UNL d   1      -1.403   2.493  -0.186  0.00  0.00    -0.300 NA
ATOM     11  H   UNL d   1      -2.368   2.467   0.137  0.00  0.00     0.124 HD
ATOM     12  H   UNL d   1      -0.886   3.307   0.140  0.00  0.00     0.124 HD
ENDBRANCH   1  10
TORSDOF 1
