REMARK  3 active torsions:
REMARK  status: ('A' for Active; 'I' for Inactive)
REMARK       I    between atoms: N_2  and  C_1 
REMARK    1  A    between atoms: O_3  and  C_1 
REMARK    2  A    between atoms: C_6  and  N_2 
REMARK    3  A    between atoms: C_5  and  O_3 
ROOT
ATOM      1  C   UNL d   1      -0.752   0.657   0.787  0.00  0.00     0.366 C 
ATOM      2  N   UNL d   1       0.369  -0.105   1.006  0.00  0.00    -0.332 N 
ATOM      3  O   UNL d   1      -1.466   1.106   1.670  0.00  0.00    -0.238 OA
ATOM      4  H   UNL d   1       0.905  -0.326   0.180  0.00  0.00     0.165 HD
ENDROOT
BRANCH   1   5
ATOM      5  O   UNL d   1      -0.924   0.829  -0.584  0.00  0.00    -0.262 OA
BRANCH   5   6
ATOM      6  C   UNL d   1      -1.948   1.606  -1.178  0.00  0.00     0.081 A 
ATOM      7  C   UNL d   1      -2.628   2.634  -0.530  0.00  0.00     0.037 A 
ATOM      8  C   UNL d   1      -3.601   3.360  -1.223  0.00  0.00     0.003 A 
ATOM      9  C   UNL d   1      -3.878   3.068  -2.559  0.00  0.00     0.000 A 
ATOM     10  C   UNL d   1      -3.182   2.052  -3.210  0.00  0.00     0.003 A 
ATOM     11  C   UNL d   1      -2.211   1.321  -2.522  0.00  0.00     0.037 A 
ENDBRANCH   5   6
ENDBRANCH   1   5
BRANCH   2  12
ATOM     12  C   UNL d   1       0.953  -0.298   2.327  0.00  0.00     0.086 C 
ATOM     13  C   UNL d   1       2.075   0.714   2.582  0.00  0.00     0.025 C 
ATOM     14  C   UNL d   1       3.314   0.451   1.724  0.00  0.00     0.002 C 
ATOM     15  C   UNL d   1       3.801  -0.995   1.800  0.00  0.00     0.000 C 
ATOM     16  C   UNL d   1       2.687  -2.022   1.622  0.00  0.00     0.002 C 
ATOM     17  C   UNL d   1       1.475  -1.727   2.502  0.00  0.00     0.025 C 
ENDBRANCH   2  12
TORSDOF 3
