REMARK  4 active torsions:
REMARK  status: ('A' for Active; 'I' for Inactive)
REMARK    1  A    between atoms: C_4  and  N_8 
REMARK       I    between atoms: C_7  and  N_8 
REMARK    2  A    between atoms: C_13  and  C_7 
REMARK    3  A    between atoms: S_11  and  C_13 
REMARK    4  A    between atoms: C_14  and  S_11 
ROOT
ATOM      1  C   UNL d   1      -3.510  -3.676   0.430  0.00  0.00     0.227 C 
ATOM      2  N   UNL d   1      -2.539  -2.729   0.167  0.00  0.00    -0.356 N 
ATOM      3  O   UNL d   1      -3.878  -4.504  -0.404  0.00  0.00    -0.273 OA
ATOM      4  H   UNL d   1      -2.221  -2.141   0.931  0.00  0.00     0.162 HD
ENDROOT
BRANCH   1   5
ATOM      5  C   UNL d   1      -3.965  -3.767   1.879  0.00  0.00     0.182 C 
BRANCH   5   6
ATOM      6  S   UNL d   1      -5.080  -2.418   2.333  0.00  0.00    -0.121 SA
BRANCH   6   7
ATOM      7  C   UNL d   1      -5.619  -2.872   3.986  0.00  0.00     0.001 A 
ATOM      8  C   UNL d   1      -5.274  -4.048   4.662  0.00  0.00     0.019 A 
ATOM      9  C   UNL d   1      -5.761  -4.306   5.953  0.00  0.00     0.008 A 
ATOM     10  C   UNL d   1      -6.602  -3.392   6.594  0.00  0.00    -0.062 A 
ATOM     11  C   UNL d   1      -6.949  -2.217   5.923  0.00  0.00     0.008 A 
ATOM     12  C   UNL d   1      -7.118  -3.672   7.976  0.00  0.00     0.048 C 
ATOM     13  C   UNL d   1      -6.462  -1.964   4.635  0.00  0.00     0.019 A 
ENDBRANCH   6   7
ENDBRANCH   5   6
ENDBRANCH   1   5
BRANCH   2  14
ATOM     14  C   UNL d   1      -1.489  -3.065  -0.809  0.00  0.00     0.088 C 
ATOM     15  C   UNL d   1      -0.755  -1.817  -1.357  0.00  0.00     0.061 C 
ATOM     16  C   UNL d   1       0.522  -1.465  -0.566  0.00  0.00     0.225 C 
ATOM     17  N   UNL d   1       0.224  -1.842   0.828  0.00  0.00     0.093 N 
ATOM     18  C   UNL d   1       1.758  -2.317  -0.950  0.00  0.00     0.038 C 
ATOM     19  C   UNL d   1       0.506  -3.297   0.806  0.00  0.00     0.225 C 
ATOM     20  C   UNL d   1       1.039  -1.074   1.769  0.00  0.00     0.310 C 
ATOM     21  C   UNL d   1      -0.510  -4.032  -0.120  0.00  0.00     0.061 C 
ATOM     22  C   UNL d   1       1.877  -3.372   0.150  0.00  0.00     0.038 C 
ENDBRANCH   2  14
TORSDOF 4
