REMARK  5 active torsions:
REMARK  status: ('A' for Active; 'I' for Inactive)
REMARK    1  A    between atoms: S_14  and  C_2 
REMARK    2  A    between atoms: C_6  and  C_3 
REMARK    3  A    between atoms: O_15  and  C_6 
REMARK    4  A    between atoms: C_16  and  S_14 
REMARK    5  A    between atoms: C_18  and  O_15 
ROOT
ATOM      1  C   UNL d   1       1.031  -0.108   0.014  0.00  0.00     0.094 A 
ATOM      2  C   UNL d   1       0.297   1.080   0.026  0.00  0.00     0.092 A 
ATOM      3  C   UNL d   1       0.309  -1.310  -0.014  0.00  0.00     0.064 A 
ATOM      4  N   UNL d   1      -1.061   1.097   0.012  0.00  0.00    -0.353 N 
ATOM      5  HN  UNL d   1      -1.563   1.984   0.012  1.00  0.00     0.166 HD
ATOM      6  C   UNL d   1       2.460  -0.082   0.090  0.00  0.00     0.103 C 
ATOM      7  N   UNL d   1       3.619  -0.073   0.171  0.00  0.00    -0.191 NA
ATOM      8  C   UNL d   1      -1.093  -1.288  -0.013  0.00  0.00     0.043 A 
ATOM      9  C   UNL d   1      -1.740  -0.068  -0.000  0.00  0.00     0.007 A 
ATOM     10  C   UNL d   1      -3.235   0.025   0.001  0.00  0.00     0.068 C 
ENDROOT
BRANCH   2  11
ATOM     11  S   UNL d   1       1.067   2.702   0.031  0.00  0.00    -0.099 SA
BRANCH  11  12
ATOM     12  C   UNL d   1      -0.278   3.690   0.765  0.00  0.00     0.173 C 
ATOM     13  C   UNL d   1       0.058   5.118   0.853  0.00  0.00    -0.107 C 
ATOM     14  C   UNL d   1       0.269   6.300   0.935  0.00  0.00     0.013 C 
ENDBRANCH  11  12
ENDBRANCH   2  11
BRANCH   3  15
ATOM     15  C   UNL d   1       0.918  -2.664   0.003  0.00  0.00     0.295 C 
ATOM     16  O   UNL d   1       0.359  -3.625   0.508  0.00  0.00    -0.259 OA
BRANCH  15  17
ATOM     17  O   UNL d   1       2.087  -2.683  -0.670  0.00  0.00    -0.318 OA
BRANCH  17  18
ATOM     18  C   UNL d   1       2.755  -3.955  -0.735  0.00  0.00     0.174 C 
ATOM     19  C   UNL d   1       3.502  -4.241   0.556  0.00  0.00     0.034 C 
ENDBRANCH  17  18
ENDBRANCH  15  17
ENDBRANCH   3  15
TORSDOF 5
