REMARK  3 active torsions:
REMARK  status: ('A' for Active; 'I' for Inactive)
REMARK    1  A    between atoms: C_7  and  N_1 
REMARK    2  A    between atoms: C_2  and  O_8 
REMARK    3  A    between atoms: O_8  and  C_14 
ROOT
ATOM      1  O   UNL d   1      -2.006   4.265   1.821  0.00  0.00    -0.307 OA
ENDROOT
BRANCH   1   2
ATOM      2  C   UNL d   1      -1.439   5.479   2.142  0.00  0.00     0.119 A 
ATOM      3  C   UNL d   1      -2.126   6.628   1.714  0.00  0.00     0.071 A 
ATOM      4  C   UNL d   1      -1.665   7.905   2.038  0.00  0.00     0.050 A 
ATOM      5 CL   UNL d   1      -3.583   6.510   0.789  0.00  0.00    -0.081 Cl
ATOM      6  C   UNL d   1      -0.508   8.043   2.796  0.00  0.00     0.037 A 
ATOM      7  C   UNL d   1       0.169   6.920   3.262  0.00  0.00     0.050 A 
ATOM      8 CL   UNL d   1       0.073   9.612   3.191  0.00  0.00    -0.084 Cl
ATOM      9  C   UNL d   1      -0.311   5.639   2.964  0.00  0.00     0.071 A 
ATOM     10 CL   UNL d   1       0.509   4.317   3.720  0.00  0.00    -0.081 Cl
ENDBRANCH   1   2
BRANCH   1  11
ATOM     11  C   UNL d   1      -1.230   3.255   1.301  0.00  0.00     0.076 A 
ATOM     12  C   UNL d   1      -1.669   1.961   1.605  0.00  0.00     0.040 A 
ATOM     13  C   UNL d   1      -0.930   0.849   1.198  0.00  0.00     0.039 A 
ATOM     14  C   UNL d   1       0.250   1.040   0.469  0.00  0.00     0.103 A 
ATOM     15  C   UNL d   1       0.665   2.332   0.112  0.00  0.00     0.039 A 
ATOM     16  C   UNL d   1      -0.090   3.440   0.513  0.00  0.00     0.040 A 
BRANCH  14  17
ATOM     17  N   UNL d   1       1.061  -0.124   0.091  0.00  0.00    -0.116 N 
ATOM     18  O   UNL d   1       2.129   0.087  -0.504  0.00  0.00    -0.532 OA
ATOM     19  O   UNL d   1       0.636  -1.247   0.394  0.00  0.00    -0.532 OA
ENDBRANCH  14  17
ENDBRANCH   1  11
TORSDOF 3
