REMARK  6 active torsions:
REMARK  status: ('A' for Active; 'I' for Inactive)
REMARK    1  A    between atoms: N_11  and  C_1 
REMARK    2  A    between atoms: C_12  and  C_4 
REMARK    3  A    between atoms: C_5  and  C_13 
REMARK    4  A    between atoms: N_8  and  N_11 
REMARK    5  A    between atoms: O_19  and  C_12 
REMARK    6  A    between atoms: C_17  and  C_14 
ROOT
ATOM      1  N   UNL d   1       0.268   4.292   0.944  0.00  0.00    -0.311 N 
ATOM      2  HN  UNL d   1      -0.354   4.366   1.749  1.00  0.00     0.186 HD
ATOM      3  C   UNL d   1       0.113   5.016  -0.119  0.00  0.00     0.118 C 
ENDROOT
BRANCH   3   4
ATOM      4  C   UNL d   1      -0.925   6.066  -0.172  0.00  0.00    -0.019 A 
ATOM      5  C   UNL d   1      -0.771   7.143  -1.050  0.00  0.00     0.014 A 
ATOM      6  C   UNL d   1      -1.728   8.167  -1.066  0.00  0.00     0.021 A 
ATOM      7  C   UNL d   1      -2.838   8.105  -0.219  0.00  0.00     0.017 A 
ATOM      8  C   UNL d   1      -2.995   7.018   0.650  0.00  0.00     0.021 A 
ATOM      9  C   UNL d   1      -2.033   6.005   0.679  0.00  0.00     0.014 A 
BRANCH   7  10
ATOM     10  C   UNL d   1      -3.815   9.155  -0.229  0.00  0.00    -0.064 C 
ATOM     11  C   UNL d   1      -4.635  10.031  -0.226  0.00  0.00    -0.064 C 
BRANCH  11  12
ATOM     12  C   UNL d   1      -5.643  11.108  -0.218  0.00  0.00     0.114 C 
ATOM     13  C   UNL d   1      -7.008  10.568   0.204  0.00  0.00     0.060 C 
ATOM     14  C   UNL d   1      -5.729  11.770  -1.591  0.00  0.00     0.060 C 
BRANCH  12  15
ATOM     15  O   UNL d   1      -5.249  12.107   0.719  0.00  0.00    -0.378 OA
ATOM     16  H   UNL d   1      -5.094  11.655   1.567  0.00  0.00     0.211 HD
ENDBRANCH  12  15
ENDBRANCH  11  12
ENDBRANCH   7  10
ENDBRANCH   3   4
BRANCH   1  17
ATOM     17  N   UNL d   1       1.314   3.426   0.915  0.00  0.00    -0.298 N 
ATOM     18  H   UNL d   1       1.481   2.910   0.048  0.00  0.00     0.187 HD
BRANCH  17  19
ATOM     19  C   UNL d   1       1.534   2.630   2.075  0.00  0.00     0.091 A 
ATOM     20  C   UNL d   1       1.903   1.274   1.919  0.00  0.00     0.065 A 
ATOM     21  C   UNL d   1       2.180   0.450   3.015  0.00  0.00     0.050 A 
ATOM     22 CL   UNL d   1       2.012   0.565   0.341  0.00  0.00    -0.082 Cl
ATOM     23  C   UNL d   1       2.098   0.972   4.300  0.00  0.00     0.037 A 
ATOM     24  C   UNL d   1       1.727   2.296   4.497  0.00  0.00     0.050 A 
ATOM     25 CL   UNL d   1       2.471  -0.022   5.653  0.00  0.00    -0.084 Cl
ATOM     26  C   UNL d   1       1.444   3.121   3.397  0.00  0.00     0.065 A 
ATOM     27 CL   UNL d   1       1.062   4.768   3.782  0.00  0.00    -0.082 Cl
ENDBRANCH  17  19
ENDBRANCH   1  17
TORSDOF 6
