REMARK  6 active torsions:
REMARK  status: ('A' for Active; 'I' for Inactive)
REMARK    1  A    between atoms: C_2  and  N_1 
REMARK    2  A    between atoms: C_9  and  C_3 
REMARK    3  A    between atoms: O_13  and  C_5 
REMARK    4  A    between atoms: O_14  and  C_7 
REMARK    5  A    between atoms: C_10  and  C_9 
REMARK    6  A    between atoms: O_15  and  C_10 
ROOT
ATOM      1  C   UNL d   1       0.141   1.068   0.725  0.00  0.00     0.112 A 
ATOM      2  C   UNL d   1       0.633   2.356   0.449  0.00  0.00    -0.013 A 
ATOM      3  C   UNL d   1      -1.099   0.881   1.351  0.00  0.00     0.076 A 
ATOM      4  C   UNL d   1      -1.877   1.982   1.721  0.00  0.00     0.103 A 
ATOM      5  C   UNL d   1      -0.167   3.453   0.836  0.00  0.00     0.049 A 
ATOM      6  C   UNL d   1      -1.405   3.284   1.481  0.00  0.00     0.102 A 
ENDROOT
BRANCH   2   7
ATOM      7  C   UNL d   1       1.981   2.641  -0.192  0.00  0.00     0.152 C 
BRANCH   7   8
ATOM      8  C   UNL d   1       2.153   2.115  -1.600  0.00  0.00     0.262 C 
ATOM      9  O   UNL d   1       1.314   1.486  -2.228  0.00  0.00    -0.265 OA
BRANCH   8  10
ATOM     10  O   UNL d   1       3.390   2.464  -2.055  0.00  0.00    -0.326 OA
ATOM     11  C   UNL d   1       3.742   2.036  -3.375  0.00  0.00     0.213 C 
ENDBRANCH   8  10
ENDBRANCH   7   8
ENDBRANCH   2   7
BRANCH   1  12
ATOM     12  N   UNL d   1       0.912  -0.136   0.421  0.00  0.00    -0.115 N 
ATOM     13  O   UNL d   1       2.103  -0.144   0.761  0.00  0.00    -0.532 OA
ATOM     14  O   UNL d   1       0.313  -1.078  -0.114  0.00  0.00    -0.532 OA
ENDBRANCH   1  12
BRANCH   6  15
ATOM     15  O   UNL d   1      -2.168   4.328   1.933  0.00  0.00    -0.353 OA
ATOM     16  C   UNL d   1      -1.689   5.653   1.738  0.00  0.00     0.210 C 
ENDBRANCH   6  15
BRANCH   4  17
ATOM     17  O   UNL d   1      -3.035   1.627   2.365  0.00  0.00    -0.353 OA
ATOM     18  C   UNL d   1      -4.155   2.487   2.189  0.00  0.00     0.210 C 
ENDBRANCH   4  17
TORSDOF 6
