REMARK  9 active torsions:
REMARK  status: ('A' for Active; 'I' for Inactive)
REMARK       I    between atoms: N_4  and  C_1 
REMARK    1  A    between atoms: O_12  and  C_1 
REMARK       I    between atoms: N_6  and  C_2 
REMARK    2  A    between atoms: C_5  and  C_2 
REMARK    3  A    between atoms: C_3  and  N_7 
REMARK    4  A    between atoms: C_8  and  C_3 
REMARK    5  A    between atoms: C_5  and  N_4 
REMARK    6  A    between atoms: C_17  and  C_5 
REMARK    7  A    between atoms: N_7  and  N_6 
REMARK    8  A    between atoms: C_21  and  O_12 
REMARK    9  A    between atoms: C_22  and  C_17 
ROOT
ATOM      1  C   UNL d   1       0.043   0.643   1.837  0.00  0.00     0.259 C 
ATOM      2  N   UNL d   1      -0.488  -0.154   2.851  0.00  0.00    -0.267 N 
ATOM      3  O   UNL d   1      -0.348   0.561   0.671  0.00  0.00    -0.269 OA
ATOM      4  H   UNL d   1      -0.182  -0.102   3.822  0.00  0.00     0.190 HD
ENDROOT
BRANCH   1   5
ATOM      5  C   UNL d   1       1.068   1.716   2.329  0.00  0.00     0.184 C 
BRANCH   5   6
ATOM      6  C   UNL d   1       0.267   2.664   3.254  0.00  0.00     0.073 C 
BRANCH   6   7
ATOM      7  C   UNL d   1       0.978   3.787   3.971  0.00  0.00    -0.056 A 
ATOM      8  C   UNL d   1       0.278   4.988   4.185  0.00  0.00     0.007 A 
ATOM      9  C   UNL d   1       0.824   6.010   4.960  0.00  0.00     0.001 A 
ATOM     10  C   UNL d   1       2.077   5.845   5.540  0.00  0.00     0.000 A 
ATOM     11  C   UNL d   1       2.786   4.662   5.334  0.00  0.00     0.001 A 
ATOM     12  C   UNL d   1       2.240   3.635   4.556  0.00  0.00     0.007 A 
ENDBRANCH   6   7
ENDBRANCH   5   6
BRANCH   5  13
ATOM     13  N   UNL d   1       1.708   2.487   1.250  0.00  0.00    -0.323 N 
ATOM     14  C   UNL d   1       2.893   2.196   0.641  0.00  0.00     0.362 C 
ATOM     15  O   UNL d   1       3.550   1.183   0.843  0.00  0.00    -0.238 OA
ATOM     16  H   UNL d   1       1.225   3.290   0.866  0.00  0.00     0.165 HD
BRANCH  14  17
ATOM     17  O   UNL d   1       3.224   3.212  -0.185  0.00  0.00    -0.294 OA
BRANCH  17  18
ATOM     18  C   UNL d   1       4.372   3.211  -1.096  0.00  0.00     0.061 C 
ATOM     19  C   UNL d   1       3.986   2.450  -2.366  0.00  0.00     0.046 C 
ATOM     20  C   UNL d   1       4.619   4.690  -1.446  0.00  0.00     0.046 C 
ATOM     21  C   UNL d   1       5.672   2.651  -0.504  0.00  0.00     0.046 C 
ENDBRANCH  17  18
ENDBRANCH  14  17
ENDBRANCH   5  13
ENDBRANCH   1   5
BRANCH   2  22
ATOM     22  N   UNL d   1      -1.581  -1.029   2.599  0.00  0.00    -0.287 N 
ATOM     23  H   UNL d   1      -1.974  -0.987   1.657  0.00  0.00     0.188 HD
BRANCH  22  24
ATOM     24  C   UNL d   1      -1.940  -1.994   3.539  0.00  0.00     0.125 C 
ATOM     25  S   UNL d   1      -1.197  -2.101   5.057  0.00  0.00    -0.058 SA
BRANCH  24  26
ATOM     26  C   UNL d   1      -3.042  -2.939   3.143  0.00  0.00     0.006 A 
ATOM     27  C   UNL d   1      -4.260  -2.460   2.643  0.00  0.00     0.054 A 
ATOM     28  C   UNL d   1      -5.317  -3.353   2.397  0.00  0.00     0.103 A 
ATOM     29  O   UNL d   1      -6.507  -2.813   1.983  0.00  0.00    -0.346 OA
ATOM     30  C   UNL d   1      -5.149  -4.727   2.594  0.00  0.00     0.102 A 
ATOM     31  C   UNL d   1      -7.596  -3.732   2.174  0.00  0.00     0.202 C 
ATOM     32  C   UNL d   1      -7.234  -5.107   1.638  0.00  0.00     0.202 C 
ATOM     33  O   UNL d   1      -6.128  -5.659   2.363  0.00  0.00    -0.346 OA
ATOM     34  C   UNL d   1      -3.939  -5.210   3.082  0.00  0.00     0.040 A 
ATOM     35  C   UNL d   1      -2.893  -4.322   3.361  0.00  0.00     0.017 A 
ENDBRANCH  24  26
ENDBRANCH  22  24
ENDBRANCH   2  22
TORSDOF 9
