REMARK  1 active torsions:
REMARK  status: ('A' for Active; 'I' for Inactive)
REMARK    1  A    between atoms: C_2  and  C_7 
REMARK       I    between atoms: N_6  and  C_2 
ROOT
ATOM      1  N   UNL d   1       0.711  -2.589   0.621  0.00  0.00    -0.061 NA
ATOM      2  N   UNL d   1      -0.503  -2.247   1.016  0.00  0.00    -0.292 N 
ATOM      3  HN  UNL d   1      -1.028  -2.739   1.738  1.00  0.00     0.183 HD
ATOM      4  C   UNL d   1      -0.981  -1.135   0.329  0.00  0.00     0.064 A 
ATOM      5  C   UNL d   1      -2.575   0.602  -0.278  0.00  0.00     0.034 A 
ATOM      6  S   UNL d   1       1.313  -1.592  -0.576  0.00  0.00     0.002 SA
ATOM      7  C   UNL d   1      -0.103  -0.612  -0.624  0.00  0.00     0.047 A 
ATOM      8  C   UNL d   1      -2.235  -0.516   0.503  0.00  0.00     0.049 A 
ATOM      9  C   UNL d   1      -1.687   1.079  -1.245  0.00  0.00     0.018 A 
ATOM     10  C   UNL d   1      -0.426   0.494  -1.421  0.00  0.00     0.023 A 
ENDROOT
BRANCH   5  11
ATOM     11  C   UNL d   1      -3.936   1.175  -0.103  0.00  0.00     0.253 C 
ATOM     12  N   UNL d   1      -4.126   2.546  -0.134  0.00  0.00    -0.348 N 
ATOM     13  C   UNL d   1      -3.127   3.605  -0.089  0.00  0.00     0.126 C 
ATOM     14  C   UNL d   1      -5.463   3.087   0.057  0.00  0.00     0.126 C 
ATOM     15  C   UNL d   1      -3.874   4.808   0.473  0.00  0.00     0.021 C 
ATOM     16  C   UNL d   1      -5.292   4.595  -0.038  0.00  0.00     0.021 C 
ATOM     17  O   UNL d   1      -4.863   0.389   0.082  0.00  0.00    -0.267 OA
ENDBRANCH   5  11
TORSDOF 1
