REMARK  4 active torsions:
REMARK  status: ('A' for Active; 'I' for Inactive)
REMARK    1  A    between atoms: N_3  and  S_1 
REMARK    2  A    between atoms: C_4  and  S_1 
REMARK    3  A    between atoms: N_2  and  C_8 
REMARK    4  A    between atoms: C_13  and  N_3 
ROOT
ATOM      1  C   UNL d   1       1.713  -4.024  -3.543  0.00  0.00     0.030 A 
ATOM      2  C   UNL d   1       0.957  -2.323  -1.417  0.00  0.00     0.042 A 
ATOM      3  C   UNL d   1       2.625  -3.136  -2.959  0.00  0.00     0.031 A 
ATOM      4  C   UNL d   1       0.397  -4.000  -3.053  0.00  0.00     0.031 A 
ATOM      5  C   UNL d   1       0.021  -3.173  -1.990  0.00  0.00     0.032 A 
ATOM      6  C   UNL d   1       2.252  -2.277  -1.920  0.00  0.00     0.032 A 
ENDROOT
BRANCH   2   7
ATOM      7  N   UNL d   1       0.606  -1.554  -0.279  0.00  0.00    -0.281 N 
ATOM      8  H   UNL d   1       0.733  -0.544  -0.316  0.00  0.00     0.179 HD
BRANCH   7   9
ATOM      9  S   UNL d   1       0.830  -2.210   1.260  0.00  0.00     0.263 S 
ATOM     10  O   UNL d   1       0.134  -3.478   1.345  0.00  0.00    -0.200 OA
ATOM     11  O   UNL d   1       0.557  -1.141   2.195  0.00  0.00    -0.200 OA
BRANCH   9  12
ATOM     12  C   UNL d   1       2.582  -2.549   1.351  0.00  0.00     0.080 A 
ATOM     13  C   UNL d   1       3.460  -1.566   1.837  0.00  0.00     0.028 A 
ATOM     14  C   UNL d   1       4.821  -1.859   1.964  0.00  0.00     0.044 A 
ATOM     15  C   UNL d   1       5.290  -3.124   1.617  0.00  0.00     0.116 A 
ATOM     16  C   UNL d   1       4.424  -4.106   1.147  0.00  0.00     0.044 A 
ATOM     17  F   UNL d   1       6.593  -3.403   1.749  0.00  0.00    -0.206 F 
ATOM     18  C   UNL d   1       3.061  -3.824   1.020  0.00  0.00     0.028 A 
ENDBRANCH   9  12
ENDBRANCH   7   9
ENDBRANCH   2   7
BRANCH   1  19
ATOM     19  N   UNL d   1       2.084  -4.955  -4.494  0.00  0.00    -0.378 N 
ATOM     20  C   UNL d   1       3.474  -5.418  -4.624  0.00  0.00     0.153 C 
ATOM     21  C   UNL d   1       3.479  -6.887  -5.112  0.00  0.00     0.291 C 
ATOM     22  N   UNL d   1       2.725  -7.078  -6.373  0.00  0.00     0.087 N 
ATOM     23  C   UNL d   1       1.341  -6.580  -6.191  0.00  0.00     0.291 C 
ATOM     24  C   UNL d   1       2.714  -8.488  -6.756  0.00  0.00     0.310 C 
ATOM     25  C   UNL d   1       1.299  -5.103  -5.732  0.00  0.00     0.153 C 
ENDBRANCH   1  19
TORSDOF 4
