REMARK  8 active torsions:
REMARK  status: ('A' for Active; 'I' for Inactive)
REMARK    1  A    between atoms: C_2  and  C_1 
REMARK    2  A    between atoms: O_20  and  C_2 
REMARK    3  A    between atoms: C_5  and  O_19 
REMARK    4  A    between atoms: C_8  and  C_5 
REMARK    5  A    between atoms: C_6  and  C_14 
REMARK    6  A    between atoms: C_23  and  C_7 
REMARK    7  A    between atoms: O_19  and  C_23 
REMARK    8  A    between atoms: C_25  and  O_20 
ROOT
ATOM      1  C   UNL d   1      -1.464   0.196  -0.074  0.00  0.00    -0.063 C 
ATOM      2  C   UNL d   1      -2.664   0.166  -0.053  0.00  0.00    -0.074 C 
ENDROOT
BRANCH   1   3
ATOM      3  C   UNL d   1      -0.034   0.173  -0.082  0.00  0.00     0.034 A 
ATOM      4  C   UNL d   1       0.707   1.352  -0.078  0.00  0.00     0.041 A 
ATOM      5  C   UNL d   1       2.105   1.277  -0.042  0.00  0.00     0.056 A 
ATOM      6  C   UNL d   1       2.697   0.020  -0.024  0.00  0.00     0.105 A 
ATOM      7  N   UNL d   1       2.000  -1.143  -0.041  0.00  0.00    -0.373 N 
ATOM      8  C   UNL d   1       0.650  -1.036  -0.065  0.00  0.00     0.108 A 
ATOM      9  HN  UNL d   1       2.468  -2.050  -0.036  1.00  0.00     0.164 HD
BRANCH   5  10
ATOM     10  C   UNL d   1       2.987   2.457   0.072  0.00  0.00     0.294 C 
ATOM     11  O   UNL d   1       4.200   2.381   0.169  0.00  0.00    -0.259 OA
BRANCH  10  12
ATOM     12  O   UNL d   1       2.241   3.583   0.175  0.00  0.00    -0.318 OA
BRANCH  12  13
ATOM     13  C   UNL d   1       2.915   4.711   0.750  0.00  0.00     0.174 C 
ATOM     14  C   UNL d   1       2.734   4.640   2.256  0.00  0.00     0.034 C 
ENDBRANCH  12  13
ENDBRANCH  10  12
ENDBRANCH   5  10
ENDBRANCH   1   3
BRANCH   2  15
ATOM     15  C   UNL d   1      -4.129   0.064  -0.030  0.00  0.00     0.273 C 
BRANCH  15  16
ATOM     16  O   UNL d   1      -4.689   1.279   0.479  0.00  0.00    -0.304 OA
BRANCH  16  17
ATOM     17  C   UNL d   1      -5.633   1.870  -0.292  0.00  0.00     0.310 C 
ATOM     18  O   UNL d   1      -6.023   1.478  -1.383  0.00  0.00    -0.258 OA
BRANCH  17  19
ATOM     19  C   UNL d   1      -6.165   3.103   0.366  0.00  0.00     0.108 A 
ATOM     20  N   UNL d   1      -5.723   3.415   1.615  0.00  0.00    -0.359 N 
ATOM     21  C   UNL d   1      -6.220   4.546   2.173  0.00  0.00     0.112 A 
ATOM     22  HN  UNL d   1      -5.051   2.826   2.106  1.00  0.00     0.165 HD
ATOM     23  C   UNL d   1      -7.133   5.383   1.547  0.00  0.00     0.049 A 
ATOM     24  C   UNL d   1      -7.579   5.042   0.276  0.00  0.00     0.028 A 
ATOM     25 CL   UNL d   1      -7.698   6.808   2.317  0.00  0.00    -0.083 Cl
ATOM     26  C   UNL d   1      -7.091   3.882  -0.328  0.00  0.00     0.037 A 
ENDBRANCH  17  19
ENDBRANCH  16  17
ENDBRANCH  15  16
ENDBRANCH   2  15
TORSDOF 8
