REMARK  3 active torsions:
REMARK  status: ('A' for Active; 'I' for Inactive)
REMARK    1  A    between atoms: C_2  and  C_1 
REMARK       I    between atoms: N_3  and  C_1 
REMARK    2  A    between atoms: N_5  and  N_3 
REMARK    3  A    between atoms: C_10  and  N_5 
ROOT
ATOM      1  C   UNL d   1       0.192  -0.267  -0.954  0.00  0.00     0.273 C 
ATOM      2  N   UNL d   1      -0.045   1.078  -0.691  0.00  0.00    -0.282 N 
ATOM      3  O   UNL d   1      -0.609  -1.134  -0.598  0.00  0.00    -0.266 OA
ATOM      4  H   UNL d   1       0.740   1.722  -0.681  0.00  0.00     0.184 HD
ENDROOT
BRANCH   2   5
ATOM      5  N   UNL d   1      -1.110   1.395   0.168  0.00  0.00    -0.203 NA
ATOM      6  H   UNL d   1      -1.715   0.582   0.334  0.00  0.00     0.153 HD
BRANCH   5   7
ATOM      7  C   UNL d   1      -1.873   2.534  -0.194  0.00  0.00     0.028 A 
ATOM      8  C   UNL d   1      -1.471   3.476  -1.153  0.00  0.00     0.032 A 
ATOM      9  C   UNL d   1      -2.221   4.640  -1.396  0.00  0.00    -0.060 A 
ATOM     10  C   UNL d   1      -1.788   5.636  -2.432  0.00  0.00     0.048 C 
ATOM     11  C   UNL d   1      -3.373   4.880  -0.640  0.00  0.00     0.007 A 
ATOM     12  C   UNL d   1      -3.777   3.968   0.330  0.00  0.00     0.002 A 
ATOM     13  C   UNL d   1      -3.031   2.808   0.550  0.00  0.00     0.025 A 
ENDBRANCH   5   7
ENDBRANCH   2   5
BRANCH   1  14
ATOM     14  C   UNL d   1       1.433  -0.571  -1.655  0.00  0.00     0.073 A 
ATOM     15  S   UNL d   1       2.442   0.651  -2.312  0.00  0.00    -0.097 SA
ATOM     16  C   UNL d   1       3.523  -0.496  -2.975  0.00  0.00     0.050 A 
ATOM     17  C   UNL d   1       3.150  -1.787  -2.679  0.00  0.00     0.009 A 
ATOM     18  C   UNL d   1       1.948  -1.829  -1.912  0.00  0.00     0.025 A 
ENDBRANCH   1  14
TORSDOF 3
