REMARK  3 active torsions:
REMARK  status: ('A' for Active; 'I' for Inactive)
REMARK    1  A    between atoms: N_6  and  S_1 
REMARK    2  A    between atoms: C_8  and  S_1 
REMARK    3  A    between atoms: C_14  and  N_6 
ROOT
ATOM      1  C   UNL d   1       2.395  -3.021   2.959  0.00  0.00    -0.041 A 
ATOM      2  C   UNL d   1       3.376  -4.970   3.836  0.00  0.00    -0.042 A 
ATOM      3  C   UNL d   1       1.991  -5.000   4.110  0.00  0.00    -0.019 A 
ATOM      4  C   UNL d   1       1.386  -3.793   3.577  0.00  0.00    -0.019 A 
ATOM      5  C   UNL d   1       3.739  -3.706   3.083  0.00  0.00     0.078 A 
ATOM      6  C   UNL d   1       0.076  -3.343   3.581  0.00  0.00     0.015 A 
ATOM      7  C   UNL d   1       1.440  -6.084   4.778  0.00  0.00     0.014 A 
ATOM      8  C   UNL d   1       2.115  -1.817   2.331  0.00  0.00     0.038 A 
ATOM      9  C   UNL d   1       0.793  -1.373   2.331  0.00  0.00     0.043 A 
ATOM     10  C   UNL d   1       4.226  -5.995   4.221  0.00  0.00     0.027 A 
ATOM     11  C   UNL d   1       3.665  -7.080   4.893  0.00  0.00     0.011 A 
ATOM     12  C   UNL d   1      -0.217  -2.123   2.954  0.00  0.00     0.031 A 
ATOM     13  C   UNL d   1       2.288  -7.131   5.169  0.00  0.00     0.020 A 
ATOM     14 BR   UNL d   1       4.779  -8.511   5.435  0.00  0.00    -0.051 Br
ENDROOT
BRANCH   9  15
ATOM     15  N   UNL d   1       0.457  -0.191   1.613  0.00  0.00    -0.281 N 
ATOM     16  H   UNL d   1      -0.161   0.478   2.067  0.00  0.00     0.179 HD
BRANCH  15  17
ATOM     17  S   UNL d   1       0.122  -0.338  -0.041  0.00  0.00     0.263 S 
ATOM     18  O   UNL d   1       1.215  -1.036  -0.688  0.00  0.00    -0.200 OA
ATOM     19  O   UNL d   1      -0.297   0.969  -0.496  0.00  0.00    -0.200 OA
BRANCH  17  20
ATOM     20  C   UNL d   1      -1.313  -1.390  -0.095  0.00  0.00     0.079 A 
ATOM     21  C   UNL d   1      -2.589  -0.821  -0.021  0.00  0.00     0.026 A 
ATOM     22  C   UNL d   1      -3.714  -1.627  -0.207  0.00  0.00     0.008 A 
ATOM     23  C   UNL d   1      -3.571  -2.996  -0.475  0.00  0.00    -0.062 A 
ATOM     24  C   UNL d   1      -2.287  -3.557  -0.523  0.00  0.00     0.008 A 
ATOM     25  C   UNL d   1      -4.785  -3.834  -0.755  0.00  0.00     0.048 C 
ATOM     26  C   UNL d   1      -1.158  -2.757  -0.338  0.00  0.00     0.026 A 
ENDBRANCH  17  20
ENDBRANCH  15  17
ENDBRANCH   9  15
TORSDOF 3
