REMARK  1 active torsions:
REMARK  status: ('A' for Active; 'I' for Inactive)
REMARK    1  A    between atoms: C_8  and  C_1 
ROOT
ATOM      1  C   UNL d   1       2.329  -0.723   0.005  0.00  0.00     0.169 A 
ATOM      2  N   UNL d   1       1.236  -1.411   0.003  0.00  0.00    -0.335 N 
ATOM      3  HN  UNL d   1       1.254  -2.431  -0.005  1.00  0.00     0.168 HD
ATOM      4  O   UNL d   1       2.419   0.629   0.040  0.00  0.00    -0.256 OA
ATOM      5  C   UNL d   1       1.293   1.374   0.062  0.00  0.00     0.302 A 
ATOM      6  C   UNL d   1       0.006   0.672   0.024  0.00  0.00     0.066 A 
ATOM      7  C   UNL d   1       0.034  -0.714   0.013  0.00  0.00     0.052 A 
ATOM      8  C   UNL d   1      -1.169  -1.422  -0.013  0.00  0.00     0.054 A 
ATOM      9  C   UNL d   1      -1.208   1.370  -0.004  0.00  0.00     0.022 A 
ATOM     10  O   UNL d   1       1.331   2.599   0.105  0.00  0.00    -0.259 OA
ATOM     11  C   UNL d   1      -2.383  -0.736  -0.039  0.00  0.00     0.036 A 
ATOM     12  C   UNL d   1      -2.408   0.659  -0.039  0.00  0.00     0.025 A 
ATOM     13 CL   UNL d   1      -3.861  -1.614  -0.079  0.00  0.00    -0.084 Cl
ENDROOT
BRANCH   1  14
ATOM     14  C   UNL d   1       3.646  -1.328  -0.043  0.00  0.00     0.056 A 
ATOM     15  S   UNL d   1       3.810  -3.034  -0.155  0.00  0.00    -0.098 SA
ATOM     16  C   UNL d   1       5.515  -2.944  -0.195  0.00  0.00     0.050 A 
ATOM     17  C   UNL d   1       5.965  -1.647  -0.116  0.00  0.00     0.009 A 
ATOM     18  C   UNL d   1       4.889  -0.715  -0.027  0.00  0.00     0.024 A 
ENDBRANCH   1  14
TORSDOF 1
