REMARK  3 active torsions:
REMARK  status: ('A' for Active; 'I' for Inactive)
REMARK    1  A    between atoms: N_2  and  C_1 
REMARK       I    between atoms: C_3  and  N_2 
REMARK    2  A    between atoms: C_5  and  C_3 
REMARK    3  A    between atoms: N_4  and  C_5 
ROOT
ATOM      1  N   UNL d   1       0.261   2.286   0.845  0.00  0.00    -0.325 N 
ATOM      2  C   UNL d   1       1.038   3.179   0.130  0.00  0.00     0.250 C 
ATOM      3  O   UNL d   1       0.773   4.367  -0.059  0.00  0.00    -0.271 OA
ATOM      4  H   UNL d   1       0.803   1.513   1.213  0.00  0.00     0.169 HD
ENDROOT
BRANCH   1   5
ATOM      5  C   UNL d   1      -0.986   2.597   1.442  0.00  0.00     0.046 A 
ATOM      6  C   UNL d   1      -1.983   3.327   0.753  0.00  0.00    -0.035 A 
ATOM      7  C   UNL d   1      -3.159   3.707   1.429  0.00  0.00     0.009 A 
ATOM      8  C   UNL d   1      -1.905   3.698  -0.707  0.00  0.00     0.050 C 
ATOM      9  C   UNL d   1      -3.385   3.313   2.742  0.00  0.00     0.001 A 
ATOM     10  C   UNL d   1      -2.449   2.513   3.387  0.00  0.00     0.009 A 
ATOM     11  C   UNL d   1      -1.246   2.141   2.754  0.00  0.00    -0.035 A 
ATOM     12  C   UNL d   1      -0.314   1.276   3.560  0.00  0.00     0.050 C 
ENDBRANCH   1   5
BRANCH   2  13
ATOM     13  C   UNL d   1       2.368   2.616  -0.388  0.00  0.00     0.375 C 
BRANCH  13  14
ATOM     14  N   UNL d   1       2.590   1.188  -0.057  0.00  0.00     0.101 N 
ATOM     15  C   UNL d   1       1.873   0.286  -0.997  0.00  0.00     0.299 C 
ATOM     16  C   UNL d   1       2.176  -1.186  -0.661  0.00  0.00     0.198 C 
ATOM     17  O   UNL d   1       3.582  -1.462  -0.722  0.00  0.00    -0.388 OA
ATOM     18  C   UNL d   1       4.305  -0.588   0.157  0.00  0.00     0.198 C 
ATOM     19  C   UNL d   1       4.038   0.880  -0.195  0.00  0.00     0.299 C 
ENDBRANCH  13  14
ENDBRANCH   2  13
TORSDOF 3
