REMARK  4 active torsions:
REMARK  status: ('A' for Active; 'I' for Inactive)
REMARK    1  A    between atoms: C_6  and  C_1 
REMARK    2  A    between atoms: C_8  and  C_6 
REMARK    3  A    between atoms: O_12  and  C_8 
REMARK    4  A    between atoms: C_16  and  O_12 
ROOT
ATOM      1  C   UNL d   1       1.709   1.263  -0.012  0.00  0.00     0.092 A 
ATOM      2  N   UNL d   1       0.871   1.273  -1.010  0.00  0.00    -0.353 N 
ATOM      3  HN  UNL d   1       0.971   1.945  -1.771  1.00  0.00     0.166 HD
ATOM      4  C   UNL d   1       1.616   0.255   1.138  0.00  0.00     0.269 A 
ATOM      5  N   UNL d   1       0.600  -0.662   1.046  0.00  0.00    -0.320 N 
ATOM      6  C   UNL d   1      -0.176   0.335  -1.011  0.00  0.00     0.059 A 
ATOM      7  C   UNL d   1      -0.319  -0.636  -0.008  0.00  0.00     0.061 A 
ATOM      8  O   UNL d   1       2.413   0.283   2.064  0.00  0.00    -0.266 OA
ATOM      9  C   UNL d   1      -1.115   0.380  -2.042  0.00  0.00     0.032 A 
ATOM     10  C   UNL d   1      -1.370  -1.554  -0.041  0.00  0.00     0.032 A 
ATOM     11  C   UNL d   1      -2.175  -0.529  -2.076  0.00  0.00     0.002 A 
ATOM     12  C   UNL d   1      -2.300  -1.498  -1.080  0.00  0.00     0.002 A 
ATOM     13  H   UNL d   1       0.518  -1.339   1.791  0.00  0.00     0.169 HD
ENDROOT
BRANCH   1  14
ATOM     14  C   UNL d   1       2.823   2.285   0.032  0.00  0.00     0.137 C 
ATOM     15  C   UNL d   1       4.184   1.620  -0.154  0.00  0.00     0.027 C 
BRANCH  14  16
ATOM     16  C   UNL d   1       2.804   3.155   1.266  0.00  0.00     0.268 C 
ATOM     17  O   UNL d   1       3.795   3.701   1.736  0.00  0.00    -0.264 OA
BRANCH  16  18
ATOM     18  O   UNL d   1       1.532   3.342   1.718  0.00  0.00    -0.321 OA
BRANCH  18  19
ATOM     19  C   UNL d   1       1.397   4.218   2.847  0.00  0.00     0.174 C 
ATOM     20  C   UNL d   1       1.674   3.463   4.133  0.00  0.00     0.034 C 
ENDBRANCH  18  19
ENDBRANCH  16  18
ENDBRANCH  14  16
ENDBRANCH   1  14
TORSDOF 4
