REMARK  7 active torsions:
REMARK  status: ('A' for Active; 'I' for Inactive)
REMARK    1  A    between atoms: C_2  and  C_1 
REMARK    2  A    between atoms: O_11  and  C_2 
REMARK    3  A    between atoms: C_3  and  C_4 
REMARK    4  A    between atoms: O_12  and  C_3 
REMARK    5  A    between atoms: S_5  and  C_6 
REMARK    6  A    between atoms: C_9  and  S_5 
REMARK    7  A    between atoms: C_7  and  C_9 
ROOT
ATOM      1  S   UNL d   1       1.414  -2.764  -1.046  0.00  0.00    -0.124 SA
ENDROOT
BRANCH   1   2
ATOM      2  C   UNL d   1       1.050  -1.014  -0.954  0.00  0.00     0.017 A 
ATOM      3  C   UNL d   1       1.472  -0.044  -1.886  0.00  0.00     0.054 A 
ATOM      4  C   UNL d   1       0.982   1.272  -1.777  0.00  0.00     0.020 A 
ATOM      5  C   UNL d   1       0.090   1.627  -0.766  0.00  0.00     0.001 A 
ATOM      6  C   UNL d   1      -0.308   0.677   0.166  0.00  0.00     0.001 A 
ATOM      7  C   UNL d   1       0.167  -0.633   0.072  0.00  0.00     0.019 A 
BRANCH   3   8
ATOM      8  C   UNL d   1       2.432  -0.274  -3.004  0.00  0.00     0.177 C 
ATOM      9  O   UNL d   1       3.119   0.625  -3.464  0.00  0.00    -0.646 OA
BRANCH   8  10
ATOM     10  O   UNL d   1       2.465  -1.525  -3.503  0.00  0.00    -0.773 OA
ATOM     11  H   UNL d   1       1.839  -2.144  -3.073  0.00  0.00     0.167 HD
ENDBRANCH   8  10
ENDBRANCH   3   8
ENDBRANCH   1   2
BRANCH   1  12
ATOM     12  C   UNL d   1       3.077  -2.832  -0.262  0.00  0.00     0.119 C 
BRANCH  12  13
ATOM     13  C   UNL d   1       3.563  -4.266  -0.313  0.00  0.00    -0.032 A 
ATOM     14  C   UNL d   1       3.317  -5.207   0.710  0.00  0.00     0.044 A 
ATOM     15  C   UNL d   1       3.767  -6.532   0.577  0.00  0.00     0.019 A 
ATOM     16  C   UNL d   1       4.438  -6.936  -0.575  0.00  0.00     0.001 A 
ATOM     17  C   UNL d   1       4.679  -6.022  -1.594  0.00  0.00     0.001 A 
ATOM     18  C   UNL d   1       4.247  -4.699  -1.465  0.00  0.00     0.009 A 
BRANCH  14  19
ATOM     19  C   UNL d   1       2.615  -4.883   1.974  0.00  0.00     0.176 C 
ATOM     20  O   UNL d   1       3.053  -5.186   3.071  0.00  0.00    -0.646 OA
BRANCH  19  21
ATOM     21  O   UNL d   1       1.421  -4.289   1.787  0.00  0.00    -0.773 OA
ATOM     22  H   UNL d   1       1.139  -4.233   0.851  0.00  0.00     0.167 HD
ENDBRANCH  19  21
ENDBRANCH  14  19
ENDBRANCH  12  13
ENDBRANCH   1  12
TORSDOF 7
