REMARK  1 active torsions:
REMARK  status: ('A' for Active; 'I' for Inactive)
REMARK    1  A    between atoms: N_2  and  S_1 
ROOT
ATOM      1  N   UNL d   1       0.535   0.194   1.694  0.00  0.00    -0.276 N 
ATOM      2  C   UNL d   1      -0.253  -0.840   2.316  0.00  0.00     0.051 A 
ATOM      3  C   UNL d   1      -1.165  -0.486   3.329  0.00  0.00    -0.031 A 
ATOM      4  C   UNL d   1       0.699   1.469   2.423  0.00  0.00     0.142 C 
ATOM      5  C   UNL d   1      -0.091  -2.193   1.996  0.00  0.00     0.031 A 
ATOM      6  C   UNL d   1      -0.661   1.958   2.889  0.00  0.00     0.026 C 
ATOM      7  C   UNL d   1      -1.307   0.935   3.814  0.00  0.00     0.042 C 
ATOM      8  C   UNL d   1      -1.928  -1.484   3.961  0.00  0.00     0.009 A 
ATOM      9  C   UNL d   1      -0.866  -3.175   2.619  0.00  0.00     0.002 A 
ATOM     10  C   UNL d   1      -1.788  -2.820   3.597  0.00  0.00     0.001 A 
ENDROOT
BRANCH   1  11
ATOM     11  S   UNL d   1       0.920   0.171   0.041  0.00  0.00     0.229 S 
ATOM     12  O   UNL d   1       0.664   1.490  -0.508  0.00  0.00    -0.206 OA
ATOM     13  O   UNL d   1       0.402  -1.010  -0.612  0.00  0.00    -0.206 OA
ATOM     14  C   UNL d   1       2.687  -0.021   0.140  0.00  0.00     0.186 C 
ENDBRANCH   1  11
TORSDOF 1
