REMARK  4 active torsions:
REMARK  status: ('A' for Active; 'I' for Inactive)
REMARK    1  A    between atoms: C_3  and  C_1 
REMARK    2  A    between atoms: C_10  and  CA_2 
REMARK       I    between atoms: N_11  and  C_3 
REMARK    3  A    between atoms: OXT_23  and  C_10 
REMARK    4  A    between atoms: C_18  and  N_11 
ROOT
ATOM      1  C   UNL d   1      -1.548  -2.451   0.721  0.00  0.00     0.275 C 
ATOM      2  N   UNL d   1      -0.918  -3.618   0.303  0.00  0.00    -0.322 N 
ATOM      3  O   UNL d   1      -1.051  -1.547   1.385  0.00  0.00    -0.266 OA
ATOM      4  H   UNL d   1      -1.467  -4.234  -0.284  0.00  0.00     0.169 HD
ENDROOT
BRANCH   1   5
ATOM      5  C   UNL d   1      -2.957  -2.307   0.288  0.00  0.00     0.134 A 
ATOM      6  CA  UNL d   1      -3.499  -1.056   0.012  0.00  0.00     0.139 A 
ATOM      7  N   UNL d   1      -4.834  -0.879  -0.207  0.00  0.00    -0.357 N 
ATOM      8  C   UNL d   1      -5.586  -2.001  -0.151  0.00  0.00     0.105 A 
ATOM      9  HN  UNL d   1      -5.237   0.037  -0.399  1.00  0.00     0.165 HD
ATOM     10  C   UNL d   1      -5.036  -3.255   0.071  0.00  0.00     0.105 A 
ATOM     11  N   UNL d   1      -3.711  -3.450   0.283  0.00  0.00    -0.358 N 
ATOM     12  HN  UNL d   1      -3.307  -4.376   0.427  1.00  0.00     0.165 HD
BRANCH   6  13
ATOM     13  C   UNL d   1      -2.648   0.139  -0.181  0.00  0.00     0.196 C 
ATOM     14  O   UNL d   1      -2.849   1.261   0.245  0.00  0.00    -0.645 OA
BRANCH  13  15
ATOM     15  OXT UNL d   1      -1.645  -0.119  -1.048  0.00  0.00    -0.772 OA
ATOM     16  HXT UNL d   1      -1.156   0.730  -1.100  0.00  0.00     0.167 HD
ENDBRANCH  13  15
ENDBRANCH   6  13
ENDBRANCH   1   5
BRANCH   2  17
ATOM     17  C   UNL d   1       0.463  -3.876   0.433  0.00  0.00     0.037 A 
ATOM     18  C   UNL d   1       1.284  -3.174   1.310  0.00  0.00     0.067 A 
ATOM     19  C   UNL d   1       2.668  -3.338   1.253  0.00  0.00     0.092 A 
ATOM     20  O   UNL d   1       3.407  -2.527   2.135  0.00  0.00    -0.275 OA
ATOM     21  C   UNL d   1       3.283  -4.210   0.356  0.00  0.00     0.004 A 
ATOM     22  C   UNL d   1       4.784  -2.484   2.070  0.00  0.00     0.288 A 
ATOM     23  O   UNL d   1       5.458  -1.758   2.793  0.00  0.00    -0.260 OA
ATOM     24  C   UNL d   1       5.425  -3.359   1.080  0.00  0.00     0.090 A 
ATOM     25  C   UNL d   1       4.752  -4.197   0.274  0.00  0.00    -0.043 A 
ATOM     26  C   UNL d   1       5.502  -5.026  -0.726  0.00  0.00     0.049 C 
ATOM     27  C   UNL d   1       2.444  -4.998  -0.441  0.00  0.00     0.017 A 
ATOM     28  C   UNL d   1       1.046  -4.836  -0.401  0.00  0.00     0.030 A 
ENDBRANCH   2  17
TORSDOF 4
