REMARK  7 active torsions:
REMARK  status: ('A' for Active; 'I' for Inactive)
REMARK    1  A    between atoms: C_2  and  C_1 
REMARK       I    between atoms: C_3  and  N_4 
REMARK    2  A    between atoms: C_11  and  C_3 
REMARK    3  A    between atoms: N_4  and  C_5 
REMARK    4  A    between atoms: N_6  and  C_11 
REMARK    5  A    between atoms: C_7  and  C_10 
REMARK    6  A    between atoms: O_24  and  C_7 
REMARK    7  A    between atoms: C_25  and  O_24 
ROOT
ATOM      1  C   UNL d   1       2.286   7.374   1.137  0.00  0.00     0.250 C 
ATOM      2  N   UNL d   1       3.290   7.881   0.326  0.00  0.00    -0.324 N 
ATOM      3  O   UNL d   1       2.291   7.381   2.367  0.00  0.00    -0.271 OA
ATOM      4  H   UNL d   1       3.315   7.550  -0.634  0.00  0.00     0.169 HD
ENDROOT
BRANCH   1   5
ATOM      5  C   UNL d   1       1.090   6.814   0.362  0.00  0.00     0.374 C 
BRANCH   5   6
ATOM      6  N   UNL d   1       1.184   5.358   0.069  0.00  0.00     0.097 N 
ATOM      7  C   UNL d   1       1.234   4.569   1.317  0.00  0.00     0.273 C 
ATOM      8  C   UNL d   1       1.209   3.054   1.071  0.00  0.00     0.045 C 
ATOM      9  C   UNL d   1       0.101   2.592   0.126  0.00  0.00     0.089 C 
ATOM     10  C   UNL d   1      -0.027   3.514  -1.085  0.00  0.00     0.045 C 
ATOM     11  C   UNL d   1      -0.023   4.990  -0.701  0.00  0.00     0.273 C 
BRANCH   9  12
ATOM     12  C   UNL d   1      -1.245   2.414   0.824  0.00  0.00     0.263 C 
ATOM     13  O   UNL d   1      -2.149   3.234   0.831  0.00  0.00    -0.265 OA
BRANCH  12  14
ATOM     14  O   UNL d   1      -1.321   1.160   1.357  0.00  0.00    -0.322 OA
BRANCH  14  15
ATOM     15  C   UNL d   1      -2.642   0.693   1.684  0.00  0.00     0.174 C 
ATOM     16  C   UNL d   1      -3.086   1.143   3.062  0.00  0.00     0.034 C 
ENDBRANCH  14  15
ENDBRANCH  12  14
ENDBRANCH   9  12
ENDBRANCH   5   6
ENDBRANCH   1   5
BRANCH   2  17
ATOM     17  C   UNL d   1       4.392   8.673   0.745  0.00  0.00     0.056 A 
ATOM     18  C   UNL d   1       4.435   9.285   2.001  0.00  0.00     0.032 A 
ATOM     19  C   UNL d   1       5.546  10.039   2.397  0.00  0.00     0.018 A 
ATOM     20  C   UNL d   1       6.648  10.196   1.549  0.00  0.00     0.049 A 
ATOM     21  C   UNL d   1       6.589   9.631   0.267  0.00  0.00     0.042 A 
ATOM     22  C   UNL d   1       5.471   8.883  -0.131  0.00  0.00     0.061 A 
ATOM     23 CL   UNL d   1       5.467   8.214  -1.727  0.00  0.00    -0.082 Cl
BRANCH  20  24
ATOM     24  C   UNL d   1       7.855  10.974   2.014  0.00  0.00     0.417 C 
ATOM     25  F   UNL d   1       8.952  10.789   1.230  0.00  0.00    -0.166 F 
ATOM     26  F   UNL d   1       8.241  10.636   3.277  0.00  0.00    -0.166 F 
ATOM     27  F   UNL d   1       7.632  12.316   2.038  0.00  0.00    -0.166 F 
ENDBRANCH  20  24
ENDBRANCH   2  17
TORSDOF 7
