REMARK  6 active torsions:
REMARK  status: ('A' for Active; 'I' for Inactive)
REMARK    1  A    between atoms: N_7  and  C_1 
REMARK    2  A    between atoms: C_9  and  C_6 
REMARK       I    between atoms: C_8  and  N_7 
REMARK       I    between atoms: N_10  and  C_8 
REMARK    3  A    between atoms: C_12  and  N_10 
REMARK    4  A    between atoms: O_13  and  C_14 
REMARK    5  A    between atoms: C_16  and  O_13 
REMARK    6  A    between atoms: C_21  and  C_16 
ROOT
ATOM      1  N   UNL d   1      -0.514  -2.252  -0.058  0.00  0.00    -0.293 N 
ATOM      2  C   UNL d   1      -1.867  -2.696  -0.059  0.00  0.00     0.326 C 
ATOM      3  N   UNL d   1      -2.855  -1.773  -0.259  0.00  0.00    -0.309 N 
ATOM      4  O   UNL d   1      -1.973  -3.897   0.140  0.00  0.00    -0.247 OA
ATOM      5  H   UNL d   1       0.095  -3.012   0.221  0.00  0.00     0.172 HD
ATOM      6  H   UNL d   1      -2.597  -0.812  -0.373  0.00  0.00     0.170 HD
ENDROOT
BRANCH   3   7
ATOM      7  C   UNL d   1      -4.222  -2.077  -0.484  0.00  0.00     0.036 C 
ATOM      8  C   UNL d   1      -4.784  -3.329  -0.225  0.00  0.00     0.032 C 
ATOM      9  C   UNL d   1      -6.075  -3.642  -0.668  0.00  0.00     0.039 C 
ATOM     10  C   UNL d   1      -6.816  -2.710  -1.389  0.00  0.00     0.069 C 
ATOM     11  C   UNL d   1      -6.323  -1.412  -1.518  0.00  0.00     0.039 C 
ATOM     12  C   UNL d   1      -5.035  -1.092  -1.060  0.00  0.00     0.032 C 
BRANCH  10  13
ATOM     13  O   UNL d   1      -8.023  -2.979  -1.983  0.00  0.00    -0.347 OA
BRANCH  13  14
ATOM     14  C   UNL d   1      -8.112  -4.303  -2.539  0.00  0.00     0.214 C 
BRANCH  14  15
ATOM     15  C   UNL d   1      -9.343  -4.499  -3.403  0.00  0.00    -0.034 A 
ATOM     16  C   UNL d   1      -9.337  -5.490  -4.399  0.00  0.00     0.009 A 
ATOM     17  C   UNL d   1     -10.484  -5.758  -5.150  0.00  0.00     0.001 A 
ATOM     18  C   UNL d   1     -11.656  -5.042  -4.908  0.00  0.00     0.000 A 
ATOM     19  C   UNL d   1     -11.676  -4.063  -3.920  0.00  0.00     0.001 A 
ATOM     20  C   UNL d   1     -10.529  -3.795  -3.166  0.00  0.00     0.009 A 
ENDBRANCH  14  15
ENDBRANCH  13  14
ENDBRANCH  10  13
ENDBRANCH   3   7
BRANCH   1  21
ATOM     21  C   UNL d   1       0.084  -1.038  -0.352  0.00  0.00     0.127 C 
ATOM     22  C   UNL d   1      -0.414   0.078  -0.987  0.00  0.00     0.077 C 
ATOM     23  C   UNL d   1       0.598   1.071  -0.873  0.00  0.00     0.037 C 
ATOM     24  N   UNL d   1       1.703   0.556  -0.324  0.00  0.00    -0.301 N 
ATOM     25  N   UNL d   1       1.400  -0.725  -0.086  0.00  0.00    -0.281 N 
ATOM     26  HN  UNL d   1       2.582   1.035  -0.129  1.00  0.00     0.187 HD
ATOM     27  C   UNL d   1       2.439  -1.586   0.429  0.00  0.00     0.179 C 
BRANCH  23  28
ATOM     28  C   UNL d   1       0.567   2.548  -1.232  0.00  0.00    -0.007 C 
ATOM     29  C   UNL d   1      -0.748   2.946  -1.930  0.00  0.00     0.021 C 
ATOM     30  C   UNL d   1       0.693   3.386   0.059  0.00  0.00     0.021 C 
ATOM     31  C   UNL d   1       1.736   2.898  -2.174  0.00  0.00     0.021 C 
ENDBRANCH  23  28
ENDBRANCH   1  21
TORSDOF 6
