REMARK  3 active torsions:
REMARK  status: ('A' for Active; 'I' for Inactive)
REMARK    1  A    between atoms: C_7  and  C_3 
REMARK    2  A    between atoms: C_8  and  N_4 
REMARK    3  A    between atoms: O_10  and  C_7 
ROOT
ATOM      1  N   UNL d   1       0.891  -0.647   0.028  0.00  0.00    -0.291 N 
ATOM      2  HN  UNL d   1       1.734  -1.221   0.031  1.00  0.00     0.187 HD
ATOM      3  C   UNL d   1      -0.386  -1.069   0.024  0.00  0.00     0.123 A 
ATOM      4  N   UNL d   1       0.815   0.714   0.027  0.00  0.00    -0.287 N 
ATOM      5  C   UNL d   1      -1.278   0.016   0.025  0.00  0.00     0.064 A 
ATOM      6  C   UNL d   1      -0.497   1.154   0.030  0.00  0.00     0.028 A 
ATOM      7  C   UNL d   1      -0.984   2.557   0.034  0.00  0.00     0.070 C 
ENDROOT
BRANCH   3   8
ATOM      8  C   UNL d   1      -0.700  -2.498   0.018  0.00  0.00     0.195 C 
ATOM      9  O   UNL d   1      -1.831  -2.963   0.015  0.00  0.00    -0.645 OA
BRANCH   8  10
ATOM     10  O   UNL d   1       0.421  -3.272   0.016  0.00  0.00    -0.772 OA
ATOM     11  H   UNL d   1       1.180  -2.641   0.019  0.00  0.00     0.167 HD
ENDBRANCH   8  10
ENDBRANCH   3   8
BRANCH   4  12
ATOM     12  C   UNL d   1       2.076   1.493   0.021  0.00  0.00     0.043 C 
ATOM     13  C   UNL d   1       3.319   0.561  -0.016  0.00  0.00     0.039 C 
ATOM     14  C   UNL d   1       2.164   2.385  -1.233  0.00  0.00     0.039 C 
ATOM     15  C   UNL d   1       2.203   2.337   1.304  0.00  0.00     0.039 C 
ENDBRANCH   4  12
TORSDOF 3
