REMARK  3 active torsions:
REMARK  status: ('A' for Active; 'I' for Inactive)
REMARK    1  A    between atoms: C_2  and  S_1 
REMARK    2  A    between atoms: N_5  and  S_1 
REMARK    3  A    between atoms: C_9  and  N_5 
ROOT
ATOM      1  C   UNL d   1       0.354  -1.507  -0.496  0.00  0.00     0.096 A 
ATOM      2  C   UNL d   1       0.596  -1.946  -1.804  0.00  0.00     0.029 A 
ATOM      3  I   UNL d   1       1.723  -0.928  -3.255  0.00  0.00    -0.043 I 
ATOM      4  C   UNL d   1      -0.447  -2.287   0.359  0.00  0.00     0.027 A 
ATOM      5  C   UNL d   1       0.051  -3.171  -2.227  0.00  0.00     0.020 A 
ATOM      6  C   UNL d   1      -0.987  -3.498  -0.075  0.00  0.00     0.002 A 
ATOM      7  C   UNL d   1      -0.734  -3.942  -1.367  0.00  0.00     0.001 A 
ENDROOT
BRANCH   1   8
ATOM      8  S   UNL d   1       0.961   0.028   0.155  0.00  0.00     0.260 S 
ATOM      9  O   UNL d   1       0.619   0.101   1.562  0.00  0.00    -0.200 OA
ATOM     10  O   UNL d   1       0.575   1.086  -0.751  0.00  0.00    -0.200 OA
BRANCH   8  11
ATOM     11  N   UNL d   1       2.636  -0.116   0.064  0.00  0.00    -0.316 N 
ATOM     12  H   UNL d   1       3.053   0.711  -0.364  0.00  0.00     0.172 HD
BRANCH  11  13
ATOM     13  C   UNL d   1       3.345  -0.752   1.177  0.00  0.00     0.128 C 
ATOM     14  C   UNL d   1       4.836  -0.756   0.886  0.00  0.00     0.027 C 
ENDBRANCH  11  13
ENDBRANCH   8  11
ENDBRANCH   1   8
TORSDOF 3
