REMARK  8 active torsions:
REMARK  status: ('A' for Active; 'I' for Inactive)
REMARK       I    between atoms: N_2  and  C_1 
REMARK    1  A    between atoms: C_3  and  C_1 
REMARK    2  A    between atoms: C_6  and  C_3 
REMARK    3  A    between atoms: C_19  and  N_4 
REMARK    4  A    between atoms: C_11  and  C_6 
REMARK    5  A    between atoms: C_20  and  C_6 
REMARK    6  A    between atoms: C_7  and  C_11 
REMARK    7  A    between atoms: O_25  and  C_7 
REMARK    8  A    between atoms: C_17  and  C_19 
ROOT
ATOM      1  C   UNL d   1       0.876  -0.044   0.200  0.00  0.00     0.220 C 
ATOM      2  N   UNL d   1       0.532  -1.360   0.520  0.00  0.00    -0.349 N 
ATOM      3  N   UNL d   1      -0.347  -4.005   1.546  0.00  0.00     0.095 N 
ATOM      4  O   UNL d   1       1.471   0.681   0.996  0.00  0.00    -0.273 OA
ATOM      5  C   UNL d   1       0.943  -1.841   1.842  0.00  0.00     0.156 C 
ATOM      6  C   UNL d   1      -0.632  -2.035  -0.070  0.00  0.00     0.156 C 
ATOM      7  C   UNL d   1      -0.657  -3.564   0.166  0.00  0.00     0.292 C 
ATOM      8  C   UNL d   1       0.930  -3.374   1.944  0.00  0.00     0.292 C 
ENDROOT
BRANCH   1   9
ATOM      9  C   UNL d   1       0.509   0.433  -1.199  0.00  0.00     0.113 C 
BRANCH   9  10
ATOM     10  C   UNL d   1       1.027   1.847  -1.559  0.00  0.00     0.037 C 
BRANCH  10  11
ATOM     11  C   UNL d   1       2.554   2.054  -1.460  0.00  0.00     0.119 C 
BRANCH  11  12
ATOM     12  C   UNL d   1       3.367   1.259  -2.444  0.00  0.00     0.140 C 
ATOM     13  O   UNL d   1       3.149   0.125  -2.841  0.00  0.00    -0.650 OA
BRANCH  12  14
ATOM     14  O   UNL d   1       4.474   1.918  -2.841  0.00  0.00    -0.776 OA
ATOM     15  H   UNL d   1       4.915   1.298  -3.457  0.00  0.00     0.167 HD
ENDBRANCH  12  14
ENDBRANCH  11  12
ENDBRANCH  10  11
BRANCH  10  16
ATOM     16  C   UNL d   1       0.545   2.340  -2.928  0.00  0.00    -0.053 A 
ATOM     17  C   UNL d   1       0.324   3.714  -3.126  0.00  0.00     0.007 A 
ATOM     18  C   UNL d   1      -0.001   4.212  -4.391  0.00  0.00     0.001 A 
ATOM     19  C   UNL d   1      -0.115   3.347  -5.475  0.00  0.00     0.000 A 
ATOM     20  C   UNL d   1       0.085   1.982  -5.294  0.00  0.00     0.001 A 
ATOM     21  C   UNL d   1       0.413   1.483  -4.031  0.00  0.00     0.007 A 
ENDBRANCH  10  16
ENDBRANCH   9  10
ENDBRANCH   1   9
BRANCH   3  22
ATOM     22  C   UNL d   1      -1.461  -3.694   2.458  0.00  0.00     0.311 C 
BRANCH  22  23
ATOM     23  C   UNL d   1      -1.244  -4.111   3.900  0.00  0.00    -0.027 A 
ATOM     24  C   UNL d   1      -1.282  -3.143   4.919  0.00  0.00     0.048 A 
ATOM     25  C   UNL d   1      -1.149  -3.564   6.226  0.00  0.00     0.105 A 
ATOM     26  O   UNL d   1      -1.191  -2.763   7.324  0.00  0.00    -0.323 OA
ATOM     27  C   UNL d   1      -0.972  -4.888   6.547  0.00  0.00     0.105 A 
ATOM     28  C   UNL d   1      -1.072  -3.742   8.377  0.00  0.00     0.352 A 
ATOM     29  O   UNL d   1      -0.882  -5.088   7.889  0.00  0.00    -0.323 OA
ATOM     30  C   UNL d   1      -0.908  -5.865   5.578  0.00  0.00     0.040 A 
ATOM     31  C   UNL d   1      -1.048  -5.470   4.241  0.00  0.00     0.012 A 
ENDBRANCH  22  23
ENDBRANCH   3  22
TORSDOF 8
