REMARK  3 active torsions:
REMARK  status: ('A' for Active; 'I' for Inactive)
REMARK       I    between atoms: C_3  and  N_11 
REMARK    1  A    between atoms: C_9  and  C_3 
REMARK    2  A    between atoms: C_4  and  C_8 
REMARK    3  A    between atoms: N_11  and  C_13 
ROOT
ATOM      1  C   UNL d   1      -4.531  -0.622   0.072  0.00  0.00     0.257 C 
ATOM      2  N   UNL d   1      -3.301  -1.241   0.214  0.00  0.00    -0.323 N 
ATOM      3  O   UNL d   1      -4.768   0.577   0.040  0.00  0.00    -0.267 OA
ATOM      4  H   UNL d   1      -3.288  -2.253   0.236  0.00  0.00     0.169 HD
ENDROOT
BRANCH   2   5
ATOM      5  C   UNL d   1      -2.039  -0.602   0.289  0.00  0.00     0.037 A 
ATOM      6  C   UNL d   1      -1.870   0.785   0.152  0.00  0.00     0.032 A 
ATOM      7  C   UNL d   1      -0.602   1.390   0.209  0.00  0.00     0.035 A 
ATOM      8  C   UNL d   1       0.511   0.572   0.411  0.00  0.00     0.068 A 
ATOM      9  C   UNL d   1       0.318  -0.792   0.548  0.00  0.00     0.106 A 
ATOM     10  N   UNL d   1       1.846   0.868   0.504  0.00  0.00    -0.338 N 
ATOM     11  C   UNL d   1      -0.920  -1.429   0.495  0.00  0.00     0.069 A 
ATOM     12  O   UNL d   1       1.542  -1.369   0.733  0.00  0.00    -0.296 OA
ATOM     13  C   UNL d   1       2.412  -0.309   0.689  0.00  0.00     0.120 A 
ATOM     14  C   UNL d   1       3.845  -0.623   0.854  0.00  0.00     0.098 C 
ATOM     15  HN  UNL d   1       2.296   1.781   0.443  1.00  0.00     0.168 HD
ENDBRANCH   2   5
BRANCH   1  16
ATOM     16  C   UNL d   1      -5.695  -1.536  -0.043  0.00  0.00     0.047 A 
ATOM     17  C   UNL d   1      -6.665  -1.331  -1.042  0.00  0.00     0.063 A 
ATOM     18  C   UNL d   1      -7.822  -2.132  -1.027  0.00  0.00     0.017 A 
ATOM     19  C   UNL d   1      -7.994  -3.127  -0.064  0.00  0.00     0.001 A 
ATOM     20  C   UNL d   1      -7.014  -3.339   0.902  0.00  0.00     0.001 A 
ATOM     21  C   UNL d   1      -5.868  -2.543   0.921  0.00  0.00     0.018 A 
BRANCH  17  22
ATOM     22  C   UNL d   1      -6.512  -0.278  -2.114  0.00  0.00     0.418 C 
ATOM     23  F   UNL d   1      -5.231  -0.075  -2.523  0.00  0.00    -0.166 F 
ATOM     24  F   UNL d   1      -7.182  -0.626  -3.256  0.00  0.00    -0.166 F 
ATOM     25  F   UNL d   1      -7.022   0.931  -1.758  0.00  0.00    -0.166 F 
ENDBRANCH  17  22
ENDBRANCH   1  16
TORSDOF 3
