REMARK  3 active torsions:
REMARK  status: ('A' for Active; 'I' for Inactive)
REMARK    1  A    between atoms: C_4  and  C_1 
REMARK    2  A    between atoms: C_8  and  C_2 
REMARK    3  A    between atoms: C_16  and  N_3 
REMARK       I    between atoms: N_15  and  C_8 
ROOT
ATOM      1  C   UNL d   1      -0.277  -1.190   0.116  0.00  0.00     0.095 C 
ATOM      2  C   UNL d   1       0.957  -0.534  -0.002  0.00  0.00     0.086 C 
ATOM      3  N   UNL d   1      -1.245  -0.193   0.005  0.00  0.00    -0.254 N 
ATOM      4  N   UNL d   1      -0.700   1.001  -0.326  0.00  0.00    -0.297 N 
ATOM      5  HN  UNL d   1      -1.195   1.867  -0.539  1.00  0.00     0.187 HD
ATOM      6  C   UNL d   1       0.618   0.809  -0.316  0.00  0.00     0.040 C 
ATOM      7  C   UNL d   1       1.497   1.950  -0.684  0.00  0.00     0.071 C 
ENDROOT
BRANCH   1   8
ATOM      8  C   UNL d   1      -0.541  -2.610   0.227  0.00  0.00     0.076 A 
ATOM      9  C   UNL d   1      -1.427  -3.456  -0.448  0.00  0.00     0.043 A 
ATOM     10  N   UNL d   1      -1.390  -4.787  -0.035  0.00  0.00    -0.298 N 
ATOM     11  C   UNL d   1      -2.416  -3.151  -1.517  0.00  0.00     0.071 C 
ATOM     12  N   UNL d   1      -0.498  -4.993   0.912  0.00  0.00    -0.269 N 
ATOM     13  HN  UNL d   1      -1.986  -5.519  -0.422  1.00  0.00     0.187 HD
ATOM     14  S   UNL d   1       0.317  -3.609   1.346  0.00  0.00     0.006 SA
ATOM     15  HN  UNL d   1      -0.325  -5.905   1.335  1.00  0.00     0.195 HD
ENDBRANCH   1   8
BRANCH   2  16
ATOM     16  C   UNL d   1       2.271  -1.173  -0.032  0.00  0.00     0.258 C 
ATOM     17  N   UNL d   1       3.312  -0.663   0.738  0.00  0.00    -0.344 N 
ATOM     18  C   UNL d   1       3.272   0.432   1.716  0.00  0.00     0.152 C 
ATOM     19  C   UNL d   1       4.596  -1.376   0.747  0.00  0.00     0.152 C 
ATOM     20  C   UNL d   1       4.465   1.372   1.480  0.00  0.00     0.187 C 
ATOM     21  O   UNL d   1       5.706   0.652   1.563  0.00  0.00    -0.388 OA
ATOM     22  C   UNL d   1       5.762  -0.396   0.581  0.00  0.00     0.187 C 
ATOM     23  O   UNL d   1       2.437  -2.164  -0.744  0.00  0.00    -0.267 OA
ENDBRANCH   2  16
BRANCH   3  24
ATOM     24  C   UNL d   1      -2.663  -0.272   0.123  0.00  0.00     0.057 A 
ATOM     25  C   UNL d   1      -3.285  -1.177   0.991  0.00  0.00     0.033 A 
ATOM     26  C   UNL d   1      -4.678  -1.301   0.980  0.00  0.00     0.026 A 
ATOM     27  C   UNL d   1      -5.444  -0.525   0.109  0.00  0.00     0.034 A 
ATOM     28  C   UNL d   1      -4.834   0.411  -0.723  0.00  0.00     0.026 A 
ATOM     29 CL   UNL d   1      -7.149  -0.737   0.047  0.00  0.00    -0.084 Cl
ATOM     30  C   UNL d   1      -3.446   0.555  -0.701  0.00  0.00     0.033 A 
ENDBRANCH   3  24
TORSDOF 3
