REMARK  10 active torsions:
REMARK  status: ('A' for Active; 'I' for Inactive)
REMARK    1  A    between atoms: N_2  and  S_1 
REMARK    2  A    between atoms: C_3  and  S_1 
REMARK    3  A    between atoms: C_6  and  N_2 
REMARK    4  A    between atoms: C_9  and  C_6 
REMARK    5  A    between atoms: C_12  and  C_9 
REMARK    6  A    between atoms: O_21  and  C_9 
REMARK    7  A    between atoms: O_10  and  C_12 
REMARK    8  A    between atoms: C_11  and  O_10 
REMARK    9  A    between atoms: O_22  and  C_13 
REMARK   10  A    between atoms: C_23  and  C_16 
ROOT
ATOM      1  C   UNL d   1       0.868  -2.035  -1.567  0.00  0.00     0.138 C 
ENDROOT
BRANCH   1   2
ATOM      2  N   UNL d   1       0.473  -1.362  -0.318  0.00  0.00    -0.213 NA
ATOM      3  H   UNL d   1      -0.515  -1.365  -0.065  0.00  0.00     0.140 HD
BRANCH   2   4
ATOM      4  S   UNL d   1       1.129   0.175  -0.044  0.00  0.00     0.241 S 
ATOM      5  O   UNL d   1       2.530   0.149  -0.414  0.00  0.00    -0.206 OA
ATOM      6  O   UNL d   1       0.681   0.585   1.261  0.00  0.00    -0.206 OA
BRANCH   4   7
ATOM      7  C   UNL d   1       0.254   1.157  -1.250  0.00  0.00     0.074 A 
ATOM      8  C   UNL d   1      -0.942   1.797  -0.904  0.00  0.00     0.025 A 
ATOM      9  C   UNL d   1      -1.582   2.611  -1.845  0.00  0.00     0.009 A 
ATOM     10  C   UNL d   1      -1.024   2.801  -3.121  0.00  0.00    -0.058 A 
ATOM     11  C   UNL d   1       0.166   2.132  -3.450  0.00  0.00     0.009 A 
ATOM     12  C   UNL d   1       0.811   1.327  -2.516  0.00  0.00     0.025 A 
BRANCH  10  13
ATOM     13  C   UNL d   1      -1.648   3.743  -4.125  0.00  0.00     0.034 C 
ATOM     14  C   UNL d   1      -2.628   3.065  -5.071  0.00  0.00     0.010 C 
ENDBRANCH  10  13
ENDBRANCH   4   7
ENDBRANCH   2   4
ENDBRANCH   1   2
BRANCH   1  15
ATOM     15  C   UNL d   1       0.321  -3.464  -1.695  0.00  0.00     0.156 C 
BRANCH  15  16
ATOM     16  C   UNL d   1      -1.214  -3.497  -1.677  0.00  0.00     0.208 C 
BRANCH  16  17
ATOM     17  O   UNL d   1      -1.662  -4.847  -1.821  0.00  0.00    -0.349 OA
BRANCH  17  18
ATOM     18  C   UNL d   1      -3.015  -5.042  -1.851  0.00  0.00     0.069 A 
ATOM     19  C   UNL d   1      -3.985  -4.053  -1.688  0.00  0.00     0.039 A 
ATOM     20  C   UNL d   1      -5.345  -4.379  -1.743  0.00  0.00     0.039 A 
ATOM     21  C   UNL d   1      -5.747  -5.697  -1.958  0.00  0.00     0.068 A 
ATOM     22  C   UNL d   1      -4.775  -6.685  -2.120  0.00  0.00     0.039 A 
ATOM     23  C   UNL d   1      -3.417  -6.360  -2.064  0.00  0.00     0.039 A 
BRANCH  21  24
ATOM     24  O   UNL d   1      -7.040  -6.136  -2.026  0.00  0.00    -0.356 OA
ATOM     25  C   UNL d   1      -8.055  -5.151  -1.874  0.00  0.00     0.210 C 
ENDBRANCH  21  24
ENDBRANCH  17  18
ENDBRANCH  16  17
ENDBRANCH  15  16
BRANCH  15  26
ATOM     26  O   UNL d   1       0.818  -4.013  -2.927  0.00  0.00    -0.392 OA
ATOM     27  H   UNL d   1       0.449  -3.504  -3.669  0.00  0.00     0.210 HD
ENDBRANCH  15  26
ENDBRANCH   1  15
TORSDOF 10
