REMARK  6 active torsions:
REMARK  status: ('A' for Active; 'I' for Inactive)
REMARK       I    between atoms: N_2  and  C_1 
REMARK    1  A    between atoms: C_4  and  C_1 
REMARK    2  A    between atoms: C_3  and  N_2 
REMARK       I    between atoms: C_5  and  N_6 
REMARK    3  A    between atoms: C_15  and  C_5 
REMARK    4  A    between atoms: N_6  and  C_7 
REMARK    5  A    between atoms: C_12  and  C_8 
REMARK    6  A    between atoms: N_11  and  C_15 
ROOT
ATOM      1  C   UNL d   1       0.624  -1.108  -2.428  0.00  0.00     0.062 C 
ATOM      2  C   UNL d   1       1.535  -2.028  -1.884  0.00  0.00     0.061 C 
ATOM      3  C   UNL d   1       0.833  -2.190  -4.663  0.00  0.00    -0.048 C 
ATOM      4  C   UNL d   1       0.277  -1.234  -3.804  0.00  0.00     0.039 C 
ATOM      5  C   UNL d   1       2.216  -2.863  -2.803  0.00  0.00     0.032 C 
ATOM      6  C   UNL d   1       1.887  -2.941  -4.155  0.00  0.00     0.010 C 
ENDROOT
BRANCH   2   7
ATOM      7  N   UNL d   1       1.894  -2.364  -0.561  0.00  0.00    -0.324 N 
ATOM      8  C   UNL d   1       1.748  -1.990   0.725  0.00  0.00     0.250 C 
ATOM      9  O   UNL d   1       2.053  -2.856   1.559  0.00  0.00    -0.271 OA
ATOM     10  H   UNL d   1       2.376  -3.259  -0.511  0.00  0.00     0.169 HD
BRANCH   8  11
ATOM     11  C   UNL d   1       1.364  -0.608   1.199  0.00  0.00     0.375 C 
BRANCH  11  12
ATOM     12  N   UNL d   1       2.483   0.180   1.730  0.00  0.00     0.101 N 
ATOM     13  C   UNL d   1       3.521   0.503   0.742  0.00  0.00     0.299 C 
ATOM     14  C   UNL d   1       4.718  -0.457   0.720  0.00  0.00     0.198 C 
ATOM     15  O   UNL d   1       5.294  -0.578   2.022  0.00  0.00    -0.388 OA
ATOM     16  C   UNL d   1       4.337  -1.123   2.937  0.00  0.00     0.198 C 
ATOM     17  C   UNL d   1       3.051  -0.277   3.009  0.00  0.00     0.299 C 
ENDBRANCH  11  12
ENDBRANCH   8  11
ENDBRANCH   2   7
BRANCH   1  18
ATOM     18  N   UNL d   1      -0.092  -0.113  -1.720  0.00  0.00    -0.320 N 
ATOM     19  C   UNL d   1      -0.289   1.173  -2.240  0.00  0.00     0.263 C 
ATOM     20  O   UNL d   1       0.258   1.556  -3.274  0.00  0.00    -0.267 OA
ATOM     21  H   UNL d   1      -0.419  -0.303  -0.787  0.00  0.00     0.169 HD
BRANCH  19  22
ATOM     22  C   UNL d   1      -1.146   2.086  -1.486  0.00  0.00     0.072 A 
ATOM     23  S   UNL d   1      -2.117   1.599  -0.167  0.00  0.00    -0.097 SA
ATOM     24  C   UNL d   1      -2.784   3.168   0.014  0.00  0.00     0.050 A 
ATOM     25  C   UNL d   1      -2.262   4.062  -0.895  0.00  0.00     0.009 A 
ATOM     26  C   UNL d   1      -1.322   3.435  -1.760  0.00  0.00     0.025 A 
ENDBRANCH  19  22
ENDBRANCH   1  18
BRANCH   3  27
ATOM     27  C   UNL d   1       0.296  -2.473  -6.075  0.00  0.00    -0.024 C 
ATOM     28  C   UNL d   1      -0.976  -1.676  -6.435  0.00  0.00     0.019 C 
ATOM     29  C   UNL d   1       1.373  -2.152  -7.128  0.00  0.00     0.019 C 
ATOM     30  C   UNL d   1      -0.083  -3.972  -6.177  0.00  0.00     0.019 C 
ENDBRANCH   3  27
TORSDOF 6
