REMARK  9 active torsions:
REMARK  status: ('A' for Active; 'I' for Inactive)
REMARK    1  A    between atoms: N_2  and  S_1 
REMARK    2  A    between atoms: C_5  and  S_1 
REMARK    3  A    between atoms: S_4  and  N_2 
REMARK    4  A    between atoms: C_10  and  S_4 
REMARK    5  A    between atoms: C_11  and  S_4 
REMARK    6  A    between atoms: C_6  and  C_12 
REMARK    7  A    between atoms: O_27  and  C_6 
REMARK    8  A    between atoms: C_7  and  C_13 
REMARK    9  A    between atoms: O_26  and  C_7 
ROOT
ATOM      1  S   UNL d   1       0.807  -2.318   1.531  0.00  0.00    -0.047 SA
ENDROOT
BRANCH   1   2
ATOM      2  N   UNL d   1       0.575  -0.741   1.417  0.00  0.00    -0.255 N 
ATOM      3  HN  UNL d   1       0.221  -0.186   2.196  1.00  0.00     0.187 HD
BRANCH   2   4
ATOM      4  S   UNL d   1       0.961  -0.041  -0.109  0.00  0.00     0.268 S 
ATOM      5  O   UNL d   1       1.864  -0.893  -0.863  0.00  0.00    -0.200 OA
ATOM      6  O   UNL d   1       1.296   1.352   0.117  0.00  0.00    -0.200 OA
BRANCH   4   7
ATOM      7  C   UNL d   1      -0.615  -0.073  -0.942  0.00  0.00     0.080 A 
ATOM      8  C   UNL d   1      -1.458   1.038  -0.868  0.00  0.00     0.026 A 
ATOM      9  C   UNL d   1      -2.642   1.058  -1.610  0.00  0.00     0.008 A 
ATOM     10  C   UNL d   1      -2.984  -0.022  -2.435  0.00  0.00    -0.062 A 
ATOM     11  C   UNL d   1      -2.130  -1.131  -2.500  0.00  0.00     0.008 A 
ATOM     12  C   UNL d   1      -4.236   0.037  -3.262  0.00  0.00     0.048 C 
ATOM     13  C   UNL d   1      -0.944  -1.158  -1.762  0.00  0.00     0.026 A 
ENDBRANCH   4   7
ENDBRANCH   2   4
ENDBRANCH   1   2
BRANCH   1  14
ATOM     14  C   UNL d   1       2.525  -2.231   2.134  0.00  0.00     0.015 A 
ATOM     15  C   UNL d   1       3.067  -1.141   2.827  0.00  0.00     0.021 A 
ATOM     16  C   UNL d   1       4.369  -1.204   3.336  0.00  0.00     0.020 A 
ATOM     17  C   UNL d   1       5.148  -2.354   3.158  0.00  0.00     0.037 A 
ATOM     18  C   UNL d   1       4.622  -3.437   2.446  0.00  0.00     0.020 A 
ATOM     19  C   UNL d   1       3.323  -3.366   1.927  0.00  0.00     0.021 A 
BRANCH  17  20
ATOM     20  C   UNL d   1       6.477  -2.403   3.820  0.00  0.00     0.176 C 
ATOM     21  O   UNL d   1       6.728  -1.770   4.832  0.00  0.00    -0.646 OA
BRANCH  20  22
ATOM     22  O   UNL d   1       7.379  -3.199   3.211  0.00  0.00    -0.773 OA
ATOM     23  H   UNL d   1       7.136  -3.497   2.316  0.00  0.00     0.167 HD
ENDBRANCH  20  22
ENDBRANCH  17  20
ENDBRANCH   1  14
BRANCH   1  24
ATOM     24  C   UNL d   1       0.124  -2.545   3.204  0.00  0.00     0.015 A 
ATOM     25  C   UNL d   1      -0.281  -1.512   4.059  0.00  0.00     0.021 A 
ATOM     26  C   UNL d   1      -0.822  -1.806   5.320  0.00  0.00     0.020 A 
ATOM     27  C   UNL d   1      -0.966  -3.134   5.744  0.00  0.00     0.037 A 
ATOM     28  C   UNL d   1      -0.572  -4.170   4.893  0.00  0.00     0.020 A 
ATOM     29  C   UNL d   1      -0.027  -3.872   3.639  0.00  0.00     0.021 A 
BRANCH  27  30
ATOM     30  C   UNL d   1      -1.606  -3.394   7.060  0.00  0.00     0.176 C 
ATOM     31  O   UNL d   1      -2.426  -2.632   7.548  0.00  0.00    -0.646 OA
BRANCH  30  32
ATOM     32  O   UNL d   1      -1.189  -4.519   7.671  0.00  0.00    -0.773 OA
ATOM     33  H   UNL d   1      -0.402  -4.941   7.284  0.00  0.00     0.167 HD
ENDBRANCH  30  32
ENDBRANCH  27  30
ENDBRANCH   1  24
TORSDOF 9
