REMARK  7 active torsions:
REMARK  status: ('A' for Active; 'I' for Inactive)
REMARK    1  A    between atoms: O_6  and  C_1 
REMARK    2  A    between atoms: CA_2  and  C_7 
REMARK    3  A    between atoms: C_3  and  CA_2 
REMARK    4  A    between atoms: N_4  and  CA_2 
REMARK    5  A    between atoms: OXT_15  and  C_3 
REMARK       I    between atoms: C_5  and  N_4 
REMARK    6  A    between atoms: C_14  and  O_6 
REMARK    7  A    between atoms: C_7  and  C_13 
ROOT
ATOM      1  C   UNL d   1       1.339   2.700   4.065  0.00  0.00    -0.056 A 
ATOM      2  C   UNL d   1       0.871   1.530   1.556  0.00  0.00     0.078 A 
ATOM      3  C   UNL d   1       1.667   1.359   3.832  0.00  0.00     0.010 A 
ATOM      4  C   UNL d   1       0.692   3.424   3.058  0.00  0.00     0.010 A 
ATOM      5  C   UNL d   1       0.458   2.839   1.814  0.00  0.00     0.037 A 
ATOM      6  C   UNL d   1       1.424   0.774   2.587  0.00  0.00     0.037 A 
ENDROOT
BRANCH   1   7
ATOM      7  C   UNL d   1       1.665   3.359   5.382  0.00  0.00     0.074 C 
BRANCH   7   8
ATOM      8  CA  UNL d   1       3.167   3.370   5.748  0.00  0.00     0.186 C 
BRANCH   8   9
ATOM      9  C   UNL d   1       3.960   4.134   4.668  0.00  0.00     0.163 C 
ATOM     10  O   UNL d   1       4.388   3.644   3.634  0.00  0.00    -0.648 OA
BRANCH   9  11
ATOM     11  OXT UNL d   1       4.094   5.456   4.951  0.00  0.00    -0.775 OA
ATOM     12  HXT UNL d   1       3.573   5.697   5.746  0.00  0.00     0.167 HD
ENDBRANCH   9  11
ENDBRANCH   8   9
BRANCH   8  13
ATOM     13  N   UNL d   1       3.396   4.041   7.054  0.00  0.00    -0.347 N 
ATOM     14  C   UNL d   1       2.878   3.479   8.206  0.00  0.00     0.214 C 
ATOM     15  O   UNL d   1       2.186   2.467   8.221  0.00  0.00    -0.274 OA
ATOM     16  C   UNL d   1       3.229   4.219   9.468  0.00  0.00     0.117 C 
ATOM     17  H   UNL d   1       4.324   4.432   7.190  0.00  0.00     0.163 HD
ENDBRANCH   8  13
ENDBRANCH   7   8
ENDBRANCH   1   7
BRANCH   2  18
ATOM     18  O   UNL d   1       0.636   1.091   0.290  0.00  0.00    -0.255 OA
BRANCH  18  19
ATOM     19  C   UNL d   1       1.558   0.181  -0.296  0.00  0.00     0.530 C 
ATOM     20  F   UNL d   1       2.681  -0.023   0.426  0.00  0.00    -0.144 F 
ATOM     21  F   UNL d   1       1.929   0.663  -1.504  0.00  0.00    -0.144 F 
ATOM     22  F   UNL d   1       0.946  -1.006  -0.488  0.00  0.00    -0.144 F 
ENDBRANCH  18  19
ENDBRANCH   2  18
TORSDOF 7
