REMARK  5 active torsions:
REMARK  status: ('A' for Active; 'I' for Inactive)
REMARK    1  A    between atoms: O_2  and  S_1 
REMARK    2  A    between atoms: C_3  and  S_1 
REMARK    3  A    between atoms: C_9  and  O_2 
REMARK    4  A    between atoms: O_8  and  C_10 
REMARK    5  A    between atoms: C_14  and  O_8 
ROOT
ATOM      1  C   UNL d   1       1.004  -0.313   2.530  0.00  0.00     0.089 A 
ATOM      2  C   UNL d   1       1.775  -1.613   4.887  0.00  0.00     0.076 A 
ATOM      3  C   UNL d   1       2.324  -0.732   2.698  0.00  0.00     0.041 A 
ATOM      4  C   UNL d   1       0.085  -0.494   3.568  0.00  0.00     0.041 A 
ATOM      5  C   UNL d   1       0.469  -1.145   4.744  0.00  0.00     0.040 A 
ATOM      6  C   UNL d   1       2.712  -1.362   3.882  0.00  0.00     0.040 A 
ENDROOT
BRANCH   1   7
ATOM      7  O   UNL d   1       0.530   0.329   1.414  0.00  0.00    -0.229 OA
BRANCH   7   8
ATOM      8  S   UNL d   1       1.167   0.059  -0.065  0.00  0.00     0.303 S 
ATOM      9  O   UNL d   1       0.920  -1.323  -0.431  0.00  0.00    -0.193 OA
ATOM     10  O   UNL d   1       2.498   0.635  -0.137  0.00  0.00    -0.193 OA
BRANCH   8  11
ATOM     11  C   UNL d   1       0.165   1.065  -1.140  0.00  0.00     0.086 A 
ATOM     12  C   UNL d   1      -0.279   2.314  -0.693  0.00  0.00     0.027 A 
ATOM     13  C   UNL d   1      -1.062   3.104  -1.537  0.00  0.00     0.025 A 
ATOM     14  C   UNL d   1      -1.391   2.642  -2.813  0.00  0.00     0.034 A 
ATOM     15  C   UNL d   1      -0.947   1.395  -3.255  0.00  0.00     0.025 A 
ATOM     16 CL   UNL d   1      -2.353   3.622  -3.849  0.00  0.00    -0.084 Cl
ATOM     17  C   UNL d   1      -0.166   0.597  -2.416  0.00  0.00     0.027 A 
ENDBRANCH   8  11
ENDBRANCH   7   8
ENDBRANCH   1   7
BRANCH   2  18
ATOM     18  O   UNL d   1       2.073  -2.259   6.065  0.00  0.00    -0.311 OA
BRANCH  18  19
ATOM     19  C   UNL d   1       2.968  -3.307   6.038  0.00  0.00     0.076 A 
ATOM     20  C   UNL d   1       3.808  -3.435   7.145  0.00  0.00     0.037 A 
ATOM     21  C   UNL d   1       4.750  -4.464   7.192  0.00  0.00     0.003 A 
ATOM     22  C   UNL d   1       4.849  -5.369   6.134  0.00  0.00     0.000 A 
ATOM     23  C   UNL d   1       3.986  -5.265   5.045  0.00  0.00     0.003 A 
ATOM     24  C   UNL d   1       3.030  -4.249   5.006  0.00  0.00     0.037 A 
ENDBRANCH  18  19
ENDBRANCH   2  18
TORSDOF 5
