REMARK  6 active torsions:
REMARK  status: ('A' for Active; 'I' for Inactive)
REMARK    1  A    between atoms: N_2  and  C_1 
REMARK    2  A    between atoms: C_3  and  C_1 
REMARK    3  A    between atoms: C_4  and  C_1 
REMARK    4  A    between atoms: N_6  and  C_1 
REMARK       I    between atoms: C_5  and  N_2 
REMARK    5  A    between atoms: C_7  and  C_5 
REMARK    6  A    between atoms: C_17  and  N_6 
ROOT
ATOM      1  C   UNL d   1       0.846  -0.097  -0.063  0.00  0.00     0.306 C 
ENDROOT
BRANCH   1   2
ATOM      2  N   UNL d   1       0.347  -1.370  -0.649  0.00  0.00    -0.315 N 
ATOM      3  C   UNL d   1       0.307  -2.571  -0.005  0.00  0.00     0.255 C 
ATOM      4  O   UNL d   1       0.624  -2.720   1.167  0.00  0.00    -0.268 OA
ATOM      5  H   UNL d   1       0.017  -1.304  -1.609  0.00  0.00     0.165 HD
BRANCH   3   6
ATOM      6  C   UNL d   1      -0.218  -3.681  -0.819  0.00  0.00     0.047 A 
ATOM      7  C   UNL d   1      -1.154  -4.541  -0.267  0.00  0.00     0.104 A 
ATOM      8  N   UNL d   1      -1.772  -5.521  -0.973  0.00  0.00    -0.374 N 
ATOM      9  C   UNL d   1      -1.416  -5.659  -2.271  0.00  0.00     0.087 A 
ATOM     10  HN  UNL d   1      -2.472  -6.127  -0.545  1.00  0.00     0.164 HD
ATOM     11  C   UNL d   1      -0.464  -4.867  -2.897  0.00  0.00     0.018 A 
ATOM     12  C   UNL d   1       0.149  -3.861  -2.154  0.00  0.00     0.020 A 
ENDBRANCH   3   6
ENDBRANCH   1   2
BRANCH   1  13
ATOM     13  C   UNL d   1       0.348   0.209   1.392  0.00  0.00     0.441 C 
ATOM     14  F   UNL d   1      -0.916  -0.238   1.600  0.00  0.00    -0.166 F 
ATOM     15  F   UNL d   1       1.147  -0.374   2.325  0.00  0.00    -0.166 F 
ATOM     16  F   UNL d   1       0.357   1.531   1.681  0.00  0.00    -0.166 F 
ENDBRANCH   1  13
BRANCH   1  17
ATOM     17  C   UNL d   1       0.286   1.119  -0.870  0.00  0.00     0.441 C 
ATOM     18  F   UNL d   1       0.035   0.749  -2.162  0.00  0.00    -0.166 F 
ATOM     19  F   UNL d   1      -0.899   1.577  -0.407  0.00  0.00    -0.166 F 
ATOM     20  F   UNL d   1       1.140   2.163  -0.926  0.00  0.00    -0.166 F 
ENDBRANCH   1  17
BRANCH   1  21
ATOM     21  N   UNL d   1       2.338  -0.230  -0.078  0.00  0.00    -0.349 N 
ATOM     22  H   UNL d   1       2.662  -0.713   0.764  0.00  0.00     0.162 HD
BRANCH  21  23
ATOM     23  C   UNL d   1       3.184  -0.420  -1.155  0.00  0.00     0.030 A 
ATOM     24  C   UNL d   1       2.792  -0.431  -2.495  0.00  0.00     0.031 A 
ATOM     25  C   UNL d   1       3.718  -0.568  -3.534  0.00  0.00     0.026 A 
ATOM     26  C   UNL d   1       5.075  -0.670  -3.247  0.00  0.00     0.034 A 
ATOM     27  C   UNL d   1       5.504  -0.628  -1.930  0.00  0.00     0.026 A 
ATOM     28 CL   UNL d   1       6.209  -0.842  -4.526  0.00  0.00    -0.084 Cl
ATOM     29  C   UNL d   1       4.569  -0.497  -0.899  0.00  0.00     0.031 A 
ENDBRANCH  21  23
ENDBRANCH   1  21
TORSDOF 6
