REMARK  5 active torsions:
REMARK  status: ('A' for Active; 'I' for Inactive)
REMARK    1  A    between atoms: C_6  and  C_1 
REMARK    2  A    between atoms: C_5  and  C_2 
REMARK       I    between atoms: N_9  and  C_5 
REMARK    3  A    between atoms: C_10  and  N_9 
REMARK    4  A    between atoms: C_14  and  C_10 
REMARK    5  A    between atoms: C_15  and  C_14 
ROOT
ATOM      1  C   UNL d   1       3.122  -3.829  -0.305  0.00  0.00     0.086 A 
ATOM      2  C   UNL d   1       2.047  -4.410  -1.069  0.00  0.00     0.092 A 
ATOM      3  N   UNL d   1       4.293  -4.070  -0.925  0.00  0.00    -0.259 N 
ATOM      4  HN  UNL d   1       5.222  -3.852  -0.564  1.00  0.00     0.195 HD
ATOM      5  O   UNL d   1       4.013  -4.655  -2.121  0.00  0.00    -0.241 OA
ATOM      6  C   UNL d   1       2.681  -4.857  -2.222  0.00  0.00     0.090 A 
ATOM      7  C   UNL d   1       2.244  -5.472  -3.495  0.00  0.00     0.080 C 
ENDROOT
BRANCH   2   8
ATOM      8  C   UNL d   1       0.615  -4.628  -0.892  0.00  0.00     0.257 C 
ATOM      9  N   UNL d   1      -0.093  -3.772  -0.071  0.00  0.00    -0.348 N 
ATOM     10  H   UNL d   1       0.405  -2.955   0.235  0.00  0.00     0.163 HD
ATOM     11  O   UNL d   1       0.064  -5.540  -1.504  0.00  0.00    -0.267 OA
BRANCH   9  12
ATOM     12  C   UNL d   1      -1.580  -3.732  -0.010  0.00  0.00     0.026 C 
ATOM     13  C   UNL d   1      -2.107  -2.981  -1.240  0.00  0.00     0.038 C 
ATOM     14  C   UNL d   1      -2.211  -5.159  -0.035  0.00  0.00     0.038 C 
BRANCH  12  15
ATOM     15  C   UNL d   1      -2.073  -3.125   1.347  0.00  0.00     0.038 C 
BRANCH  15  16
ATOM     16  C   UNL d   1      -1.908  -1.637   1.768  0.00  0.00    -0.049 C 
ATOM     17  C   UNL d   1      -2.827  -0.687   0.984  0.00  0.00     0.014 C 
ATOM     18  C   UNL d   1      -2.335  -1.556   3.257  0.00  0.00     0.014 C 
ATOM     19  C   UNL d   1      -0.465  -1.139   1.670  0.00  0.00     0.014 C 
ENDBRANCH  15  16
ENDBRANCH  12  15
ENDBRANCH   9  12
ENDBRANCH   2   8
BRANCH   1  20
ATOM     20  C   UNL d   1       3.182  -3.085   0.967  0.00  0.00     0.037 A 
ATOM     21  C   UNL d   1       2.562  -3.536   2.146  0.00  0.00     0.048 A 
ATOM     22 CL   UNL d   1       1.724  -5.045   2.258  0.00  0.00    -0.083 Cl
ATOM     23  C   UNL d   1       2.636  -2.792   3.337  0.00  0.00     0.025 A 
ATOM     24  C   UNL d   1       3.391  -1.623   3.404  0.00  0.00     0.003 A 
ATOM     25  C   UNL d   1       4.077  -1.197   2.279  0.00  0.00     0.025 A 
ATOM     26  C   UNL d   1       3.967  -1.902   1.071  0.00  0.00     0.048 A 
ATOM     27 CL   UNL d   1       4.835  -1.193  -0.259  0.00  0.00    -0.083 Cl
ENDBRANCH   1  20
TORSDOF 5
