REMARK  5 active torsions:
REMARK  status: ('A' for Active; 'I' for Inactive)
REMARK       I    between atoms: N_3  and  C_1 
REMARK    1  A    between atoms: O_8  and  C_1 
REMARK    2  A    between atoms: C_2  and  C_7 
REMARK    3  A    between atoms: N_4  and  O_8 
REMARK    4  A    between atoms: C_9  and  C_6 
REMARK    5  A    between atoms: N_16  and  C_6 
ROOT
ATOM      1  N   UNL d   1      -0.986   0.839  -0.873  0.00  0.00    -0.244 N 
ATOM      2  HN  UNL d   1       0.017   0.725  -1.018  1.00  0.00     0.196 HD
ATOM      3  C   UNL d   1      -1.734   1.622  -1.586  0.00  0.00     0.109 C 
ENDROOT
BRANCH   3   4
ATOM      4  C   UNL d   1      -1.063   2.438  -2.650  0.00  0.00     0.004 A 
ATOM      5  C   UNL d   1       0.101   1.964  -3.272  0.00  0.00     0.030 A 
ATOM      6  C   UNL d   1       0.745   2.732  -4.257  0.00  0.00     0.048 A 
ATOM      7  C   UNL d   1       0.209   3.985  -4.599  0.00  0.00     0.016 A 
ATOM      8  C   UNL d   1      -0.944   4.461  -3.975  0.00  0.00     0.002 A 
ATOM      9  C   UNL d   1      -1.583   3.688  -3.005  0.00  0.00     0.015 A 
BRANCH   6  10
ATOM     10  C   UNL d   1       1.995   2.240  -4.946  0.00  0.00     0.417 C 
ATOM     11  F   UNL d   1       2.401   1.006  -4.542  0.00  0.00    -0.166 F 
ATOM     12  F   UNL d   1       1.836   2.155  -6.298  0.00  0.00    -0.166 F 
ATOM     13  F   UNL d   1       3.057   3.070  -4.751  0.00  0.00    -0.166 F 
ENDBRANCH   6  10
ENDBRANCH   3   4
BRANCH   3  14
ATOM     14  N   UNL d   1      -3.096   1.740  -1.428  0.00  0.00    -0.286 NA
ATOM     15  H   UNL d   1      -3.482   0.976  -0.884  0.00  0.00     0.125 HD
ATOM     16  H   UNL d   1      -3.619   1.907  -2.281  0.00  0.00     0.125 HD
ENDBRANCH   3  14
BRANCH   1  17
ATOM     17  O   UNL d   1      -1.719   0.162   0.127  0.00  0.00    -0.180 OA
BRANCH  17  18
ATOM     18  C   UNL d   1      -0.859  -0.583   0.909  0.00  0.00     0.385 C 
ATOM     19  N   UNL d   1      -1.496  -1.255   1.941  0.00  0.00    -0.322 N 
ATOM     20  C   UNL d   1      -0.720  -2.081   2.862  0.00  0.00     0.154 C 
ATOM     21  C   UNL d   1      -2.923  -1.192   2.241  0.00  0.00     0.154 C 
ATOM     22  C   UNL d   1      -1.357  -3.467   2.985  0.00  0.00     0.187 C 
ATOM     23  O   UNL d   1      -2.736  -3.362   3.379  0.00  0.00    -0.388 OA
ATOM     24  C   UNL d   1      -3.489  -2.609   2.414  0.00  0.00     0.187 C 
ATOM     25  O   UNL d   1       0.354  -0.674   0.722  0.00  0.00    -0.236 OA
ENDBRANCH  17  18
ENDBRANCH   1  17
TORSDOF 5
