REMARK  3 active torsions:
REMARK  status: ('A' for Active; 'I' for Inactive)
REMARK    1  A    between atoms: N_7  and  S_1 
REMARK    2  A    between atoms: C_9  and  S_1 
REMARK    3  A    between atoms: C_14  and  N_7 
ROOT
ATOM      1  C   UNL d   1       2.590  -2.851  -3.307  0.00  0.00     0.092 A 
ATOM      2  C   UNL d   1       2.139  -4.387  -5.183  0.00  0.00    -0.043 A 
ATOM      3  O   UNL d   1       3.925  -2.717  -3.734  0.00  0.00    -0.275 OA
ATOM      4  C   UNL d   1       4.390  -3.396  -4.842  0.00  0.00     0.288 A 
ATOM      5  C   UNL d   1       1.675  -3.659  -3.991  0.00  0.00     0.004 A 
ATOM      6  C   UNL d   1       3.422  -4.243  -5.552  0.00  0.00     0.090 A 
ATOM      7  C   UNL d   1       2.256  -2.142  -2.151  0.00  0.00     0.068 A 
ATOM      8  C   UNL d   1       0.376  -3.732  -3.473  0.00  0.00     0.017 A 
ATOM      9  C   UNL d   1       0.970  -2.253  -1.644  0.00  0.00     0.045 A 
ATOM     10  O   UNL d   1       5.550  -3.309  -5.229  0.00  0.00    -0.260 OA
ATOM     11  C   UNL d   1       0.030  -3.045  -2.300  0.00  0.00     0.031 A 
ATOM     12  C   UNL d   1       1.249  -5.290  -5.987  0.00  0.00     0.049 C 
ENDROOT
BRANCH   9  13
ATOM     13  N   UNL d   1       0.638  -1.637  -0.408  0.00  0.00    -0.281 N 
ATOM     14  H   UNL d   1       0.983  -0.694  -0.238  0.00  0.00     0.179 HD
BRANCH  13  15
ATOM     15  S   UNL d   1       0.663  -2.585   0.995  0.00  0.00     0.263 S 
ATOM     16  O   UNL d   1      -0.179  -3.746   0.806  0.00  0.00    -0.200 OA
ATOM     17  O   UNL d   1       0.453  -1.673   2.100  0.00  0.00    -0.200 OA
BRANCH  15  18
ATOM     18  C   UNL d   1       2.355  -3.144   1.090  0.00  0.00     0.080 A 
ATOM     19  C   UNL d   1       3.300  -2.369   1.776  0.00  0.00     0.028 A 
ATOM     20  C   UNL d   1       4.614  -2.827   1.885  0.00  0.00     0.044 A 
ATOM     21  C   UNL d   1       4.968  -4.049   1.319  0.00  0.00     0.116 A 
ATOM     22  C   UNL d   1       4.030  -4.828   0.646  0.00  0.00     0.044 A 
ATOM     23  F   UNL d   1       6.228  -4.486   1.432  0.00  0.00    -0.206 F 
ATOM     24  C   UNL d   1       2.712  -4.381   0.537  0.00  0.00     0.028 A 
ENDBRANCH  15  18
ENDBRANCH  13  15
ENDBRANCH   9  13
TORSDOF 3
