REMARK  1 active torsions:
REMARK  status: ('A' for Active; 'I' for Inactive)
REMARK    1  A    between atoms: C_7  and  C_3 
ROOT
ATOM      1  N   UNL d   1       2.199  -0.222   0.158  0.00  0.00    -0.336 N 
ATOM      2  C   UNL d   1       1.321   0.816   0.017  0.00  0.00     0.255 C 
ATOM      3  C   UNL d   1       1.851  -1.572  -0.162  0.00  0.00     0.196 C 
ATOM      4  N   UNL d   1       0.516  -1.869   0.318  0.00  0.00    -0.267 NA
ATOM      5  C   UNL d   1      -0.111   0.459  -0.033  0.00  0.00     0.053 A 
ATOM      6  C   UNL d   1      -0.456  -0.893   0.072  0.00  0.00     0.026 A 
ATOM      7  O   UNL d   1       1.708   1.974  -0.045  0.00  0.00    -0.268 OA
ATOM      8  C   UNL d   1      -1.086   1.457  -0.134  0.00  0.00     0.019 A 
ATOM      9  C   UNL d   1      -1.813  -1.229   0.105  0.00  0.00     0.024 A 
ATOM     10  C   UNL d   1      -2.433   1.103  -0.119  0.00  0.00     0.001 A 
ATOM     11  C   UNL d   1      -2.796  -0.239  -0.004  0.00  0.00     0.002 A 
ATOM     12  H   UNL d   1       3.170   0.046   0.096  0.00  0.00     0.164 HD
ATOM     13  H   UNL d   1       0.218  -2.812   0.094  0.00  0.00     0.130 HD
ENDROOT
BRANCH   3  14
ATOM     14  C   UNL d   1       2.824  -2.534   0.491  0.00  0.00    -0.021 A 
ATOM     15  C   UNL d   1       2.969  -2.556   1.892  0.00  0.00     0.012 A 
ATOM     16  C   UNL d   1       3.842  -3.453   2.507  0.00  0.00     0.024 A 
ATOM     17  C   UNL d   1       4.579  -4.340   1.728  0.00  0.00     0.034 A 
ATOM     18  C   UNL d   1       4.457  -4.328   0.338  0.00  0.00     0.024 A 
ATOM     19 CL   UNL d   1       5.641  -5.462   2.482  0.00  0.00    -0.084 Cl
ATOM     20  C   UNL d   1       3.584  -3.428  -0.280  0.00  0.00     0.012 A 
ENDBRANCH   3  14
TORSDOF 1
