REMARK  4 active torsions:
REMARK  status: ('A' for Active; 'I' for Inactive)
REMARK    1  A    between atoms: C_2  and  N_1 
REMARK       I    between atoms: C_4  and  N_1 
REMARK    2  A    between atoms: N_5  and  C_2 
REMARK    3  A    between atoms: C_3  and  N_5 
REMARK    4  A    between atoms: C_8  and  C_4 
ROOT
ATOM      1  N   UNL d   1       1.119  -1.877   1.258  0.00  0.00    -0.331 N 
ATOM      2  H   UNL d   1       2.023  -2.108   0.840  0.00  0.00     0.168 HD
ENDROOT
BRANCH   1   3
ATOM      3  C   UNL d   1       0.678  -2.786   2.248  0.00  0.00     0.069 A 
ATOM      4  C   UNL d   1       1.152  -4.110   2.177  0.00  0.00     0.039 A 
ATOM      5  C   UNL d   1       0.887  -5.032   3.195  0.00  0.00     0.028 A 
ATOM      6 BR   UNL d   1       2.162  -4.728   0.685  0.00  0.00    -0.049 Br
ATOM      7  C   UNL d   1       0.171  -4.644   4.328  0.00  0.00    -0.059 A 
ATOM      8  C   UNL d   1      -0.317  -3.336   4.404  0.00  0.00     0.028 A 
ATOM      9  C   UNL d   1      -0.051  -5.615   5.452  0.00  0.00     0.048 C 
ATOM     10  C   UNL d   1      -0.051  -2.404   3.387  0.00  0.00     0.039 A 
ATOM     11 BR   UNL d   1      -0.490  -0.597   3.810  0.00  0.00    -0.049 Br
ENDBRANCH   1   3
BRANCH   1  12
ATOM     12  C   UNL d   1       0.421  -0.946   0.532  0.00  0.00     0.178 C 
ATOM     13  S   UNL d   1      -1.230  -0.880   0.276  0.00  0.00    -0.040 SA
BRANCH  12  14
ATOM     14  N   UNL d   1       1.208   0.012  -0.083  0.00  0.00    -0.303 N 
ATOM     15  C   UNL d   1       2.594   0.112  -0.068  0.00  0.00     0.231 C 
ATOM     16  O   UNL d   1       3.317  -0.813   0.304  0.00  0.00    -0.272 OA
ATOM     17  H   UNL d   1       0.674   0.735  -0.545  0.00  0.00     0.171 HD
BRANCH  15  18
ATOM     18  C   UNL d   1       3.165   1.430  -0.623  0.00  0.00     0.030 C 
ATOM     19  C   UNL d   1       2.646   2.620   0.197  0.00  0.00     0.025 C 
ATOM     20  C   UNL d   1       4.702   1.396  -0.522  0.00  0.00     0.025 C 
ATOM     21  C   UNL d   1       2.769   1.587  -2.097  0.00  0.00     0.025 C 
ENDBRANCH  15  18
ENDBRANCH  12  14
ENDBRANCH   1  12
TORSDOF 4
