REMARK  1 active torsions:
REMARK  status: ('A' for Active; 'I' for Inactive)
REMARK    1  A    between atoms: O_8  and  N_5 
ROOT
ATOM      1  C   UNL d   1       0.009   0.739   0.248  0.00  0.00     0.044 C 
ATOM      2  C   UNL d   1      -0.018  -0.708  -0.271  0.00  0.00     0.065 C 
ATOM      3  C   UNL d   1      -1.281   1.423  -0.199  0.00  0.00     0.015 C 
ATOM      4  C   UNL d   1       1.260  -1.407   0.170  0.00  0.00     0.131 C 
ATOM      5  N   UNL d   1      -1.222   2.507  -0.914  0.00  0.00    -0.277 N 
ATOM      6  HN  UNL d   1      -0.351   2.951  -1.204  1.00  0.00     0.193 HD
ATOM      7  O   UNL d   1       1.266  -2.482   0.763  0.00  0.00    -0.298 OA
ATOM      8  C   UNL d   1      -1.281  -1.443   0.198  0.00  0.00     0.013 C 
ATOM      9  C   UNL d   1       1.287   1.463  -0.202  0.00  0.00     0.011 C 
ATOM     10  C   UNL d   1      -2.559   0.733   0.250  0.00  0.00     0.055 C 
ATOM     11  C   UNL d   1       2.543  -0.722  -0.246  0.00  0.00     0.079 C 
ATOM     12  C   UNL d   1      -2.540  -0.705  -0.260  0.00  0.00     0.006 C 
ATOM     13  C   UNL d   1       2.535   0.712   0.264  0.00  0.00     0.008 C 
ENDROOT
BRANCH   5  14
ATOM     14  O   UNL d   1      -2.490   2.992  -1.237  0.00  0.00    -0.290 OA
ATOM     15  H   UNL d   1      -2.284   3.795  -1.751  0.00  0.00     0.244 HD
ENDBRANCH   5  14
TORSDOF 1
