REMARK  0 active torsions:
REMARK  status: ('A' for Active; 'I' for Inactive)
ROOT
ATOM      1  C   UNL d   1       1.410  -0.453  -0.003  0.00  0.00     0.075 A 
ATOM      2  C   UNL d   1       2.739  -0.763  -0.002  0.00  0.00     0.112 A 
ATOM      3  C   UNL d   1       0.850   0.804  -0.057  0.00  0.00     0.006 A 
ATOM      4  N   UNL d   1       0.465  -1.412   0.049  0.00  0.00    -0.353 N 
ATOM      5  C   UNL d   1       3.574   0.388  -0.071  0.00  0.00     0.087 A 
ATOM      6  N   UNL d   1       3.394  -1.907   0.050  0.00  0.00    -0.237 N 
ATOM      7  HN  UNL d   1       3.025  -2.857   0.103  1.00  0.00     0.197 HD
ATOM      8  C   UNL d   1       1.725   1.915  -0.126  0.00  0.00     0.017 A 
ATOM      9  O   UNL d   1       4.732  -1.479   0.014  0.00  0.00    -0.156 OA
ATOM     10  C   UNL d   1      -0.562   0.586  -0.027  0.00  0.00     0.003 A 
ATOM     11  C   UNL d   1      -0.776  -0.801   0.030  0.00  0.00     0.043 A 
ATOM     12  N   UNL d   1       4.834  -0.085  -0.061  0.00  0.00    -0.239 N 
ATOM     13  HN  UNL d   1       5.693   0.463  -0.101  1.00  0.00     0.197 HD
ATOM     14  C   UNL d   1       3.127   1.726  -0.137  0.00  0.00     0.035 A 
ATOM     15  C   UNL d   1      -1.683   1.440  -0.045  0.00  0.00     0.014 A 
ATOM     16  C   UNL d   1      -2.057  -1.364   0.058  0.00  0.00     0.030 A 
ATOM     17  C   UNL d   1      -2.969   0.889  -0.014  0.00  0.00     0.001 A 
ATOM     18  C   UNL d   1      -3.150  -0.492   0.034  0.00  0.00     0.002 A 
ATOM     19  H   UNL d   1       0.626  -2.410   0.092  0.00  0.00     0.166 HD
ENDROOT
TORSDOF 0
