REMARK  8 active torsions:
REMARK  status: ('A' for Active; 'I' for Inactive)
REMARK       I    between atoms: N_2  and  C_1 
REMARK       I    between atoms: N_3  and  C_1 
REMARK    1  A    between atoms: C_5  and  N_2 
REMARK    2  A    between atoms: C_6  and  N_3 
REMARK    3  A    between atoms: C_18  and  C_9 
REMARK    4  A    between atoms: C_19  and  C_18 
REMARK    5  A    between atoms: C_23  and  C_19 
REMARK    6  A    between atoms: C_20  and  C_21 
REMARK    7  A    between atoms: C_21  and  C_22 
REMARK    8  A    between atoms: C_22  and  C_23 
ROOT
ATOM      1  C   UNL d   1       0.965   2.292   0.504  0.00  0.00     0.036 A 
ATOM      2  C   UNL d   1       2.191   4.802   0.908  0.00  0.00    -0.058 A 
ATOM      3  C   UNL d   1       2.036   2.703  -0.292  0.00  0.00     0.030 A 
ATOM      4  C   UNL d   1       0.460   3.183   1.457  0.00  0.00     0.030 A 
ATOM      5  C   UNL d   1       1.068   4.428   1.657  0.00  0.00     0.009 A 
ATOM      6  C   UNL d   1       2.648   3.941  -0.090  0.00  0.00     0.009 A 
ENDROOT
BRANCH   1   7
ATOM      7  N   UNL d   1       0.381   1.006   0.418  0.00  0.00    -0.309 N 
ATOM      8  C   UNL d   1       0.944  -0.088  -0.223  0.00  0.00     0.325 C 
ATOM      9  N   UNL d   1       0.161  -1.223  -0.082  0.00  0.00    -0.309 N 
ATOM     10  O   UNL d   1       2.014  -0.064  -0.819  0.00  0.00    -0.247 OA
ATOM     11  H   UNL d   1      -0.763  -1.094   0.300  0.00  0.00     0.170 HD
ATOM     12  H   UNL d   1      -0.385   0.824   1.047  0.00  0.00     0.170 HD
BRANCH   9  13
ATOM     13  C   UNL d   1       0.494  -2.529  -0.509  0.00  0.00     0.036 A 
ATOM     14  C   UNL d   1       1.723  -2.869  -1.089  0.00  0.00     0.032 A 
ATOM     15  C   UNL d   1       1.991  -4.183  -1.484  0.00  0.00     0.044 A 
ATOM     16  C   UNL d   1       1.031  -5.162  -1.292  0.00  0.00     0.116 A 
ATOM     17  C   UNL d   1      -0.193  -4.853  -0.713  0.00  0.00     0.044 A 
ATOM     18  F   UNL d   1       1.288  -6.421  -1.669  0.00  0.00    -0.206 F 
ATOM     19  C   UNL d   1      -0.462  -3.537  -0.322  0.00  0.00     0.032 A 
ENDBRANCH   9  13
ENDBRANCH   1   7
BRANCH   2  20
ATOM     20  C   UNL d   1       2.924   6.093   1.175  0.00  0.00     0.038 C 
BRANCH  20  21
ATOM     21  C   UNL d   1       3.482   6.203   2.598  0.00  0.00     0.005 C 
BRANCH  21  22
ATOM     22  C   UNL d   1       4.507   5.114   2.941  0.00  0.00     0.000 C 
BRANCH  22  23
ATOM     23  C   UNL d   1       5.010   5.283   4.376  0.00  0.00     0.000 C 
BRANCH  23  24
ATOM     24  C   UNL d   1       6.019   4.199   4.754  0.00  0.00    -0.000 C 
BRANCH  24  25
ATOM     25  C   UNL d   1       6.503   4.383   6.192  0.00  0.00    -0.005 C 
ATOM     26  C   UNL d   1       7.511   3.316   6.583  0.00  0.00     0.005 C 
ENDBRANCH  24  25
ENDBRANCH  23  24
ENDBRANCH  22  23
ENDBRANCH  21  22
ENDBRANCH  20  21
ENDBRANCH   2  20
TORSDOF 8
