REMARK  8 active torsions:
REMARK  status: ('A' for Active; 'I' for Inactive)
REMARK    1  A    between atoms: C_2  and  C_1 
REMARK    2  A    between atoms: N_3  and  C_1 
REMARK    3  A    between atoms: N_4  and  C_1 
REMARK    4  A    between atoms: C_8  and  C_1 
REMARK    5  A    between atoms: C_7  and  N_3 
REMARK       I    between atoms: C_9  and  N_4 
REMARK    6  A    between atoms: O_20  and  C_8 
REMARK    7  A    between atoms: C_22  and  C_9 
REMARK    8  A    between atoms: C_23  and  O_20 
ROOT
ATOM      1  C   UNL d   1       1.007   0.033  -0.231  0.00  0.00     0.296 C 
ENDROOT
BRANCH   1   2
ATOM      2  C   UNL d   1       0.285   0.334  -1.606  0.00  0.00     0.442 C 
ATOM      3  F   UNL d   1      -0.558  -0.702  -1.916  0.00  0.00    -0.166 F 
ATOM      4  F   UNL d   1      -0.522   1.421  -1.576  0.00  0.00    -0.166 F 
ATOM      5  F   UNL d   1       1.108   0.453  -2.668  0.00  0.00    -0.166 F 
ENDBRANCH   1   2
BRANCH   1   6
ATOM      6  N   UNL d   1       0.773  -1.377   0.241  0.00  0.00    -0.345 N 
ATOM      7  H   UNL d   1      -0.193  -1.528   0.532  0.00  0.00     0.163 HD
BRANCH   6   8
ATOM      8  C   UNL d   1       1.256  -2.514  -0.430  0.00  0.00     0.073 A 
ATOM      9  C   UNL d   1       0.972  -3.785   0.113  0.00  0.00     0.184 A 
ATOM     10  C   UNL d   1       1.500  -4.953  -0.430  0.00  0.00     0.195 A 
ATOM     11  F   UNL d   1       0.176  -3.869   1.193  0.00  0.00    -0.200 F 
ATOM     12  F   UNL d   1       1.216  -6.143   0.120  0.00  0.00    -0.199 F 
ATOM     13  C   UNL d   1       2.330  -4.880  -1.536  0.00  0.00     0.158 A 
ATOM     14  C   UNL d   1       2.632  -3.651  -2.103  0.00  0.00     0.048 A 
ATOM     15  F   UNL d   1       2.853  -5.992  -2.068  0.00  0.00    -0.203 F 
ATOM     16  C   UNL d   1       2.104  -2.477  -1.548  0.00  0.00     0.036 A 
ENDBRANCH   6   8
ENDBRANCH   1   6
BRANCH   1  17
ATOM     17  N   UNL d   1       0.477   0.789   0.917  0.00  0.00    -0.319 N 
ATOM     18  C   UNL d   1       0.516   2.164   0.898  0.00  0.00     0.219 C 
ATOM     19  O   UNL d   1       1.011   2.779  -0.038  0.00  0.00    -0.274 OA
ATOM     20  H   UNL d   1       0.382   0.296   1.792  0.00  0.00     0.165 HD
BRANCH  18  21
ATOM     21  C   UNL d   1      -0.108   2.837   2.100  0.00  0.00     0.098 C 
ATOM     22  C   UNL d   1       0.099   4.345   2.062  0.00  0.00     0.014 C 
ENDBRANCH  18  21
ENDBRANCH   1  17
BRANCH   1  23
ATOM     23  C   UNL d   1       2.545   0.318  -0.332  0.00  0.00     0.318 C 
ATOM     24  O   UNL d   1       3.108   0.969  -1.206  0.00  0.00    -0.260 OA
BRANCH  23  25
ATOM     25  O   UNL d   1       3.228  -0.317   0.678  0.00  0.00    -0.318 OA
BRANCH  25  26
ATOM     26  C   UNL d   1       4.660  -0.316   0.563  0.00  0.00     0.174 C 
ATOM     27  C   UNL d   1       5.227   0.864   1.322  0.00  0.00     0.034 C 
ENDBRANCH  25  26
ENDBRANCH  23  25
ENDBRANCH   1  23
TORSDOF 8
