REMARK  2 active torsions:
REMARK  status: ('A' for Active; 'I' for Inactive)
REMARK    1  A    between atoms: C_11  and  C_6 
REMARK    2  A    between atoms: N_10  and  C_9 
ROOT
ATOM      1  C   UNL d   1      -6.369  -1.054   0.216  0.00  0.00     0.029 A 
ATOM      2  C   UNL d   1      -3.901   0.394   0.090  0.00  0.00    -0.035 A 
ATOM      3  C   UNL d   1      -6.065  -0.185  -0.845  0.00  0.00     0.030 A 
ATOM      4  C   UNL d   1      -5.387  -1.153   1.219  0.00  0.00     0.030 A 
ATOM      5  C   UNL d   1      -4.857   0.527  -0.914  0.00  0.00     0.013 A 
ATOM      6  C   UNL d   1      -4.176  -0.444   1.166  0.00  0.00     0.013 A 
ENDROOT
BRANCH   2   7
ATOM      7  C   UNL d   1      -2.627   1.107  -0.003  0.00  0.00     0.036 C 
ATOM      8  C   UNL d   1      -2.388   2.326   0.491  0.00  0.00     0.076 A 
ATOM      9  C   UNL d   1      -3.317   3.207   1.260  0.00  0.00     0.264 A 
ATOM     10  S   UNL d   1      -0.872   3.148   0.283  0.00  0.00    -0.055 SA
ATOM     11  N   UNL d   1      -2.720   4.404   1.511  0.00  0.00    -0.307 N 
ATOM     12  O   UNL d   1      -4.443   2.928   1.630  0.00  0.00    -0.267 OA
ATOM     13  C   UNL d   1      -1.441   4.591   1.086  0.00  0.00     0.146 A 
ATOM     14  H   UNL d   1      -3.221   5.119   2.016  0.00  0.00     0.170 HD
ATOM     15  S   UNL d   1      -0.590   5.993   1.317  0.00  0.00    -0.052 SA
ENDBRANCH   2   7
BRANCH   1  16
ATOM     16  N   UNL d   1      -7.533  -1.809   0.258  0.00  0.00    -0.390 N 
ATOM     17  C   UNL d   1      -8.159  -2.180   1.526  0.00  0.00     0.149 C 
ATOM     18  C   UNL d   1      -8.386  -2.006  -0.911  0.00  0.00     0.149 C 
ENDBRANCH   1  16
TORSDOF 2
