REMARK  4 active torsions:
REMARK  status: ('A' for Active; 'I' for Inactive)
REMARK    1  A    between atoms: C_2  and  C_1 
REMARK       I    between atoms: N_10  and  C_1 
REMARK    2  A    between atoms: C_12  and  N_10 
REMARK    3  A    between atoms: C_16  and  C_12 
REMARK    4  A    between atoms: C_13  and  C_16 
ROOT
ATOM      1  C   UNL d   1       1.061   0.049  -0.149  0.00  0.00     0.251 C 
ATOM      2  O   UNL d   1       0.428   1.099  -0.154  0.00  0.00    -0.268 OA
ATOM      3  N   UNL d   1       2.439  -0.009  -0.234  0.00  0.00    -0.357 N 
ATOM      4  H   UNL d   1       2.910  -0.859   0.045  0.00  0.00     0.162 HD
ENDROOT
BRANCH   1   5
ATOM      5  C   UNL d   1       0.336  -1.245  -0.028  0.00  0.00     0.033 A 
ATOM      6  C   UNL d   1      -0.906  -1.259   0.616  0.00  0.00     0.030 A 
ATOM      7  C   UNL d   1      -1.664  -2.442   0.686  0.00  0.00    -0.009 A 
ATOM      8  C   UNL d   1      -2.913  -2.484   1.319  0.00  0.00     0.015 A 
ATOM      9  C   UNL d   1      -1.181  -3.631   0.098  0.00  0.00     0.042 A 
ATOM     10  C   UNL d   1      -3.638  -3.669   1.342  0.00  0.00     0.018 A 
ATOM     11  C   UNL d   1      -3.085  -4.778   0.730  0.00  0.00     0.088 A 
ATOM     12  N   UNL d   1      -1.878  -4.780   0.120  0.00  0.00    -0.365 N 
ATOM     13  HN  UNL d   1      -1.508  -5.627  -0.310  1.00  0.00     0.165 HD
ATOM     14  C   UNL d   1       0.057  -3.595  -0.532  0.00  0.00     0.031 A 
ATOM     15  C   UNL d   1       0.820  -2.421  -0.605  0.00  0.00     0.019 A 
ENDBRANCH   1   5
BRANCH   3  16
ATOM     16  C   UNL d   1       3.205   1.222  -0.345  0.00  0.00     0.127 C 
BRANCH  16  17
ATOM     17  C   UNL d   1       4.708   0.974  -0.478  0.00  0.00     0.058 C 
BRANCH  17  18
ATOM     18  C   UNL d   1       5.479   2.257  -0.661  0.00  0.00    -0.057 A 
ATOM     19  C   UNL d   1       5.922   2.990   0.449  0.00  0.00     0.007 A 
ATOM     20  C   UNL d   1       6.618   4.187   0.277  0.00  0.00     0.001 A 
ATOM     21  C   UNL d   1       6.875   4.668  -1.006  0.00  0.00     0.000 A 
ATOM     22  C   UNL d   1       6.435   3.952  -2.117  0.00  0.00     0.001 A 
ATOM     23  C   UNL d   1       5.738   2.754  -1.947  0.00  0.00     0.007 A 
ENDBRANCH  17  18
ENDBRANCH  16  17
ENDBRANCH   3  16
TORSDOF 4
