REMARK  5 active torsions:
REMARK  status: ('A' for Active; 'I' for Inactive)
REMARK    1  A    between atoms: C_2  and  C_1 
REMARK    2  A    between atoms: O_3  and  C_2 
REMARK    3  A    between atoms: C_8  and  O_3 
REMARK    4  A    between atoms: C_4  and  C_8 
REMARK    5  A    between atoms: C_6  and  C_4 
ROOT
ATOM      1  O   UNL d   1       0.166   3.752  -0.283  0.00  0.00    -0.310 OA
ENDROOT
BRANCH   1   2
ATOM      2  C   UNL d   1      -0.669   3.787   0.776  0.00  0.00     0.295 C 
ATOM      3  O   UNL d   1      -0.313   3.985   1.931  0.00  0.00    -0.259 OA
BRANCH   2   4
ATOM      4  C   UNL d   1      -2.095   3.515   0.412  0.00  0.00     0.061 A 
ATOM      5  C   UNL d   1      -2.576   3.097  -0.838  0.00  0.00     0.050 A 
ATOM      6 CL   UNL d   1      -1.599   2.808  -2.237  0.00  0.00    -0.083 Cl
ATOM      7  C   UNL d   1      -3.950   2.852  -1.015  0.00  0.00     0.025 A 
ATOM      8  C   UNL d   1      -4.851   3.005   0.037  0.00  0.00     0.002 A 
ATOM      9  C   UNL d   1      -4.387   3.413   1.281  0.00  0.00     0.001 A 
ATOM     10  C   UNL d   1      -3.024   3.667   1.465  0.00  0.00     0.019 A 
ENDBRANCH   2   4
ENDBRANCH   1   2
BRANCH   1  11
ATOM     11  C   UNL d   1       1.557   3.925   0.003  0.00  0.00     0.263 C 
BRANCH  11  12
ATOM     12  C   UNL d   1       2.007   5.380  -0.078  0.00  0.00     0.183 C 
ATOM     13  O   UNL d   1       1.236   6.307  -0.323  0.00  0.00    -0.290 OA
BRANCH  12  14
ATOM     14  C   UNL d   1       3.464   5.676   0.080  0.00  0.00     0.012 A 
ATOM     15  C   UNL d   1       3.975   6.838  -0.519  0.00  0.00     0.017 A 
ATOM     16  C   UNL d   1       5.331   7.159  -0.404  0.00  0.00     0.025 A 
ATOM     17  C   UNL d   1       6.179   6.326   0.320  0.00  0.00     0.034 A 
ATOM     18  C   UNL d   1       5.684   5.170   0.923  0.00  0.00     0.025 A 
ATOM     19 CL   UNL d   1       7.845   6.726   0.476  0.00  0.00    -0.084 Cl
ATOM     20  C   UNL d   1       4.327   4.841   0.803  0.00  0.00     0.017 A 
ENDBRANCH  12  14
ENDBRANCH  11  12
ENDBRANCH   1  11
TORSDOF 5
