REMARK  4 active torsions:
REMARK  status: ('A' for Active; 'I' for Inactive)
REMARK    1  A    between atoms: N_8  and  C_1 
REMARK    2  A    between atoms: C_9  and  N_8 
REMARK    3  A    between atoms: C_21  and  C_12 
REMARK    4  A    between atoms: C_20  and  C_13 
ROOT
ATOM      1  C   UNL d   1       2.375  -0.044   0.287  0.00  0.00     0.150 A 
ATOM      2  C   UNL d   1       0.271   0.503   0.805  0.00  0.00     0.075 A 
ATOM      3  N   UNL d   1       1.537   0.951   0.455  0.00  0.00    -0.334 N 
ATOM      4  HN  UNL d   1       1.785   1.934   0.341  1.00  0.00     0.168 HD
ATOM      5  S   UNL d   1       1.661  -1.604   0.452  0.00  0.00    -0.052 SA
ATOM      6  C   UNL d   1      -0.870   1.280   1.109  0.00  0.00     0.083 A 
ATOM      7  C   UNL d   1       0.150  -0.887   0.860  0.00  0.00     0.037 A 
ATOM      8  C   UNL d   1      -2.085   0.671   1.434  0.00  0.00     0.058 A 
ATOM      9  C   UNL d   1      -1.060  -1.519   1.200  0.00  0.00     0.023 A 
ATOM     10  C   UNL d   1      -2.173  -0.718   1.478  0.00  0.00     0.027 A 
ATOM     11 CL   UNL d   1      -0.628   2.978   1.053  0.00  0.00    -0.080 Cl
ATOM     12 CL   UNL d   1      -3.506   1.587   1.785  0.00  0.00    -0.082 Cl
ENDROOT
BRANCH   1  13
ATOM     13  N   UNL d   1       3.692   0.056   0.008  0.00  0.00    -0.336 N 
ATOM     14  H   UNL d   1       4.178  -0.774  -0.306  0.00  0.00     0.168 HD
BRANCH  13  15
ATOM     15  C   UNL d   1       4.513   1.205   0.074  0.00  0.00     0.046 A 
ATOM     16  C   UNL d   1       4.508   2.108   1.177  0.00  0.00    -0.031 A 
ATOM     17  C   UNL d   1       5.365   3.225   1.138  0.00  0.00     0.009 A 
ATOM     18  C   UNL d   1       6.240   3.441   0.080  0.00  0.00     0.001 A 
ATOM     19  C   UNL d   1       6.248   2.567  -0.998  0.00  0.00     0.009 A 
ATOM     20  C   UNL d   1       5.372   1.469  -1.032  0.00  0.00    -0.031 A 
BRANCH  16  21
ATOM     21  C   UNL d   1       3.567   1.954   2.362  0.00  0.00     0.036 C 
ATOM     22  C   UNL d   1       4.070   2.403   3.732  0.00  0.00     0.010 C 
ENDBRANCH  16  21
BRANCH  20  23
ATOM     23  C   UNL d   1       5.340   0.653  -2.309  0.00  0.00     0.036 C 
ATOM     24  C   UNL d   1       6.345  -0.488  -2.328  0.00  0.00     0.010 C 
ENDBRANCH  20  23
ENDBRANCH  13  15
ENDBRANCH   1  13
TORSDOF 4
