REMARK  10 active torsions:
REMARK  status: ('A' for Active; 'I' for Inactive)
REMARK    1  A    between atoms: N_6  and  C_1 
REMARK    2  A    between atoms: N_10  and  C_1 
REMARK    3  A    between atoms: C_2  and  C_5 
REMARK    4  A    between atoms: C_3  and  C_4 
REMARK    5  A    between atoms: C_7  and  N_6 
REMARK    6  A    between atoms: C_17  and  N_10 
REMARK    7  A    between atoms: C_27  and  N_10 
REMARK    8  A    between atoms: C_18  and  C_17 
REMARK    9  A    between atoms: C_25  and  C_18 
REMARK   10  A    between atoms: C_26  and  C_27 
ROOT
ATOM      1  N   UNL d   1      -4.561  -0.015  -0.547  0.00  0.00    -0.197 NA
ATOM      2  C   UNL d   1      -3.449  -0.080  -0.209  0.00  0.00     0.060 C 
ATOM      3  C   UNL d   1      -2.041  -0.169   0.203  0.00  0.00     0.143 C 
ENDROOT
BRANCH   3   4
ATOM      4  C   UNL d   1      -1.179  -0.567  -0.994  0.00  0.00     0.139 C 
BRANCH   4   5
ATOM      5  N   UNL d   1       0.291  -0.628  -0.852  0.00  0.00    -0.357 N 
BRANCH   5   6
ATOM      6  C   UNL d   1       0.989  -0.170   0.261  0.00  0.00     0.174 C 
ATOM      7  S   UNL d   1       0.932  -0.941   1.744  0.00  0.00    -0.041 SA
BRANCH   6   8
ATOM      8  N   UNL d   1       1.929   0.818   0.066  0.00  0.00    -0.333 N 
ATOM      9  H   UNL d   1       2.766   0.739   0.633  0.00  0.00     0.168 HD
BRANCH   8  10
ATOM     10  C   UNL d   1       1.868   1.836  -0.899  0.00  0.00     0.035 C 
ATOM     11  C   UNL d   1       0.634   2.350  -1.300  0.00  0.00     0.045 C 
ATOM     12  C   UNL d   1       0.519   3.138  -2.449  0.00  0.00     0.050 C 
ATOM     13  C   UNL d   1       1.685   3.486  -3.138  0.00  0.00     0.032 C 
ATOM     14  C   UNL d   1       2.949   3.053  -2.688  0.00  0.00     0.050 C 
ATOM     15  C   UNL d   1       3.034   2.249  -1.536  0.00  0.00     0.045 C 
BRANCH  12  16
ATOM     16  C   UNL d   1      -0.860   3.486  -2.950  0.00  0.00     0.417 C 
ATOM     17  F   UNL d   1      -0.860   4.121  -4.151  0.00  0.00    -0.166 F 
ATOM     18  F   UNL d   1      -1.630   2.372  -3.115  0.00  0.00    -0.166 F 
ATOM     19  F   UNL d   1      -1.545   4.286  -2.090  0.00  0.00    -0.166 F 
ENDBRANCH  12  16
BRANCH  14  20
ATOM     20  C   UNL d   1       4.199   3.370  -3.473  0.00  0.00     0.417 C 
ATOM     21  F   UNL d   1       3.946   4.002  -4.654  0.00  0.00    -0.166 F 
ATOM     22  F   UNL d   1       5.051   4.181  -2.790  0.00  0.00    -0.166 F 
ATOM     23  F   UNL d   1       4.915   2.258  -3.796  0.00  0.00    -0.166 F 
ENDBRANCH  14  20
ENDBRANCH   8  10
ENDBRANCH   6   8
ENDBRANCH   5   6
BRANCH   5  24
ATOM     24  C   UNL d   1       1.008  -0.908  -2.120  0.00  0.00     0.131 C 
BRANCH  24  25
ATOM     25  C   UNL d   1       2.266  -1.768  -1.968  0.00  0.00     0.077 C 
BRANCH  25  26
ATOM     26  C   UNL d   1       2.833  -2.079  -3.329  0.00  0.00     0.010 A 
ATOM     27  N   UNL d   1       3.739  -1.205  -3.832  0.00  0.00    -0.369 N 
ATOM     28  C   UNL d   1       4.204  -1.444  -5.079  0.00  0.00     0.088 A 
ATOM     29  HN  UNL d   1       4.057  -0.401  -3.291  1.00  0.00     0.165 HD
ATOM     30  C   UNL d   1       3.792  -2.506  -5.865  0.00  0.00     0.017 A 
ATOM     31  C   UNL d   1       2.855  -3.387  -5.338  0.00  0.00     0.003 A 
ATOM     32  C   UNL d   1       2.369  -3.176  -4.052  0.00  0.00     0.025 A 
ENDBRANCH  25  26
ENDBRANCH  24  25
ENDBRANCH   5  24
ENDBRANCH   4   5
ENDBRANCH   3   4
TORSDOF 10
