REMARK  4 active torsions:
REMARK  status: ('A' for Active; 'I' for Inactive)
REMARK    1  A    between atoms: C_2  and  C_1 
REMARK       I    between atoms: N_5  and  C_1 
REMARK    2  A    between atoms: C_3  and  C_4 
REMARK    3  A    between atoms: O_11  and  C_3 
REMARK    4  A    between atoms: C_6  and  N_5 
ROOT
ATOM      1  C   UNL d   1       1.038  -0.166  -0.129  0.00  0.00     0.245 C 
ATOM      2  N   UNL d   1       0.299   0.510   0.818  0.00  0.00    -0.324 N 
ATOM      3  O   UNL d   1       0.617  -0.869  -1.039  0.00  0.00    -0.268 OA
ATOM      4  H   UNL d   1       0.804   1.053   1.506  0.00  0.00     0.169 HD
ENDROOT
BRANCH   2   5
ATOM      5  C   UNL d   1      -1.109   0.529   0.938  0.00  0.00     0.037 A 
ATOM      6  C   UNL d   1      -1.973  -0.161   0.087  0.00  0.00     0.071 A 
ATOM      7  C   UNL d   1      -3.350  -0.077   0.278  0.00  0.00     0.118 A 
ATOM      8  F   UNL d   1      -4.170  -0.742  -0.546  0.00  0.00    -0.206 F 
ATOM      9  C   UNL d   1      -3.892   0.683   1.306  0.00  0.00     0.042 A 
ATOM     10  C   UNL d   1      -3.040   1.371   2.165  0.00  0.00     0.005 A 
ATOM     11  C   UNL d   1      -1.655   1.293   1.982  0.00  0.00     0.029 A 
ENDBRANCH   2   5
BRANCH   1  12
ATOM     12  C   UNL d   1       2.500   0.024   0.051  0.00  0.00     0.081 C 
ATOM     13  C   UNL d   1       3.338  -0.645  -0.754  0.00  0.00     0.086 C 
BRANCH  13  14
ATOM     14  C   UNL d   1       4.787  -0.475  -0.575  0.00  0.00     0.165 C 
ATOM     15  O   UNL d   1       5.292   0.264   0.253  0.00  0.00    -0.647 OA
BRANCH  14  16
ATOM     16  O   UNL d   1       5.499  -1.234  -1.428  0.00  0.00    -0.773 OA
ATOM     17  H   UNL d   1       4.978  -1.786  -2.040  0.00  0.00     0.167 HD
ENDBRANCH  14  16
ENDBRANCH  13  14
ENDBRANCH   1  12
TORSDOF 4
