REMARK  7 active torsions:
REMARK  status: ('A' for Active; 'I' for Inactive)
REMARK    1  A    between atoms: O_17  and  C_1 
REMARK    2  A    between atoms: C_2  and  N_3 
REMARK    3  A    between atoms: O_18  and  C_5 
REMARK    4  A    between atoms: O_19  and  C_6 
REMARK    5  A    between atoms: O_21  and  C_10 
REMARK    6  A    between atoms: O_20  and  C_11 
REMARK    7  A    between atoms: C_12  and  C_13 
ROOT
ATOM      1  N   UNL d   1      -3.207   1.715  -0.333  0.00  0.00    -0.363 N 
ATOM      2  HN  UNL d   1      -2.567   2.490  -0.507  1.00  0.00     0.165 HD
ATOM      3  C   UNL d   1      -2.754   0.524  -0.124  0.00  0.00     0.100 C 
ENDROOT
BRANCH   1   4
ATOM      4  C   UNL d   1      -4.602   1.927  -0.315  0.00  0.00     0.068 A 
ATOM      5  C   UNL d   1      -5.460   1.009  -0.951  0.00  0.00     0.071 A 
ATOM      6  C   UNL d   1      -6.849   1.147  -0.917  0.00  0.00     0.092 A 
ATOM      7  C   UNL d   1      -7.394   2.253  -0.256  0.00  0.00     0.070 A 
ATOM      8  C   UNL d   1      -6.563   3.196   0.351  0.00  0.00     0.065 A 
ATOM      9 CL   UNL d   1      -9.103   2.500  -0.166  0.00  0.00    -0.081 Cl
ATOM     10  C   UNL d   1      -5.170   3.052   0.313  0.00  0.00     0.096 A 
BRANCH   6  11
ATOM     11  O   UNL d   1      -7.727   0.258  -1.484  0.00  0.00    -0.354 OA
ATOM     12  C   UNL d   1      -7.184  -0.895  -2.117  0.00  0.00     0.210 C 
ENDBRANCH   6  11
BRANCH  10  13
ATOM     13  O   UNL d   1      -4.511   4.056   0.979  0.00  0.00    -0.354 OA
ATOM     14  C   UNL d   1      -3.228   4.418   0.482  0.00  0.00     0.210 C 
ENDBRANCH  10  13
ENDBRANCH   1   4
BRANCH   3  15
ATOM     15  C   UNL d   1      -1.311   0.242  -0.127  0.00  0.00    -0.015 A 
ATOM     16  C   UNL d   1      -0.381   1.276  -0.129  0.00  0.00     0.052 A 
ATOM     17  C   UNL d   1       0.989   0.987  -0.136  0.00  0.00     0.105 A 
ATOM     18  C   UNL d   1       1.423  -0.349  -0.128  0.00  0.00     0.135 A 
ATOM     19  C   UNL d   1       0.464  -1.387  -0.010  0.00  0.00     0.105 A 
ATOM     20  C   UNL d   1      -0.904  -1.083  -0.073  0.00  0.00     0.052 A 
BRANCH  17  21
ATOM     21  O   UNL d   1       1.745   2.130  -0.072  0.00  0.00    -0.353 OA
ATOM     22  C   UNL d   1       2.982   2.140  -0.764  0.00  0.00     0.210 C 
ENDBRANCH  17  21
BRANCH  18  23
ATOM     23  O   UNL d   1       2.774  -0.585  -0.071  0.00  0.00    -0.351 OA
ATOM     24  C   UNL d   1       3.274  -1.580  -0.963  0.00  0.00     0.210 C 
ENDBRANCH  18  23
BRANCH  19  25
ATOM     25  O   UNL d   1       0.904  -2.670   0.220  0.00  0.00    -0.353 OA
ATOM     26  C   UNL d   1      -0.047  -3.579   0.777  0.00  0.00     0.210 C 
ENDBRANCH  19  25
ENDBRANCH   3  15
TORSDOF 7
