REMARK  3 active torsions:
REMARK  status: ('A' for Active; 'I' for Inactive)
REMARK    1  A    between atoms: C_16  and  N_3 
REMARK    2  A    between atoms: C_19  and  C_10 
REMARK    3  A    between atoms: C_20  and  C_15 
ROOT
ATOM      1  C   UNL d   1      -1.263   0.880   0.109  0.00  0.00     0.103 A 
ATOM      2  C   UNL d   1      -0.808  -0.405   0.232  0.00  0.00     0.073 A 
ATOM      3  N   UNL d   1      -3.533   0.121   0.098  0.00  0.00    -0.229 N 
ATOM      4  C   UNL d   1      -2.666   1.240   0.080  0.00  0.00     0.275 C 
ATOM      5  C   UNL d   1       0.623  -0.530   0.094  0.00  0.00     0.041 A 
ATOM      6  C   UNL d   1      -3.100  -1.195   0.297  0.00  0.00     0.334 C 
ATOM      7  N   UNL d   1      -1.740  -1.397   0.416  0.00  0.00    -0.306 N 
ATOM      8  S   UNL d   1       0.004   1.996  -0.012  0.00  0.00    -0.062 SA
ATOM      9  C   UNL d   1       1.168   0.746   0.000  0.00  0.00     0.103 A 
ATOM     10  C   UNL d   1       1.545  -1.621   0.005  0.00  0.00     0.018 A 
ATOM     11  N   UNL d   1       3.325   0.029  -0.159  0.00  0.00    -0.298 N 
ATOM     12  HN  UNL d   1       4.323   0.229  -0.219  1.00  0.00     0.187 HD
ATOM     13  N   UNL d   1       2.474   1.035  -0.100  0.00  0.00    -0.292 N 
ATOM     14  HN  UNL d   1       2.798   2.002  -0.130  1.00  0.00     0.187 HD
ATOM     15  C   UNL d   1       2.912  -1.268  -0.141  0.00  0.00     0.070 A 
ATOM     16  O   UNL d   1      -3.042   2.405  -0.007  0.00  0.00    -0.266 OA
ATOM     17  O   UNL d   1      -3.821  -2.188   0.394  0.00  0.00    -0.246 OA
ATOM     18  H   UNL d   1      -1.462  -2.348   0.608  0.00  0.00     0.171 HD
ENDROOT
BRANCH   3  19
ATOM     19  C   UNL d   1      -4.944   0.337  -0.017  0.00  0.00     0.047 A 
ATOM     20  C   UNL d   1      -5.710  -0.418  -0.920  0.00  0.00     0.031 A 
ATOM     21  C   UNL d   1      -7.091  -0.222  -1.017  0.00  0.00     0.009 A 
ATOM     22  C   UNL d   1      -7.734   0.710  -0.196  0.00  0.00    -0.062 A 
ATOM     23  C   UNL d   1      -6.974   1.449   0.716  0.00  0.00     0.009 A 
ATOM     24  C   UNL d   1      -9.220   0.891  -0.285  0.00  0.00     0.048 C 
ATOM     25  C   UNL d   1      -5.589   1.278   0.791  0.00  0.00     0.031 A 
ENDBRANCH   3  19
BRANCH  10  26
ATOM     26  C   UNL d   1       1.036  -3.011   0.029  0.00  0.00    -0.023 A 
ATOM     27  C   UNL d   1       0.028  -3.430  -0.861  0.00  0.00     0.012 A 
ATOM     28  C   UNL d   1      -0.496  -4.723  -0.815  0.00  0.00     0.001 A 
ATOM     29  C   UNL d   1       0.058  -5.665   0.044  0.00  0.00     0.000 A 
ATOM     30  C   UNL d   1       1.108  -5.301   0.881  0.00  0.00     0.001 A 
ATOM     31  C   UNL d   1       1.563  -3.978   0.904  0.00  0.00     0.012 A 
ENDBRANCH  10  26
BRANCH  15  32
ATOM     32  C   UNL d   1       4.037  -2.231  -0.288  0.00  0.00    -0.007 A 
ATOM     33  C   UNL d   1       3.935  -3.405  -1.057  0.00  0.00     0.014 A 
ATOM     34  C   UNL d   1       4.957  -4.359  -1.082  0.00  0.00     0.001 A 
ATOM     35  C   UNL d   1       6.144  -4.124  -0.399  0.00  0.00     0.000 A 
ATOM     36  C   UNL d   1       6.313  -2.932   0.297  0.00  0.00     0.001 A 
ATOM     37  C   UNL d   1       5.269  -2.001   0.356  0.00  0.00     0.014 A 
ENDBRANCH  15  32
TORSDOF 3
