REMARK  6 active torsions:
REMARK  status: ('A' for Active; 'I' for Inactive)
REMARK    1  A    between atoms: C_2  and  S_1 
REMARK    2  A    between atoms: N_8  and  S_1 
REMARK       I    between atoms: C_6  and  N_7 
REMARK    3  A    between atoms: C_11  and  C_6 
REMARK    4  A    between atoms: N_7  and  C_9 
REMARK    5  A    between atoms: C_12  and  C_11 
REMARK    6  A    between atoms: C_13  and  C_12 
ROOT
ATOM      1  C   UNL d   1       0.206  -0.129  -1.615  0.00  0.00     0.076 A 
ATOM      2  C   UNL d   1       0.191  -1.478  -1.978  0.00  0.00     0.054 A 
ATOM      3  C   UNL d   1       0.030  -1.857  -3.309  0.00  0.00     0.036 A 
ATOM      4  C   UNL d   1       0.046   0.869  -2.571  0.00  0.00     0.025 A 
ATOM      5  C   UNL d   1      -0.157   0.497  -3.902  0.00  0.00     0.004 A 
ATOM      6  C   UNL d   1      -0.176  -0.859  -4.269  0.00  0.00     0.029 A 
ENDROOT
BRANCH   3   7
ATOM      7  N   UNL d   1       0.037  -3.216  -3.710  0.00  0.00    -0.327 N 
ATOM      8  C   UNL d   1       0.545  -4.247  -2.945  0.00  0.00     0.222 C 
ATOM      9  O   UNL d   1       1.214  -4.104  -1.920  0.00  0.00    -0.273 OA
ATOM     10  H   UNL d   1      -0.247  -3.419  -4.657  0.00  0.00     0.169 HD
BRANCH   8  11
ATOM     11  C   UNL d   1       0.265  -5.640  -3.492  0.00  0.00     0.108 C 
BRANCH  11  12
ATOM     12  C   UNL d   1       0.199  -6.612  -2.315  0.00  0.00     0.047 C 
BRANCH  12  13
ATOM     13  C   UNL d   1       0.023  -8.055  -2.703  0.00  0.00    -0.058 A 
ATOM     14  C   UNL d   1       1.146  -8.864  -2.927  0.00  0.00     0.007 A 
ATOM     15  C   UNL d   1       0.995 -10.226  -3.187  0.00  0.00     0.001 A 
ATOM     16  C   UNL d   1      -0.279 -10.790  -3.234  0.00  0.00     0.000 A 
ATOM     17  C   UNL d   1      -1.402  -9.989  -3.034  0.00  0.00     0.001 A 
ATOM     18  C   UNL d   1      -1.254  -8.626  -2.774  0.00  0.00     0.007 A 
ENDBRANCH  12  13
ENDBRANCH  11  12
ENDBRANCH   8  11
ENDBRANCH   3   7
BRANCH   1  19
ATOM     19  S   UNL d   1       0.379   0.239   0.103  0.00  0.00     0.239 S 
ATOM     20  O   UNL d   1      -0.655  -0.459   0.827  0.00  0.00    -0.206 OA
ATOM     21  O   UNL d   1       0.624   1.655   0.264  0.00  0.00    -0.206 OA
BRANCH  19  22
ATOM     22  N   UNL d   1       1.826  -0.522   0.485  0.00  0.00    -0.225 NA
ATOM     23  H   UNL d   1       1.661  -1.419   0.943  0.00  0.00     0.136 HD
ATOM     24  H   UNL d   1       2.433   0.110   1.006  0.00  0.00     0.136 HD
ENDBRANCH  19  22
ENDBRANCH   1  19
TORSDOF 6
