REMARK  4 active torsions:
REMARK  status: ('A' for Active; 'I' for Inactive)
REMARK    1  A    between atoms: N_2  and  C_1 
REMARK    2  A    between atoms: C_3  and  N_2 
REMARK    3  A    between atoms: N_6  and  N_11 
REMARK    4  A    between atoms: C_19  and  C_18 
ROOT
ATOM      1  C   UNL d   1       1.703  -0.363  -0.203  0.00  0.00     0.186 C 
ATOM      2  S   UNL d   1       1.317  -0.718  -1.792  0.00  0.00    -0.040 SA
ATOM      3  N   UNL d   1       2.882   0.252   0.053  0.00  0.00    -0.277 N 
ATOM      4  H   UNL d   1       3.446   0.465  -0.765  0.00  0.00     0.189 HD
ENDROOT
BRANCH   3   5
ATOM      5  N   UNL d   1       3.380   0.512   1.287  0.00  0.00    -0.309 N 
ATOM      6  C   UNL d   1       4.474   1.207   1.291  0.00  0.00     0.118 C 
ATOM      7  HN  UNL d   1       2.931   0.188   2.143  1.00  0.00     0.186 HD
BRANCH   6   8
ATOM      8  C   UNL d   1       5.132   1.581   2.553  0.00  0.00    -0.018 A 
ATOM      9  C   UNL d   1       4.829   0.905   3.738  0.00  0.00     0.038 A 
ATOM     10  C   UNL d   1       5.427   1.303   4.936  0.00  0.00     0.056 A 
ATOM     11 CL   UNL d   1       5.016   0.427   6.367  0.00  0.00    -0.083 Cl
ATOM     12  C   UNL d   1       6.322   2.381   4.946  0.00  0.00     0.055 A 
ATOM     13  C   UNL d   1       6.629   3.045   3.752  0.00  0.00     0.026 A 
ATOM     14 CL   UNL d   1       7.071   2.950   6.394  0.00  0.00    -0.083 Cl
ATOM     15  C   UNL d   1       6.041   2.641   2.551  0.00  0.00     0.014 A 
ENDBRANCH   6   8
ENDBRANCH   3   5
BRANCH   1  16
ATOM     16  N   UNL d   1       0.812  -0.683   0.755  0.00  0.00    -0.361 N 
ATOM     17  H   UNL d   1      -0.054  -1.032   0.360  0.00  0.00     0.162 HD
BRANCH  16  18
ATOM     18  C   UNL d   1       0.727  -0.257   2.150  0.00  0.00     0.092 C 
ATOM     19  C   UNL d   1       0.384   1.254   2.333  0.00  0.00     0.031 C 
ATOM     20  C   UNL d   1      -0.841   1.571   1.498  0.00  0.00    -0.024 C 
ATOM     21  C   UNL d   1      -0.281   1.252   3.714  0.00  0.00     0.019 C 
ATOM     22  C   UNL d   1      -1.879   0.938   2.068  0.00  0.00    -0.026 C 
ATOM     23  C   UNL d   1      -1.356   0.242   3.304  0.00  0.00     0.010 C 
ATOM     24  C   UNL d   1      -0.475  -0.951   2.874  0.00  0.00     0.034 C 
ENDBRANCH  16  18
ENDBRANCH   1  16
TORSDOF 4
