REMARK  6 active torsions:
REMARK  status: ('A' for Active; 'I' for Inactive)
REMARK    1  A    between atoms: S_9  and  C_1 
REMARK    2  A    between atoms: C_10  and  C_4 
REMARK       I    between atoms: C_5  and  N_6 
REMARK    3  A    between atoms: C_14  and  C_5 
REMARK    4  A    between atoms: N_6  and  C_11 
REMARK    5  A    between atoms: C_13  and  S_9 
REMARK    6  A    between atoms: O_21  and  C_10 
ROOT
ATOM      1  C   UNL d   1       3.820   1.785  -0.806  0.00  0.00     0.052 A 
ATOM      2  C   UNL d   1       3.412   2.211   0.475  0.00  0.00     0.035 A 
ATOM      3  C   UNL d   1       5.197   1.801  -1.119  0.00  0.00     0.031 A 
ATOM      4  C   UNL d   1       4.392   2.748   1.343  0.00  0.00     0.021 A 
ATOM      5  C   UNL d   1       5.739   2.813   0.988  0.00  0.00     0.002 A 
ATOM      6  C   UNL d   1       6.147   2.317  -0.239  0.00  0.00     0.002 A 
ENDROOT
BRANCH   2   7
ATOM      7  S   UNL d   1       1.789   2.122   1.219  0.00  0.00    -0.052 SA
BRANCH   7   8
ATOM      8  C   UNL d   1       1.271   0.434   1.051  0.00  0.00     0.150 A 
ATOM      9  N   UNL d   1       2.000  -0.437   0.347  0.00  0.00    -0.332 N 
ATOM     10  C   UNL d   1       1.492  -1.678   0.200  0.00  0.00     0.112 A 
ATOM     11  HN  UNL d   1       2.898  -0.176  -0.059  1.00  0.00     0.168 HD
ATOM     12  C   UNL d   1       0.306  -2.086   0.775  0.00  0.00     0.060 A 
ATOM     13  C   UNL d   1      -0.370  -1.130   1.500  0.00  0.00     0.009 A 
ATOM     14  N   UNL d   1       0.108   0.119   1.652  0.00  0.00    -0.340 N 
ATOM     15  C   UNL d   1      -1.666  -1.447   2.182  0.00  0.00     0.068 C 
ATOM     16  HN  UNL d   1      -0.398   0.809   2.208  1.00  0.00     0.167 HD
BRANCH  10  17
ATOM     17  C   UNL d   1       2.281  -2.576  -0.704  0.00  0.00     0.309 C 
ATOM     18  O   UNL d   1       3.261  -2.228  -1.341  0.00  0.00    -0.258 OA
BRANCH  17  19
ATOM     19  O   UNL d   1       1.726  -3.817  -0.747  0.00  0.00    -0.321 OA
ATOM     20  C   UNL d   1       2.389  -4.724  -1.628  0.00  0.00     0.213 C 
ENDBRANCH  17  19
ENDBRANCH  10  17
ENDBRANCH   7   8
ENDBRANCH   2   7
BRANCH   1  21
ATOM     21  N   UNL d   1       3.012   1.316  -1.870  0.00  0.00    -0.322 N 
ATOM     22  C   UNL d   1       1.711   1.653  -2.179  0.00  0.00     0.256 C 
ATOM     23  O   UNL d   1       1.006   2.475  -1.611  0.00  0.00    -0.267 OA
ATOM     24  H   UNL d   1       3.523   0.836  -2.598  0.00  0.00     0.169 HD
BRANCH  22  25
ATOM     25  C   UNL d   1       1.188   1.030  -3.434  0.00  0.00     0.032 A 
ATOM     26  C   UNL d   1       1.638  -0.212  -3.908  0.00  0.00     0.018 A 
ATOM     27  C   UNL d   1       1.175  -0.704  -5.133  0.00  0.00     0.025 A 
ATOM     28  C   UNL d   1       0.255   0.034  -5.877  0.00  0.00     0.034 A 
ATOM     29  C   UNL d   1      -0.225   1.251  -5.399  0.00  0.00     0.025 A 
ATOM     30 CL   UNL d   1      -0.286  -0.560  -7.397  0.00  0.00    -0.084 Cl
ATOM     31  C   UNL d   1       0.237   1.745  -4.176  0.00  0.00     0.018 A 
ENDBRANCH  22  25
ENDBRANCH   1  21
TORSDOF 6
