REMARK  4 active torsions:
REMARK  status: ('A' for Active; 'I' for Inactive)
REMARK    1  A    between atoms: C_6  and  C_1 
REMARK    2  A    between atoms: N_5  and  C_6 
REMARK    3  A    between atoms: C_8  and  C_9 
REMARK    4  A    between atoms: O_15  and  C_10 
ROOT
ATOM      1  N   UNL d   1      -0.625  -3.161   0.152  0.00  0.00     0.092 N 
ATOM      2  C   UNL d   1       1.764  -4.606   0.759  0.00  0.00     0.025 C 
ATOM      3  C   UNL d   1       1.100  -4.816  -0.615  0.00  0.00     0.040 C 
ATOM      4  C   UNL d   1       0.710  -4.474   1.866  0.00  0.00     0.040 C 
ATOM      5  C   UNL d   1      -0.331  -4.267  -0.751  0.00  0.00     0.273 C 
ATOM      6  C   UNL d   1      -0.459  -3.535   1.556  0.00  0.00     0.273 C 
ENDROOT
BRANCH   1   7
ATOM      7  C   UNL d   1      -1.949  -2.569  -0.085  0.00  0.00     0.313 C 
BRANCH   7   8
ATOM      8  C   UNL d   1      -1.876  -1.227  -0.764  0.00  0.00    -0.002 A 
ATOM      9  C   UNL d   1      -2.731  -0.803  -1.768  0.00  0.00     0.098 A 
ATOM     10  N   UNL d   1      -2.462   0.508  -2.051  0.00  0.00    -0.365 N 
ATOM     11  C   UNL d   1      -1.440   0.967  -1.258  0.00  0.00     0.043 A 
ATOM     12  H   UNL d   1      -2.958   1.074  -2.726  0.00  0.00     0.165 HD
ATOM     13  C   UNL d   1      -1.042  -0.097  -0.446  0.00  0.00    -0.000 A 
ATOM     14  C   UNL d   1      -0.853   2.239  -1.194  0.00  0.00     0.030 A 
ATOM     15  C   UNL d   1       0.003   0.136   0.471  0.00  0.00     0.014 A 
ATOM     16  C   UNL d   1       0.620   1.390   0.533  0.00  0.00     0.001 A 
ATOM     17  C   UNL d   1       0.191   2.429  -0.285  0.00  0.00     0.002 A 
ENDBRANCH   7   8
ENDBRANCH   1   7
BRANCH   2  18
ATOM     18  C   UNL d   1       2.876  -3.565   0.888  0.00  0.00    -0.021 A 
ATOM     19  C   UNL d   1       2.952  -2.360   0.179  0.00  0.00     0.074 A 
ATOM     20  C   UNL d   1       3.978  -1.441   0.419  0.00  0.00     0.037 A 
ATOM     21  C   UNL d   1       4.982  -1.724   1.346  0.00  0.00     0.003 A 
ATOM     22  C   UNL d   1       4.950  -2.927   2.037  0.00  0.00     0.001 A 
ATOM     23  C   UNL d   1       3.910  -3.833   1.817  0.00  0.00     0.010 A 
BRANCH  19  24
ATOM     24  O   UNL d   1       1.958  -2.021  -0.692  0.00  0.00    -0.355 OA
ATOM     25  C   UNL d   1       2.397  -1.968  -2.044  0.00  0.00     0.210 C 
ENDBRANCH  19  24
ENDBRANCH   2  18
TORSDOF 4
