REMARK  4 active torsions:
REMARK  status: ('A' for Active; 'I' for Inactive)
REMARK    1  A    between atoms: C_9  and  C_5 
REMARK    2  A    between atoms: N_7  and  C_10 
REMARK    3  A    between atoms: N_8  and  C_14 
REMARK       I    between atoms: N_15  and  C_9 
REMARK    4  A    between atoms: C_24  and  N_15 
ROOT
ATOM      1  C   UNL d   1      -0.527   0.904  -0.071  0.00  0.00     0.005 A 
ATOM      2  C   UNL d   1      -0.982  -0.436   0.038  0.00  0.00     0.029 A 
ATOM      3  C   UNL d   1       1.351  -0.485  -0.259  0.00  0.00     0.028 A 
ATOM      4  C   UNL d   1       0.920   0.862  -0.291  0.00  0.00    -0.010 A 
ATOM      5  C   UNL d   1      -1.494   1.902  -0.011  0.00  0.00     0.046 A 
ATOM      6  C   UNL d   1       0.177  -1.336  -0.047  0.00  0.00     0.194 A 
ATOM      7  C   UNL d   1      -3.255   0.173   0.164  0.00  0.00     0.104 A 
ATOM      8  C   UNL d   1      -2.303  -0.838   0.149  0.00  0.00     0.052 A 
ATOM      9  C   UNL d   1      -2.860   1.522   0.102  0.00  0.00     0.054 A 
ATOM     10  C   UNL d   1       2.653  -0.909  -0.454  0.00  0.00     0.052 A 
ATOM     11  C   UNL d   1       3.592   0.082  -0.704  0.00  0.00     0.103 A 
ATOM     12  C   UNL d   1       1.867   1.834  -0.569  0.00  0.00     0.016 A 
ATOM     13  O   UNL d   1       0.162  -2.545   0.029  0.00  0.00    -0.287 OA
ATOM     14  C   UNL d   1       3.209   1.446  -0.763  0.00  0.00     0.037 A 
ENDROOT
BRANCH   5  15
ATOM     15  C   UNL d   1      -1.308   3.365  -0.125  0.00  0.00     0.257 C 
ATOM     16  N   UNL d   1      -0.374   3.980   0.688  0.00  0.00    -0.323 N 
ATOM     17  H   UNL d   1       0.394   3.451   1.077  0.00  0.00     0.169 HD
ATOM     18  O   UNL d   1      -2.059   3.949  -0.902  0.00  0.00    -0.267 OA
BRANCH  16  19
ATOM     19  C   UNL d   1      -0.382   5.378   0.920  0.00  0.00     0.035 A 
ATOM     20  C   UNL d   1      -1.584   6.092   0.993  0.00  0.00     0.030 A 
ATOM     21  C   UNL d   1      -1.587   7.465   1.250  0.00  0.00     0.009 A 
ATOM     22  C   UNL d   1      -0.384   8.158   1.396  0.00  0.00    -0.062 A 
ATOM     23  C   UNL d   1       0.819   7.442   1.341  0.00  0.00     0.009 A 
ATOM     24  C   UNL d   1      -0.404   9.637   1.652  0.00  0.00     0.048 C 
ATOM     25  C   UNL d   1       0.820   6.054   1.130  0.00  0.00     0.030 A 
ENDBRANCH  16  19
ENDBRANCH   5  15
BRANCH   7  26
ATOM     26  N   UNL d   1      -4.681  -0.168   0.215  0.00  0.00    -0.116 N 
ATOM     27  O   UNL d   1      -4.988  -1.363   0.116  0.00  0.00    -0.532 OA
ATOM     28  O   UNL d   1      -5.488   0.761   0.353  0.00  0.00    -0.532 OA
ENDBRANCH   7  26
BRANCH  11  29
ATOM     29  N   UNL d   1       4.995  -0.295  -0.935  0.00  0.00    -0.116 N 
ATOM     30  O   UNL d   1       5.302  -1.485  -0.788  0.00  0.00    -0.532 OA
ATOM     31  O   UNL d   1       5.784   0.604  -1.258  0.00  0.00    -0.532 OA
ENDBRANCH  11  29
TORSDOF 4
