REMARK  5 active torsions:
REMARK  status: ('A' for Active; 'I' for Inactive)
REMARK    1  A    between atoms: C_11  and  C_1 
REMARK    2  A    between atoms: C_4  and  C_7 
REMARK    3  A    between atoms: O_20  and  C_8 
REMARK    4  A    between atoms: C_22  and  C_13 
REMARK    5  A    between atoms: O_21  and  C_22 
ROOT
ATOM      1  C   UNL d   1       1.021  -1.123   0.030  0.00  0.00     0.134 A 
ATOM      2  N   UNL d   1      -0.325  -1.131  -0.003  0.00  0.00    -0.321 N 
ATOM      3  HN  UNL d   1      -0.864  -1.997  -0.021  1.00  0.00     0.169 HD
ATOM      4  N   UNL d   1       1.771   0.005   0.036  0.00  0.00    -0.342 N 
ATOM      5  HN  UNL d   1       2.790  -0.040   0.043  1.00  0.00     0.167 HD
ATOM      6  C   UNL d   1      -0.904   0.069  -0.013  0.00  0.00     0.143 A 
ATOM      7  C   UNL d   1      -0.254   1.272   0.008  0.00  0.00     0.083 A 
ATOM      8  C   UNL d   1       1.121   1.192   0.033  0.00  0.00     0.038 A 
ENDROOT
BRANCH   1   9
ATOM      9  C   UNL d   1       1.742  -2.422   0.053  0.00  0.00     0.076 A 
ATOM     10  N   UNL d   1       0.996  -3.564   0.041  0.00  0.00    -0.362 N 
ATOM     11  C   UNL d   1       1.639  -4.755   0.059  0.00  0.00     0.104 A 
ATOM     12  HN  UNL d   1      -0.023  -3.522   0.019  1.00  0.00     0.165 HD
ATOM     13  C   UNL d   1       3.017  -4.893   0.086  0.00  0.00     0.063 A 
ATOM     14  C   UNL d   1       3.777  -3.722   0.101  0.00  0.00     0.020 A 
ATOM     15  C   UNL d   1       3.138  -2.483   0.085  0.00  0.00     0.034 A 
BRANCH  13  16
ATOM     16  C   UNL d   1       3.658  -6.245   0.094  0.00  0.00     0.418 C 
ATOM     17  F   UNL d   1       2.766  -7.274   0.076  0.00  0.00    -0.166 F 
ATOM     18  F   UNL d   1       4.471  -6.439  -0.981  0.00  0.00    -0.166 F 
ATOM     19  F   UNL d   1       4.437  -6.445   1.192  0.00  0.00    -0.166 F 
ENDBRANCH  13  16
ENDBRANCH   1   9
BRANCH   6  20
ATOM     20  O   UNL d   1      -2.260   0.024  -0.058  0.00  0.00    -0.346 OA
ATOM     21  H   UNL d   1      -2.398  -0.941  -0.060  0.00  0.00     0.219 HD
ENDBRANCH   6  20
BRANCH   8  22
ATOM     22  C   UNL d   1       1.965   2.442   0.023  0.00  0.00     0.224 C 
BRANCH  22  23
ATOM     23  O   UNL d   1       1.645   3.265   1.146  0.00  0.00    -0.390 OA
ATOM     24  C   UNL d   1       2.465   4.425   1.184  0.00  0.00     0.201 C 
ENDBRANCH  22  23
ENDBRANCH   8  22
TORSDOF 5
