REMARK  3 active torsions:
REMARK  status: ('A' for Active; 'I' for Inactive)
REMARK       I    between atoms: N_2  and  C_1 
REMARK    1  A    between atoms: C_3  and  C_1 
REMARK    2  A    between atoms: C_4  and  N_2 
REMARK    3  A    between atoms: C_11  and  C_6 
ROOT
ATOM      1  C   UNL d   1       0.878  -2.219  -0.967  0.00  0.00     0.046 A 
ATOM      2  C   UNL d   1       1.882  -2.832  -0.174  0.00  0.00     0.001 A 
ATOM      3  C   UNL d   1       0.447  -2.822  -2.165  0.00  0.00     0.030 A 
ATOM      4  C   UNL d   1       2.442  -4.030  -0.681  0.00  0.00     0.014 A 
ATOM      5  C   UNL d   1       1.004  -4.015  -2.614  0.00  0.00     0.002 A 
ATOM      6  C   UNL d   1       2.016  -4.611  -1.880  0.00  0.00     0.001 A 
ENDROOT
BRANCH   1   7
ATOM      7  N   UNL d   1       0.253  -1.014  -0.583  0.00  0.00    -0.322 N 
ATOM      8  C   UNL d   1       0.017   0.055  -1.427  0.00  0.00     0.263 C 
ATOM      9  O   UNL d   1       0.402   0.087  -2.603  0.00  0.00    -0.267 OA
ATOM     10  H   UNL d   1       0.196  -0.784   0.396  0.00  0.00     0.169 HD
BRANCH   8  11
ATOM     11  C   UNL d   1      -0.673   1.184  -0.821  0.00  0.00     0.072 A 
ATOM     12  S   UNL d   1      -1.404   1.091   0.731  0.00  0.00    -0.097 SA
ATOM     13  C   UNL d   1      -1.996   2.691   0.628  0.00  0.00     0.050 A 
ATOM     14  C   UNL d   1      -1.630   3.301  -0.549  0.00  0.00     0.009 A 
ATOM     15  C   UNL d   1      -0.865   2.434  -1.381  0.00  0.00     0.025 A 
ENDBRANCH   8  11
ENDBRANCH   1   7
BRANCH   2  16
ATOM     16  C   UNL d   1       2.448  -2.269   1.088  0.00  0.00    -0.024 A 
ATOM     17  C   UNL d   1       1.650  -1.739   2.117  0.00  0.00     0.012 A 
ATOM     18  C   UNL d   1       2.209  -1.200   3.283  0.00  0.00     0.001 A 
ATOM     19  C   UNL d   1       3.583  -1.249   3.487  0.00  0.00     0.000 A 
ATOM     20  C   UNL d   1       4.400  -1.812   2.515  0.00  0.00     0.001 A 
ATOM     21  C   UNL d   1       3.841  -2.290   1.324  0.00  0.00     0.012 A 
ENDBRANCH   2  16
TORSDOF 3
