REMARK  6 active torsions:
REMARK  status: ('A' for Active; 'I' for Inactive)
REMARK    1  A    between atoms: N_11  and  C_3 
REMARK    2  A    between atoms: C_16  and  C_10 
REMARK       I    between atoms: C_12  and  N_11 
REMARK    3  A    between atoms: O_17  and  C_12 
REMARK    4  A    between atoms: N_13  and  O_17 
REMARK    5  A    between atoms: C_19  and  C_15 
REMARK    6  A    between atoms: N_22  and  C_15 
ROOT
ATOM      1  C   UNL d   1       0.452   0.161   0.285  0.00  0.00     0.174 A 
ATOM      2  N   UNL d   1      -0.085  -1.056  -0.016  0.00  0.00    -0.234 N 
ATOM      3  C   UNL d   1      -1.974   0.168   0.060  0.00  0.00     0.106 A 
ATOM      4  N   UNL d   1       1.749   0.132   0.359  0.00  0.00    -0.319 N 
ATOM      5  HN  UNL d   1       2.402   0.889   0.564  1.00  0.00     0.169 HD
ATOM      6  S   UNL d   1      -0.744   1.377   0.495  0.00  0.00    -0.032 SA
ATOM      7  N   UNL d   1       0.915  -1.960  -0.126  0.00  0.00    -0.276 N 
ATOM      8  HN  UNL d   1       0.858  -2.960  -0.319  1.00  0.00     0.189 HD
ATOM      9  C   UNL d   1      -1.479  -1.068  -0.123  0.00  0.00     0.067 A 
ATOM     10  C   UNL d   1       2.009  -1.198   0.085  0.00  0.00     0.132 A 
ATOM     11  C   UNL d   1      -2.208  -2.361  -0.256  0.00  0.00     0.073 C 
ENDROOT
BRANCH   3  12
ATOM     12  N   UNL d   1      -3.240   0.661   0.045  0.00  0.00    -0.293 N 
ATOM     13  C   UNL d   1      -4.345   0.392  -0.718  0.00  0.00     0.387 C 
ATOM     14  O   UNL d   1      -5.376   1.029  -0.480  0.00  0.00    -0.236 OA
ATOM     15  H   UNL d   1      -3.386   1.514   0.574  0.00  0.00     0.172 HD
BRANCH  13  16
ATOM     16  O   UNL d   1      -4.183  -0.500  -1.759  0.00  0.00    -0.179 OA
BRANCH  16  17
ATOM     17  N   UNL d   1      -5.467  -0.864  -2.208  0.00  0.00    -0.240 N 
ATOM     18  C   UNL d   1      -5.556  -1.409  -3.389  0.00  0.00     0.129 C 
ATOM     19  HN  UNL d   1      -6.294  -0.707  -1.632  1.00  0.00     0.196 HD
BRANCH  18  20
ATOM     20  C   UNL d   1      -4.466  -1.590  -4.393  0.00  0.00     0.009 A 
ATOM     21  C   UNL d   1      -4.397  -2.779  -5.137  0.00  0.00     0.015 A 
ATOM     22  C   UNL d   1      -3.424  -2.938  -6.127  0.00  0.00     0.001 A 
ATOM     23  C   UNL d   1      -2.520  -1.911  -6.386  0.00  0.00     0.000 A 
ATOM     24  C   UNL d   1      -2.601  -0.716  -5.670  0.00  0.00     0.001 A 
ATOM     25  C   UNL d   1      -3.578  -0.550  -4.682  0.00  0.00     0.015 A 
ENDBRANCH  18  20
BRANCH  18  26
ATOM     26  N   UNL d   1      -6.819  -1.845  -3.708  0.00  0.00    -0.383 N 
ATOM     27  H   UNL d   1      -7.432  -1.853  -2.897  0.00  0.00     0.157 HD
ATOM     28  H   UNL d   1      -6.923  -2.656  -4.301  0.00  0.00     0.157 HD
ENDBRANCH  18  26
ENDBRANCH  16  17
ENDBRANCH  13  16
ENDBRANCH   3  12
BRANCH  10  29
ATOM     29  C   UNL d   1       3.387  -1.692   0.026  0.00  0.00     0.009 A 
ATOM     30  C   UNL d   1       4.462  -0.813   0.240  0.00  0.00     0.017 A 
ATOM     31  C   UNL d   1       5.784  -1.266   0.175  0.00  0.00     0.025 A 
ATOM     32  C   UNL d   1       6.039  -2.605  -0.104  0.00  0.00     0.034 A 
ATOM     33  C   UNL d   1       4.987  -3.493  -0.318  0.00  0.00     0.025 A 
ATOM     34 CL   UNL d   1       7.663  -3.167  -0.186  0.00  0.00    -0.084 Cl
ATOM     35  C   UNL d   1       3.664  -3.037  -0.254  0.00  0.00     0.017 A 
ENDBRANCH  10  29
TORSDOF 6
