REMARK  4 active torsions:
REMARK  status: ('A' for Active; 'I' for Inactive)
REMARK    1  A    between atoms: C_3  and  C_1 
REMARK    2  A    between atoms: C_15  and  N_2 
REMARK    3  A    between atoms: C_17  and  C_10 
REMARK    4  A    between atoms: N_16  and  C_11 
ROOT
ATOM      1  C   UNL d   1      -0.513  -2.786   0.112  0.00  0.00     0.049 A 
ATOM      2  N   UNL d   1      -1.344  -4.729  -1.037  0.00  0.00    -0.336 N 
ATOM      3  HN  UNL d   1      -1.746  -5.160  -1.869  1.00  0.00     0.168 HD
ATOM      4  C   UNL d   1      -1.118  -3.389  -0.986  0.00  0.00     0.026 A 
ATOM      5  C   UNL d   1      -1.027  -5.465   0.029  0.00  0.00     0.154 A 
ATOM      6  N   UNL d   1      -0.495  -4.981   1.145  0.00  0.00    -0.342 N 
ATOM      7  HN  UNL d   1      -0.263  -5.581   1.937  1.00  0.00     0.167 HD
ATOM      8  C   UNL d   1      -0.280  -3.651   1.171  0.00  0.00     0.108 A 
ENDROOT
BRANCH   1   9
ATOM      9  C   UNL d   1      -0.186  -1.361   0.200  0.00  0.00     0.152 C 
ATOM     10  N   UNL d   1       0.884  -0.767   0.877  0.00  0.00    -0.224 N 
ATOM     11  N   UNL d   1       0.639   0.562   0.961  0.00  0.00     0.001 NA
ATOM     12  N   UNL d   1      -0.428   0.787   0.216  0.00  0.00    -0.007 NA
ATOM     13  N   UNL d   1      -0.945  -0.381  -0.264  0.00  0.00    -0.269 N 
ATOM     14  HN  UNL d   1      -1.762  -0.480  -0.866  1.00  0.00     0.185 HD
BRANCH  10  15
ATOM     15  C   UNL d   1       2.049  -1.327   1.463  0.00  0.00     0.056 A 
ATOM     16  C   UNL d   1       2.611  -2.517   0.982  0.00  0.00     0.031 A 
ATOM     17  C   UNL d   1       3.676  -3.110   1.663  0.00  0.00     0.002 A 
ATOM     18  C   UNL d   1       4.199  -2.508   2.806  0.00  0.00     0.000 A 
ATOM     19  C   UNL d   1       3.686  -1.291   3.250  0.00  0.00     0.002 A 
ATOM     20  C   UNL d   1       2.624  -0.689   2.573  0.00  0.00     0.031 A 
ENDBRANCH  10  15
ENDBRANCH   1   9
BRANCH   4  21
ATOM     21  C   UNL d   1      -1.595  -2.587  -2.182  0.00  0.00     0.054 C 
ATOM     22  C   UNL d   1      -2.258  -3.412  -3.283  0.00  0.00     0.011 C 
ENDBRANCH   4  21
BRANCH   5  23
ATOM     23  N   UNL d   1      -1.217  -6.827  -0.052  0.00  0.00    -0.274 NA
ATOM     24  H   UNL d   1      -0.581  -7.303   0.572  0.00  0.00     0.127 HD
ATOM     25  H   UNL d   1      -1.231  -7.118  -1.018  0.00  0.00     0.127 HD
ENDBRANCH   5  23
TORSDOF 4
