REMARK  4 active torsions:
REMARK  status: ('A' for Active; 'I' for Inactive)
REMARK    1  A    between atoms: C_3  and  C_12 
REMARK       I    between atoms: N_11  and  C_3 
REMARK    2  A    between atoms: S_9  and  C_8 
REMARK    3  A    between atoms: C_12  and  S_9 
REMARK    4  A    between atoms: N_17  and  N_11 
ROOT
ATOM      1  C   UNL d   1      -1.012  -0.868   0.055  0.00  0.00     0.007 A 
ATOM      2  C   UNL d   1      -0.742   0.523   0.076  0.00  0.00     0.045 A 
ATOM      3  C   UNL d   1       0.571   0.970   0.057  0.00  0.00     0.054 A 
ATOM      4  C   UNL d   1       0.090  -1.758  -0.010  0.00  0.00     0.017 A 
ATOM      5  N   UNL d   1      -1.703   1.457   0.094  0.00  0.00    -0.365 N 
ATOM      6  HN  UNL d   1      -1.467   2.449   0.109  1.00  0.00     0.165 HD
ATOM      7  C   UNL d   1      -2.381  -1.252   0.079  0.00  0.00     0.014 A 
ATOM      8  C   UNL d   1       1.638   0.080   0.015  0.00  0.00     0.036 A 
ATOM      9  C   UNL d   1       1.404  -1.287  -0.019  0.00  0.00     0.025 A 
ATOM     10  C   UNL d   1      -2.987   1.055   0.091  0.00  0.00     0.089 A 
ATOM     11  C   UNL d   1      -3.371  -0.268   0.084  0.00  0.00     0.036 A 
ATOM     12 CL   UNL d   1       3.252   0.674  -0.009  0.00  0.00    -0.084 Cl
ENDROOT
BRANCH   7  13
ATOM     13  S   UNL d   1      -2.993  -2.942  -0.035  0.00  0.00    -0.120 SA
BRANCH  13  14
ATOM     14  C   UNL d   1      -2.402  -3.691   1.515  0.00  0.00     0.183 C 
BRANCH  14  15
ATOM     15  C   UNL d   1      -2.910  -2.997   2.760  0.00  0.00     0.241 C 
ATOM     16  O   UNL d   1      -2.155  -2.575   3.634  0.00  0.00    -0.271 OA
ATOM     17  N   UNL d   1      -4.295  -2.981   2.894  0.00  0.00    -0.293 N 
ATOM     18  H   UNL d   1      -4.877  -3.120   2.068  0.00  0.00     0.183 HD
BRANCH  17  19
ATOM     19  N   UNL d   1      -4.864  -2.373   4.036  0.00  0.00    -0.247 NA
ATOM     20  H   UNL d   1      -4.092  -1.926   4.554  0.00  0.00     0.143 HD
ATOM     21  H   UNL d   1      -5.177  -3.116   4.667  0.00  0.00     0.143 HD
ENDBRANCH  17  19
ENDBRANCH  14  15
ENDBRANCH  13  14
ENDBRANCH   7  13
TORSDOF 4
