REMARK  1 active torsions:
REMARK  status: ('A' for Active; 'I' for Inactive)
REMARK    1  A    between atoms: N_14  and  C_4 
ROOT
ATOM      1  C   UNL d   1      -1.481  -0.018   0.001  0.00  0.00     0.089 A 
ATOM      2  N   UNL d   1      -2.834  -0.046   0.015  0.00  0.00    -0.187 N 
ATOM      3  HN  UNL d   1      -3.326  -0.939   0.056  1.00  0.00     0.184 HD
ATOM      4  C   UNL d   1      -3.526   1.098  -0.025  0.00  0.00     0.695 A 
ATOM      5  C   UNL d   1      -0.785   1.195  -0.032  0.00  0.00     0.087 A 
ATOM      6  N   UNL d   1      -1.514   2.324  -0.074  0.00  0.00    -0.283 N 
ATOM      7  HN  UNL d   1      -1.042   3.228  -0.102  1.00  0.00     0.187 HD
ATOM      8  N   UNL d   1      -2.887   2.276  -0.079  0.00  0.00    -0.132 N 
ATOM      9  HN  UNL d   1      -3.424   3.142  -0.124  1.00  0.00     0.205 HD
ATOM     10  C   UNL d   1      -0.760  -1.224   0.018  0.00  0.00     0.005 A 
ATOM     11  C   UNL d   1       0.622   1.218  -0.022  0.00  0.00     0.005 A 
ATOM     12  C   UNL d   1       0.657  -1.234   0.012  0.00  0.00    -0.012 A 
ATOM     13  C   UNL d   1       1.363   0.010   0.002  0.00  0.00    -0.012 A 
ATOM     14  C   UNL d   1      -1.451  -2.460   0.034  0.00  0.00     0.014 A 
ATOM     15  C   UNL d   1       1.320   2.450  -0.035  0.00  0.00     0.014 A 
ATOM     16  C   UNL d   1       2.780   0.113   0.013  0.00  0.00     0.013 A 
ATOM     17  C   UNL d   1       1.302  -2.501   0.015  0.00  0.00     0.013 A 
ATOM     18  C   UNL d   1       3.444   1.340   0.001  0.00  0.00     0.001 A 
ATOM     19  C   UNL d   1       0.594  -3.704   0.023  0.00  0.00     0.001 A 
ATOM     20  C   UNL d   1      -0.788  -3.684   0.035  0.00  0.00     0.001 A 
ATOM     21  C   UNL d   1       2.711   2.513  -0.023  0.00  0.00     0.001 A 
ENDROOT
BRANCH   4  22
ATOM     22  N   UNL d   1      -4.893   1.045   0.018  0.00  0.00    -0.212 N 
ATOM     23  C   UNL d   1      -5.725   2.230  -0.165  0.00  0.00     0.167 C 
ATOM     24  C   UNL d   1      -6.764   2.300   0.967  0.00  0.00     0.188 C 
ATOM     25  O   UNL d   1      -7.518   1.079   1.076  0.00  0.00    -0.388 OA
ATOM     26  C   UNL d   1      -6.640  -0.032   1.334  0.00  0.00     0.188 C 
ATOM     27  C   UNL d   1      -5.612  -0.211   0.204  0.00  0.00     0.167 C 
ENDBRANCH   4  22
TORSDOF 1
