REMARK  4 active torsions:
REMARK  status: ('A' for Active; 'I' for Inactive)
REMARK    1  A    between atoms: C_6  and  C_1 
REMARK    2  A    between atoms: C_8  and  C_4 
REMARK       I    between atoms: N_9  and  C_6 
REMARK    3  A    between atoms: C_13  and  N_9 
REMARK    4  A    between atoms: C_15  and  C_13 
ROOT
ATOM      1  C   UNL d   1       1.216   0.832   0.008  0.00  0.00     0.108 A 
ATOM      2  N   UNL d   1      -0.068   1.393   0.012  0.00  0.00    -0.345 N 
ATOM      3  HN  UNL d   1      -0.268   2.391  -0.043  1.00  0.00     0.167 HD
ATOM      4  C   UNL d   1      -0.982   0.441   0.097  0.00  0.00     0.086 A 
ATOM      5  S   UNL d   1      -0.352  -1.167   0.120  0.00  0.00    -0.081 SA
ATOM      6  C   UNL d   1       1.234  -0.550   0.056  0.00  0.00     0.087 A 
ENDROOT
BRANCH   1   7
ATOM      7  C   UNL d   1       2.442   1.636  -0.037  0.00  0.00     0.269 C 
ATOM      8  N   UNL d   1       2.226   2.992  -0.089  0.00  0.00    -0.351 N 
ATOM      9  H   UNL d   1       1.266   3.316  -0.060  0.00  0.00     0.163 HD
ATOM     10  O   UNL d   1       3.558   1.126  -0.019  0.00  0.00    -0.266 OA
BRANCH   8  11
ATOM     11  C   UNL d   1       3.316   3.941  -0.040  0.00  0.00     0.161 C 
BRANCH  11  12
ATOM     12  C   UNL d   1       3.375   4.866  -1.232  0.00  0.00    -0.041 A 
ATOM     13  C   UNL d   1       3.872   6.170  -1.069  0.00  0.00     0.009 A 
ATOM     14  C   UNL d   1       4.035   7.017  -2.168  0.00  0.00     0.001 A 
ATOM     15  C   UNL d   1       3.708   6.570  -3.446  0.00  0.00     0.000 A 
ATOM     16  C   UNL d   1       3.219   5.277  -3.625  0.00  0.00     0.001 A 
ATOM     17  C   UNL d   1       3.061   4.428  -2.527  0.00  0.00     0.009 A 
ENDBRANCH  11  12
ENDBRANCH   8  11
ENDBRANCH   1   7
BRANCH   4  18
ATOM     18  C   UNL d   1      -2.434   0.664   0.109  0.00  0.00     0.013 A 
ATOM     19  C   UNL d   1      -3.326  -0.170   0.785  0.00  0.00     0.101 A 
ATOM     20  N   UNL d   1      -4.674  -0.013   0.799  0.00  0.00    -0.374 N 
ATOM     21  C   UNL d   1      -5.168   1.033   0.106  0.00  0.00     0.087 A 
ATOM     22  HN  UNL d   1      -5.283  -0.654   1.307  1.00  0.00     0.164 HD
ATOM     23  C   UNL d   1      -4.376   1.933  -0.588  0.00  0.00     0.018 A 
ATOM     24  C   UNL d   1      -2.994   1.746  -0.578  0.00  0.00     0.017 A 
ENDBRANCH   4  18
TORSDOF 4
