REMARK  7 active torsions:
REMARK  status: ('A' for Active; 'I' for Inactive)
REMARK    1  A    between atoms: C_2  and  C_1 
REMARK    2  A    between atoms: O_5  and  C_2 
REMARK    3  A    between atoms: N_4  and  C_3 
REMARK    4  A    between atoms: C_7  and  N_4 
REMARK    5  A    between atoms: C_9  and  O_5 
REMARK    6  A    between atoms: C_6  and  C_9 
REMARK    7  A    between atoms: C_12  and  C_6 
ROOT
ATOM      1  C   UNL d   1       1.273  -0.126  -0.117  0.00  0.00     0.066 A 
ATOM      2  C   UNL d   1       0.534  -1.317   0.026  0.00  0.00     0.049 A 
ATOM      3  C   UNL d   1       0.622   1.122  -0.089  0.00  0.00     0.020 A 
ATOM      4  C   UNL d   1      -0.867  -1.214   0.081  0.00  0.00     0.030 A 
ATOM      5  C   UNL d   1      -0.764   1.196   0.012  0.00  0.00     0.001 A 
ATOM      6  C   UNL d   1      -1.510   0.026   0.078  0.00  0.00     0.002 A 
ENDROOT
BRANCH   1   7
ATOM      7  C   UNL d   1       2.709  -0.065  -0.479  0.00  0.00     0.296 C 
ATOM      8  O   UNL d   1       3.468   0.840  -0.164  0.00  0.00    -0.259 OA
BRANCH   7   9
ATOM      9  O   UNL d   1       2.937  -0.999  -1.432  0.00  0.00    -0.310 OA
BRANCH   9  10
ATOM     10  C   UNL d   1       3.867  -0.608  -2.437  0.00  0.00     0.263 C 
BRANCH  10  11
ATOM     11  C   UNL d   1       3.140   0.270  -3.454  0.00  0.00     0.183 C 
ATOM     12  O   UNL d   1       1.959   0.596  -3.344  0.00  0.00    -0.290 OA
BRANCH  11  13
ATOM     13  C   UNL d   1       3.906   0.770  -4.621  0.00  0.00     0.012 A 
ATOM     14  C   UNL d   1       5.010   0.079  -5.129  0.00  0.00     0.015 A 
ATOM     15  C   UNL d   1       5.696   0.584  -6.233  0.00  0.00     0.001 A 
ATOM     16  C   UNL d   1       5.284   1.778  -6.825  0.00  0.00     0.000 A 
ATOM     17  C   UNL d   1       4.179   2.465  -6.328  0.00  0.00     0.001 A 
ATOM     18  C   UNL d   1       3.485   1.959  -5.230  0.00  0.00     0.015 A 
ENDBRANCH  11  13
ENDBRANCH  10  11
ENDBRANCH   9  10
ENDBRANCH   7   9
ENDBRANCH   1   7
BRANCH   2  19
ATOM     19  N   UNL d   1       1.065  -2.629   0.025  0.00  0.00    -0.355 N 
ATOM     20  H   UNL d   1       0.864  -3.098  -0.854  0.00  0.00     0.166 HD
BRANCH  19  21
ATOM     21  C   UNL d   1       2.223  -3.113   0.668  0.00  0.00     0.035 A 
ATOM     22  C   UNL d   1       2.858  -4.261   0.180  0.00  0.00     0.071 A 
ATOM     23  C   UNL d   1       3.957  -4.793   0.848  0.00  0.00     0.118 A 
ATOM     24  F   UNL d   1       4.555  -5.889   0.361  0.00  0.00    -0.206 F 
ATOM     25  C   UNL d   1       4.440  -4.213   2.014  0.00  0.00     0.042 A 
ATOM     26  C   UNL d   1       3.815  -3.076   2.516  0.00  0.00     0.005 A 
ATOM     27  C   UNL d   1       2.711  -2.534   1.849  0.00  0.00     0.029 A 
ENDBRANCH  19  21
ENDBRANCH   2  19
TORSDOF 7
