REMARK  4 active torsions:
REMARK  status: ('A' for Active; 'I' for Inactive)
REMARK    1  A    between atoms: N_2  and  C_1 
REMARK    2  A    between atoms: C_3  and  N_2 
REMARK    3  A    between atoms: N_6  and  N_10 
REMARK    4  A    between atoms: C_17  and  C_13 
ROOT
ATOM      1  C   UNL d   1       1.587  -0.447   0.310  0.00  0.00     0.186 C 
ATOM      2  S   UNL d   1       1.142  -1.457  -0.949  0.00  0.00    -0.040 SA
ATOM      3  N   UNL d   1       2.745   0.248   0.202  0.00  0.00    -0.277 N 
ATOM      4  H   UNL d   1       3.253   0.113  -0.668  0.00  0.00     0.189 HD
ENDROOT
BRANCH   3   5
ATOM      5  N   UNL d   1       3.159   1.215   1.061  0.00  0.00    -0.308 N 
ATOM      6  C   UNL d   1       4.211   1.869   0.676  0.00  0.00     0.136 C 
ATOM      7  HN  UNL d   1       2.681   1.411   1.940  1.00  0.00     0.186 HD
BRANCH   6   8
ATOM      8  C   UNL d   1       4.728   3.022   1.436  0.00  0.00     0.049 A 
ATOM      9  N   UNL d   1       5.558   3.831   0.734  0.00  0.00    -0.365 N 
ATOM     10  C   UNL d   1       5.931   4.975   1.345  0.00  0.00     0.088 A 
ATOM     11  HN  UNL d   1       5.882   3.589  -0.203  1.00  0.00     0.165 HD
ATOM     12  C   UNL d   1       5.529   5.334   2.624  0.00  0.00     0.017 A 
ATOM     13  C   UNL d   1       4.707   4.461   3.332  0.00  0.00     0.004 A 
ATOM     14  C   UNL d   1       4.293   3.279   2.729  0.00  0.00     0.031 A 
ENDBRANCH   6   8
ENDBRANCH   3   5
BRANCH   1  15
ATOM     15  N   UNL d   1       0.769  -0.364   1.378  0.00  0.00    -0.361 N 
ATOM     16  H   UNL d   1      -0.100  -0.864   1.231  0.00  0.00     0.162 HD
BRANCH  15  17
ATOM     17  C   UNL d   1       0.772   0.553   2.511  0.00  0.00     0.092 C 
ATOM     18  C   UNL d   1       0.149   1.943   2.188  0.00  0.00     0.031 C 
ATOM     19  C   UNL d   1      -1.239   1.738   1.610  0.00  0.00    -0.024 C 
ATOM     20  C   UNL d   1      -0.260   2.416   3.588  0.00  0.00     0.019 C 
ATOM     21  C   UNL d   1      -2.018   1.270   2.602  0.00  0.00    -0.026 C 
ATOM     22  C   UNL d   1      -1.157   1.200   3.843  0.00  0.00     0.010 C 
ATOM     23  C   UNL d   1      -0.147   0.046   3.672  0.00  0.00     0.034 C 
ENDBRANCH  15  17
ENDBRANCH   1  15
TORSDOF 4
