REMARK  3 active torsions:
REMARK  status: ('A' for Active; 'I' for Inactive)
REMARK    1  A    between atoms: C_5  and  C_1 
REMARK    2  A    between atoms: C_7  and  C_9 
REMARK    3  A    between atoms: C_8  and  C_10 
ROOT
ATOM      1  C   UNL d   1      -0.278  -1.549  -0.169  0.00  0.00     0.276 C 
ATOM      2  N   UNL d   1      -1.306  -0.671  -0.713  0.00  0.00    -0.203 NA
ATOM      3  C   UNL d   1      -0.743   0.505  -1.226  0.00  0.00     0.236 C 
ATOM      4  C   UNL d   1       0.924  -0.638  -0.099  0.00  0.00     0.016 A 
ATOM      5  C   UNL d   1       0.664   0.528  -0.814  0.00  0.00     0.037 A 
ATOM      6  N   UNL d   1      -0.799  -1.939   1.161  0.00  0.00     0.118 N 
ATOM      7  O   UNL d   1      -1.320   1.442  -1.746  0.00  0.00    -0.274 OA
ATOM      8  C   UNL d   1      -2.376  -0.466   0.245  0.00  0.00     0.132 C 
ATOM      9  C   UNL d   1      -1.709  -0.848   1.556  0.00  0.00     0.288 C 
ATOM     10  C   UNL d   1       2.117  -0.762   0.599  0.00  0.00     0.012 A 
ATOM     11  C   UNL d   1       1.548   1.589  -0.873  0.00  0.00     0.017 A 
ATOM     12  C   UNL d   1       3.034   0.292   0.550  0.00  0.00     0.001 A 
ATOM     13  C   UNL d   1       2.754   1.459  -0.184  0.00  0.00     0.001 A 
ATOM     14  H   UNL d   1      -1.381  -2.760   0.998  0.00  0.00     0.319 HD
ENDROOT
BRANCH   1  15
ATOM     15  C   UNL d   1      -0.018  -2.807  -1.023  0.00  0.00     0.002 A 
ATOM     16  C   UNL d   1      -0.721  -3.099  -2.210  0.00  0.00     0.027 A 
ATOM     17  C   UNL d   1      -0.461  -4.270  -2.950  0.00  0.00     0.049 A 
ATOM     18  C   UNL d   1       0.537  -5.156  -2.507  0.00  0.00     0.032 A 
ATOM     19  C   UNL d   1       1.252  -4.902  -1.331  0.00  0.00     0.049 A 
ATOM     20  C   UNL d   1       0.949  -3.744  -0.597  0.00  0.00     0.027 A 
BRANCH  17  21
ATOM     21  C   UNL d   1      -1.229  -4.608  -4.211  0.00  0.00     0.417 C 
ATOM     22  F   UNL d   1      -2.212  -3.716  -4.511  0.00  0.00    -0.166 F 
ATOM     23  F   UNL d   1      -0.424  -4.668  -5.307  0.00  0.00    -0.166 F 
ATOM     24  F   UNL d   1      -1.838  -5.823  -4.129  0.00  0.00    -0.166 F 
ENDBRANCH  17  21
BRANCH  19  25
ATOM     25  C   UNL d   1       2.331  -5.856  -0.873  0.00  0.00     0.417 C 
ATOM     26  F   UNL d   1       2.927  -5.482   0.294  0.00  0.00    -0.166 F 
ATOM     27  F   UNL d   1       1.858  -7.115  -0.666  0.00  0.00    -0.166 F 
ATOM     28  F   UNL d   1       3.336  -5.977  -1.783  0.00  0.00    -0.166 F 
ENDBRANCH  19  25
ENDBRANCH   1  15
TORSDOF 3
