REMARK  3 active torsions:
REMARK  status: ('A' for Active; 'I' for Inactive)
REMARK       I    between atoms: N_2  and  C_1 
REMARK    1  A    between atoms: C_4  and  C_1 
REMARK    2  A    between atoms: O_8  and  C_4 
REMARK    3  A    between atoms: C_10  and  O_8 
ROOT
ATOM      1  C   UNL d   1      -4.043   1.682   3.134  0.00  0.00    -0.023 A 
ATOM      2  C   UNL d   1      -3.144   0.910   2.378  0.00  0.00     0.049 A 
ATOM      3  C   UNL d   1      -3.795   3.061   3.305  0.00  0.00    -0.026 A 
ATOM      4  C   UNL d   1      -2.653   3.627   2.716  0.00  0.00     0.015 A 
ATOM      5  C   UNL d   1      -2.000   1.478   1.815  0.00  0.00     0.070 A 
ATOM      6  C   UNL d   1      -1.761   2.842   1.975  0.00  0.00     0.037 A 
ATOM      7  C   UNL d   1      -5.181   1.109   3.724  0.00  0.00     0.012 A 
ATOM      8  C   UNL d   1      -4.699   3.833   4.057  0.00  0.00     0.012 A 
ATOM      9  C   UNL d   1      -6.066   1.887   4.472  0.00  0.00     0.001 A 
ATOM     10  C   UNL d   1      -5.826   3.248   4.636  0.00  0.00     0.001 A 
ENDROOT
BRANCH   5  11
ATOM     11  O   UNL d   1      -1.216   0.618   1.094  0.00  0.00    -0.342 OA
BRANCH  11  12
ATOM     12  C   UNL d   1       0.177   0.907   1.104  0.00  0.00     0.278 C 
BRANCH  12  13
ATOM     13  C   UNL d   1       0.990  -0.224   0.463  0.00  0.00     0.243 C 
ATOM     14  N   UNL d   1       0.809  -0.489  -0.891  0.00  0.00    -0.359 N 
ATOM     15  C   UNL d   1      -0.191   0.142  -1.740  0.00  0.00     0.152 C 
ATOM     16  C   UNL d   1       1.577  -1.559  -1.510  0.00  0.00     0.152 C 
ATOM     17  O   UNL d   1       1.825  -0.832   1.141  0.00  0.00    -0.271 OA
ENDBRANCH  12  13
ENDBRANCH  11  12
ENDBRANCH   5  11
TORSDOF 3
