REMARK  6 active torsions:
REMARK  status: ('A' for Active; 'I' for Inactive)
REMARK    1  A    between atoms: N_2  and  C_4 
REMARK       I    between atoms: C_6  and  N_2 
REMARK    2  A    between atoms: C_16  and  C_6 
REMARK    3  A    between atoms: C_7  and  C_8 
REMARK    4  A    between atoms: S_12  and  C_16 
REMARK    5  A    between atoms: C_17  and  S_12 
REMARK    6  A    between atoms: C_15  and  C_17 
ROOT
ATOM      1  N   UNL d   1       0.521   8.487  -3.627  0.00  0.00    -0.191 NA
ATOM      2  C   UNL d   1      -0.001   7.730  -4.342  0.00  0.00     0.102 C 
ATOM      3  C   UNL d   1      -1.827   6.172  -4.999  0.00  0.00     0.055 A 
ATOM      4  C   UNL d   1      -0.652   6.880  -5.297  0.00  0.00     0.071 A 
ATOM      5  C   UNL d   1      -0.167   6.880  -6.616  0.00  0.00     0.025 A 
ATOM      6  C   UNL d   1      -2.516   5.513  -6.029  0.00  0.00     0.031 A 
ATOM      7  C   UNL d   1      -0.840   6.188  -7.626  0.00  0.00     0.002 A 
ATOM      8  C   UNL d   1      -2.017   5.507  -7.331  0.00  0.00     0.002 A 
ENDROOT
BRANCH   3   9
ATOM      9  N   UNL d   1      -2.425   6.115  -3.722  0.00  0.00    -0.325 N 
ATOM     10  C   UNL d   1      -1.776   5.625  -2.596  0.00  0.00     0.231 C 
ATOM     11  O   UNL d   1      -0.584   5.335  -2.550  0.00  0.00    -0.272 OA
ATOM     12  H   UNL d   1      -3.421   5.901  -3.699  0.00  0.00     0.169 HD
BRANCH  10  13
ATOM     13  C   UNL d   1      -2.693   5.462  -1.373  0.00  0.00     0.177 C 
BRANCH  13  14
ATOM     14  S   UNL d   1      -4.437   5.154  -1.880  0.00  0.00    -0.155 SA
BRANCH  14  15
ATOM     15  C   UNL d   1      -5.238   5.031  -0.248  0.00  0.00     0.112 C 
BRANCH  15  16
ATOM     16  C   UNL d   1      -6.730   4.819  -0.393  0.00  0.00    -0.049 A 
ATOM     17  C   UNL d   1      -7.276   3.532  -0.440  0.00  0.00     0.008 A 
ATOM     18  C   UNL d   1      -8.660   3.342  -0.581  0.00  0.00     0.008 A 
ATOM     19  C   UNL d   1      -9.551   4.427  -0.686  0.00  0.00    -0.051 A 
ATOM     20  C   UNL d   1      -8.985   5.712  -0.657  0.00  0.00     0.008 A 
ATOM     21  C   UNL d   1      -7.602   5.906  -0.515  0.00  0.00     0.008 A 
BRANCH  19  22
ATOM     22  C   UNL d   1     -11.067   4.184  -0.830  0.00  0.00    -0.024 C 
ATOM     23  C   UNL d   1     -11.896   5.488  -0.898  0.00  0.00     0.019 C 
ATOM     24  C   UNL d   1     -11.358   3.387  -2.120  0.00  0.00     0.019 C 
ATOM     25  C   UNL d   1     -11.599   3.377   0.376  0.00  0.00     0.019 C 
ENDBRANCH  19  22
ENDBRANCH  15  16
ENDBRANCH  14  15
ENDBRANCH  13  14
ENDBRANCH  10  13
ENDBRANCH   3   9
TORSDOF 6
