REMARK  1 active torsions:
REMARK  status: ('A' for Active; 'I' for Inactive)
REMARK    1  A    between atoms: C_11  and  C_3 
ROOT
ATOM      1  N   UNL d   1       2.334  -3.264   2.561  0.00  0.00    -0.197 NA
ATOM      2  C   UNL d   1       2.234  -2.916   1.458  0.00  0.00     0.063 C 
ATOM      3  C   UNL d   1       2.102  -2.485   0.057  0.00  0.00     0.165 C 
ENDROOT
BRANCH   3   4
ATOM      4  C   UNL d   1       1.619  -1.062  -0.007  0.00  0.00    -0.005 A 
ATOM      5  C   UNL d   1       2.436   0.046  -0.033  0.00  0.00     0.083 A 
ATOM      6  S   UNL d   1       1.615   1.516  -0.061  0.00  0.00    -0.077 SA
ATOM      7 CL   UNL d   1       4.158   0.072  -0.024  0.00  0.00    -0.076 Cl
ATOM      8  C   UNL d   1       0.083   0.734  -0.038  0.00  0.00     0.017 A 
ATOM      9  C   UNL d   1      -1.180   1.360  -0.027  0.00  0.00     0.021 A 
ATOM     10  C   UNL d   1       0.221  -0.660  -0.027  0.00  0.00    -0.008 A 
ATOM     11  C   UNL d   1      -2.329   0.568  -0.013  0.00  0.00     0.025 A 
ATOM     12  C   UNL d   1      -2.221  -0.814  -0.013  0.00  0.00     0.035 A 
ATOM     13  C   UNL d   1      -0.969  -1.436  -0.019  0.00  0.00     0.037 A 
ATOM     14 CL   UNL d   1      -3.647  -1.779  -0.000  0.00  0.00    -0.084 Cl
ENDBRANCH   3   4
TORSDOF 1
