REMARK  4 active torsions:
REMARK  status: ('A' for Active; 'I' for Inactive)
REMARK    1  A    between atoms: C_6  and  C_1 
REMARK    2  A    between atoms: C_14  and  N_4 
REMARK    3  A    between atoms: C_8  and  C_9 
REMARK       I    between atoms: N_11  and  C_8 
REMARK    4  A    between atoms: C_19  and  N_11 
ROOT
ATOM      1  C   UNL d   1       2.332   0.071  -0.174  0.00  0.00     0.194 C 
ATOM      2  N   UNL d   1       1.593  -0.999  -0.429  0.00  0.00    -0.337 N 
ATOM      3  HN  UNL d   1       1.928  -1.939  -0.638  1.00  0.00     0.167 HD
ATOM      4  N   UNL d   1       1.529   1.201  -0.091  0.00  0.00    -0.323 N 
ATOM      5  C   UNL d   1       0.295  -0.589  -0.356  0.00  0.00     0.061 A 
ATOM      6  C   UNL d   1       0.213   0.774  -0.088  0.00  0.00     0.063 A 
ATOM      7  C   UNL d   1      -2.111  -0.767  -0.259  0.00  0.00     0.034 A 
ATOM      8  C   UNL d   1      -0.867  -1.367  -0.487  0.00  0.00     0.049 A 
ATOM      9  C   UNL d   1      -1.016   1.411   0.101  0.00  0.00     0.033 A 
ATOM     10  C   UNL d   1      -2.165   0.609   0.032  0.00  0.00     0.019 A 
ENDROOT
BRANCH   7  11
ATOM     11  C   UNL d   1      -3.402  -1.526  -0.271  0.00  0.00     0.256 C 
ATOM     12  N   UNL d   1      -3.343  -2.910  -0.369  0.00  0.00    -0.323 N 
ATOM     13  H   UNL d   1      -2.435  -3.351  -0.347  0.00  0.00     0.169 HD
ATOM     14  O   UNL d   1      -4.438  -0.873  -0.135  0.00  0.00    -0.267 OA
BRANCH  12  15
ATOM     15  C   UNL d   1      -4.440  -3.795  -0.240  0.00  0.00     0.035 A 
ATOM     16  C   UNL d   1      -5.774  -3.383  -0.303  0.00  0.00     0.031 A 
ATOM     17  C   UNL d   1      -6.811  -4.274  -0.010  0.00  0.00     0.026 A 
ATOM     18  C   UNL d   1      -6.516  -5.589   0.328  0.00  0.00     0.034 A 
ATOM     19  C   UNL d   1      -5.197  -6.036   0.319  0.00  0.00     0.026 A 
ATOM     20 CL   UNL d   1      -7.783  -6.659   0.783  0.00  0.00    -0.084 Cl
ATOM     21  C   UNL d   1      -4.161  -5.143   0.020  0.00  0.00     0.031 A 
ENDBRANCH  12  15
ENDBRANCH   7  11
BRANCH   1  22
ATOM     22  C   UNL d   1       3.812   0.092   0.041  0.00  0.00     0.449 C 
ATOM     23  F   UNL d   1       4.377  -1.141  -0.022  0.00  0.00    -0.163 F 
ATOM     24  F   UNL d   1       4.455   0.864  -0.875  0.00  0.00    -0.163 F 
ATOM     25  F   UNL d   1       4.123   0.602   1.263  0.00  0.00    -0.163 F 
ENDBRANCH   1  22
BRANCH   4  26
ATOM     26  C   UNL d   1       2.001   2.587  -0.102  0.00  0.00     0.084 C 
ATOM     27  C   UNL d   1       1.499   3.348  -1.333  0.00  0.00     0.032 C 
ATOM     28  C   UNL d   1       1.715   3.352   1.190  0.00  0.00     0.032 C 
ENDBRANCH   4  26
TORSDOF 4
