REMARK  5 active torsions:
REMARK  status: ('A' for Active; 'I' for Inactive)
REMARK    1  A    between atoms: N_2  and  C_1 
REMARK    2  A    between atoms: C_7  and  N_2 
REMARK    3  A    between atoms: C_8  and  N_4 
REMARK    4  A    between atoms: C_14  and  C_8 
REMARK    5  A    between atoms: O_15  and  C_9 
ROOT
ATOM      1  C   UNL d   1       1.054   0.006   0.126  0.00  0.00     0.172 C 
ATOM      2  S   UNL d   1       2.666  -0.151  -0.291  0.00  0.00    -0.041 SA
ATOM      3  N   UNL d   1       0.373   1.052  -0.425  0.00  0.00    -0.363 N 
ATOM      4  H   UNL d   1       0.958   1.642  -1.009  0.00  0.00     0.162 HD
ENDROOT
BRANCH   1   5
ATOM      5  N   UNL d   1       0.303  -0.842   0.906  0.00  0.00    -0.333 N 
ATOM      6  H   UNL d   1      -0.593  -1.080   0.499  0.00  0.00     0.168 HD
BRANCH   5   7
ATOM      7  C   UNL d   1       0.792  -1.720   1.895  0.00  0.00     0.034 A 
ATOM      8  C   UNL d   1       1.825  -1.338   2.754  0.00  0.00     0.032 A 
ATOM      9  C   UNL d   1       2.325  -2.229   3.704  0.00  0.00     0.039 A 
ATOM     10  C   UNL d   1       1.794  -3.513   3.800  0.00  0.00     0.068 A 
ATOM     11  C   UNL d   1       0.703  -3.868   3.005  0.00  0.00     0.039 A 
ATOM     12  C   UNL d   1       0.191  -2.969   2.061  0.00  0.00     0.032 A 
BRANCH  10  13
ATOM     13  O   UNL d   1       2.250  -4.471   4.664  0.00  0.00    -0.356 OA
ATOM     14  C   UNL d   1       3.656  -4.428   4.902  0.00  0.00     0.210 C 
ENDBRANCH  10  13
ENDBRANCH   5   7
ENDBRANCH   1   5
BRANCH   3  15
ATOM     15  C   UNL d   1      -0.802   1.697   0.133  0.00  0.00     0.160 C 
BRANCH  15  16
ATOM     16  C   UNL d   1      -1.868   1.984  -0.891  0.00  0.00    -0.038 A 
ATOM     17  C   UNL d   1      -1.925   1.339  -2.130  0.00  0.00     0.025 A 
ATOM     18  C   UNL d   1      -2.963   1.648  -2.996  0.00  0.00     0.088 A 
ATOM     19  N   UNL d   1      -3.941   2.534  -2.712  0.00  0.00    -0.375 N 
ATOM     20  C   UNL d   1      -3.877   3.140  -1.508  0.00  0.00     0.088 A 
ATOM     21  HN  UNL d   1      -4.689   2.737  -3.374  1.00  0.00     0.164 HD
ATOM     22  C   UNL d   1      -2.876   2.901  -0.578  0.00  0.00     0.025 A 
ENDBRANCH  15  16
ENDBRANCH   3  15
TORSDOF 5
