REMARK  4 active torsions:
REMARK  status: ('A' for Active; 'I' for Inactive)
REMARK    1  A    between atoms: C_8  and  C_2 
REMARK    2  A    between atoms: C_9  and  N_6 
REMARK    3  A    between atoms: O_15  and  C_8 
REMARK    4  A    between atoms: C_20  and  O_15 
ROOT
ATOM      1  C   UNL d   1      -1.292   0.814   0.013  0.00  0.00     0.139 A 
ATOM      2  C   UNL d   1      -0.000   1.293   0.159  0.00  0.00     0.108 A 
ATOM      3  N   UNL d   1      -1.178  -0.541  -0.138  0.00  0.00    -0.284 N 
ATOM      4  N   UNL d   1       0.083  -0.988  -0.131  0.00  0.00    -0.302 N 
ATOM      5  HN  UNL d   1       0.411  -1.950  -0.222  1.00  0.00     0.186 HD
ATOM      6  N   UNL d   1      -2.510   1.416  -0.065  0.00  0.00    -0.340 N 
ATOM      7  C   UNL d   1       0.817   0.124   0.024  0.00  0.00     0.042 A 
ATOM      8  C   UNL d   1       2.297  -0.014   0.056  0.00  0.00     0.071 C 
ATOM      9  H   UNL d   1      -1.932  -1.207  -0.259  0.00  0.00     0.188 HD
ATOM     10  H   UNL d   1      -2.530   2.438  -0.105  0.00  0.00     0.167 HD
ENDROOT
BRANCH   2  11
ATOM     11  C   UNL d   1       0.425   2.652   0.443  0.00  0.00     0.299 C 
ATOM     12  O   UNL d   1       1.602   3.001   0.487  0.00  0.00    -0.259 OA
BRANCH  11  13
ATOM     13  O   UNL d   1      -0.617   3.485   0.755  0.00  0.00    -0.318 OA
BRANCH  13  14
ATOM     14  C   UNL d   1      -0.276   4.677   1.480  0.00  0.00     0.174 C 
ATOM     15  C   UNL d   1      -0.358   5.901   0.591  0.00  0.00     0.034 C 
ENDBRANCH  13  14
ENDBRANCH  11  13
ENDBRANCH   2  11
BRANCH   6  16
ATOM     16  C   UNL d   1      -3.703   0.923   0.522  0.00  0.00     0.039 A 
ATOM     17  C   UNL d   1      -4.954   1.200  -0.067  0.00  0.00    -0.034 A 
ATOM     18  C   UNL d   1      -6.132   0.751   0.561  0.00  0.00     0.028 A 
ATOM     19  C   UNL d   1      -5.100   1.956  -1.361  0.00  0.00     0.050 C 
ATOM     20  C   UNL d   1      -6.070   0.025   1.749  0.00  0.00     0.011 A 
ATOM     21  C   UNL d   1      -4.842  -0.265   2.329  0.00  0.00     0.021 A 
ATOM     22 BR   UNL d   1      -7.664  -0.560   2.579  0.00  0.00    -0.051 Br
ATOM     23  C   UNL d   1      -3.669   0.187   1.721  0.00  0.00     0.031 A 
ENDBRANCH   6  16
TORSDOF 4
