REMARK  5 active torsions:
REMARK  status: ('A' for Active; 'I' for Inactive)
REMARK    1  A    between atoms: N_2  and  S_1 
REMARK    2  A    between atoms: C_12  and  S_1 
REMARK    3  A    between atoms: N_4  and  N_2 
REMARK    4  A    between atoms: C_3  and  N_4 
REMARK    5  A    between atoms: C_13  and  C_7 
ROOT
ATOM      1  C   UNL d   1       0.546  -0.472  -3.848  0.00  0.00     0.697 A 
ATOM      2  N   UNL d   1       1.429  -0.373  -4.849  0.00  0.00    -0.190 N 
ATOM      3  HN  UNL d   1       2.367  -0.008  -4.687  1.00  0.00     0.184 HD
ATOM      4  C   UNL d   1       1.042  -0.770  -6.081  0.00  0.00     0.062 A 
ATOM      5  N   UNL d   1      -0.708  -0.930  -3.994  0.00  0.00    -0.200 N 
ATOM      6  HN  UNL d   1      -1.348  -1.004  -3.203  1.00  0.00     0.183 HD
ATOM      7  C   UNL d   1      -0.238  -1.228  -6.322  0.00  0.00     0.048 A 
ATOM      8  C   UNL d   1      -1.077  -1.286  -5.235  0.00  0.00     0.108 A 
ENDROOT
BRANCH   1   9
ATOM      9  N   UNL d   1       0.987  -0.090  -2.587  0.00  0.00    -0.122 N 
ATOM     10  H   UNL d   1       1.944   0.248  -2.562  0.00  0.00     0.206 HD
BRANCH   9  11
ATOM     11  N   UNL d   1       0.316  -0.410  -1.340  0.00  0.00    -0.208 N 
ATOM     12  H   UNL d   1      -0.559  -0.941  -1.345  0.00  0.00     0.201 HD
BRANCH  11  13
ATOM     13  S   UNL d   1       0.995  -0.013   0.145  0.00  0.00     0.276 S 
ATOM     14  O   UNL d   1       2.417  -0.265   0.070  0.00  0.00    -0.199 OA
ATOM     15  O   UNL d   1       0.163  -0.601   1.176  0.00  0.00    -0.199 OA
BRANCH  13  16
ATOM     16  C   UNL d   1       0.748   1.746   0.175  0.00  0.00     0.081 A 
ATOM     17  C   UNL d   1      -0.477   2.266   0.601  0.00  0.00     0.025 A 
ATOM     18  C   UNL d   1      -0.652   3.649   0.656  0.00  0.00     0.002 A 
ATOM     19  C   UNL d   1       0.393   4.502   0.294  0.00  0.00     0.000 A 
ATOM     20  C   UNL d   1       1.616   3.977  -0.128  0.00  0.00     0.002 A 
ATOM     21  C   UNL d   1       1.800   2.596  -0.185  0.00  0.00     0.025 A 
ENDBRANCH  13  16
ENDBRANCH  11  13
ENDBRANCH   9  11
ENDBRANCH   1   9
BRANCH   4  22
ATOM     22  C   UNL d   1       2.091  -0.731  -7.114  0.00  0.00     0.007 A 
ATOM     23  C   UNL d   1       3.435  -0.927  -6.778  0.00  0.00     0.101 A 
ATOM     24  N   UNL d   1       4.467  -0.948  -7.660  0.00  0.00    -0.374 N 
ATOM     25  C   UNL d   1       4.157  -0.752  -8.955  0.00  0.00     0.087 A 
ATOM     26  HN  UNL d   1       5.428  -1.104  -7.357  1.00  0.00     0.164 HD
ATOM     27  C   UNL d   1       2.868  -0.533  -9.406  0.00  0.00     0.018 A 
ATOM     28  C   UNL d   1       1.829  -0.521  -8.474  0.00  0.00     0.016 A 
ENDBRANCH   4  22
TORSDOF 5
