REMARK  2 active torsions:
REMARK  status: ('A' for Active; 'I' for Inactive)
REMARK    1  A    between atoms: C_4  and  C_2 
REMARK    2  A    between atoms: C_5  and  C_3 
ROOT
ATOM      1  C   UNL d   1       1.317  -0.191  -0.052  0.00  0.00     0.024 A 
ATOM      2  C   UNL d   1       0.458  -1.310   0.017  0.00  0.00    -0.025 A 
ATOM      3  C   UNL d   1       0.847   1.137  -0.146  0.00  0.00    -0.025 A 
ATOM      4  C   UNL d   1      -0.922  -1.051   0.053  0.00  0.00     0.012 A 
ATOM      5  C   UNL d   1      -0.542   1.331  -0.091  0.00  0.00     0.012 A 
ATOM      6  C   UNL d   1      -1.418   0.252   0.018  0.00  0.00     0.002 A 
ENDROOT
BRANCH   2   7
ATOM      7  C   UNL d   1       0.986  -2.699   0.006  0.00  0.00    -0.026 A 
ATOM      8  C   UNL d   1       0.329  -3.745   0.680  0.00  0.00     0.012 A 
ATOM      9  C   UNL d   1       0.802  -5.061   0.630  0.00  0.00     0.001 A 
ATOM     10  C   UNL d   1       1.958  -5.360  -0.084  0.00  0.00     0.000 A 
ATOM     11  C   UNL d   1       2.636  -4.346  -0.749  0.00  0.00     0.001 A 
ATOM     12  C   UNL d   1       2.151  -3.034  -0.710  0.00  0.00     0.012 A 
ENDBRANCH   2   7
BRANCH   3  13
ATOM     13  C   UNL d   1       1.774   2.277  -0.359  0.00  0.00    -0.026 A 
ATOM     14  C   UNL d   1       2.921   2.138  -1.165  0.00  0.00     0.012 A 
ATOM     15  C   UNL d   1       3.768   3.219  -1.427  0.00  0.00     0.001 A 
ATOM     16  C   UNL d   1       3.484   4.471  -0.895  0.00  0.00     0.000 A 
ATOM     17  C   UNL d   1       2.363   4.638  -0.087  0.00  0.00     0.001 A 
ATOM     18  C   UNL d   1       1.524   3.551   0.183  0.00  0.00     0.012 A 
ENDBRANCH   3  13
TORSDOF 2
