REMARK  3 active torsions:
REMARK  status: ('A' for Active; 'I' for Inactive)
REMARK    1  A    between atoms: N_2  and  N_1 
REMARK    2  A    between atoms: C_3  and  N_2 
REMARK    3  A    between atoms: C_6  and  C_7 
ROOT
ATOM      1  C   UNL d   1      -1.190   1.222   3.042  0.00  0.00     0.116 A 
ATOM      2  C   UNL d   1      -1.375   3.250   4.936  0.00  0.00     0.065 A 
ATOM      3  N   UNL d   1      -0.524   2.386   2.845  0.00  0.00    -0.354 N 
ATOM      4  HN  UNL d   1       0.042   2.525   2.008  1.00  0.00     0.166 HD
ATOM      5  C   UNL d   1      -2.000   1.046   4.176  0.00  0.00     0.074 A 
ATOM      6  C   UNL d   1      -2.081   2.059   5.132  0.00  0.00     0.044 A 
ATOM      7  C   UNL d   1      -0.624   3.360   3.779  0.00  0.00     0.105 A 
ATOM      8 CL   UNL d   1      -2.872  -0.420   4.449  0.00  0.00    -0.081 Cl
ENDROOT
BRANCH   1   9
ATOM      9  N   UNL d   1      -1.164   0.206   2.033  0.00  0.00    -0.206 NA
ATOM     10  H   UNL d   1      -1.364  -0.681   2.505  0.00  0.00     0.148 HD
BRANCH   9  11
ATOM     11  N   UNL d   1      -0.012   0.120   1.172  0.00  0.00    -0.216 NA
ATOM     12  C   UNL d   1      -0.146  -1.020   0.221  0.00  0.00     0.146 C 
ATOM     13  S   UNL d   1      -1.510  -0.591  -0.942  0.00  0.00    -0.144 SA
ATOM     14  C   UNL d   1       1.196  -1.024  -0.541  0.00  0.00     0.107 C 
ATOM     15  C   UNL d   1      -1.178   1.192  -0.714  0.00  0.00     0.107 C 
ATOM     16  C   UNL d   1       0.074   1.232   0.184  0.00  0.00     0.146 C 
ATOM     17  S   UNL d   1       1.558   0.745  -0.818  0.00  0.00    -0.144 SA
ENDBRANCH   9  11
ENDBRANCH   1   9
BRANCH   2  18
ATOM     18  C   UNL d   1      -1.401   4.388   5.908  0.00  0.00     0.418 C 
ATOM     19  F   UNL d   1      -2.143   4.131   7.019  0.00  0.00    -0.166 F 
ATOM     20  F   UNL d   1      -0.160   4.716   6.354  0.00  0.00    -0.166 F 
ATOM     21  F   UNL d   1      -1.918   5.522   5.364  0.00  0.00    -0.166 F 
ENDBRANCH   2  18
TORSDOF 3
