REMARK  4 active torsions:
REMARK  status: ('A' for Active; 'I' for Inactive)
REMARK       I    between atoms: C_2  and  N_1 
REMARK    1  A    between atoms: O_19  and  C_2 
REMARK       I    between atoms: C_3  and  N_5 
REMARK       I    between atoms: N_4  and  C_3 
REMARK    2  A    between atoms: C_11  and  N_4 
REMARK    3  A    between atoms: N_5  and  C_18 
REMARK    4  A    between atoms: C_23  and  O_19 
ROOT
ATOM      1  C   UNL d   1      -1.501  -0.333  -2.891  0.00  0.00     0.321 C 
ATOM      2  N   UNL d   1      -2.280  -0.182  -3.994  0.00  0.00    -0.309 N 
ATOM      3  N   UNL d   1      -2.028   0.009  -1.692  0.00  0.00    -0.338 N 
ATOM      4  O   UNL d   1      -0.385  -0.823  -3.028  0.00  0.00    -0.247 OA
ATOM      5  H   UNL d   1      -1.869  -0.672  -4.780  0.00  0.00     0.170 HD
ATOM      6  H   UNL d   1      -3.037  -0.052  -1.661  0.00  0.00     0.164 HD
ENDROOT
BRANCH   3   7
ATOM      7  C   UNL d   1      -1.333  -0.030  -0.403  0.00  0.00     0.089 C 
ATOM      8  C   UNL d   1      -0.392   1.165  -0.203  0.00  0.00     0.045 C 
ATOM      9  C   UNL d   1       1.046   0.883  -0.607  0.00  0.00     0.130 C 
ATOM     10  N   UNL d   1       1.511  -0.323   0.054  0.00  0.00    -0.328 N 
ATOM     11  C   UNL d   1       2.688  -0.303   0.778  0.00  0.00     0.362 C 
ATOM     12  C   UNL d   1       0.785  -1.536  -0.297  0.00  0.00     0.130 C 
ATOM     13  O   UNL d   1       3.360   0.705   0.966  0.00  0.00    -0.238 OA
ATOM     14  C   UNL d   1      -0.714  -1.389  -0.026  0.00  0.00     0.045 C 
BRANCH  11  15
ATOM     15  O   UNL d   1       3.017  -1.529   1.269  0.00  0.00    -0.304 OA
BRANCH  15  16
ATOM     16  C   UNL d   1       4.285  -1.622   1.932  0.00  0.00     0.176 C 
ATOM     17  C   UNL d   1       5.350  -1.980   0.912  0.00  0.00     0.034 C 
ENDBRANCH  15  16
ENDBRANCH  11  15
ENDBRANCH   3   7
BRANCH   2  18
ATOM     18  C   UNL d   1      -3.388   0.632  -4.296  0.00  0.00     0.037 A 
ATOM     19  C   UNL d   1      -3.868   1.661  -3.477  0.00  0.00     0.039 A 
ATOM     20  C   UNL d   1      -4.922   2.442  -3.940  0.00  0.00    -0.021 A 
ATOM     21  C   UNL d   1      -5.555   3.631  -3.326  0.00  0.00     0.068 C 
ATOM     22  C   UNL d   1      -5.475   2.230  -5.191  0.00  0.00     0.075 A 
ATOM     23  C   UNL d   1      -6.723   3.831  -4.296  0.00  0.00     0.180 C 
ATOM     24  O   UNL d   1      -6.459   3.119  -5.527  0.00  0.00    -0.350 OA
ATOM     25  C   UNL d   1      -5.020   1.234  -6.025  0.00  0.00     0.039 A 
ATOM     26  C   UNL d   1      -3.971   0.432  -5.567  0.00  0.00     0.032 A 
ENDBRANCH   2  18
TORSDOF 4
