REMARK  4 active torsions:
REMARK  status: ('A' for Active; 'I' for Inactive)
REMARK    1  A    between atoms: N_5  and  S_1 
REMARK    2  A    between atoms: N_2  and  C_3 
REMARK    3  A    between atoms: N_4  and  C_9 
REMARK    4  A    between atoms: C_6  and  N_8 
ROOT
ATOM      1  C   UNL d   1       1.149   5.509   2.322  0.00  0.00     0.068 A 
ATOM      2  C   UNL d   1       2.018   4.518   1.790  0.00  0.00     0.058 A 
ATOM      3  C   UNL d   1       1.610   6.817   2.590  0.00  0.00     0.068 A 
ATOM      4  C   UNL d   1       2.945   7.152   2.367  0.00  0.00     0.105 A 
ATOM      5  C   UNL d   1       3.368   4.903   1.615  0.00  0.00     0.034 A 
ATOM      6  C   UNL d   1       3.835   6.193   1.895  0.00  0.00     0.038 A 
ENDROOT
BRANCH   2   7
ATOM      7  N   UNL d   1       1.604   3.236   1.415  0.00  0.00    -0.376 N 
ATOM      8  C   UNL d   1       1.086   2.325   2.464  0.00  0.00     0.143 C 
ATOM      9  C   UNL d   1       0.180   1.251   1.820  0.00  0.00     0.155 C 
ATOM     10  N   UNL d   1       0.844   0.512   0.690  0.00  0.00    -0.308 N 
ATOM     11  C   UNL d   1       1.501   1.441  -0.282  0.00  0.00     0.155 C 
ATOM     12  C   UNL d   1       2.389   2.496   0.404  0.00  0.00     0.143 C 
BRANCH  10  13
ATOM     13  S   UNL d   1       1.683  -0.894   1.098  0.00  0.00     0.224 S 
ATOM     14  O   UNL d   1       0.920  -1.601   2.101  0.00  0.00    -0.206 OA
ATOM     15  O   UNL d   1       3.069  -0.535   1.323  0.00  0.00    -0.206 OA
ATOM     16  C   UNL d   1       1.571  -1.830  -0.418  0.00  0.00     0.186 C 
ENDBRANCH  10  13
ENDBRANCH   2   7
BRANCH   1  17
ATOM     17  N   UNL d   1      -0.237   5.276   2.584  0.00  0.00    -0.318 N 
ATOM     18  C   UNL d   1      -0.887   5.568   3.789  0.00  0.00     0.013 A 
ATOM     19  C   UNL d   1      -2.201   5.154   3.680  0.00  0.00     0.027 A 
ATOM     20  C   UNL d   1      -0.238   6.162   4.995  0.00  0.00     0.068 C 
ATOM     21  C   UNL d   1      -2.388   4.658   2.379  0.00  0.00     0.027 A 
ATOM     22  C   UNL d   1      -1.195   4.796   1.696  0.00  0.00     0.013 A 
ATOM     23  C   UNL d   1      -0.971   4.567   0.240  0.00  0.00     0.068 C 
ENDBRANCH   1  17
BRANCH   4  24
ATOM     24  N   UNL d   1       3.409   8.522   2.619  0.00  0.00    -0.116 N 
ATOM     25  O   UNL d   1       2.611   9.313   3.141  0.00  0.00    -0.532 OA
ATOM     26  O   UNL d   1       4.570   8.806   2.292  0.00  0.00    -0.532 OA
ENDBRANCH   4  24
TORSDOF 4
