REMARK  6 active torsions:
REMARK  status: ('A' for Active; 'I' for Inactive)
REMARK    1  A    between atoms: C_4  and  C_1 
REMARK       I    between atoms: C_2  and  N_5 
REMARK       I    between atoms: N_7  and  C_2 
REMARK    2  A    between atoms: O_6  and  C_3 
REMARK    3  A    between atoms: N_5  and  C_4 
REMARK    4  A    between atoms: C_15  and  O_6 
REMARK    5  A    between atoms: C_14  and  N_7 
REMARK    6  A    between atoms: C_9  and  C_10 
ROOT
ATOM      1  C   UNL d   1      -3.478   3.072   0.149  0.00  0.00     0.320 C 
ATOM      2  N   UNL d   1      -2.438   2.172   0.328  0.00  0.00    -0.338 N 
ATOM      3  N   UNL d   1      -3.228   4.231   0.870  0.00  0.00    -0.309 N 
ATOM      4  O   UNL d   1      -4.476   2.824  -0.513  0.00  0.00    -0.247 OA
ATOM      5  H   UNL d   1      -1.926   2.298   1.188  0.00  0.00     0.164 HD
ATOM      6  H   UNL d   1      -2.266   4.370   1.139  0.00  0.00     0.170 HD
ENDROOT
BRANCH   2   7
ATOM      7  C   UNL d   1      -2.520   0.794  -0.126  0.00  0.00     0.167 C 
BRANCH   7   8
ATOM      8  C   UNL d   1      -3.236  -0.216   0.765  0.00  0.00     0.015 C 
ATOM      9  C   UNL d   1      -3.325  -1.553   0.294  0.00  0.00     0.085 C 
ATOM     10  C   UNL d   1      -4.201  -2.475   0.901  0.00  0.00     0.038 C 
ATOM     11  C   UNL d   1      -4.897  -2.141   2.049  0.00  0.00     0.004 C 
ATOM     12  C   UNL d   1      -4.705  -0.887   2.609  0.00  0.00     0.024 C 
ATOM     13  C   UNL d   1      -3.877   0.063   1.989  0.00  0.00     0.044 C 
ATOM     14 CL   UNL d   1      -3.642   1.505   2.917  0.00  0.00    -0.084 Cl
BRANCH   9  15
ATOM     15  O   UNL d   1      -2.526  -1.931  -0.782  0.00  0.00    -0.310 OA
BRANCH  15  16
ATOM     16  C   UNL d   1      -2.206  -3.275  -0.886  0.00  0.00     0.076 A 
ATOM     17  C   UNL d   1      -2.579  -3.939  -2.056  0.00  0.00     0.037 A 
ATOM     18  C   UNL d   1      -2.405  -5.321  -2.159  0.00  0.00     0.003 A 
ATOM     19  C   UNL d   1      -1.842  -6.036  -1.099  0.00  0.00     0.000 A 
ATOM     20  C   UNL d   1      -1.414  -5.362   0.046  0.00  0.00     0.003 A 
ATOM     21  C   UNL d   1      -1.574  -3.979   0.146  0.00  0.00     0.037 A 
ENDBRANCH  15  16
ENDBRANCH   9  15
ENDBRANCH   7   8
ENDBRANCH   2   7
BRANCH   3  22
ATOM     22  C   UNL d   1      -4.152   5.194   1.329  0.00  0.00     0.036 A 
ATOM     23  C   UNL d   1      -5.521   5.142   1.096  0.00  0.00     0.030 A 
ATOM     24  C   UNL d   1      -6.385   6.071   1.707  0.00  0.00     0.010 A 
ATOM     25  C   UNL d   1      -5.912   7.074   2.577  0.00  0.00    -0.051 A 
ATOM     26  C   UNL d   1      -4.523   7.141   2.759  0.00  0.00     0.010 A 
ATOM     27  C   UNL d   1      -3.659   6.219   2.144  0.00  0.00     0.030 A 
BRANCH  25  28
ATOM     28  C   UNL d   1      -6.895   8.006   3.308  0.00  0.00    -0.024 C 
ATOM     29  C   UNL d   1      -6.214   9.031   4.244  0.00  0.00     0.019 C 
ATOM     30  C   UNL d   1      -7.735   8.808   2.292  0.00  0.00     0.019 C 
ATOM     31  C   UNL d   1      -7.844   7.160   4.188  0.00  0.00     0.019 C 
ENDBRANCH  25  28
ENDBRANCH   3  22
TORSDOF 6
