REMARK  4 active torsions:
REMARK  status: ('A' for Active; 'I' for Inactive)
REMARK    1  A    between atoms: C_11  and  C_1 
REMARK    2  A    between atoms: C_16  and  C_9 
REMARK    3  A    between atoms: C_10  and  C_17 
REMARK       I    between atoms: N_14  and  C_11 
REMARK    4  A    between atoms: C_21  and  N_14 
ROOT
ATOM      1  C   UNL d   1       0.414  -7.749  -0.408  0.00  0.00    -0.008 A 
ATOM      2  C   UNL d   1       1.609  -7.151   0.011  0.00  0.00     0.016 A 
ATOM      3  C   UNL d   1      -0.693  -6.925  -0.623  0.00  0.00     0.016 A 
ATOM      4  C   UNL d   1       0.592  -4.938  -0.076  0.00  0.00     0.035 A 
ATOM      5  C   UNL d   1      -0.604  -5.542  -0.463  0.00  0.00     0.030 A 
ATOM      6  C   UNL d   1       1.699  -5.758   0.173  0.00  0.00     0.030 A 
ENDROOT
BRANCH   4   7
ATOM      7  N   UNL d   1       0.743  -3.537   0.025  0.00  0.00    -0.322 N 
ATOM      8  C   UNL d   1      -0.266  -2.590  -0.078  0.00  0.00     0.274 C 
ATOM      9  O   UNL d   1      -1.459  -2.877  -0.103  0.00  0.00    -0.266 OA
ATOM     10  H   UNL d   1       1.678  -3.203   0.217  0.00  0.00     0.169 HD
BRANCH   8  11
ATOM     11  C   UNL d   1       0.177  -1.209  -0.116  0.00  0.00     0.120 C 
ATOM     12  N   UNL d   1      -0.652  -0.106  -0.129  0.00  0.00    -0.291 N 
ATOM     13  N   UNL d   1       0.010   1.062  -0.006  0.00  0.00    -0.302 N 
ATOM     14  C   UNL d   1      -2.083  -0.022  -0.311  0.00  0.00     0.178 C 
ATOM     15  C   UNL d   1       1.302   0.729  -0.028  0.00  0.00     0.036 C 
ATOM     16  HN  UNL d   1      -0.389   1.997   0.084  1.00  0.00     0.186 HD
ATOM     17  C   UNL d   1       1.452  -0.671  -0.179  0.00  0.00     0.064 C 
BRANCH  15  18
ATOM     18  C   UNL d   1       2.397   1.771   0.109  0.00  0.00    -0.007 C 
ATOM     19  C   UNL d   1       3.162   1.905  -1.221  0.00  0.00     0.021 C 
ATOM     20  C   UNL d   1       1.839   3.160   0.490  0.00  0.00     0.021 C 
ATOM     21  C   UNL d   1       3.382   1.345   1.218  0.00  0.00     0.021 C 
ENDBRANCH  15  18
ENDBRANCH   8  11
ENDBRANCH   4   7
BRANCH   1  22
ATOM     22  C   UNL d   1       0.336  -9.183  -0.651  0.00  0.00     0.060 A 
ATOM     23  N   UNL d   1       1.408 -10.054  -0.493  0.00  0.00    -0.335 N 
ATOM     24  C   UNL d   1       0.924 -11.211  -0.853  0.00  0.00     0.147 A 
ATOM     25  HN  UNL d   1       2.351  -9.839  -0.170  1.00  0.00     0.168 HD
ATOM     26  S   UNL d   1       1.575 -12.791  -1.010  0.00  0.00    -0.092 SA
ATOM     27  N   UNL d   1      -0.374 -11.139  -1.228  0.00  0.00    -0.335 N 
ATOM     28  C   UNL d   1       0.079 -13.373  -1.915  0.00  0.00     0.102 C 
ATOM     29  C   UNL d   1      -1.031 -12.358  -1.631  0.00  0.00     0.141 C 
ATOM     30  C   UNL d   1      -0.789  -9.861  -1.109  0.00  0.00     0.123 A 
ENDBRANCH   1  22
TORSDOF 4
