REMARK  2 active torsions:
REMARK  status: ('A' for Active; 'I' for Inactive)
REMARK    1  A    between atoms: C_6  and  C_4 
REMARK    2  A    between atoms: C_7  and  C_5 
ROOT
ATOM      1  C   UNL d   1       0.753  -0.210   0.168  0.00  0.00    -0.006 C 
ATOM      2  C   UNL d   1       0.277   2.110  -0.091  0.00  0.00    -0.006 C 
ATOM      3  C   UNL d   1       1.372   1.112  -0.085  0.00  0.00     0.184 C 
ATOM      4  C   UNL d   1       1.501  -1.320   0.234  0.00  0.00     0.024 C 
ATOM      5  C   UNL d   1       0.542   3.421  -0.161  0.00  0.00     0.024 C 
ATOM      6  C   UNL d   1      -0.724  -0.050   0.349  0.00  0.00     0.047 C 
ATOM      7  C   UNL d   1      -1.041   1.409   0.015  0.00  0.00     0.047 C 
ATOM      8  O   UNL d   1       2.558   1.337  -0.245  0.00  0.00    -0.287 OA
ENDROOT
BRANCH   4   9
ATOM      9  C   UNL d   1       0.954  -2.656   0.493  0.00  0.00    -0.014 A 
ATOM     10  C   UNL d   1       0.820  -3.193   1.784  0.00  0.00     0.044 A 
ATOM     11 CL   UNL d   1       1.235  -2.287   3.197  0.00  0.00    -0.083 Cl
ATOM     12  C   UNL d   1       0.335  -4.493   1.961  0.00  0.00     0.024 A 
ATOM     13  C   UNL d   1      -0.039  -5.259   0.856  0.00  0.00     0.002 A 
ATOM     14  C   UNL d   1       0.066  -4.725  -0.426  0.00  0.00     0.001 A 
ATOM     15  C   UNL d   1       0.563  -3.432  -0.608  0.00  0.00     0.013 A 
ENDBRANCH   4   9
BRANCH   5  16
ATOM     16  C   UNL d   1      -0.491   4.463  -0.109  0.00  0.00    -0.014 A 
ATOM     17  C   UNL d   1      -1.125   4.976  -1.251  0.00  0.00     0.044 A 
ATOM     18 CL   UNL d   1      -0.780   4.376  -2.836  0.00  0.00    -0.083 Cl
ATOM     19  C   UNL d   1      -2.072   5.999  -1.131  0.00  0.00     0.024 A 
ATOM     20  C   UNL d   1      -2.406   6.503   0.128  0.00  0.00     0.002 A 
ATOM     21  C   UNL d   1      -1.799   5.980   1.268  0.00  0.00     0.001 A 
ATOM     22  C   UNL d   1      -0.844   4.969   1.151  0.00  0.00     0.013 A 
ENDBRANCH   5  16
TORSDOF 2
