REMARK  5 active torsions:
REMARK  status: ('A' for Active; 'I' for Inactive)
REMARK    1  A    between atoms: C_8  and  C_2 
REMARK    2  A    between atoms: S_20  and  C_5 
REMARK       I    between atoms: N_19  and  C_23 
REMARK    3  A    between atoms: C_21  and  N_19 
REMARK    4  A    between atoms: C_27  and  S_20 
REMARK    5  A    between atoms: C_23  and  C_27 
ROOT
ATOM      1  N   UNL d   1       1.060   0.138   0.197  0.00  0.00    -0.315 N 
ATOM      2  C   UNL d   1       0.130   1.146   0.034  0.00  0.00     0.134 C 
ATOM      3  N   UNL d   1      -1.065   0.585  -0.027  0.00  0.00    -0.283 N 
ATOM      4  HN  UNL d   1      -1.938   1.070  -0.233  1.00  0.00     0.188 HD
ATOM      5  C   UNL d   1       0.328  -0.993   0.438  0.00  0.00     0.163 C 
ATOM      6  N   UNL d   1      -0.941  -0.750   0.230  0.00  0.00    -0.278 N 
ATOM      7  HN  UNL d   1      -1.698  -1.432   0.256  1.00  0.00     0.189 HD
ATOM      8  C   UNL d   1       2.493   0.209   0.084  0.00  0.00     0.160 C 
ENDROOT
BRANCH   5   9
ATOM      9  S   UNL d   1       0.959  -2.411   1.194  0.00  0.00    -0.083 SA
BRANCH   9  10
ATOM     10  C   UNL d   1      -0.473  -3.525   1.189  0.00  0.00     0.185 C 
BRANCH  10  11
ATOM     11  C   UNL d   1      -1.615  -3.230   2.158  0.00  0.00     0.231 C 
ATOM     12  N   UNL d   1      -1.751  -1.931   2.610  0.00  0.00    -0.325 N 
ATOM     13  H   UNL d   1      -1.403  -1.245   1.946  0.00  0.00     0.169 HD
ATOM     14  O   UNL d   1      -2.432  -4.125   2.396  0.00  0.00    -0.272 OA
BRANCH  12  15
ATOM     15  C   UNL d   1      -2.857  -1.485   3.372  0.00  0.00     0.056 A 
ATOM     16  C   UNL d   1      -3.366  -2.129   4.512  0.00  0.00     0.062 A 
ATOM     17  C   UNL d   1      -4.530  -1.652   5.125  0.00  0.00     0.050 A 
ATOM     18 CL   UNL d   1      -2.529  -3.412   5.319  0.00  0.00    -0.082 Cl
ATOM     19  C   UNL d   1      -5.164  -0.519   4.622  0.00  0.00     0.035 A 
ATOM     20  C   UNL d   1      -4.631   0.169   3.536  0.00  0.00     0.026 A 
ATOM     21 CL   UNL d   1      -6.612   0.050   5.359  0.00  0.00    -0.084 Cl
ATOM     22  C   UNL d   1      -3.471  -0.306   2.921  0.00  0.00     0.033 A 
ENDBRANCH  12  15
ENDBRANCH  10  11
ENDBRANCH   9  10
ENDBRANCH   5   9
BRANCH   2  23
ATOM     23  C   UNL d   1       0.367   2.592  -0.026  0.00  0.00     0.012 A 
ATOM     24  C   UNL d   1      -0.456   3.361  -0.883  0.00  0.00     0.049 A 
ATOM     25  C   UNL d   1      -0.238   4.751  -0.842  0.00  0.00     0.086 A 
ATOM     26  N   UNL d   1      -0.851   5.727  -1.522  0.00  0.00    -0.240 N 
ATOM     27  C   UNL d   1       0.766   5.354   0.021  0.00  0.00     0.085 A 
ATOM     28  O   UNL d   1      -0.260   6.907  -1.099  0.00  0.00    -0.156 OA
ATOM     29  HN  UNL d   1      -1.598   5.624  -2.209  1.00  0.00     0.197 HD
ATOM     30  N   UNL d   1       0.734   6.681  -0.160  0.00  0.00    -0.240 N 
ATOM     31  HN  UNL d   1       1.319   7.380   0.297  1.00  0.00     0.197 HD
ATOM     32  C   UNL d   1       1.576   4.594   0.878  0.00  0.00     0.035 A 
ATOM     33  C   UNL d   1       1.332   3.205   0.834  0.00  0.00     0.018 A 
ENDBRANCH   2  23
TORSDOF 5
