REMARK  6 active torsions:
REMARK  status: ('A' for Active; 'I' for Inactive)
REMARK    1  A    between atoms: N_2  and  C_1 
REMARK    2  A    between atoms: C_3  and  C_9 
REMARK    3  A    between atoms: S_8  and  C_4 
REMARK       I    between atoms: C_5  and  N_7 
REMARK    4  A    between atoms: C_12  and  C_5 
REMARK    5  A    between atoms: N_7  and  C_10 
REMARK    6  A    between atoms: C_11  and  S_8 
ROOT
ATOM      1  C   UNL d   1       3.495  -2.820   0.907  0.00  0.00     0.051 A 
ATOM      2  C   UNL d   1       2.901  -3.160  -0.329  0.00  0.00     0.032 A 
ATOM      3  C   UNL d   1       4.924  -2.790   0.969  0.00  0.00     0.031 A 
ATOM      4  C   UNL d   1       3.796  -3.479  -1.401  0.00  0.00     0.021 A 
ATOM      5  C   UNL d   1       5.187  -3.482  -1.291  0.00  0.00     0.002 A 
ATOM      6  C   UNL d   1       5.757  -3.130  -0.093  0.00  0.00     0.002 A 
ENDROOT
BRANCH   2   7
ATOM      7  S   UNL d   1       1.256  -3.416  -0.974  0.00  0.00    -0.086 SA
BRANCH   7   8
ATOM      8  C   UNL d   1      -0.031  -2.535  -0.164  0.00  0.00     0.038 C 
ATOM      9  C   UNL d   1      -0.086  -1.197   0.213  0.00  0.00     0.120 C 
ATOM     10  C   UNL d   1      -1.119  -0.700   1.033  0.00  0.00     0.053 C 
ATOM     11  C   UNL d   1      -2.140  -1.561   1.470  0.00  0.00     0.050 C 
ATOM     12  C   UNL d   1      -2.177  -2.873   0.972  0.00  0.00     0.017 C 
ATOM     13  C   UNL d   1      -1.143  -3.341   0.156  0.00  0.00     0.022 C 
BRANCH   9  14
ATOM     14  N   UNL d   1       0.941  -0.268  -0.212  0.00  0.00    -0.114 N 
ATOM     15  O   UNL d   1       1.114  -0.122  -1.428  0.00  0.00    -0.532 OA
ATOM     16  O   UNL d   1       1.523   0.371   0.679  0.00  0.00    -0.532 OA
ENDBRANCH   9  14
BRANCH  11  17
ATOM     17  C   UNL d   1      -3.148  -1.146   2.511  0.00  0.00     0.417 C 
ATOM     18  F   UNL d   1      -2.966   0.125   2.966  0.00  0.00    -0.166 F 
ATOM     19  F   UNL d   1      -4.429  -1.205   2.056  0.00  0.00    -0.166 F 
ATOM     20  F   UNL d   1      -3.106  -1.943   3.615  0.00  0.00    -0.166 F 
ENDBRANCH  11  17
ENDBRANCH   7   8
ENDBRANCH   2   7
BRANCH   1  21
ATOM     21  N   UNL d   1       2.972  -2.514   2.194  0.00  0.00    -0.325 N 
ATOM     22  C   UNL d   1       1.761  -2.674   2.807  0.00  0.00     0.229 C 
ATOM     23  O   UNL d   1       0.775  -3.179   2.288  0.00  0.00    -0.272 OA
ATOM     24  H   UNL d   1       3.694  -2.227   2.836  0.00  0.00     0.169 HD
BRANCH  22  25
ATOM     25  C   UNL d   1       1.755  -2.395   4.342  0.00  0.00     0.030 C 
ATOM     26  C   UNL d   1       2.795  -1.387   4.866  0.00  0.00     0.025 C 
ATOM     27  C   UNL d   1       0.367  -1.874   4.763  0.00  0.00     0.025 C 
ATOM     28  C   UNL d   1       2.004  -3.761   5.004  0.00  0.00     0.025 C 
ENDBRANCH  22  25
ENDBRANCH   1  21
TORSDOF 6
