REMARK  3 active torsions:
REMARK  status: ('A' for Active; 'I' for Inactive)
REMARK    1  A    between atoms: C_10  and  C_5 
REMARK    2  A    between atoms: C_9  and  O_13 
REMARK    3  A    between atoms: O_13  and  C_20 
ROOT
ATOM      1  C   UNL d   1      -0.270   0.340  -0.530  0.00  0.00     0.688 A 
ATOM      2  N   UNL d   1      -1.521   0.603  -0.847  0.00  0.00    -0.189 N 
ATOM      3  HN  UNL d   1      -1.846   1.176  -1.626  1.00  0.00     0.184 HD
ATOM      4  N   UNL d   1      -0.224  -0.475   0.597  0.00  0.00    -0.166 N 
ATOM      5  C   UNL d   1      -2.303  -0.048   0.082  0.00  0.00     0.076 A 
ATOM      6  C   UNL d   1      -1.514  -0.720   0.988  0.00  0.00     0.145 A 
ATOM      7  N   UNL d   1       0.881   0.747  -1.144  0.00  0.00    -0.201 N 
ATOM      8  HN  UNL d   1       0.871   1.346  -1.969  1.00  0.00     0.183 HD
ATOM      9  C   UNL d   1       0.969  -0.917   1.152  0.00  0.00     0.116 A 
ATOM     10  C   UNL d   1       2.125  -0.549   0.585  0.00  0.00     0.036 A 
ATOM     11  C   UNL d   1       1.988   0.325  -0.614  0.00  0.00     0.107 A 
ENDROOT
BRANCH   5  12
ATOM     12  C   UNL d   1      -3.761  -0.025   0.053  0.00  0.00    -0.007 A 
ATOM     13  C   UNL d   1      -4.425   0.661  -0.975  0.00  0.00     0.016 A 
ATOM     14  C   UNL d   1      -5.826   0.674  -1.052  0.00  0.00     0.038 A 
ATOM     15  C   UNL d   1      -6.581  -0.028  -0.117  0.00  0.00     0.078 A 
ATOM     16  C   UNL d   1      -5.928  -0.669   0.938  0.00  0.00     0.038 A 
ATOM     17  C   UNL d   1      -4.532  -0.673   1.022  0.00  0.00     0.016 A 
BRANCH  15  18
ATOM     18  O   UNL d   1      -7.937  -0.131  -0.082  0.00  0.00    -0.255 OA
BRANCH  18  19
ATOM     19  C   UNL d   1      -8.678  -0.075  -1.292  0.00  0.00     0.530 C 
ATOM     20  F   UNL d   1      -7.929  -0.186  -2.408  0.00  0.00    -0.144 F 
ATOM     21  F   UNL d   1      -9.566  -1.095  -1.291  0.00  0.00    -0.144 F 
ATOM     22  F   UNL d   1      -9.371   1.083  -1.340  0.00  0.00    -0.144 F 
ENDBRANCH  18  19
ENDBRANCH  15  18
ENDBRANCH   5  12
TORSDOF 3
