REMARK  2 active torsions:
REMARK  status: ('A' for Active; 'I' for Inactive)
REMARK    1  A    between atoms: C_7  and  N_1 
REMARK    2  A    between atoms: C_10  and  C_2 
ROOT
ATOM      1  N   UNL d   1       0.978  -0.710  -0.032  0.00  0.00    -0.271 N 
ATOM      2  C   UNL d   1       0.948   0.670  -0.022  0.00  0.00     0.139 A 
ATOM      3  N   UNL d   1      -0.254   1.181  -0.003  0.00  0.00    -0.282 N 
ATOM      4  HN  UNL d   1      -0.512   2.167   0.025  1.00  0.00     0.188 HD
ATOM      5  C   UNL d   1      -0.361  -1.080  -0.022  0.00  0.00     0.199 A 
ATOM      6  N   UNL d   1      -1.084   0.106  -0.028  0.00  0.00    -0.274 N 
ATOM      7  S   UNL d   1      -1.121  -2.555   0.084  0.00  0.00    -0.039 SA
ATOM      8  H   UNL d   1      -2.091   0.199   0.027  0.00  0.00     0.189 HD
ENDROOT
BRANCH   1   9
ATOM      9  C   UNL d   1       2.098  -1.574   0.070  0.00  0.00     0.045 A 
ATOM     10  C   UNL d   1       3.183  -1.262   0.902  0.00  0.00     0.054 A 
ATOM     11  C   UNL d   1       4.317  -2.077   0.927  0.00  0.00     0.036 A 
ATOM     12 CL   UNL d   1       5.659  -1.636   1.910  0.00  0.00    -0.084 Cl
ATOM     13  C   UNL d   1       4.380  -3.230   0.151  0.00  0.00     0.024 A 
ATOM     14  C   UNL d   1       3.298  -3.572  -0.653  0.00  0.00     0.004 A 
ATOM     15  C   UNL d   1       2.168  -2.749  -0.696  0.00  0.00     0.030 A 
ENDBRANCH   1   9
BRANCH   2  16
ATOM     16  C   UNL d   1       2.136   1.546  -0.072  0.00  0.00     0.013 A 
ATOM     17  C   UNL d   1       3.227   1.277  -0.897  0.00  0.00     0.032 A 
ATOM     18  C   UNL d   1       4.308   2.139  -0.838  0.00  0.00     0.088 A 
ATOM     19  N   UNL d   1       4.344   3.243  -0.065  0.00  0.00    -0.375 N 
ATOM     20  C   UNL d   1       3.249   3.513   0.680  0.00  0.00     0.088 A 
ATOM     21  HN  UNL d   1       5.164   3.850  -0.043  1.00  0.00     0.164 HD
ATOM     22  C   UNL d   1       2.128   2.703   0.708  0.00  0.00     0.032 A 
ENDBRANCH   2  16
TORSDOF 2
