REMARK  3 active torsions:
REMARK  status: ('A' for Active; 'I' for Inactive)
REMARK    1  A    between atoms: C_4  and  C_1 
REMARK    2  A    between atoms: C_2  and  N_3 
REMARK    3  A    between atoms: N_3  and  N_6 
REMARK       I    between atoms: N_6  and  C_4 
ROOT
ATOM      1  C   UNL d   1       2.336  -1.994   0.224  0.00  0.00     0.269 C 
ATOM      2  N   UNL d   1       2.439  -3.354   0.444  0.00  0.00    -0.282 N 
ATOM      3  O   UNL d   1       1.475  -1.501  -0.502  0.00  0.00    -0.266 OA
ATOM      4  H   UNL d   1       3.237  -3.764   0.928  0.00  0.00     0.184 HD
ENDROOT
BRANCH   2   5
ATOM      5  N   UNL d   1       1.706  -4.213  -0.365  0.00  0.00    -0.200 NA
ATOM      6  H   UNL d   1       1.018  -3.719  -0.947  0.00  0.00     0.153 HD
BRANCH   5   7
ATOM      7  C   UNL d   1       1.165  -5.398   0.216  0.00  0.00     0.071 A 
ATOM      8  C   UNL d   1       1.564  -5.993   1.435  0.00  0.00     0.058 A 
ATOM      9 CL   UNL d   1       2.670  -5.280   2.564  0.00  0.00    -0.082 Cl
ATOM     10  C   UNL d   1       1.065  -7.247   1.833  0.00  0.00     0.026 A 
ATOM     11  C   UNL d   1       0.182  -7.955   1.026  0.00  0.00     0.003 A 
ATOM     12  C   UNL d   1      -0.222  -7.406  -0.183  0.00  0.00     0.026 A 
ATOM     13  C   UNL d   1       0.261  -6.152  -0.579  0.00  0.00     0.058 A 
ATOM     14 CL   UNL d   1      -0.288  -5.549  -2.112  0.00  0.00    -0.082 Cl
ENDBRANCH   5   7
ENDBRANCH   2   5
BRANCH   1  15
ATOM     15  C   UNL d   1       3.324  -1.120   0.923  0.00  0.00     0.072 A 
ATOM     16  C   UNL d   1       4.379  -1.630   1.688  0.00  0.00     0.135 A 
ATOM     17  C   UNL d   1       5.272  -0.789   2.345  0.00  0.00     0.085 A 
ATOM     18  F   UNL d   1       4.577  -2.952   1.802  0.00  0.00    -0.205 F 
ATOM     19  C   UNL d   1       5.120   0.584   2.223  0.00  0.00     0.119 A 
ATOM     20  C   UNL d   1       4.096   1.124   1.453  0.00  0.00     0.043 A 
ATOM     21  F   UNL d   1       5.976   1.400   2.849  0.00  0.00    -0.206 F 
ATOM     22  C   UNL d   1       3.195   0.272   0.803  0.00  0.00     0.023 A 
ENDBRANCH   1  15
TORSDOF 3
