REMARK  2 active torsions:
REMARK  status: ('A' for Active; 'I' for Inactive)
REMARK       I    between atoms: N_2  and  C_1 
REMARK       I    between atoms: N_6  and  C_1 
REMARK    1  A    between atoms: C_3  and  N_2 
REMARK    2  A    between atoms: C_7  and  N_6 
ROOT
ATOM      1  C   UNL d   1       0.936  -0.112  -0.081  0.00  0.00     0.326 C 
ATOM      2  N   UNL d   1       2.262  -0.002   0.263  0.00  0.00    -0.294 N 
ATOM      3  N   UNL d   1       0.065  -0.237   0.966  0.00  0.00    -0.309 N 
ATOM      4  O   UNL d   1       0.637  -0.027  -1.269  0.00  0.00    -0.247 OA
ATOM      5  H   UNL d   1       2.858   0.210  -0.522  0.00  0.00     0.172 HD
ATOM      6  H   UNL d   1       0.513  -0.197   1.877  0.00  0.00     0.170 HD
ENDROOT
BRANCH   2   7
ATOM      7  C   UNL d   1       2.850  -0.202   1.516  0.00  0.00     0.109 A 
ATOM      8  N   UNL d   1       2.088  -0.661   2.533  0.00  0.00    -0.346 N 
ATOM      9  C   UNL d   1       2.675  -0.917   3.723  0.00  0.00     0.007 A 
ATOM     10  HN  UNL d   1       1.087  -0.812   2.405  1.00  0.00     0.167 HD
ATOM     11  C   UNL d   1       1.812  -1.523   4.786  0.00  0.00     0.068 C 
ATOM     12  C   UNL d   1       4.018  -0.657   3.955  0.00  0.00     0.025 A 
ATOM     13  C   UNL d   1       4.788  -0.152   2.912  0.00  0.00     0.006 A 
ATOM     14  C   UNL d   1       4.203   0.063   1.666  0.00  0.00     0.049 A 
ENDBRANCH   2   7
BRANCH   3  15
ATOM     15  C   UNL d   1      -1.328  -0.390   0.954  0.00  0.00     0.037 A 
ATOM     16  C   UNL d   1      -2.053  -0.732  -0.185  0.00  0.00     0.036 A 
ATOM     17  C   UNL d   1      -3.440  -0.918  -0.114  0.00  0.00    -0.059 A 
ATOM     18  C   UNL d   1      -4.214  -1.353  -1.323  0.00  0.00     0.048 C 
ATOM     19  C   UNL d   1      -4.102  -0.711   1.105  0.00  0.00     0.013 A 
ATOM     20  C   UNL d   1      -3.390  -0.346   2.252  0.00  0.00    -0.059 A 
ATOM     21  C   UNL d   1      -1.998  -0.213   2.172  0.00  0.00     0.036 A 
ATOM     22  C   UNL d   1      -4.114  -0.109   3.543  0.00  0.00     0.048 C 
ENDBRANCH   3  15
TORSDOF 2
