REMARK  6 active torsions:
REMARK  status: ('A' for Active; 'I' for Inactive)
REMARK    1  A    between atoms: N_5  and  C_1 
REMARK    2  A    between atoms: N_6  and  C_1 
REMARK    3  A    between atoms: N_2  and  N_6 
REMARK    4  A    between atoms: C_11  and  N_5 
REMARK    5  A    between atoms: C_9  and  C_8 
REMARK    6  A    between atoms: C_12  and  C_11 
ROOT
ATOM      1  N   UNL d   1       2.412  -0.108   0.242  0.00  0.00    -0.277 N 
ATOM      2  H   UNL d   1       2.978   0.734   0.272  0.00  0.00     0.189 HD
ENDROOT
BRANCH   1   3
ATOM      3  N   UNL d   1       2.981  -1.343   0.343  0.00  0.00    -0.309 N 
ATOM      4  C   UNL d   1       4.271  -1.373   0.376  0.00  0.00     0.118 C 
ATOM      5  HN  UNL d   1       2.419  -2.193   0.390  1.00  0.00     0.186 HD
BRANCH   4   6
ATOM      6  C   UNL d   1       4.987  -2.662   0.479  0.00  0.00    -0.019 A 
ATOM      7  C   UNL d   1       4.267  -3.858   0.604  0.00  0.00     0.014 A 
ATOM      8  C   UNL d   1       4.945  -5.072   0.703  0.00  0.00     0.024 A 
ATOM      9  C   UNL d   1       6.338  -5.090   0.676  0.00  0.00     0.034 A 
ATOM     10  C   UNL d   1       7.059  -3.901   0.546  0.00  0.00     0.024 A 
ATOM     11 CL   UNL d   1       7.173  -6.587   0.806  0.00  0.00    -0.084 Cl
ATOM     12  C   UNL d   1       6.384  -2.680   0.447  0.00  0.00     0.014 A 
ENDBRANCH   4   6
ENDBRANCH   1   3
BRANCH   1  13
ATOM     13  C   UNL d   1       1.062   0.017  -0.017  0.00  0.00     0.186 C 
ATOM     14  S   UNL d   1       0.389   1.526  -0.226  0.00  0.00    -0.040 SA
BRANCH  13  15
ATOM     15  N   UNL d   1       0.421  -1.187  -0.124  0.00  0.00    -0.364 N 
ATOM     16  H   UNL d   1       0.980  -1.955   0.240  0.00  0.00     0.162 HD
BRANCH  15  17
ATOM     17  C   UNL d   1      -0.971  -1.444  -0.457  0.00  0.00     0.154 C 
BRANCH  17  18
ATOM     18  C   UNL d   1      -1.176  -2.898  -0.891  0.00  0.00     0.139 C 
ATOM     19  O   UNL d   1      -1.138  -3.783   0.249  0.00  0.00    -0.384 OA
ATOM     20  C   UNL d   1      -2.227  -4.711   0.139  0.00  0.00     0.168 C 
ATOM     21  C   UNL d   1      -2.763  -4.589  -1.270  0.00  0.00     0.029 C 
ATOM     22  C   UNL d   1      -2.519  -3.131  -1.564  0.00  0.00     0.035 C 
ENDBRANCH  17  18
ENDBRANCH  15  17
ENDBRANCH  13  15
ENDBRANCH   1  13
TORSDOF 6
