REMARK  4 active torsions:
REMARK  status: ('A' for Active; 'I' for Inactive)
REMARK    1  A    between atoms: C_4  and  C_1 
REMARK    2  A    between atoms: C_2  and  C_9 
REMARK    3  A    between atoms: C_11  and  C_3 
REMARK    4  A    between atoms: O_12  and  C_4 
ROOT
ATOM      1  C   UNL d   1       4.148   1.113   0.455  0.00  0.00     0.054 A 
ATOM      2  N   UNL d   1       3.988  -1.143  -0.417  0.00  0.00    -0.373 N 
ATOM      3  HN  UNL d   1       4.436  -2.003  -0.735  1.00  0.00     0.164 HD
ATOM      4  C   UNL d   1       2.753   1.224   0.465  0.00  0.00     0.041 A 
ATOM      5  C   UNL d   1       1.985   0.137   0.041  0.00  0.00     0.034 A 
ATOM      6  C   UNL d   1       4.711  -0.075  -0.001  0.00  0.00     0.105 A 
ATOM      7  C   UNL d   1       2.641  -1.011  -0.390  0.00  0.00     0.108 A 
ENDROOT
BRANCH   5   8
ATOM      8  C   UNL d   1       0.555   0.186   0.053  0.00  0.00    -0.060 C 
ATOM      9  C   UNL d   1      -0.644   0.169   0.058  0.00  0.00    -0.061 C 
BRANCH   9  10
ATOM     10  C   UNL d   1      -2.070   0.080   0.046  0.00  0.00     0.018 A 
ATOM     11  C   UNL d   1      -2.695  -1.097   0.469  0.00  0.00     0.020 A 
ATOM     12  C   UNL d   1      -4.085  -1.206   0.424  0.00  0.00     0.001 A 
ATOM     13  C   UNL d   1      -4.853  -0.138  -0.040  0.00  0.00     0.000 A 
ATOM     14  C   UNL d   1      -4.232   1.041  -0.452  0.00  0.00     0.001 A 
ATOM     15  C   UNL d   1      -2.841   1.151  -0.409  0.00  0.00     0.020 A 
ENDBRANCH   9  10
ENDBRANCH   5   8
BRANCH   1  16
ATOM     16  C   UNL d   1       5.071   2.197   0.848  0.00  0.00     0.177 C 
ATOM     17  O   UNL d   1       6.196   2.291   0.387  0.00  0.00    -0.646 OA
BRANCH  16  18
ATOM     18  O   UNL d   1       4.591   3.046   1.779  0.00  0.00    -0.773 OA
ATOM     19  H   UNL d   1       3.736   2.817   2.185  0.00  0.00     0.167 HD
ENDBRANCH  16  18
ENDBRANCH   1  16
TORSDOF 4
