REMARK  4 active torsions:
REMARK  status: ('A' for Active; 'I' for Inactive)
REMARK    1  A    between atoms: N_2  and  C_1 
REMARK       I    between atoms: C_5  and  N_2 
REMARK    2  A    between atoms: N_4  and  C_3 
REMARK       I    between atoms: N_12  and  C_5 
REMARK    3  A    between atoms: C_9  and  C_18 
REMARK    4  A    between atoms: C_18  and  N_12 
ROOT
ATOM      1  C   UNL d   1       0.354   1.452   0.010  0.00  0.00     0.105 A 
ATOM      2  C   UNL d   1      -0.165   0.220  -0.392  0.00  0.00     0.073 A 
ATOM      3  S   UNL d   1       1.838   1.273   0.835  0.00  0.00    -0.082 SA
ATOM      4  C   UNL d   1       0.706  -0.853   0.015  0.00  0.00     0.040 A 
ATOM      5  C   UNL d   1       1.826  -0.418   0.682  0.00  0.00     0.054 A 
ENDROOT
BRANCH   1   6
ATOM      6  N   UNL d   1      -0.158   2.718  -0.186  0.00  0.00    -0.301 N 
ATOM      7  C   UNL d   1       0.327   3.981  -0.109  0.00  0.00     0.321 C 
ATOM      8  N   UNL d   1       1.566   4.219   0.373  0.00  0.00    -0.342 N 
ATOM      9  O   UNL d   1      -0.410   4.867  -0.546  0.00  0.00    -0.247 OA
ATOM     10  H   UNL d   1       2.125   3.387   0.508  0.00  0.00     0.164 HD
ATOM     11  H   UNL d   1      -1.069   2.782  -0.605  0.00  0.00     0.171 HD
BRANCH   8  12
ATOM     12  C   UNL d   1       2.295   5.420   0.016  0.00  0.00     0.129 C 
BRANCH  12  13
ATOM     13  C   UNL d   1       1.697   6.688   0.552  0.00  0.00     0.003 A 
ATOM     14  C   UNL d   1       2.405   7.987   0.244  0.00  0.00     0.007 A 
ATOM     15  C   UNL d   1       2.340   7.487   1.660  0.00  0.00     0.007 A 
ENDBRANCH  12  13
ENDBRANCH   8  12
ENDBRANCH   1   6
BRANCH   2  16
ATOM     16  N   UNL d   1      -1.361  -0.045  -1.171  0.00  0.00    -0.330 N 
ATOM     17  C   UNL d   1      -1.698  -1.281  -1.712  0.00  0.00     0.097 A 
ATOM     18  C   UNL d   1      -2.817  -1.159  -2.506  0.00  0.00     0.019 A 
ATOM     19  C   UNL d   1      -3.238   0.176  -2.415  0.00  0.00     0.019 A 
ATOM     20  C   UNL d   1      -2.366   0.820  -1.562  0.00  0.00     0.097 A 
ENDBRANCH   2  16
TORSDOF 4
