REMARK  4 active torsions:
REMARK  status: ('A' for Active; 'I' for Inactive)
REMARK       I    between atoms: N_2  and  C_1 
REMARK       I    between atoms: N_4  and  C_1 
REMARK    1  A    between atoms: C_3  and  N_2 
REMARK    2  A    between atoms: C_7  and  N_4 
REMARK    3  A    between atoms: C_9  and  C_7 
REMARK    4  A    between atoms: O_15  and  C_10 
ROOT
ATOM      1  C   UNL d   1       0.882   0.879   0.611  0.00  0.00     0.321 C 
ATOM      2  N   UNL d   1       0.274   2.096   0.471  0.00  0.00    -0.307 N 
ATOM      3  N   UNL d   1       0.103  -0.128   1.081  0.00  0.00    -0.339 N 
ATOM      4  O   UNL d   1       2.068   0.647   0.379  0.00  0.00    -0.247 OA
ATOM      5  H   UNL d   1      -0.417   2.296   1.184  0.00  0.00     0.170 HD
ATOM      6  H   UNL d   1       0.624  -0.983   1.229  0.00  0.00     0.164 HD
ENDROOT
BRANCH   2   7
ATOM      7  C   UNL d   1       0.944   3.237  -0.035  0.00  0.00     0.058 A 
ATOM      8  C   UNL d   1       0.761   4.484   0.580  0.00  0.00     0.060 A 
ATOM      9 CL   UNL d   1      -0.228   4.643   1.992  0.00  0.00    -0.082 Cl
ATOM     10  C   UNL d   1       1.425   5.616   0.100  0.00  0.00     0.026 A 
ATOM     11  C   UNL d   1       2.248   5.514  -1.020  0.00  0.00     0.002 A 
ATOM     12  C   UNL d   1       2.415   4.284  -1.654  0.00  0.00     0.002 A 
ATOM     13  C   UNL d   1       1.772   3.146  -1.159  0.00  0.00     0.031 A 
ENDBRANCH   2   7
BRANCH   3  14
ATOM     14  C   UNL d   1      -1.338  -0.211   1.169  0.00  0.00     0.162 C 
BRANCH  14  15
ATOM     15  C   UNL d   1      -1.783  -0.484   2.583  0.00  0.00    -0.040 A 
ATOM     16  C   UNL d   1      -1.456   0.403   3.619  0.00  0.00     0.011 A 
ATOM     17  C   UNL d   1      -1.879   0.163   4.930  0.00  0.00     0.037 A 
ATOM     18  C   UNL d   1      -2.638  -0.968   5.226  0.00  0.00     0.068 A 
ATOM     19  C   UNL d   1      -2.968  -1.854   4.199  0.00  0.00     0.037 A 
ATOM     20  C   UNL d   1      -2.549  -1.616   2.887  0.00  0.00     0.011 A 
BRANCH  18  21
ATOM     21  O   UNL d   1      -3.108  -1.319   6.462  0.00  0.00    -0.356 OA
ATOM     22  C   UNL d   1      -2.811  -0.435   7.535  0.00  0.00     0.210 C 
ENDBRANCH  18  21
ENDBRANCH  14  15
ENDBRANCH   3  14
TORSDOF 4
