REMARK  4 active torsions:
REMARK  status: ('A' for Active; 'I' for Inactive)
REMARK       I    between atoms: C_2  and  N_8 
REMARK    1  A    between atoms: C_4  and  C_2 
REMARK    2  A    between atoms: N_8  and  C_5 
REMARK    3  A    between atoms: C_6  and  C_7 
REMARK    4  A    between atoms: O_11  and  C_6 
ROOT
ATOM      1  C   UNL d   1       0.913   0.045   0.020  0.00  0.00    -0.086 C 
ATOM      2  C   UNL d   1      -0.391   0.045   0.020  0.00  0.00     0.015 C 
ATOM      3  C   UNL d   1       2.433   0.045   0.020  0.00  0.00     0.096 C 
ATOM      4  C   UNL d   1       2.823   1.088  -1.069  0.00  0.00     0.044 C 
ATOM      5  C   UNL d   1       2.819  -1.404  -0.402  0.00  0.00     0.044 C 
ATOM      6  C   UNL d   1       2.400   0.683  -2.485  0.00  0.00     0.004 C 
ATOM      7  C   UNL d   1       2.368  -1.762  -1.821  0.00  0.00     0.004 C 
ATOM      8  C   UNL d   1       2.847  -0.732  -2.837  0.00  0.00     0.000 C 
ENDROOT
BRANCH   3   9
ATOM      9  N   UNL d   1       3.050   0.387   1.311  0.00  0.00    -0.338 N 
ATOM     10  C   UNL d   1       4.427   0.425   1.464  0.00  0.00     0.242 C 
ATOM     11  O   UNL d   1       5.233   0.194   0.568  0.00  0.00    -0.269 OA
ATOM     12  H   UNL d   1       2.441   0.575   2.095  0.00  0.00     0.164 HD
BRANCH  10  13
ATOM     13  C   UNL d   1       4.926   0.772   2.820  0.00  0.00     0.080 C 
ATOM     14  C   UNL d   1       6.255   0.819   3.028  0.00  0.00     0.086 C 
BRANCH  14  15
ATOM     15  C   UNL d   1       6.783   1.166   4.362  0.00  0.00     0.165 C 
ATOM     16  O   UNL d   1       6.075   1.423   5.322  0.00  0.00    -0.647 OA
BRANCH  15  17
ATOM     17  O   UNL d   1       8.127   1.172   4.414  0.00  0.00    -0.773 OA
ATOM     18  H   UNL d   1       8.596   0.953   3.589  0.00  0.00     0.167 HD
ENDBRANCH  15  17
ENDBRANCH  14  15
ENDBRANCH  10  13
ENDBRANCH   3   9
TORSDOF 4
