REMARK  3 active torsions:
REMARK  status: ('A' for Active; 'I' for Inactive)
REMARK    1  A    between atoms: C_14  and  N_3 
REMARK    2  A    between atoms: N_15  and  C_8 
REMARK    3  A    between atoms: C_13  and  C_9 
ROOT
ATOM      1  C   UNL d   1       0.172  -0.607   0.021  0.00  0.00     0.180 A 
ATOM      2  C   UNL d   1       0.165   0.767  -0.024  0.00  0.00     0.033 A 
ATOM      3  N   UNL d   1       1.493  -1.015   0.073  0.00  0.00    -0.233 N 
ATOM      4  N   UNL d   1       2.317   0.071   0.141  0.00  0.00    -0.296 N 
ATOM      5  HN  UNL d   1       3.331   0.068   0.254  1.00  0.00     0.187 HD
ATOM      6  C   UNL d   1      -2.311   0.553  -0.032  0.00  0.00     0.080 A 
ATOM      7  O   UNL d   1      -0.895  -1.404   0.019  0.00  0.00    -0.278 OA
ATOM      8  C   UNL d   1      -2.159  -0.796   0.021  0.00  0.00     0.140 A 
ATOM      9  C   UNL d   1      -1.125   1.509  -0.123  0.00  0.00     0.105 A 
ATOM     10  C   UNL d   1       1.523   1.141   0.031  0.00  0.00     0.034 A 
ATOM     11  C   UNL d   1      -3.613   1.137  -0.011  0.00  0.00     0.100 C 
ATOM     12  N   UNL d   1      -4.669   1.609   0.034  0.00  0.00    -0.191 NA
ATOM     13  C   UNL d   1       2.139   2.491   0.003  0.00  0.00     0.070 C 
ENDROOT
BRANCH   8  14
ATOM     14  N   UNL d   1      -3.186  -1.712   0.090  0.00  0.00    -0.282 NA
ATOM     15  H   UNL d   1      -4.058  -1.366   0.483  0.00  0.00     0.126 HD
ATOM     16  H   UNL d   1      -2.889  -2.594   0.500  0.00  0.00     0.126 HD
ENDBRANCH   8  14
BRANCH   9  17
ATOM     17  C   UNL d   1      -1.100   2.551   0.985  0.00  0.00    -0.044 A 
ATOM     18  C   UNL d   1      -1.193   3.914   0.649  0.00  0.00     0.010 A 
ATOM     19  C   UNL d   1      -1.151   4.895   1.641  0.00  0.00     0.024 A 
ATOM     20  C   UNL d   1      -1.031   4.524   2.977  0.00  0.00     0.034 A 
ATOM     21  C   UNL d   1      -0.957   3.179   3.333  0.00  0.00     0.024 A 
ATOM     22 CL   UNL d   1      -0.971   5.734   4.197  0.00  0.00    -0.084 Cl
ATOM     23  C   UNL d   1      -0.995   2.196   2.343  0.00  0.00     0.010 A 
ENDBRANCH   9  17
BRANCH   3  24
ATOM     24  C   UNL d   1       2.054  -2.325   0.029  0.00  0.00     0.059 A 
ATOM     25  C   UNL d   1       1.267  -3.464  -0.183  0.00  0.00     0.031 A 
ATOM     26  C   UNL d   1       1.867  -4.722  -0.286  0.00  0.00     0.002 A 
ATOM     27  C   UNL d   1       3.249  -4.856  -0.167  0.00  0.00     0.000 A 
ATOM     28  C   UNL d   1       4.039  -3.733   0.062  0.00  0.00     0.002 A 
ATOM     29  C   UNL d   1       3.446  -2.473   0.158  0.00  0.00     0.031 A 
ENDBRANCH   3  24
TORSDOF 3
