REMARK  4 active torsions:
REMARK  status: ('A' for Active; 'I' for Inactive)
REMARK    1  A    between atoms: C_5  and  C_1 
REMARK    2  A    between atoms: C_6  and  C_1 
REMARK    3  A    between atoms: N_4  and  N_2 
REMARK    4  A    between atoms: C_7  and  N_4 
ROOT
ATOM      1  C   UNL d   1       0.896  -0.258  -0.468  0.00  0.00     0.139 C 
ATOM      2  N   UNL d   1       0.253   0.847  -0.724  0.00  0.00    -0.294 N 
ATOM      3  HN  UNL d   1      -0.723   0.957  -0.450  1.00  0.00     0.187 HD
ENDROOT
BRANCH   2   4
ATOM      4  N   UNL d   1       0.909   1.846  -1.361  0.00  0.00    -0.300 N 
ATOM      5  H   UNL d   1       1.927   1.833  -1.454  0.00  0.00     0.187 HD
BRANCH   4   6
ATOM      6  C   UNL d   1       0.182   2.815  -2.079  0.00  0.00     0.054 A 
ATOM      7  C   UNL d   1       0.821   3.863  -2.772  0.00  0.00    -0.034 A 
ATOM      8  C   UNL d   1       2.312   4.072  -2.801  0.00  0.00     0.050 C 
ATOM      9  C   UNL d   1       0.039   4.809  -3.469  0.00  0.00     0.009 A 
ATOM     10  C   UNL d   1      -1.352   4.728  -3.485  0.00  0.00     0.001 A 
ATOM     11  C   UNL d   1      -1.987   3.708  -2.793  0.00  0.00     0.002 A 
ATOM     12  C   UNL d   1      -1.226   2.772  -2.094  0.00  0.00     0.031 A 
ENDBRANCH   4   6
ENDBRANCH   2   4
BRANCH   1  13
ATOM     13  C   UNL d   1       0.108  -1.316   0.276  0.00  0.00     0.177 C 
ATOM     14  O   UNL d   1       0.725  -2.156   0.923  0.00  0.00    -0.291 OA
ATOM     15  C   UNL d   1      -1.391  -1.292   0.173  0.00  0.00     0.098 C 
ENDBRANCH   1  13
BRANCH   1  16
ATOM     16  C   UNL d   1       2.335  -0.499  -0.904  0.00  0.00     0.177 C 
ATOM     17  O   UNL d   1       3.130   0.438  -0.925  0.00  0.00    -0.291 OA
ATOM     18  C   UNL d   1       2.709  -1.881  -1.356  0.00  0.00     0.098 C 
ENDBRANCH   1  16
TORSDOF 4
