REMARK  5 active torsions:
REMARK  status: ('A' for Active; 'I' for Inactive)
REMARK    1  A    between atoms: C_2  and  S_1 
REMARK    2  A    between atoms: C_18  and  S_1 
REMARK    3  A    between atoms: C_3  and  N_10 
REMARK    4  A    between atoms: C_8  and  C_5 
REMARK    5  A    between atoms: N_14  and  C_11 
ROOT
ATOM      1  C   UNL d   1      -0.852  -2.038  -2.494  0.00  0.00     0.159 C 
ATOM      2  C   UNL d   1      -0.422  -1.881  -1.231  0.00  0.00     0.121 C 
ATOM      3  C   UNL d   1      -0.199  -1.363  -3.555  0.00  0.00     0.113 C 
ATOM      4  N   UNL d   1       0.375  -0.775  -4.373  0.00  0.00    -0.191 NA
ENDROOT
BRANCH   1   5
ATOM      5  S   UNL d   1      -2.226  -2.995  -2.912  0.00  0.00     0.218 S 
ATOM      6  O   UNL d   1      -2.031  -4.360  -2.454  0.00  0.00    -0.216 OA
ATOM      7  O   UNL d   1      -2.587  -2.761  -4.301  0.00  0.00    -0.216 OA
BRANCH   5   8
ATOM      8  C   UNL d   1      -3.599  -2.316  -1.985  0.00  0.00     0.065 A 
ATOM      9  C   UNL d   1      -3.902  -0.952  -2.080  0.00  0.00     0.024 A 
ATOM     10  C   UNL d   1      -5.042  -0.455  -1.444  0.00  0.00     0.002 A 
ATOM     11  C   UNL d   1      -5.878  -1.315  -0.728  0.00  0.00     0.000 A 
ATOM     12  C   UNL d   1      -5.571  -2.673  -0.633  0.00  0.00     0.002 A 
ATOM     13  C   UNL d   1      -4.430  -3.178  -1.259  0.00  0.00     0.024 A 
ENDBRANCH   5   8
ENDBRANCH   1   5
BRANCH   2  14
ATOM     14  N   UNL d   1      -0.835  -2.423  -0.030  0.00  0.00    -0.385 N 
ATOM     15  C   UNL d   1      -0.736  -3.869   0.297  0.00  0.00     0.142 C 
ATOM     16  C   UNL d   1      -0.005  -4.093   1.651  0.00  0.00     0.143 C 
ATOM     17  N   UNL d   1      -0.661  -3.292   2.704  0.00  0.00    -0.377 N 
ATOM     18  C   UNL d   1      -0.647  -1.847   2.411  0.00  0.00     0.143 C 
ATOM     19  C   UNL d   1      -1.363  -1.582   1.070  0.00  0.00     0.142 C 
BRANCH  17  20
ATOM     20  C   UNL d   1      -0.987  -3.775   3.965  0.00  0.00     0.045 A 
ATOM     21  C   UNL d   1      -1.713  -4.985   4.184  0.00  0.00     0.018 A 
ATOM     22  C   UNL d   1      -2.046  -5.336   5.514  0.00  0.00     0.045 A 
ATOM     23  C   UNL d   1      -2.173  -5.847   3.157  0.00  0.00     0.022 A 
ATOM     24  C   UNL d   1      -2.765  -6.500   5.755  0.00  0.00     0.031 A 
ATOM     25  N   UNL d   1      -1.723  -4.583   6.574  0.00  0.00    -0.352 N 
ATOM     26  C   UNL d   1      -3.159  -7.359   4.726  0.00  0.00     0.009 A 
ATOM     27  C   UNL d   1      -2.853  -7.042   3.411  0.00  0.00    -0.061 A 
ATOM     28  C   UNL d   1      -3.229  -7.955   2.283  0.00  0.00     0.048 C 
ATOM     29  C   UNL d   1      -1.037  -3.432   6.372  0.00  0.00     0.119 A 
ATOM     30  HN  UNL d   1      -1.988  -4.872   7.516  1.00  0.00     0.166 HD
ATOM     31  C   UNL d   1      -0.655  -3.019   5.099  0.00  0.00     0.064 A 
BRANCH  29  32
ATOM     32  C   UNL d   1      -0.686  -2.545   7.559  0.00  0.00     0.432 C 
ATOM     33  F   UNL d   1      -1.127  -3.005   8.764  0.00  0.00    -0.165 F 
ATOM     34  F   UNL d   1       0.659  -2.366   7.698  0.00  0.00    -0.165 F 
ATOM     35  F   UNL d   1      -1.205  -1.285   7.434  0.00  0.00    -0.165 F 
ENDBRANCH  29  32
ENDBRANCH  17  20
ENDBRANCH   2  14
TORSDOF 5
