REMARK  5 active torsions:
REMARK  status: ('A' for Active; 'I' for Inactive)
REMARK    1  A    between atoms: S_11  and  C_2 
REMARK    2  A    between atoms: C_8  and  C_3 
REMARK    3  A    between atoms: C_15  and  S_11 
REMARK    4  A    between atoms: C_13  and  C_15 
REMARK    5  A    between atoms: C_19  and  C_13 
ROOT
ATOM      1  C   UNL d   1       2.525   0.751   0.168  0.00  0.00     0.090 A 
ATOM      2  C   UNL d   1       2.504  -0.642   0.065  0.00  0.00     0.092 A 
ATOM      3  C   UNL d   1       1.309   1.472   0.122  0.00  0.00     0.013 A 
ATOM      4  N   UNL d   1       1.351  -1.348  -0.020  0.00  0.00    -0.352 N 
ATOM      5  HN  UNL d   1       1.365  -2.366  -0.080  1.00  0.00     0.166 HD
ATOM      6  C   UNL d   1       0.096   0.733   0.003  0.00  0.00    -0.022 A 
ATOM      7  C   UNL d   1       0.177  -0.671  -0.021  0.00  0.00     0.017 A 
ATOM      8  C   UNL d   1       3.786   1.413   0.363  0.00  0.00     0.103 C 
ATOM      9  N   UNL d   1       4.799   1.961   0.520  0.00  0.00    -0.191 NA
ATOM     10  C   UNL d   1      -1.268   1.396  -0.029  0.00  0.00     0.041 C 
ATOM     11  C   UNL d   1      -1.051  -1.546  -0.097  0.00  0.00     0.057 C 
ATOM     12  C   UNL d   1      -2.428   0.487  -0.435  0.00  0.00     0.005 C 
ATOM     13  C   UNL d   1      -2.335  -0.833   0.308  0.00  0.00     0.006 C 
ENDROOT
BRANCH   2  14
ATOM     14  S   UNL d   1       4.012  -1.618   0.099  0.00  0.00    -0.103 SA
BRANCH  14  15
ATOM     15  C   UNL d   1       3.543  -3.029  -0.947  0.00  0.00     0.164 C 
BRANCH  15  16
ATOM     16  C   UNL d   1       3.122  -2.623  -2.349  0.00  0.00     0.169 C 
ATOM     17  O   UNL d   1       3.499  -1.583  -2.892  0.00  0.00    -0.291 OA
BRANCH  16  18
ATOM     18  C   UNL d   1       2.246  -3.561  -3.126  0.00  0.00     0.010 A 
ATOM     19  C   UNL d   1       1.879  -4.826  -2.648  0.00  0.00     0.015 A 
ATOM     20  C   UNL d   1       1.032  -5.646  -3.399  0.00  0.00     0.001 A 
ATOM     21  C   UNL d   1       0.557  -5.217  -4.636  0.00  0.00     0.000 A 
ATOM     22  C   UNL d   1       0.934  -3.971  -5.131  0.00  0.00     0.001 A 
ATOM     23  C   UNL d   1       1.776  -3.147  -4.381  0.00  0.00     0.015 A 
ENDBRANCH  16  18
ENDBRANCH  15  16
ENDBRANCH  14  15
ENDBRANCH   2  14
BRANCH   3  24
ATOM     24  C   UNL d   1       1.337   2.967   0.145  0.00  0.00     0.017 C 
ATOM     25  S   UNL d   1       0.340   3.873   1.222  0.00  0.00    -0.101 SA
ATOM     26  C   UNL d   1       0.870   5.370   0.598  0.00  0.00     0.050 C 
ATOM     27  C   UNL d   1       1.906   5.211  -0.290  0.00  0.00     0.008 C 
ATOM     28  C   UNL d   1       2.159   3.834  -0.563  0.00  0.00     0.020 C 
ENDBRANCH   3  24
TORSDOF 5
