REMARK  6 active torsions:
REMARK  status: ('A' for Active; 'I' for Inactive)
REMARK       I    between atoms: N_2  and  C_1 
REMARK       I    between atoms: N_5  and  C_1 
REMARK    1  A    between atoms: C_6  and  N_3 
REMARK    2  A    between atoms: C_4  and  O_10 
REMARK    3  A    between atoms: C_15  and  N_5 
REMARK    4  A    between atoms: C_13  and  C_6 
REMARK    5  A    between atoms: C_14  and  C_6 
REMARK    6  A    between atoms: O_10  and  C_19 
ROOT
ATOM      1  C   UNL d   1       1.042   0.037  -0.020  0.00  0.00     0.323 C 
ATOM      2  N   UNL d   1       0.524  -1.190  -0.406  0.00  0.00    -0.331 N 
ATOM      3  N   UNL d   1      -0.028  -3.924  -1.421  0.00  0.00     0.105 N 
ATOM      4  N   UNL d   1       0.486   1.147  -0.604  0.00  0.00    -0.309 N 
ATOM      5  O   UNL d   1       1.954   0.083   0.804  0.00  0.00    -0.247 OA
ATOM      6  C   UNL d   1       1.076  -2.377   0.259  0.00  0.00     0.158 C 
ATOM      7  C   UNL d   1      -0.673  -1.447  -1.219  0.00  0.00     0.158 C 
ATOM      8  C   UNL d   1      -0.506  -2.697  -2.117  0.00  0.00     0.293 C 
ATOM      9  C   UNL d   1       1.222  -3.552  -0.716  0.00  0.00     0.293 C 
ATOM     10  H   UNL d   1      -0.302   1.014  -1.207  0.00  0.00     0.170 HD
ENDROOT
BRANCH   4  11
ATOM     11  C   UNL d   1       0.858   2.495  -0.386  0.00  0.00     0.036 A 
ATOM     12  C   UNL d   1       1.931   2.889   0.415  0.00  0.00     0.032 A 
ATOM     13  C   UNL d   1       2.216   4.245   0.634  0.00  0.00     0.039 A 
ATOM     14  C   UNL d   1       1.458   5.226   0.011  0.00  0.00     0.078 A 
ATOM     15  C   UNL d   1       0.383   4.838  -0.795  0.00  0.00     0.039 A 
ATOM     16  C   UNL d   1       0.088   3.486  -1.000  0.00  0.00     0.032 A 
BRANCH  14  17
ATOM     17  O   UNL d   1       1.635   6.572   0.105  0.00  0.00    -0.255 OA
BRANCH  17  18
ATOM     18  C   UNL d   1       2.885   7.095   0.527  0.00  0.00     0.530 C 
ATOM     19  F   UNL d   1       3.922   6.252   0.342  0.00  0.00    -0.144 F 
ATOM     20  F   UNL d   1       3.137   8.212  -0.193  0.00  0.00    -0.144 F 
ATOM     21  F   UNL d   1       2.821   7.441   1.831  0.00  0.00    -0.144 F 
ENDBRANCH  17  18
ENDBRANCH  14  17
ENDBRANCH   4  11
BRANCH   3  22
ATOM     22  C   UNL d   1      -1.075  -4.488  -0.516  0.00  0.00     0.289 C 
BRANCH  22  23
ATOM     23  C   UNL d   1      -2.330  -4.894  -1.297  0.00  0.00    -0.021 A 
ATOM     24  C   UNL d   1      -2.259  -5.821  -2.350  0.00  0.00     0.010 A 
ATOM     25  C   UNL d   1      -3.404  -6.206  -3.039  0.00  0.00     0.001 A 
ATOM     26  C   UNL d   1      -4.639  -5.659  -2.694  0.00  0.00     0.000 A 
ATOM     27  C   UNL d   1      -4.728  -4.728  -1.661  0.00  0.00     0.001 A 
ATOM     28  C   UNL d   1      -3.580  -4.346  -0.963  0.00  0.00     0.010 A 
ENDBRANCH  22  23
BRANCH  22  29
ATOM     29  C   UNL d   1      -0.631  -5.667   0.363  0.00  0.00    -0.021 A 
ATOM     30  C   UNL d   1      -1.193  -5.818   1.646  0.00  0.00     0.010 A 
ATOM     31  C   UNL d   1      -0.863  -6.901   2.453  0.00  0.00     0.001 A 
ATOM     32  C   UNL d   1       0.042  -7.863   1.998  0.00  0.00     0.000 A 
ATOM     33  C   UNL d   1       0.601  -7.738   0.727  0.00  0.00     0.001 A 
ATOM     34  C   UNL d   1       0.260  -6.657  -0.087  0.00  0.00     0.010 A 
ENDBRANCH  22  29
ENDBRANCH   3  22
TORSDOF 6
