REMARK  4 active torsions:
REMARK  status: ('A' for Active; 'I' for Inactive)
REMARK    1  A    between atoms: S_8  and  C_2 
REMARK    2  A    between atoms: C_16  and  S_8 
REMARK    3  A    between atoms: C_11  and  C_16 
REMARK       I    between atoms: N_12  and  C_11 
REMARK    4  A    between atoms: C_13  and  N_12 
ROOT
ATOM      1  C   UNL d   1       2.601   4.366  -0.394  0.00  0.00     0.231 C 
ATOM      2  N   UNL d   1       1.664   5.323  -0.038  0.00  0.00    -0.326 N 
ATOM      3  O   UNL d   1       3.742   4.609  -0.786  0.00  0.00    -0.272 OA
ATOM      4  H   UNL d   1       0.794   4.973   0.350  0.00  0.00     0.169 HD
ENDROOT
BRANCH   1   5
ATOM      5  C   UNL d   1       2.185   2.924  -0.158  0.00  0.00     0.185 C 
BRANCH   5   6
ATOM      6  S   UNL d   1       0.481   2.568  -0.691  0.00  0.00    -0.083 SA
BRANCH   6   7
ATOM      7  C   UNL d   1       0.453   0.866  -0.373  0.00  0.00     0.162 A 
ATOM      8  N   UNL d   1      -0.537   0.013  -0.766  0.00  0.00    -0.326 N 
ATOM      9  C   UNL d   1      -0.176  -1.212  -0.284  0.00  0.00     0.201 A 
ATOM     10  C   UNL d   1      -1.728   0.277  -1.526  0.00  0.00     0.159 C 
ATOM     11  N   UNL d   1       0.970  -1.118   0.349  0.00  0.00    -0.294 N 
ATOM     12  N   UNL d   1       1.367   0.197   0.293  0.00  0.00    -0.279 N 
ATOM     13  HN  UNL d   1       1.474  -1.881   0.801  1.00  0.00     0.187 HD
ATOM     14  HN  UNL d   1       2.219   0.585   0.696  1.00  0.00     0.189 HD
ENDBRANCH   6   7
ENDBRANCH   5   6
ENDBRANCH   1   5
BRANCH   2  15
ATOM     15  C   UNL d   1       1.792   6.726  -0.158  0.00  0.00     0.036 A 
ATOM     16  C   UNL d   1       2.882   7.354  -0.777  0.00  0.00     0.056 A 
ATOM     17  C   UNL d   1       2.940   8.748  -0.867  0.00  0.00     0.074 A 
ATOM     18 CL   UNL d   1       4.285   9.491  -1.645  0.00  0.00    -0.081 Cl
ATOM     19  C   UNL d   1       1.912   9.520  -0.341  0.00  0.00     0.138 A 
ATOM     20  C   UNL d   1       0.821   8.914   0.275  0.00  0.00     0.046 A 
ATOM     21  F   UNL d   1       1.947  10.859  -0.421  0.00  0.00    -0.204 F 
ATOM     22  C   UNL d   1       0.760   7.521   0.360  0.00  0.00     0.032 A 
ENDBRANCH   2  15
TORSDOF 4
