REMARK  6 active torsions:
REMARK  status: ('A' for Active; 'I' for Inactive)
REMARK    1  A    between atoms: N_2  and  S_1 
REMARK    2  A    between atoms: C_5  and  S_1 
REMARK    3  A    between atoms: S_4  and  N_2 
REMARK    4  A    between atoms: C_8  and  S_4 
REMARK    5  A    between atoms: C_14  and  S_4 
REMARK    6  A    between atoms: C_18  and  C_14 
ROOT
ATOM      1  N   UNL d   1       0.668   1.283   1.454  0.00  0.00    -0.259 N 
ATOM      2  HN  UNL d   1       1.393   1.188   0.742  1.00  0.00     0.186 HD
ENDROOT
BRANCH   1   3
ATOM      3  S   UNL d   1      -0.616   2.394   1.240  0.00  0.00     0.267 S 
ATOM      4  O   UNL d   1      -0.172   3.695   1.721  0.00  0.00    -0.200 OA
ATOM      5  O   UNL d   1      -1.864   1.827   1.716  0.00  0.00    -0.200 OA
BRANCH   3   6
ATOM      6  C   UNL d   1      -0.774   2.509  -0.526  0.00  0.00     0.080 A 
ATOM      7  C   UNL d   1      -1.650   1.633  -1.177  0.00  0.00     0.026 A 
ATOM      8  C   UNL d   1      -1.975   1.851  -2.516  0.00  0.00     0.008 A 
ATOM      9  C   UNL d   1      -1.436   2.944  -3.208  0.00  0.00    -0.062 A 
ATOM     10  C   UNL d   1      -0.539   3.798  -2.552  0.00  0.00     0.008 A 
ATOM     11  C   UNL d   1      -1.862   3.210  -4.622  0.00  0.00     0.048 C 
ATOM     12  C   UNL d   1      -0.208   3.587  -1.211  0.00  0.00     0.026 A 
ENDBRANCH   3   6
ENDBRANCH   1   3
BRANCH   1  13
ATOM     13  S   UNL d   1       0.719   0.388   2.795  0.00  0.00    -0.082 SA
BRANCH  13  14
ATOM     14  C   UNL d   1       2.518   0.516   3.029  0.00  0.00     0.010 A 
ATOM     15  C   UNL d   1       3.271   1.629   2.631  0.00  0.00     0.019 A 
ATOM     16  C   UNL d   1       4.640   1.696   2.905  0.00  0.00     0.001 A 
ATOM     17  C   UNL d   1       5.269   0.657   3.587  0.00  0.00     0.000 A 
ATOM     18  C   UNL d   1       4.532  -0.456   3.985  0.00  0.00     0.001 A 
ATOM     19  C   UNL d   1       3.164  -0.528   3.704  0.00  0.00     0.019 A 
ENDBRANCH  13  14
BRANCH  13  20
ATOM     20  C   UNL d   1       0.223   1.594   4.078  0.00  0.00     0.090 C 
BRANCH  20  21
ATOM     21  C   UNL d   1       0.185   0.956   5.463  0.00  0.00     0.007 C 
ATOM     22  C   UNL d   1      -0.305   1.967   6.491  0.00  0.00     0.006 C 
ENDBRANCH  20  21
ENDBRANCH  13  20
ENDBRANCH   1  13
TORSDOF 6
