REMARK  3 active torsions:
REMARK  status: ('A' for Active; 'I' for Inactive)
REMARK       I    between atoms: N_2  and  C_1 
REMARK    1  A    between atoms: C_3  and  C_1 
REMARK    2  A    between atoms: C_5  and  C_14 
REMARK    3  A    between atoms: O_20  and  C_5 
ROOT
ATOM      1  C   UNL d   1       0.783  -0.140   0.089  0.00  0.00     0.253 C 
ATOM      2  N   UNL d   1       0.111  -1.104  -0.663  0.00  0.00    -0.348 N 
ATOM      3  O   UNL d   1       1.762  -0.405   0.786  0.00  0.00    -0.267 OA
ATOM      4  C   UNL d   1      -0.934  -0.875  -1.659  0.00  0.00     0.127 C 
ATOM      5  C   UNL d   1       0.495  -2.504  -0.533  0.00  0.00     0.127 C 
ATOM      6  C   UNL d   1      -1.958  -3.096  -0.938  0.00  0.00     0.087 C 
ATOM      7  C   UNL d   1      -2.207  -1.605  -1.223  0.00  0.00     0.035 C 
ATOM      8  C   UNL d   1      -0.708  -3.332  -0.076  0.00  0.00     0.035 C 
ENDROOT
BRANCH   1   9
ATOM      9  C   UNL d   1       0.331   1.277   0.083  0.00  0.00     0.035 A 
ATOM     10  C   UNL d   1      -1.020   1.619   0.211  0.00  0.00     0.056 A 
ATOM     11  C   UNL d   1      -1.353   2.954   0.149  0.00  0.00     0.106 A 
ATOM     12  O   UNL d   1      -2.618   3.453   0.176  0.00  0.00    -0.323 OA
ATOM     13  C   UNL d   1      -0.401   3.939   0.041  0.00  0.00     0.105 A 
ATOM     14  C   UNL d   1      -2.355   4.865   0.038  0.00  0.00     0.352 A 
ATOM     15  O   UNL d   1      -0.948   5.183  -0.006  0.00  0.00    -0.323 OA
ATOM     16  C   UNL d   1       0.944   3.643  -0.003  0.00  0.00     0.041 A 
ATOM     17  C   UNL d   1       1.312   2.292   0.015  0.00  0.00     0.020 A 
ENDBRANCH   1   9
BRANCH   6  18
ATOM     18  C   UNL d   1      -1.877  -3.893  -2.227  0.00  0.00     0.143 C 
ATOM     19  O   UNL d   1      -1.526  -3.446  -3.306  0.00  0.00    -0.650 OA
BRANCH  18  20
ATOM     20  O   UNL d   1      -2.235  -5.188  -2.073  0.00  0.00    -0.776 OA
ATOM     21  H   UNL d   1      -2.512  -5.429  -1.168  0.00  0.00     0.167 HD
ENDBRANCH  18  20
ENDBRANCH   6  18
TORSDOF 3
