REMARK  4 active torsions:
REMARK  status: ('A' for Active; 'I' for Inactive)
REMARK    1  A    between atoms: C_2  and  S_1 
REMARK    2  A    between atoms: N_3  and  S_1 
REMARK    3  A    between atoms: O_11  and  C_7 
REMARK    4  A    between atoms: O_14  and  C_9 
ROOT
ATOM      1  C   UNL d   1       0.579   1.291   0.775  0.00  0.00     0.110 A 
ATOM      2  C   UNL d   1       0.144   1.148   2.109  0.00  0.00     0.064 A 
ATOM      3  C   UNL d   1       0.868   2.557   0.263  0.00  0.00     0.091 A 
ATOM      4  C   UNL d   1       0.717   3.674   1.090  0.00  0.00     0.041 A 
ATOM      5  C   UNL d   1      -0.011   2.265   2.925  0.00  0.00     0.069 A 
ATOM      6  C   UNL d   1       0.291   3.526   2.413  0.00  0.00     0.039 A 
ENDROOT
BRANCH   1   7
ATOM      7  S   UNL d   1       0.684  -0.186  -0.192  0.00  0.00     0.246 S 
ATOM      8  O   UNL d   1      -0.086  -1.213   0.487  0.00  0.00    -0.206 OA
ATOM      9  O   UNL d   1       2.080  -0.415  -0.499  0.00  0.00    -0.206 OA
BRANCH   7  10
ATOM     10  N   UNL d   1      -0.146   0.144  -1.644  0.00  0.00    -0.206 NA
ATOM     11  C   UNL d   1      -1.575   0.534  -1.517  0.00  0.00     0.107 C 
ATOM     12  C   UNL d   1      -2.344  -0.734  -1.826  0.00  0.00     0.017 C 
ATOM     13  C   UNL d   1      -1.527  -1.363  -2.937  0.00  0.00     0.017 C 
ATOM     14  C   UNL d   1      -0.084  -0.979  -2.627  0.00  0.00     0.107 C 
ENDBRANCH   7  10
ENDBRANCH   1   7
BRANCH   3  15
ATOM     15  O   UNL d   1       1.168   2.825  -1.042  0.00  0.00    -0.354 OA
ATOM     16  C   UNL d   1       2.488   2.430  -1.414  0.00  0.00     0.210 C 
ENDBRANCH   3  15
BRANCH   5  17
ATOM     17  O   UNL d   1      -0.450   2.251   4.220  0.00  0.00    -0.356 OA
ATOM     18  C   UNL d   1      -0.929   1.008   4.723  0.00  0.00     0.210 C 
ENDBRANCH   5  17
TORSDOF 4
