REMARK  5 active torsions:
REMARK  status: ('A' for Active; 'I' for Inactive)
REMARK    1  A    between atoms: C_11  and  N_1 
REMARK    2  A    between atoms: C_3  and  C_8 
REMARK    3  A    between atoms: C_4  and  C_12 
REMARK    4  A    between atoms: C_9  and  C_11 
REMARK       I    between atoms: N_13  and  C_9 
REMARK    5  A    between atoms: C_17  and  N_13 
ROOT
ATOM      1  N   UNL d   1       0.774   2.078   0.748  0.00  0.00    -0.307 N 
ATOM      2  C   UNL d   1       1.043   0.739   1.212  0.00  0.00     0.055 A 
ATOM      3  C   UNL d   1       0.133   3.034   1.536  0.00  0.00     0.234 C 
ATOM      4  C   UNL d   1       1.564  -0.242   0.347  0.00  0.00     0.047 A 
ATOM      5  S   UNL d   1       0.185   1.509   3.779  0.00  0.00    -0.118 SA
ATOM      6  C   UNL d   1       1.929  -1.523   0.809  0.00  0.00     0.050 A 
ATOM      7  C   UNL d   1       0.867   0.390   2.569  0.00  0.00     0.028 A 
ATOM      8  C   UNL d   1      -0.766   2.510   2.633  0.00  0.00     0.182 C 
ATOM      9  O   UNL d   1       0.201   4.240   1.301  0.00  0.00    -0.272 OA
ATOM     10  C   UNL d   1       1.797  -1.816   2.170  0.00  0.00     0.017 A 
ATOM     11  C   UNL d   1       1.262  -0.871   3.039  0.00  0.00     0.021 A 
ENDROOT
BRANCH   1  12
ATOM     12  C   UNL d   1       1.228   2.516  -0.577  0.00  0.00     0.235 C 
BRANCH  12  13
ATOM     13  C   UNL d   1       2.739   2.509  -0.815  0.00  0.00     0.240 C 
ATOM     14  N   UNL d   1       3.505   2.835   0.290  0.00  0.00    -0.326 N 
ATOM     15  H   UNL d   1       3.006   3.200   1.094  0.00  0.00     0.169 HD
ATOM     16  O   UNL d   1       3.168   2.303  -1.948  0.00  0.00    -0.271 OA
BRANCH  14  17
ATOM     17  C   UNL d   1       4.904   2.691   0.412  0.00  0.00     0.035 A 
ATOM     18  C   UNL d   1       5.702   2.081  -0.560  0.00  0.00     0.045 A 
ATOM     19  C   UNL d   1       7.079   1.886  -0.358  0.00  0.00     0.050 A 
ATOM     20  C   UNL d   1       7.657   2.326   0.840  0.00  0.00     0.016 A 
ATOM     21  C   UNL d   1       6.875   2.951   1.810  0.00  0.00     0.003 A 
ATOM     22  C   UNL d   1       5.504   3.128   1.597  0.00  0.00     0.029 A 
BRANCH  19  23
ATOM     23  C   UNL d   1       7.918   1.178  -1.395  0.00  0.00     0.417 C 
ATOM     24  F   UNL d   1       7.251   0.898  -2.548  0.00  0.00    -0.166 F 
ATOM     25  F   UNL d   1       9.013   1.900  -1.762  0.00  0.00    -0.166 F 
ATOM     26  F   UNL d   1       8.394  -0.015  -0.942  0.00  0.00    -0.166 F 
ENDBRANCH  19  23
ENDBRANCH  14  17
ENDBRANCH  12  13
ENDBRANCH   1  12
BRANCH   6  27
ATOM     27  C   UNL d   1       2.486  -2.566  -0.132  0.00  0.00     0.417 C 
ATOM     28  F   UNL d   1       2.189  -2.324  -1.438  0.00  0.00    -0.166 F 
ATOM     29  F   UNL d   1       3.841  -2.658  -0.060  0.00  0.00    -0.166 F 
ATOM     30  F   UNL d   1       2.010  -3.814   0.131  0.00  0.00    -0.166 F 
ENDBRANCH   6  27
TORSDOF 5
