REMARK  7 active torsions:
REMARK  status: ('A' for Active; 'I' for Inactive)
REMARK    1  A    between atoms: C_6  and  C_1 
REMARK    2  A    between atoms: C_8  and  C_3 
REMARK       I    between atoms: N_12  and  C_6 
REMARK    3  A    between atoms: C_7  and  C_13 
REMARK    4  A    between atoms: C_24  and  N_12 
REMARK    5  A    between atoms: C_13  and  S_16 
REMARK    6  A    between atoms: S_16  and  C_25 
REMARK    7  A    between atoms: C_25  and  C_24 
ROOT
ATOM      1  C   UNL d   1      -2.833  -1.438  -0.061  0.00  0.00     0.254 C 
ATOM      2  O   UNL d   1      -3.906  -0.853  -0.055  0.00  0.00    -0.268 OA
ATOM      3  N   UNL d   1      -2.753  -2.810  -0.108  0.00  0.00    -0.356 N 
ATOM      4  H   UNL d   1      -1.870  -3.263   0.066  0.00  0.00     0.162 HD
ENDROOT
BRANCH   3   5
ATOM      5  C   UNL d   1      -3.961  -3.611  -0.032  0.00  0.00     0.133 C 
BRANCH   5   6
ATOM      6  C   UNL d   1      -3.675  -5.116   0.056  0.00  0.00     0.093 C 
BRANCH   6   7
ATOM      7  S   UNL d   1      -2.733  -5.437   1.597  0.00  0.00    -0.163 SA
BRANCH   7   8
ATOM      8  C   UNL d   1      -2.541  -7.248   1.519  0.00  0.00     0.117 C 
BRANCH   8   9
ATOM      9  C   UNL d   1      -1.714  -7.748   2.681  0.00  0.00     0.011 A 
ATOM     10  C   UNL d   1      -2.344  -8.139   3.873  0.00  0.00     0.125 A 
ATOM     11  F   UNL d   1      -3.681  -8.099   3.964  0.00  0.00    -0.205 F 
ATOM     12  C   UNL d   1      -1.622  -8.583   4.982  0.00  0.00     0.043 A 
ATOM     13  C   UNL d   1      -0.234  -8.642   4.927  0.00  0.00     0.005 A 
ATOM     14  C   UNL d   1       0.420  -8.249   3.760  0.00  0.00     0.024 A 
ATOM     15  C   UNL d   1      -0.312  -7.802   2.651  0.00  0.00     0.044 A 
ATOM     16 CL   UNL d   1       0.591  -7.327   1.253  0.00  0.00    -0.084 Cl
ENDBRANCH   8   9
ENDBRANCH   7   8
ENDBRANCH   6   7
ENDBRANCH   5   6
ENDBRANCH   3   5
BRANCH   1  17
ATOM     17  C   UNL d   1      -1.551  -0.734  -0.014  0.00  0.00     0.063 A 
ATOM     18  C   UNL d   1      -0.224  -1.255  -0.004  0.00  0.00     0.053 A 
ATOM     19  C   UNL d   1       0.644  -0.182   0.011  0.00  0.00     0.062 A 
ATOM     20  O   UNL d   1      -0.073   0.976   0.026  0.00  0.00    -0.318 OA
ATOM     21  C   UNL d   1      -1.396   0.644   0.013  0.00  0.00     0.065 A 
ATOM     22  C   UNL d   1      -2.323   1.793   0.020  0.00  0.00     0.077 C 
BRANCH  19  23
ATOM     23  C   UNL d   1       2.146  -0.053   0.009  0.00  0.00    -0.002 C 
ATOM     24  C   UNL d   1       2.803  -1.446  -0.004  0.00  0.00     0.021 C 
ATOM     25  C   UNL d   1       2.606   0.718  -1.240  0.00  0.00     0.021 C 
ATOM     26  C   UNL d   1       2.617   0.697   1.266  0.00  0.00     0.021 C 
ENDBRANCH  19  23
ENDBRANCH   1  17
TORSDOF 7
