REMARK  5 active torsions:
REMARK  status: ('A' for Active; 'I' for Inactive)
REMARK    1  A    between atoms: S_5  and  C_1 
REMARK    2  A    between atoms: C_14  and  S_5 
REMARK    3  A    between atoms: C_7  and  C_14 
REMARK       I    between atoms: N_9  and  C_7 
REMARK    4  A    between atoms: C_17  and  N_9 
REMARK    5  A    between atoms: C_10  and  C_11 
ROOT
ATOM      1  C   UNL d   1       2.650   4.320   0.063  0.00  0.00     0.231 C 
ATOM      2  N   UNL d   1       1.682   5.313  -0.011  0.00  0.00    -0.327 N 
ATOM      3  O   UNL d   1       2.432   3.139   0.326  0.00  0.00    -0.272 OA
ATOM      4  H   UNL d   1       1.997   6.222  -0.326  0.00  0.00     0.169 HD
ENDROOT
BRANCH   1   5
ATOM      5  C   UNL d   1       4.055   4.740  -0.331  0.00  0.00     0.185 C 
BRANCH   5   6
ATOM      6  S   UNL d   1       4.563   6.341   0.366  0.00  0.00    -0.084 SA
BRANCH   6   7
ATOM      7  C   UNL d   1       6.205   6.366  -0.199  0.00  0.00     0.146 A 
ATOM      8  N   UNL d   1       7.144   7.280   0.199  0.00  0.00    -0.341 N 
ATOM      9  C   UNL d   1       8.296   7.005  -0.495  0.00  0.00     0.109 A 
ATOM     10  C   UNL d   1       7.014   8.347   1.161  0.00  0.00     0.158 C 
ATOM     11  C   UNL d   1       8.000   5.903  -1.262  0.00  0.00     0.107 A 
ATOM     12  N   UNL d   1       6.699   5.519  -1.073  0.00  0.00    -0.345 N 
ATOM     13  HN  UNL d   1       6.216   4.739  -1.518  1.00  0.00     0.167 HD
ENDBRANCH   6   7
ENDBRANCH   5   6
ENDBRANCH   1   5
BRANCH   2  14
ATOM     14  C   UNL d   1       0.316   5.187   0.331  0.00  0.00     0.034 A 
ATOM     15  C   UNL d   1      -0.235   4.030   0.891  0.00  0.00     0.030 A 
ATOM     16  C   UNL d   1      -1.586   3.977   1.248  0.00  0.00     0.017 A 
ATOM     17  C   UNL d   1      -2.413   5.085   1.059  0.00  0.00     0.009 A 
ATOM     18  C   UNL d   1      -1.884   6.238   0.474  0.00  0.00     0.017 A 
ATOM     19  C   UNL d   1      -0.525   6.287   0.116  0.00  0.00     0.030 A 
BRANCH  17  20
ATOM     20  C   UNL d   1      -3.833   4.972   1.493  0.00  0.00     0.155 C 
ATOM     21  O   UNL d   1      -4.385   3.874   1.481  0.00  0.00    -0.293 OA
ATOM     22  C   UNL d   1      -4.556   6.195   1.991  0.00  0.00     0.096 C 
ENDBRANCH  17  20
ENDBRANCH   2  14
TORSDOF 5
