REMARK  2 active torsions:
REMARK  status: ('A' for Active; 'I' for Inactive)
REMARK    1  A    between atoms: C_6  and  C_4 
REMARK    2  A    between atoms: C_7  and  C_5 
ROOT
ATOM      1  C   UNL d   1       0.769  -0.214   0.147  0.00  0.00    -0.006 A 
ATOM      2  C   UNL d   1       0.295   2.112  -0.087  0.00  0.00    -0.006 A 
ATOM      3  C   UNL d   1       1.385   1.110  -0.094  0.00  0.00     0.184 A 
ATOM      4  C   UNL d   1       1.531  -1.312   0.258  0.00  0.00     0.023 C 
ATOM      5  C   UNL d   1       0.564   3.419  -0.206  0.00  0.00     0.023 C 
ATOM      6  C   UNL d   1      -1.024   1.420   0.067  0.00  0.00     0.047 A 
ATOM      7  C   UNL d   1      -0.714  -0.064   0.289  0.00  0.00     0.047 A 
ATOM      8  O   UNL d   1       2.570   1.336  -0.254  0.00  0.00    -0.287 OA
ENDROOT
BRANCH   4   9
ATOM      9  C   UNL d   1       0.991  -2.633   0.605  0.00  0.00    -0.025 A 
ATOM     10  C   UNL d   1       0.889  -3.065   1.955  0.00  0.00    -0.016 A 
ATOM     11  C   UNL d   1       0.334  -4.342   2.220  0.00  0.00    -0.025 A 
ATOM     12  C   UNL d   1       1.320  -2.292   3.059  0.00  0.00     0.013 A 
ATOM     13  C   UNL d   1       0.229  -4.798   3.545  0.00  0.00     0.012 A 
ATOM     14  C   UNL d   1      -0.101  -5.146   1.155  0.00  0.00     0.012 A 
ATOM     15  C   UNL d   1       0.669  -4.015   4.612  0.00  0.00     0.001 A 
ATOM     16  C   UNL d   1       1.214  -2.761   4.369  0.00  0.00     0.001 A 
ATOM     17  C   UNL d   1       0.022  -4.717  -0.165  0.00  0.00     0.002 A 
ATOM     18  C   UNL d   1       0.568  -3.466  -0.440  0.00  0.00     0.012 A 
ENDBRANCH   4   9
BRANCH   5  19
ATOM     19  C   UNL d   1      -0.478   4.454  -0.231  0.00  0.00    -0.025 A 
ATOM     20  C   UNL d   1      -1.080   4.888  -1.441  0.00  0.00    -0.016 A 
ATOM     21  C   UNL d   1      -2.100   5.871  -1.379  0.00  0.00    -0.025 A 
ATOM     22  C   UNL d   1      -0.711   4.401  -2.717  0.00  0.00     0.013 A 
ATOM     23  C   UNL d   1      -2.705   6.327  -2.561  0.00  0.00     0.012 A 
ATOM     24  C   UNL d   1      -2.494   6.388  -0.135  0.00  0.00     0.012 A 
ATOM     25  C   UNL d   1      -2.315   5.833  -3.805  0.00  0.00     0.001 A 
ATOM     26  C   UNL d   1      -1.318   4.868  -3.883  0.00  0.00     0.001 A 
ATOM     27  C   UNL d   1      -1.880   5.966   1.043  0.00  0.00     0.002 A 
ATOM     28  C   UNL d   1      -0.875   5.007   0.997  0.00  0.00     0.012 A 
ENDBRANCH   5  19
TORSDOF 2
