REMARK  5 active torsions:
REMARK  status: ('A' for Active; 'I' for Inactive)
REMARK    1  A    between atoms: C_2  and  C_1 
REMARK    2  A    between atoms: S_8  and  C_2 
REMARK    3  A    between atoms: C_4  and  C_6 
REMARK    4  A    between atoms: C_12  and  C_5 
REMARK    5  A    between atoms: C_11  and  S_8 
ROOT
ATOM      1  C   UNL d   1      -0.340  -0.982  -0.143  0.00  0.00     0.134 A 
ATOM      2  O   UNL d   1       0.939  -0.482  -0.237  0.00  0.00    -0.297 OA
ATOM      3  C   UNL d   1       0.846   0.871  -0.159  0.00  0.00     0.129 A 
ATOM      4  C   UNL d   1      -1.228   0.078  -0.027  0.00  0.00     0.045 A 
ATOM      5  C   UNL d   1      -0.461   1.268  -0.026  0.00  0.00     0.049 A 
ENDROOT
BRANCH   1   6
ATOM      6  C   UNL d   1      -0.607  -2.407  -0.187  0.00  0.00     0.247 C 
ATOM      7  O   UNL d   1      -1.727  -2.876  -0.362  0.00  0.00    -0.277 OA
BRANCH   6   8
ATOM      8  S   UNL d   1       0.804  -3.429   0.117  0.00  0.00    -0.046 SA
BRANCH   8   9
ATOM      9  C   UNL d   1       0.296  -5.039  -0.463  0.00  0.00     0.008 A 
ATOM     10  C   UNL d   1      -0.317  -5.209  -1.708  0.00  0.00     0.019 A 
ATOM     11  C   UNL d   1      -0.698  -6.480  -2.147  0.00  0.00     0.008 A 
ATOM     12  C   UNL d   1      -0.449  -7.610  -1.363  0.00  0.00    -0.062 A 
ATOM     13  C   UNL d   1       0.196  -7.449  -0.132  0.00  0.00     0.008 A 
ATOM     14  C   UNL d   1      -0.937  -8.955  -1.816  0.00  0.00     0.048 C 
ATOM     15  C   UNL d   1       0.568  -6.174   0.312  0.00  0.00     0.019 A 
ENDBRANCH   8   9
ENDBRANCH   6   8
ENDBRANCH   1   6
BRANCH   3  16
ATOM     16  C   UNL d   1       2.043   1.622  -0.198  0.00  0.00    -0.036 C 
ATOM     17  C   UNL d   1       3.040   2.297  -0.204  0.00  0.00    -0.059 C 
BRANCH  17  18
ATOM     18  C   UNL d   1       4.216   3.112  -0.185  0.00  0.00     0.018 A 
ATOM     19  C   UNL d   1       4.110   4.501  -0.077  0.00  0.00     0.020 A 
ATOM     20  C   UNL d   1       5.262   5.292  -0.053  0.00  0.00     0.001 A 
ATOM     21  C   UNL d   1       6.520   4.696  -0.134  0.00  0.00     0.000 A 
ATOM     22  C   UNL d   1       6.629   3.310  -0.240  0.00  0.00     0.001 A 
ATOM     23  C   UNL d   1       5.478   2.518  -0.265  0.00  0.00     0.020 A 
ENDBRANCH  17  18
ENDBRANCH   3  16
TORSDOF 5
