REMARK  6 active torsions:
REMARK  status: ('A' for Active; 'I' for Inactive)
REMARK    1  A    between atoms: N_2  and  C_1 
REMARK    2  A    between atoms: N_10  and  C_1 
REMARK    3  A    between atoms: C_6  and  N_2 
REMARK    4  A    between atoms: N_3  and  N_10 
REMARK    5  A    between atoms: C_5  and  C_8 
REMARK    6  A    between atoms: O_15  and  C_13 
ROOT
ATOM      1  C   UNL d   1       1.294   0.617   0.103  0.00  0.00     0.191 C 
ATOM      2  S   UNL d   1       0.539  -0.025   1.447  0.00  0.00    -0.039 SA
ENDROOT
BRANCH   1   3
ATOM      3  N   UNL d   1       0.607   0.726  -1.073  0.00  0.00    -0.330 N 
ATOM      4  H   UNL d   1      -0.394   0.593  -0.993  0.00  0.00     0.168 HD
BRANCH   3   5
ATOM      5  C   UNL d   1       1.111   0.531  -2.384  0.00  0.00     0.068 A 
ATOM      6  C   UNL d   1       0.442   1.016  -3.522  0.00  0.00     0.095 A 
ATOM      7  C   UNL d   1       0.937   0.675  -4.794  0.00  0.00     0.039 A 
ATOM      8  C   UNL d   1       2.055  -0.142  -4.952  0.00  0.00     0.003 A 
ATOM      9  C   UNL d   1       2.711  -0.624  -3.831  0.00  0.00     0.002 A 
ATOM     10  C   UNL d   1       2.248  -0.281  -2.559  0.00  0.00     0.032 A 
BRANCH   6  11
ATOM     11  O   UNL d   1      -0.654   1.826  -3.625  0.00  0.00    -0.354 OA
ATOM     12  C   UNL d   1      -1.224   2.460  -2.497  0.00  0.00     0.210 C 
ENDBRANCH   6  11
ENDBRANCH   3   5
ENDBRANCH   1   3
BRANCH   1  13
ATOM     13  N   UNL d   1       2.582   1.078   0.203  0.00  0.00    -0.276 N 
ATOM     14  H   UNL d   1       3.098   0.813   1.039  0.00  0.00     0.189 HD
BRANCH  13  15
ATOM     15  N   UNL d   1       3.157   2.129  -0.482  0.00  0.00    -0.307 N 
ATOM     16  C   UNL d   1       2.373   3.097  -0.851  0.00  0.00     0.144 C 
ATOM     17  HN  UNL d   1       4.156   2.144  -0.691  1.00  0.00     0.186 HD
BRANCH  16  18
ATOM     18  C   UNL d   1       2.844   4.247  -1.560  0.00  0.00     0.091 A 
ATOM     19  O   UNL d   1       1.909   5.158  -1.976  0.00  0.00    -0.321 OA
ATOM     20  C   UNL d   1       2.576   6.173  -2.582  0.00  0.00     0.142 A 
ATOM     21  C   UNL d   1       3.930   5.939  -2.558  0.00  0.00     0.027 A 
ATOM     22  C   UNL d   1       4.106   4.690  -1.917  0.00  0.00     0.040 A 
ENDBRANCH  16  18
ENDBRANCH  13  15
ENDBRANCH   1  13
TORSDOF 6
