REMARK  4 active torsions:
REMARK  status: ('A' for Active; 'I' for Inactive)
REMARK    1  A    between atoms: N_8  and  S_1 
REMARK    2  A    between atoms: C_10  and  S_1 
REMARK    3  A    between atoms: C_2  and  C_9 
REMARK    4  A    between atoms: C_9  and  N_8 
ROOT
ATOM      1  N   UNL d   1       0.167  -1.409  -2.983  0.00  0.00    -0.311 N 
ATOM      2  H   UNL d   1      -0.846  -1.306  -2.981  0.00  0.00     0.172 HD
ENDROOT
BRANCH   1   3
ATOM      3  S   UNL d   1       0.674  -3.000  -2.716  0.00  0.00     0.259 S 
ATOM      4  O   UNL d   1       2.114  -3.016  -2.639  0.00  0.00    -0.201 OA
ATOM      5  O   UNL d   1      -0.043  -3.823  -3.668  0.00  0.00    -0.201 OA
BRANCH   3   6
ATOM      6  C   UNL d   1       0.020  -3.355  -1.107  0.00  0.00     0.079 A 
ATOM      7  C   UNL d   1      -1.241  -3.945  -0.997  0.00  0.00     0.026 A 
ATOM      8  C   UNL d   1      -1.771  -4.210   0.267  0.00  0.00     0.008 A 
ATOM      9  C   UNL d   1      -1.049  -3.886   1.423  0.00  0.00    -0.062 A 
ATOM     10  C   UNL d   1       0.239  -3.344   1.298  0.00  0.00     0.008 A 
ATOM     11  C   UNL d   1      -1.654  -4.138   2.774  0.00  0.00     0.048 C 
ATOM     12  C   UNL d   1       0.779  -3.088   0.033  0.00  0.00     0.026 A 
ENDBRANCH   3   6
ENDBRANCH   1   3
BRANCH   1  13
ATOM     13  C   UNL d   1       0.914  -0.365  -2.286  0.00  0.00     0.172 C 
BRANCH  13  14
ATOM     14  C   UNL d   1       0.373   1.040  -2.511  0.00  0.00    -0.027 C 
ATOM     15  C   UNL d   1      -0.429   1.653  -1.518  0.00  0.00    -0.047 C 
ATOM     16  C   UNL d   1      -0.592   3.059  -1.522  0.00  0.00    -0.049 C 
ATOM     17  C   UNL d   1      -1.093   0.820  -0.444  0.00  0.00     0.049 C 
ATOM     18  C   UNL d   1      -1.225   3.760  -0.336  0.00  0.00     0.049 C 
ATOM     19  C   UNL d   1      -0.145   3.833  -2.630  0.00  0.00    -0.049 C 
ATOM     20  C   UNL d   1       0.506   3.191  -3.711  0.00  0.00    -0.049 C 
ATOM     21  C   UNL d   1      -0.354   5.332  -2.579  0.00  0.00     0.049 C 
ATOM     22  C   UNL d   1       0.756   1.788  -3.654  0.00  0.00    -0.047 C 
ATOM     23  C   UNL d   1       0.979   3.945  -4.937  0.00  0.00     0.049 C 
ATOM     24  C   UNL d   1       1.441   1.117  -4.828  0.00  0.00     0.049 C 
ENDBRANCH  13  14
ENDBRANCH   1  13
TORSDOF 4
