REMARK  3 active torsions:
REMARK  status: ('A' for Active; 'I' for Inactive)
REMARK    1  A    between atoms: N_2  and  S_1 
REMARK    2  A    between atoms: C_3  and  S_1 
REMARK    3  A    between atoms: C_6  and  N_2 
ROOT
ATOM      1  N   UNL d   1       0.368   1.474   0.371  0.00  0.00    -0.166 NA
ATOM      2  H   UNL d   1       1.097   1.523  -0.338  0.00  0.00     0.147 HD
ENDROOT
BRANCH   1   3
ATOM      3  S   UNL d   1      -0.075  -0.136   0.572  0.00  0.00     0.248 S 
ATOM      4  O   UNL d   1       0.573  -0.673   1.750  0.00  0.00    -0.205 OA
ATOM      5  O   UNL d   1       0.098  -0.782  -0.711  0.00  0.00    -0.205 OA
BRANCH   3   6
ATOM      6  C   UNL d   1      -1.821  -0.105   0.889  0.00  0.00     0.096 A 
ATOM      7  C   UNL d   1      -2.730   0.457  -0.008  0.00  0.00     0.056 A 
ATOM      8 CL   UNL d   1      -2.282   1.287  -1.452  0.00  0.00    -0.083 Cl
ATOM      9  C   UNL d   1      -4.104   0.360   0.260  0.00  0.00     0.025 A 
ATOM     10  C   UNL d   1      -4.564  -0.297   1.402  0.00  0.00     0.002 A 
ATOM     11  C   UNL d   1      -3.655  -0.857   2.295  0.00  0.00     0.002 A 
ATOM     12  C   UNL d   1      -2.287  -0.761   2.042  0.00  0.00     0.026 A 
ENDBRANCH   3   6
ENDBRANCH   1   3
BRANCH   1  13
ATOM     13  C   UNL d   1       0.706   2.200   1.526  0.00  0.00     0.094 A 
ATOM     14  N   UNL d   1       2.010   2.141   1.840  0.00  0.00    -0.346 N 
ATOM     15  C   UNL d   1       2.424   2.842   2.912  0.00  0.00     0.043 A 
ATOM     16  HN  UNL d   1       2.663   1.586   1.287  1.00  0.00     0.167 HD
ATOM     17  C   UNL d   1       3.756   2.775   3.304  0.00  0.00     0.030 A 
ATOM     18  C   UNL d   1       1.552   3.661   3.661  0.00  0.00    -0.009 A 
ATOM     19  C   UNL d   1       4.242   3.506   4.393  0.00  0.00     0.002 A 
ATOM     20  C   UNL d   1       3.385   4.333   5.109  0.00  0.00     0.001 A 
ATOM     21  C   UNL d   1       2.041   4.411   4.746  0.00  0.00     0.013 A 
ATOM     22  C   UNL d   1       0.202   3.700   3.286  0.00  0.00     0.017 A 
ATOM     23  C   UNL d   1      -0.237   2.940   2.208  0.00  0.00     0.044 A 
ENDBRANCH   1  13
TORSDOF 3
