REMARK  6 active torsions:
REMARK  status: ('A' for Active; 'I' for Inactive)
REMARK    1  A    between atoms: N_4  and  C_9 
REMARK    2  A    between atoms: S_16  and  C_7 
REMARK    3  A    between atoms: C_8  and  C_10 
REMARK       I    between atoms: C_10  and  N_14 
REMARK    4  A    between atoms: C_11  and  C_24 
REMARK       I    between atoms: N_17  and  C_11 
REMARK    5  A    between atoms: N_14  and  N_17 
REMARK    6  A    between atoms: C_24  and  S_16 
ROOT
ATOM      1  C   UNL d   1      -4.187   2.075   1.424  0.00  0.00     0.179 C 
ENDROOT
BRANCH   1   2
ATOM      2  C   UNL d   1      -4.658   3.061   2.477  0.00  0.00     0.245 C 
ATOM      3  N   UNL d   1      -5.434   2.516   3.487  0.00  0.00    -0.267 N 
ATOM      4  H   UNL d   1      -5.552   1.516   3.676  0.00  0.00     0.190 HD
ATOM      5  O   UNL d   1      -4.404   4.266   2.431  0.00  0.00    -0.271 OA
BRANCH   3   6
ATOM      6  N   UNL d   1      -5.884   3.396   4.478  0.00  0.00    -0.263 N 
ATOM      7  C   UNL d   1      -6.593   2.918   5.563  0.00  0.00     0.271 C 
ATOM      8  O   UNL d   1      -6.770   1.718   5.753  0.00  0.00    -0.266 OA
ATOM      9  H   UNL d   1      -5.786   4.392   4.270  0.00  0.00     0.190 HD
BRANCH   7  10
ATOM     10  C   UNL d   1      -7.073   3.928   6.555  0.00  0.00     0.055 A 
ATOM     11  C   UNL d   1      -7.334   5.279   6.276  0.00  0.00     0.049 A 
ATOM     12 CL   UNL d   1      -7.243   5.975   4.695  0.00  0.00    -0.083 Cl
ATOM     13  C   UNL d   1      -7.724   6.149   7.304  0.00  0.00     0.025 A 
ATOM     14  C   UNL d   1      -7.873   5.684   8.609  0.00  0.00     0.002 A 
ATOM     15  C   UNL d   1      -7.642   4.343   8.894  0.00  0.00     0.001 A 
ATOM     16  C   UNL d   1      -7.249   3.470   7.875  0.00  0.00     0.019 A 
ENDBRANCH   7  10
ENDBRANCH   3   6
ENDBRANCH   1   2
BRANCH   1  17
ATOM     17  S   UNL d   1      -2.375   2.068   1.165  0.00  0.00    -0.149 SA
BRANCH  17  18
ATOM     18  C   UNL d   1      -1.715   1.359   2.727  0.00  0.00     0.096 A 
ATOM     19  C   UNL d   1      -2.183  -0.081   2.982  0.00  0.00     0.165 A 
ATOM     20  S   UNL d   1      -2.901  -0.117   4.616  0.00  0.00     0.177 S 
ATOM     21  C   UNL d   1      -2.604   1.559   4.996  0.00  0.00     0.069 A 
ATOM     22  O   UNL d   1      -2.088  -0.927   5.491  0.00  0.00    -0.223 OA
ATOM     23  O   UNL d   1      -4.336  -0.268   4.465  0.00  0.00    -0.223 OA
ATOM     24  C   UNL d   1      -1.989   2.216   3.934  0.00  0.00    -0.022 A 
ATOM     25  C   UNL d   1      -3.023   2.195   6.153  0.00  0.00     0.060 A 
ATOM     26  C   UNL d   1      -1.725   3.579   4.048  0.00  0.00     0.012 A 
ATOM     27  C   UNL d   1      -2.145   4.265   5.193  0.00  0.00     0.037 A 
ATOM     28  C   UNL d   1      -2.796   3.574   6.234  0.00  0.00     0.104 A 
BRANCH  28  29
ATOM     29  N   UNL d   1      -3.282   4.323   7.400  0.00  0.00    -0.116 N 
ATOM     30  O   UNL d   1      -3.831   3.682   8.306  0.00  0.00    -0.532 OA
ATOM     31  O   UNL d   1      -3.128   5.552   7.402  0.00  0.00    -0.532 OA
ENDBRANCH  28  29
ENDBRANCH  17  18
ENDBRANCH   1  17
TORSDOF 6
