REMARK  2 active torsions:
REMARK  status: ('A' for Active; 'I' for Inactive)
REMARK    1  A    between atoms: C_2  and  C_1 
REMARK       I    between atoms: N_7  and  C_2 
REMARK    2  A    between atoms: C_8  and  C_4 
ROOT
ATOM      1  C   UNL d   1       1.351  -0.759  -0.009  0.00  0.00     0.040 C 
ATOM      2  C   UNL d   1       1.269   0.551   0.586  0.00  0.00     0.037 C 
ATOM      3  C   UNL d   1       0.041   1.168   0.427  0.00  0.00     0.016 C 
ATOM      4  S   UNL d   1      -1.005   0.166  -0.497  0.00  0.00    -0.100 SA
ATOM      5  C   UNL d   1       0.201  -1.016  -0.728  0.00  0.00     0.067 C 
ENDROOT
BRANCH   1   6
ATOM      6  C   UNL d   1       2.540  -1.614   0.064  0.00  0.00     0.254 C 
ATOM      7  N   UNL d   1       2.383  -3.010   0.088  0.00  0.00    -0.348 N 
ATOM      8  C   UNL d   1       3.611  -3.801   0.181  0.00  0.00     0.126 C 
ATOM      9  C   UNL d   1       1.189  -3.692   0.597  0.00  0.00     0.126 C 
ATOM     10  C   UNL d   1       3.459  -5.179  -0.461  0.00  0.00     0.020 C 
ATOM     11  C   UNL d   1       2.215  -5.908   0.036  0.00  0.00     0.003 C 
ATOM     12  C   UNL d   1       0.981  -5.024  -0.117  0.00  0.00     0.020 C 
ATOM     13  O   UNL d   1       3.653  -1.090   0.118  0.00  0.00    -0.267 OA
ENDBRANCH   1   6
BRANCH   3  14
ATOM     14  C   UNL d   1      -0.417   2.470   0.949  0.00  0.00    -0.019 A 
ATOM     15  C   UNL d   1      -1.421   3.217   0.309  0.00  0.00     0.014 A 
ATOM     16  C   UNL d   1      -1.849   4.445   0.822  0.00  0.00     0.024 A 
ATOM     17  C   UNL d   1      -1.269   4.951   1.980  0.00  0.00     0.034 A 
ATOM     18  C   UNL d   1      -0.266   4.237   2.628  0.00  0.00     0.024 A 
ATOM     19 CL   UNL d   1      -1.796   6.460   2.613  0.00  0.00    -0.084 Cl
ATOM     20  C   UNL d   1       0.157   3.006   2.117  0.00  0.00     0.014 A 
ENDBRANCH   3  14
TORSDOF 2
