REMARK  3 active torsions:
REMARK  status: ('A' for Active; 'I' for Inactive)
REMARK    1  A    between atoms: C_2  and  C_1 
REMARK       I    between atoms: N_6  and  C_2 
REMARK    2  A    between atoms: N_8  and  N_6 
REMARK    3  A    between atoms: C_11  and  N_8 
ROOT
ATOM      1  C   UNL d   1      -1.093   2.263   0.731  0.00  0.00     0.291 C 
ATOM      2  N   UNL d   1      -0.711   3.491   0.205  0.00  0.00    -0.281 N 
ATOM      3  O   UNL d   1      -0.293   1.330   0.835  0.00  0.00    -0.264 OA
ATOM      4  H   UNL d   1      -1.420   4.128  -0.145  0.00  0.00     0.184 HD
ENDROOT
BRANCH   2   5
ATOM      5  N   UNL d   1       0.565   3.561  -0.394  0.00  0.00    -0.203 NA
ATOM      6  H   UNL d   1       1.122   2.737  -0.128  0.00  0.00     0.153 HD
BRANCH   5   7
ATOM      7  C   UNL d   1       1.271   4.761  -0.123  0.00  0.00     0.027 A 
ATOM      8  C   UNL d   1       2.675   4.722  -0.059  0.00  0.00     0.028 A 
ATOM      9  C   UNL d   1       3.424   5.893   0.088  0.00  0.00     0.044 A 
ATOM     10  C   UNL d   1       2.772   7.117   0.144  0.00  0.00     0.116 A 
ATOM     11  C   UNL d   1       1.390   7.190   0.056  0.00  0.00     0.044 A 
ATOM     12  F   UNL d   1       3.489   8.243   0.264  0.00  0.00    -0.206 F 
ATOM     13  C   UNL d   1       0.642   6.017  -0.087  0.00  0.00     0.028 A 
ENDBRANCH   5   7
ENDBRANCH   2   5
BRANCH   1  14
ATOM     14  C   UNL d   1      -2.473   2.169   1.131  0.00  0.00     0.168 A 
ATOM     15  O   UNL d   1      -3.266   3.278   1.080  0.00  0.00    -0.233 OA
ATOM     16  N   UNL d   1      -4.534   2.965   1.544  0.00  0.00    -0.272 N 
ATOM     17  C   UNL d   1      -4.485   1.669   1.858  0.00  0.00     0.117 A 
ATOM     18  HN  UNL d   1      -5.335   3.591   1.627  1.00  0.00     0.194 HD
ATOM     19  C   UNL d   1      -3.220   1.113   1.606  0.00  0.00     0.064 A 
ENDBRANCH   1  14
TORSDOF 3
