REMARK  2 active torsions:
REMARK  status: ('A' for Active; 'I' for Inactive)
REMARK       I    between atoms: N_2  and  C_1 
REMARK    1  A    between atoms: C_5  and  C_1 
REMARK    2  A    between atoms: C_6  and  N_2 
ROOT
ATOM      1  N   UNL d   1       2.063  -1.012   2.717  0.00  0.00    -0.342 N 
ATOM      2  HN  UNL d   1       2.472  -0.121   2.434  1.00  0.00     0.167 HD
ATOM      3  C   UNL d   1       0.987  -1.494   2.071  0.00  0.00     0.108 A 
ATOM      4  C   UNL d   1       2.596  -1.703   3.732  0.00  0.00     0.043 A 
ATOM      5  C   UNL d   1       2.075  -2.939   4.154  0.00  0.00    -0.009 A 
ATOM      6  C   UNL d   1       0.941  -3.422   3.488  0.00  0.00     0.017 A 
ATOM      7  C   UNL d   1       0.378  -2.682   2.447  0.00  0.00     0.049 A 
ATOM      8  C   UNL d   1       3.705  -1.190   4.392  0.00  0.00     0.030 A 
ATOM      9  C   UNL d   1       2.690  -3.639   5.209  0.00  0.00     0.013 A 
ATOM     10  C   UNL d   1       4.311  -1.874   5.448  0.00  0.00     0.002 A 
ATOM     11  C   UNL d   1       3.805  -3.104   5.854  0.00  0.00     0.001 A 
ENDROOT
BRANCH   3  12
ATOM     12  N   UNL d   1       0.456  -0.789   0.982  0.00  0.00    -0.307 N 
ATOM     13  C   UNL d   1       1.103   0.253   0.348  0.00  0.00     0.281 C 
ATOM     14  O   UNL d   1       2.228   0.667   0.610  0.00  0.00    -0.265 OA
ATOM     15  H   UNL d   1      -0.423  -1.089   0.587  0.00  0.00     0.170 HD
BRANCH  13  16
ATOM     16  C   UNL d   1       0.343   0.843  -0.741  0.00  0.00     0.142 A 
ATOM     17  O   UNL d   1      -0.918   0.397  -1.044  0.00  0.00    -0.317 OA
ATOM     18  C   UNL d   1      -1.365   1.160  -2.078  0.00  0.00     0.143 A 
ATOM     19  C   UNL d   1      -0.415   2.078  -2.453  0.00  0.00     0.027 A 
ATOM     20  C   UNL d   1       0.690   1.869  -1.600  0.00  0.00     0.045 A 
ENDBRANCH  13  16
ENDBRANCH   3  12
TORSDOF 2
