REMARK  3 active torsions:
REMARK  status: ('A' for Active; 'I' for Inactive)
REMARK    1  A    between atoms: S_14  and  C_10 
REMARK    2  A    between atoms: C_17  and  S_14 
REMARK    3  A    between atoms: C_18  and  C_17 
ROOT
ATOM      1  C   UNL d   1       1.297  -0.656   0.699  0.00  0.00     0.137 A 
ATOM      2  C   UNL d   1       0.877   0.538   0.145  0.00  0.00     0.104 A 
ATOM      3  N   UNL d   1       2.552  -1.127   0.714  0.00  0.00    -0.320 N 
ATOM      4  HN  UNL d   1       2.833  -2.013   1.134  1.00  0.00     0.169 HD
ATOM      5  C   UNL d   1      -0.532   0.625   0.324  0.00  0.00     0.024 A 
ATOM      6  N   UNL d   1       0.207  -1.288   1.221  0.00  0.00    -0.340 N 
ATOM      7  N   UNL d   1       1.785   1.361  -0.438  0.00  0.00    -0.294 N 
ATOM      8  HN  UNL d   1       1.518   2.259  -0.842  1.00  0.00     0.187 HD
ATOM      9  C   UNL d   1      -0.927  -0.535   1.005  0.00  0.00     0.046 A 
ATOM     10  C   UNL d   1       3.396  -0.271   0.098  0.00  0.00     0.161 A 
ATOM     11  N   UNL d   1       3.055   0.925  -0.454  0.00  0.00    -0.279 N 
ATOM     12  HN  UNL d   1       3.777   1.500  -0.888  1.00  0.00     0.189 HD
ATOM     13  C   UNL d   1      -1.520   1.568  -0.030  0.00  0.00     0.035 A 
ATOM     14  C   UNL d   1      -2.256  -0.795   1.355  0.00  0.00     0.032 A 
ATOM     15  C   UNL d   1      -2.853   1.313   0.315  0.00  0.00     0.011 A 
ATOM     16  C   UNL d   1      -3.217   0.153   0.997  0.00  0.00     0.021 A 
ATOM     17 BR   UNL d   1      -4.190   2.567  -0.157  0.00  0.00    -0.051 Br
ATOM     18  H   UNL d   1       0.242  -2.185   1.682  0.00  0.00     0.167 HD
ENDROOT
BRANCH  10  19
ATOM     19  S   UNL d   1       5.060  -0.865  -0.072  0.00  0.00    -0.088 SA
BRANCH  19  20
ATOM     20  C   UNL d   1       5.994   0.696   0.015  0.00  0.00     0.121 C 
BRANCH  20  21
ATOM     21  C   UNL d   1       7.477   0.396   0.028  0.00  0.00    -0.049 A 
ATOM     22  C   UNL d   1       8.179   0.223  -1.173  0.00  0.00     0.008 A 
ATOM     23  C   UNL d   1       9.523  -0.161  -1.165  0.00  0.00     0.007 A 
ATOM     24  C   UNL d   1      10.193  -0.379   0.045  0.00  0.00    -0.062 A 
ATOM     25  C   UNL d   1       9.501  -0.188   1.246  0.00  0.00     0.007 A 
ATOM     26  C   UNL d   1      11.617  -0.850   0.037  0.00  0.00     0.048 C 
ATOM     27  C   UNL d   1       8.157   0.196   1.238  0.00  0.00     0.008 A 
ENDBRANCH  20  21
ENDBRANCH  19  20
ENDBRANCH  10  19
TORSDOF 3
