REMARK  0 active torsions:
REMARK  status: ('A' for Active; 'I' for Inactive)
ROOT
ATOM      1  C   UNL d   1      -1.471  -0.433  -0.019  0.00  0.00     0.120 A 
ATOM      2  C   UNL d   1      -1.283   1.034  -0.010  0.00  0.00     0.309 A 
ATOM      3  O   UNL d   1       0.029   1.500  -0.014  0.00  0.00    -0.274 OA
ATOM      4  C   UNL d   1      -0.426  -1.275  -0.027  0.00  0.00     0.043 A 
ATOM      5  C   UNL d   1      -2.800  -0.935  -0.016  0.00  0.00     0.105 C 
ATOM      6  C   UNL d   1       1.125   0.620  -0.009  0.00  0.00     0.089 A 
ATOM      7  N   UNL d   1      -3.861  -1.405  -0.010  0.00  0.00    -0.191 NA
ATOM      8  C   UNL d   1       0.932  -0.758  -0.016  0.00  0.00    -0.001 A 
ATOM      9  O   UNL d   1      -2.228   1.815  -0.001  0.00  0.00    -0.258 OA
ATOM     10  C   UNL d   1       2.398   1.183   0.008  0.00  0.00     0.038 A 
ATOM     11  C   UNL d   1       2.050  -1.595  -0.004  0.00  0.00     0.014 A 
ATOM     12  C   UNL d   1       3.509   0.343   0.023  0.00  0.00     0.003 A 
ATOM     13  C   UNL d   1       3.336  -1.043   0.017  0.00  0.00     0.001 A 
ENDROOT
TORSDOF 0
