REMARK  6 active torsions:
REMARK  status: ('A' for Active; 'I' for Inactive)
REMARK    1  A    between atoms: N_6  and  C_1 
REMARK    2  A    between atoms: N_9  and  C_1 
REMARK    3  A    between atoms: N_2  and  N_6 
REMARK    4  A    between atoms: C_4  and  C_8 
REMARK    5  A    between atoms: O_10  and  C_7 
REMARK    6  A    between atoms: C_14  and  O_10 
ROOT
ATOM      1  N   UNL d   1      -1.067   3.464  -1.348  0.00  0.00    -0.309 N 
ATOM      2  HN  UNL d   1      -1.511   4.379  -1.416  1.00  0.00     0.186 HD
ATOM      3  C   UNL d   1      -1.686   2.431  -0.875  0.00  0.00     0.121 C 
ENDROOT
BRANCH   3   4
ATOM      4  C   UNL d   1      -3.118   2.521  -0.546  0.00  0.00     0.014 A 
ATOM      5  C   UNL d   1      -3.699   1.815   0.512  0.00  0.00     0.080 A 
ATOM      6  C   UNL d   1      -5.092   1.843   0.652  0.00  0.00     0.037 A 
ATOM      7  C   UNL d   1      -5.890   2.588  -0.218  0.00  0.00     0.003 A 
ATOM      8  C   UNL d   1      -5.302   3.315  -1.250  0.00  0.00     0.001 A 
ATOM      9  C   UNL d   1      -3.919   3.284  -1.412  0.00  0.00     0.015 A 
BRANCH   5  10
ATOM     10  O   UNL d   1      -3.041   1.025   1.415  0.00  0.00    -0.351 OA
BRANCH  10  11
ATOM     11  C   UNL d   1      -1.919   1.638   2.058  0.00  0.00     0.171 C 
ATOM     12  C   UNL d   1      -1.939   1.270   3.531  0.00  0.00     0.034 C 
ENDBRANCH  10  11
ENDBRANCH   5  10
ENDBRANCH   3   4
BRANCH   1  13
ATOM     13  N   UNL d   1       0.220   3.249  -1.749  0.00  0.00    -0.277 N 
ATOM     14  H   UNL d   1       0.552   2.304  -1.916  0.00  0.00     0.189 HD
BRANCH  13  15
ATOM     15  C   UNL d   1       0.973   4.298  -2.241  0.00  0.00     0.186 C 
ATOM     16  S   UNL d   1       2.391   3.990  -3.055  0.00  0.00    -0.040 SA
BRANCH  15  17
ATOM     17  N   UNL d   1       0.424   5.522  -1.965  0.00  0.00    -0.370 N 
ATOM     18  C   UNL d   1       0.882   6.833  -2.359  0.00  0.00     0.148 C 
ATOM     19  H   UNL d   1      -0.483   5.432  -1.514  0.00  0.00     0.161 HD
ENDBRANCH  15  17
ENDBRANCH  13  15
ENDBRANCH   1  13
TORSDOF 6
