REMARK  6 active torsions:
REMARK  status: ('A' for Active; 'I' for Inactive)
REMARK    1  A    between atoms: C_10  and  C_1 
REMARK    2  A    between atoms: C_21  and  C_6 
REMARK    3  A    between atoms: C_9  and  S_16 
REMARK    4  A    between atoms: C_17  and  C_10 
REMARK    5  A    between atoms: C_11  and  C_12 
REMARK    6  A    between atoms: S_16  and  C_17 
ROOT
ATOM      1  C   UNL d   1      -0.634   3.522  -0.125  0.00  0.00     0.168 C 
ENDROOT
BRANCH   1   2
ATOM      2  S   UNL d   1       1.175   3.387  -0.055  0.00  0.00    -0.086 SA
BRANCH   2   3
ATOM      3  C   UNL d   1       1.563   2.454  -1.518  0.00  0.00     0.144 A 
ATOM      4  N   UNL d   1       0.603   2.075  -2.380  0.00  0.00    -0.336 N 
ATOM      5  C   UNL d   1       1.018   1.335  -3.441  0.00  0.00     0.052 A 
ATOM      6  HN  UNL d   1      -0.376   2.328  -2.245  1.00  0.00     0.168 HD
ATOM      7  C   UNL d   1       2.347   1.029  -3.674  0.00  0.00     0.048 A 
ATOM      8  C   UNL d   1       3.240   1.482  -2.742  0.00  0.00     0.092 A 
ATOM      9  N   UNL d   1       2.874   2.189  -1.666  0.00  0.00    -0.347 N 
ATOM     10  HN  UNL d   1       3.562   2.514  -0.986  1.00  0.00     0.167 HD
BRANCH   5  11
ATOM     11  C   UNL d   1      -0.054   0.845  -4.325  0.00  0.00     0.031 A 
ATOM     12  S   UNL d   1       0.145  -0.623  -5.212  0.00  0.00    -0.100 SA
ATOM     13  C   UNL d   1      -1.416  -0.528  -5.886  0.00  0.00     0.050 A 
ATOM     14  C   UNL d   1      -2.087   0.595  -5.464  0.00  0.00     0.008 A 
ATOM     15  C   UNL d   1      -1.305   1.385  -4.568  0.00  0.00     0.021 A 
ENDBRANCH   5  11
ENDBRANCH   2   3
ENDBRANCH   1   2
BRANCH   1  16
ATOM     16  C   UNL d   1      -1.346   2.181  -0.060  0.00  0.00     0.194 C 
ATOM     17  O   UNL d   1      -0.846   1.205   0.511  0.00  0.00    -0.289 OA
BRANCH  16  18
ATOM     18  C   UNL d   1      -2.680   2.112  -0.608  0.00  0.00     0.147 A 
ATOM     19  C   UNL d   1      -3.570   1.066  -0.682  0.00  0.00     0.075 A 
ATOM     20  C   UNL d   1      -4.723   1.591  -1.321  0.00  0.00     0.068 A 
ATOM     21  N   UNL d   1      -4.539   2.894  -1.592  0.00  0.00    -0.260 N 
ATOM     22  O   UNL d   1      -3.267   3.209  -1.152  0.00  0.00    -0.234 OA
ATOM     23  HN  UNL d   1      -5.206   3.526  -2.035  1.00  0.00     0.195 HD
BRANCH  20  24
ATOM     24  C   UNL d   1      -5.962   0.890  -1.663  0.00  0.00    -0.007 A 
ATOM     25  C   UNL d   1      -7.181   1.582  -1.723  0.00  0.00     0.014 A 
ATOM     26  C   UNL d   1      -8.366   0.916  -2.047  0.00  0.00     0.001 A 
ATOM     27  C   UNL d   1      -8.348  -0.449  -2.322  0.00  0.00     0.000 A 
ATOM     28  C   UNL d   1      -7.146  -1.151  -2.270  0.00  0.00     0.001 A 
ATOM     29  C   UNL d   1      -5.959  -0.487  -1.940  0.00  0.00     0.014 A 
ENDBRANCH  20  24
ENDBRANCH  16  18
ENDBRANCH   1  16
TORSDOF 6
