REMARK  3 active torsions:
REMARK  status: ('A' for Active; 'I' for Inactive)
REMARK       I    between atoms: N_2  and  C_1 
REMARK    1  A    between atoms: C_5  and  C_1 
REMARK    2  A    between atoms: C_4  and  N_3 
REMARK    3  A    between atoms: C_20  and  C_17 
ROOT
ATOM      1  C   UNL d   1       0.847  -0.136  -0.152  0.00  0.00     0.253 C 
ATOM      2  N   UNL d   1       0.363   0.975  -0.841  0.00  0.00    -0.345 N 
ATOM      3  N   UNL d   1      -0.550   3.156  -2.422  0.00  0.00    -0.364 N 
ATOM      4  C   UNL d   1       0.726   1.085  -2.263  0.00  0.00     0.146 C 
ATOM      5  C   UNL d   1      -0.757   1.828  -0.393  0.00  0.00     0.146 C 
ATOM      6  C   UNL d   1       0.733   2.535  -2.779  0.00  0.00     0.144 C 
ATOM      7  C   UNL d   1      -0.728   3.256  -0.971  0.00  0.00     0.144 C 
ATOM      8  O   UNL d   1       1.727  -0.872  -0.598  0.00  0.00    -0.267 OA
ENDROOT
BRANCH   1   9
ATOM      9  C   UNL d   1       0.336  -0.445   1.209  0.00  0.00     0.032 A 
ATOM     10  C   UNL d   1      -1.029  -0.614   1.462  0.00  0.00     0.017 A 
ATOM     11  C   UNL d   1      -1.468  -0.859   2.764  0.00  0.00     0.008 A 
ATOM     12  C   UNL d   1      -0.543  -0.992   3.810  0.00  0.00    -0.059 A 
ATOM     13  C   UNL d   1       0.827  -0.880   3.535  0.00  0.00     0.008 A 
ATOM     14  C   UNL d   1       1.264  -0.613   2.239  0.00  0.00     0.017 A 
BRANCH  12  15
ATOM     15  C   UNL d   1      -1.019  -1.231   5.221  0.00  0.00     0.034 C 
ATOM     16  C   UNL d   1      -1.104   0.065   6.016  0.00  0.00     0.010 C 
ENDBRANCH  12  15
ENDBRANCH   1   9
BRANCH   3  17
ATOM     17  C   UNL d   1      -0.970   4.238  -3.184  0.00  0.00     0.102 A 
ATOM     18  N   UNL d   1      -1.253   5.415  -2.587  0.00  0.00    -0.352 N 
ATOM     19  C   UNL d   1      -1.768   6.408  -3.350  0.00  0.00     0.089 A 
ATOM     20  HN  UNL d   1      -1.084   5.553  -1.591  1.00  0.00     0.166 HD
ATOM     21  C   UNL d   1      -2.042   6.287  -4.700  0.00  0.00     0.017 A 
ATOM     22  C   UNL d   1      -1.756   5.077  -5.310  0.00  0.00     0.005 A 
ATOM     23  C   UNL d   1      -1.210   4.050  -4.547  0.00  0.00     0.048 A 
ENDBRANCH   3  17
TORSDOF 3
