REMARK  12 active torsions:
REMARK  status: ('A' for Active; 'I' for Inactive)
REMARK    1  A    between atoms: C_13  and  N_1 
REMARK    2  A    between atoms: C_8  and  C_2 
REMARK    3  A    between atoms: S_16  and  C_5 
REMARK    4  A    between atoms: C_11  and  C_26 
REMARK    5  A    between atoms: C_12  and  C_27 
REMARK    6  A    between atoms: C_17  and  C_13 
REMARK    7  A    between atoms: O_25  and  C_14 
REMARK    8  A    between atoms: O_24  and  C_15 
REMARK    9  A    between atoms: C_34  and  S_16 
REMARK   10  A    between atoms: C_26  and  O_24 
REMARK   11  A    between atoms: C_27  and  O_25 
REMARK   12  A    between atoms: C_36  and  C_34 
ROOT
ATOM      1  N   UNL d   1      -0.257  -1.225   0.012  0.00  0.00    -0.305 N 
ATOM      2  C   UNL d   1       0.974  -0.585  -0.081  0.00  0.00     0.135 A 
ATOM      3  N   UNL d   1       0.747   0.721  -0.081  0.00  0.00    -0.283 N 
ATOM      4  HN  UNL d   1       1.465   1.445  -0.094  1.00  0.00     0.188 HD
ATOM      5  C   UNL d   1      -1.198  -0.222  -0.019  0.00  0.00     0.163 A 
ATOM      6  N   UNL d   1      -0.604   0.944  -0.060  0.00  0.00    -0.278 N 
ATOM      7  HN  UNL d   1      -1.064   1.854  -0.074  1.00  0.00     0.189 HD
ENDROOT
BRANCH   2   8
ATOM      8  C   UNL d   1       2.328  -1.165  -0.112  0.00  0.00     0.018 A 
ATOM      9  C   UNL d   1       2.633  -2.363  -0.756  0.00  0.00     0.071 A 
ATOM     10  C   UNL d   1       3.927  -2.862  -0.682  0.00  0.00     0.145 A 
ATOM     11  N   UNL d   1       4.917  -2.206  -0.053  0.00  0.00    -0.318 N 
ATOM     12  C   UNL d   1       4.644  -1.017   0.510  0.00  0.00     0.145 A 
ATOM     13  HN  UNL d   1       5.855  -2.603  -0.005  1.00  0.00     0.170 HD
ATOM     14  C   UNL d   1       3.370  -0.471   0.517  0.00  0.00     0.071 A 
BRANCH  10  15
ATOM     15  O   UNL d   1       4.326  -4.077  -1.157  0.00  0.00    -0.327 OA
BRANCH  15  16
ATOM     16  C   UNL d   1       3.595  -4.629  -2.250  0.00  0.00     0.294 C 
BRANCH  16  17
ATOM     17  C   UNL d   1       4.137  -6.001  -2.643  0.00  0.00     0.408 C 
ATOM     18  F   UNL d   1       5.032  -6.495  -1.764  0.00  0.00    -0.169 F 
ATOM     19  F   UNL d   1       3.121  -6.897  -2.724  0.00  0.00    -0.169 F 
ATOM     20  F   UNL d   1       4.728  -5.962  -3.860  0.00  0.00    -0.169 F 
ENDBRANCH  16  17
ENDBRANCH  15  16
ENDBRANCH  10  15
BRANCH  12  21
ATOM     21  O   UNL d   1       5.725  -0.459   1.129  0.00  0.00    -0.327 OA
BRANCH  21  22
ATOM     22  C   UNL d   1       5.815   0.967   1.054  0.00  0.00     0.294 C 
BRANCH  22  23
ATOM     23  C   UNL d   1       7.263   1.442   1.169  0.00  0.00     0.408 C 
ATOM     24  F   UNL d   1       8.161   0.435   1.142  0.00  0.00    -0.169 F 
ATOM     25  F   UNL d   1       7.570   2.283   0.152  0.00  0.00    -0.169 F 
ATOM     26  F   UNL d   1       7.455   2.127   2.321  0.00  0.00    -0.169 F 
ENDBRANCH  22  23
ENDBRANCH  21  22
ENDBRANCH  12  21
ENDBRANCH   2   8
BRANCH   1  27
ATOM     27  C   UNL d   1      -0.538  -2.649   0.057  0.00  0.00     0.198 C 
BRANCH  27  28
ATOM     28  C   UNL d   1       0.163  -3.370   1.147  0.00  0.00     0.070 A 
ATOM     29  O   UNL d   1       0.542  -4.647   0.850  0.00  0.00    -0.325 OA
ATOM     30  C   UNL d   1       1.137  -5.158   1.959  0.00  0.00     0.142 A 
ATOM     31  C   UNL d   1       1.156  -4.223   2.965  0.00  0.00     0.027 A 
ATOM     32  C   UNL d   1       0.520  -3.067   2.449  0.00  0.00     0.036 A 
ENDBRANCH  27  28
ENDBRANCH   1  27
BRANCH   5  33
ATOM     33  S   UNL d   1      -2.911  -0.479   0.003  0.00  0.00    -0.088 SA
BRANCH  33  34
ATOM     34  C   UNL d   1      -3.515   1.108  -0.647  0.00  0.00     0.121 C 
BRANCH  34  35
ATOM     35  C   UNL d   1      -5.028   1.176  -0.634  0.00  0.00    -0.048 A 
ATOM     36  C   UNL d   1      -5.704   1.722   0.469  0.00  0.00     0.009 A 
ATOM     37  C   UNL d   1      -7.099   1.795   0.484  0.00  0.00     0.024 A 
ATOM     38  C   UNL d   1      -7.831   1.315  -0.600  0.00  0.00     0.034 A 
ATOM     39  C   UNL d   1      -7.178   0.760  -1.698  0.00  0.00     0.024 A 
ATOM     40 CL   UNL d   1      -9.549   1.408  -0.582  0.00  0.00    -0.084 Cl
ATOM     41  C   UNL d   1      -5.780   0.686  -1.714  0.00  0.00     0.009 A 
ENDBRANCH  34  35
ENDBRANCH  33  34
ENDBRANCH   5  33
TORSDOF 12
