REMARK  9 active torsions:
REMARK  status: ('A' for Active; 'I' for Inactive)
REMARK    1  A    between atoms: N_3  and  S_1 
REMARK    2  A    between atoms: C_6  and  S_1 
REMARK    3  A    between atoms: C_2  and  N_5 
REMARK    4  A    between atoms: N_4  and  C_2 
REMARK    5  A    between atoms: C_12  and  N_4 
REMARK    6  A    between atoms: C_20  and  N_4 
REMARK    7  A    between atoms: N_5  and  C_15 
REMARK    8  A    between atoms: C_19  and  C_12 
REMARK    9  A    between atoms: C_16  and  C_20 
ROOT
ATOM      1  N   UNL d   1      -6.129  -3.264  -7.174  0.00  0.00    -0.197 NA
ATOM      2  C   UNL d   1      -5.113  -2.952  -7.643  0.00  0.00     0.060 C 
ATOM      3  C   UNL d   1      -3.821  -2.554  -8.217  0.00  0.00     0.143 C 
ENDROOT
BRANCH   3   4
ATOM      4  C   UNL d   1      -2.889  -2.051  -7.110  0.00  0.00     0.139 C 
BRANCH   4   5
ATOM      5  N   UNL d   1      -1.492  -1.694  -7.468  0.00  0.00    -0.353 N 
BRANCH   5   6
ATOM      6  C   UNL d   1      -0.519  -1.455  -6.450  0.00  0.00     0.174 C 
ATOM      7  S   UNL d   1       1.087  -1.025  -6.749  0.00  0.00    -0.041 SA
BRANCH   6   8
ATOM      8  N   UNL d   1      -0.995  -1.709  -5.164  0.00  0.00    -0.333 N 
ATOM      9  H   UNL d   1      -1.444  -2.609  -5.067  0.00  0.00     0.168 HD
BRANCH   8  10
ATOM     10  C   UNL d   1      -0.535  -1.162  -3.943  0.00  0.00     0.034 A 
ATOM     11  C   UNL d   1      -0.065   0.150  -3.831  0.00  0.00     0.031 A 
ATOM     12  C   UNL d   1       0.400   0.635  -2.603  0.00  0.00     0.027 A 
ATOM     13  C   UNL d   1       0.425  -0.209  -1.491  0.00  0.00     0.079 A 
ATOM     14  C   UNL d   1      -0.119  -1.493  -1.574  0.00  0.00     0.027 A 
ATOM     15  C   UNL d   1      -0.618  -1.958  -2.795  0.00  0.00     0.031 A 
BRANCH  13  16
ATOM     16  S   UNL d   1       1.071   0.381   0.068  0.00  0.00     0.260 S 
ATOM     17  O   UNL d   1       0.555   1.720   0.256  0.00  0.00    -0.200 OA
ATOM     18  O   UNL d   1       0.829  -0.656   1.050  0.00  0.00    -0.200 OA
BRANCH  16  19
ATOM     19  N   UNL d   1       2.765   0.477  -0.174  0.00  0.00    -0.307 N 
ATOM     20  C   UNL d   1       3.242   1.596  -1.024  0.00  0.00     0.135 C 
ATOM     21  C   UNL d   1       4.754   1.764  -0.910  0.00  0.00     0.021 C 
ATOM     22  C   UNL d   1       5.470   0.460  -1.233  0.00  0.00     0.003 C 
ATOM     23  C   UNL d   1       4.973  -0.638  -0.301  0.00  0.00     0.021 C 
ATOM     24  C   UNL d   1       3.459  -0.813  -0.415  0.00  0.00     0.135 C 
ENDBRANCH  16  19
ENDBRANCH  13  16
ENDBRANCH   8  10
ENDBRANCH   6   8
ENDBRANCH   5   6
BRANCH   5  25
ATOM     25  C   UNL d   1      -1.205  -1.290  -8.863  0.00  0.00     0.163 C 
BRANCH  25  26
ATOM     26  C   UNL d   1      -1.364   0.189  -9.162  0.00  0.00    -0.040 A 
ATOM     27  C   UNL d   1      -0.301   0.893  -9.754  0.00  0.00     0.009 A 
ATOM     28  C   UNL d   1      -0.450   2.225 -10.149  0.00  0.00     0.001 A 
ATOM     29  C   UNL d   1      -1.666   2.874  -9.963  0.00  0.00     0.000 A 
ATOM     30  C   UNL d   1      -2.723   2.200  -9.358  0.00  0.00     0.001 A 
ATOM     31  C   UNL d   1      -2.572   0.870  -8.956  0.00  0.00     0.009 A 
ENDBRANCH  25  26
ENDBRANCH   5  25
ENDBRANCH   4   5
ENDBRANCH   3   4
TORSDOF 9
