REMARK  8 active torsions:
REMARK  status: ('A' for Active; 'I' for Inactive)
REMARK    1  A    between atoms: N_2  and  S_1 
REMARK    2  A    between atoms: C_3  and  S_1 
REMARK    3  A    between atoms: C_4  and  N_2 
REMARK    4  A    between atoms: C_10  and  N_2 
REMARK    5  A    between atoms: C_5  and  C_4 
REMARK    6  A    between atoms: C_8  and  C_9 
REMARK       I    between atoms: N_16  and  C_8 
REMARK    7  A    between atoms: C_9  and  C_10 
REMARK    8  A    between atoms: N_20  and  N_16 
ROOT
ATOM      1  N   UNL d   1       0.428   0.376  -1.534  0.00  0.00    -0.200 NA
ENDROOT
BRANCH   1   2
ATOM      2  S   UNL d   1       1.116   0.092   0.029  0.00  0.00     0.244 S 
ATOM      3  O   UNL d   1       0.730   1.211   0.860  0.00  0.00    -0.206 OA
ATOM      4  O   UNL d   1       2.513  -0.253  -0.152  0.00  0.00    -0.206 OA
BRANCH   2   5
ATOM      5  C   UNL d   1       0.333  -1.360   0.683  0.00  0.00     0.074 A 
ATOM      6  C   UNL d   1       0.463  -2.583   0.019  0.00  0.00     0.026 A 
ATOM      7  C   UNL d   1      -0.109  -3.729   0.580  0.00  0.00     0.025 A 
ATOM      8  C   UNL d   1      -0.788  -3.646   1.798  0.00  0.00     0.034 A 
ATOM      9  C   UNL d   1      -0.902  -2.427   2.466  0.00  0.00     0.025 A 
ATOM     10 CL   UNL d   1      -1.484  -5.060   2.488  0.00  0.00    -0.084 Cl
ATOM     11  C   UNL d   1      -0.339  -1.278   1.909  0.00  0.00     0.026 A 
ENDBRANCH   2   5
ENDBRANCH   1   2
BRANCH   1  12
ATOM     12  C   UNL d   1      -1.077   0.353  -1.507  0.00  0.00     0.172 C 
BRANCH  12  13
ATOM     13  C   UNL d   1      -1.666   0.479  -2.875  0.00  0.00     0.066 A 
ATOM     14  O   UNL d   1      -2.509   1.537  -3.064  0.00  0.00    -0.326 OA
ATOM     15  C   UNL d   1      -2.943   1.483  -4.348  0.00  0.00     0.142 A 
ATOM     16  C   UNL d   1      -2.394   0.400  -4.994  0.00  0.00     0.027 A 
ATOM     17  C   UNL d   1      -1.566  -0.251  -4.043  0.00  0.00     0.036 A 
ENDBRANCH  12  13
ENDBRANCH   1  12
BRANCH   1  18
ATOM     18  C   UNL d   1       0.911   1.700  -2.124  0.00  0.00     0.117 C 
BRANCH  18  19
ATOM     19  C   UNL d   1       2.420   1.780  -2.317  0.00  0.00     0.119 C 
BRANCH  19  20
ATOM     20  C   UNL d   1       2.812   3.092  -2.960  0.00  0.00     0.232 C 
ATOM     21  O   UNL d   1       2.013   3.957  -3.308  0.00  0.00    -0.272 OA
ATOM     22  N   UNL d   1       4.188   3.220  -3.122  0.00  0.00    -0.294 N 
ATOM     23  H   UNL d   1       4.816   2.584  -2.631  0.00  0.00     0.183 HD
BRANCH  22  24
ATOM     24  N   UNL d   1       4.710   4.440  -3.606  0.00  0.00    -0.247 NA
ATOM     25  H   UNL d   1       3.932   5.115  -3.617  0.00  0.00     0.143 HD
ATOM     26  H   UNL d   1       4.936   4.312  -4.596  0.00  0.00     0.143 HD
ENDBRANCH  22  24
ENDBRANCH  19  20
ENDBRANCH  18  19
ENDBRANCH   1  18
TORSDOF 8
