REMARK  2 active torsions:
REMARK  status: ('A' for Active; 'I' for Inactive)
REMARK    1  A    between atoms: C_5  and  C_1 
REMARK    2  A    between atoms: O_8  and  C_5 
ROOT
ATOM      1  C   UNL d   1      -1.562  -1.262  -0.020  0.00  0.00     0.065 A 
ATOM      2  C   UNL d   1      -2.358  -0.129  -0.041  0.00  0.00     0.107 A 
ATOM      3  C   UNL d   1      -0.198  -0.801   0.001  0.00  0.00     0.009 A 
ATOM      4  N   UNL d   1      -1.556   0.975  -0.007  0.00  0.00    -0.364 N 
ATOM      5  C   UNL d   1      -0.234   0.598   0.009  0.00  0.00     0.043 A 
ATOM      6  C   UNL d   1       1.072  -1.424  -0.022  0.00  0.00     0.015 A 
ATOM      7  C   UNL d   1       0.917   1.394   0.012  0.00  0.00     0.030 A 
ATOM      8  C   UNL d   1       2.234  -0.640  -0.013  0.00  0.00     0.001 A 
ATOM      9  C   UNL d   1       2.155   0.749   0.003  0.00  0.00     0.002 A 
ATOM     10  H   UNL d   1      -1.879   1.933  -0.017  0.00  0.00     0.165 HD
ENDROOT
BRANCH   1  11
ATOM     11  C   UNL d   1      -2.108  -2.613  -0.051  0.00  0.00     0.178 C 
ATOM     12  O   UNL d   1      -3.193  -2.893  -0.542  0.00  0.00    -0.646 OA
BRANCH  11  13
ATOM     13  O   UNL d   1      -1.341  -3.554   0.558  0.00  0.00    -0.773 OA
ATOM     14  H   UNL d   1      -0.609  -3.144   1.053  0.00  0.00     0.167 HD
ENDBRANCH  11  13
ENDBRANCH   1  11
TORSDOF 2
