REMARK  6 active torsions:
REMARK  status: ('A' for Active; 'I' for Inactive)
REMARK    1  A    between atoms: N_2  and  C_1 
REMARK    2  A    between atoms: C_8  and  N_2 
REMARK    3  A    between atoms: N_3  and  N_7 
REMARK    4  A    between atoms: C_5  and  C_10 
REMARK    5  A    between atoms: C_11  and  C_8 
REMARK    6  A    between atoms: O_12  and  C_9 
ROOT
ATOM      1  C   UNL d   1       1.178   0.206   0.168  0.00  0.00     0.187 C 
ATOM      2  S   UNL d   1       0.644  -0.043   1.730  0.00  0.00    -0.040 SA
ATOM      3  N   UNL d   1       2.310  -0.425  -0.257  0.00  0.00    -0.277 N 
ATOM      4  H   UNL d   1       2.724  -1.032   0.446  0.00  0.00     0.189 HD
ENDROOT
BRANCH   3   5
ATOM      5  N   UNL d   1       2.447  -0.787  -1.569  0.00  0.00    -0.309 N 
ATOM      6  C   UNL d   1       2.996  -1.946  -1.760  0.00  0.00     0.121 C 
ATOM      7  HN  UNL d   1       2.142  -0.190  -2.338  1.00  0.00     0.186 HD
BRANCH   6   8
ATOM      8  C   UNL d   1       3.091  -2.518  -3.116  0.00  0.00     0.014 A 
ATOM      9  C   UNL d   1       3.029  -1.716  -4.261  0.00  0.00     0.077 A 
ATOM     10  C   UNL d   1       3.029  -2.300  -5.523  0.00  0.00     0.037 A 
ATOM     11  C   UNL d   1       3.077  -3.689  -5.645  0.00  0.00     0.003 A 
ATOM     12  C   UNL d   1       3.154  -4.492  -4.505  0.00  0.00     0.001 A 
ATOM     13  C   UNL d   1       3.171  -3.906  -3.236  0.00  0.00     0.015 A 
BRANCH   9  14
ATOM     14  O   UNL d   1       2.968  -0.352  -4.210  0.00  0.00    -0.360 OA
ATOM     15  H   UNL d   1       2.706  -0.113  -3.295  0.00  0.00     0.217 HD
ENDBRANCH   9  14
ENDBRANCH   6   8
ENDBRANCH   3   5
BRANCH   1  16
ATOM     16  N   UNL d   1       0.444   0.979  -0.667  0.00  0.00    -0.358 N 
ATOM     17  H   UNL d   1      -0.435   1.283  -0.271  0.00  0.00     0.162 HD
BRANCH  16  18
ATOM     18  C   UNL d   1       0.929   1.792  -1.786  0.00  0.00     0.113 C 
ATOM     19  C   UNL d   1       0.760   3.264  -1.379  0.00  0.00     0.037 C 
BRANCH  18  20
ATOM     20  C   UNL d   1       0.209   1.493  -3.096  0.00  0.00    -0.036 A 
ATOM     21  C   UNL d   1      -0.690   0.423  -3.235  0.00  0.00     0.009 A 
ATOM     22  C   UNL d   1      -1.340   0.178  -4.448  0.00  0.00     0.001 A 
ATOM     23  C   UNL d   1      -1.095   0.992  -5.551  0.00  0.00     0.000 A 
ATOM     24  C   UNL d   1      -0.182   2.036  -5.449  0.00  0.00     0.001 A 
ATOM     25  C   UNL d   1       0.469   2.278  -4.236  0.00  0.00     0.009 A 
ENDBRANCH  18  20
ENDBRANCH  16  18
ENDBRANCH   1  16
TORSDOF 6
