REMARK  3 active torsions:
REMARK  status: ('A' for Active; 'I' for Inactive)
REMARK    1  A    between atoms: C_2  and  C_1 
REMARK       I    between atoms: N_3  and  C_2 
REMARK    2  A    between atoms: C_5  and  N_3 
REMARK    3  A    between atoms: N_15  and  C_4 
ROOT
ATOM      1  C   UNL d   1       3.077   3.371   0.419  0.00  0.00     0.253 C 
ATOM      2  N   UNL d   1       3.675   2.134   0.167  0.00  0.00    -0.352 N 
ATOM      3  O   UNL d   1       3.659   4.434   0.256  0.00  0.00    -0.268 OA
ATOM      4  H   UNL d   1       3.128   1.291   0.281  0.00  0.00     0.163 HD
ENDROOT
BRANCH   1   5
ATOM      5  C   UNL d   1       1.653   3.376   0.949  0.00  0.00     0.054 A 
ATOM      6  C   UNL d   1       0.761   4.457   0.712  0.00  0.00     0.023 A 
ATOM      7  C   UNL d   1      -0.486   4.505   1.391  0.00  0.00     0.026 A 
ATOM      8  C   UNL d   1      -0.882   3.457   2.218  0.00  0.00     0.026 A 
ATOM      9  C   UNL d   1      -0.046   2.355   2.366  0.00  0.00     0.035 A 
ATOM     10  C   UNL d   1       1.222   2.321   1.770  0.00  0.00     0.042 A 
ATOM     11 CL   UNL d   1      -0.578   1.011   3.303  0.00  0.00    -0.084 Cl
BRANCH   6  12
ATOM     12  N   UNL d   1       0.978   5.523  -0.207  0.00  0.00    -0.296 NA
ATOM     13  C   UNL d   1       1.055   5.042  -1.587  0.00  0.00     0.113 C 
ATOM     14  H   UNL d   1       1.871   5.955   0.031  0.00  0.00     0.127 HD
ENDBRANCH   6  12
ENDBRANCH   1   5
BRANCH   2  15
ATOM     15  C   UNL d   1       5.080   1.962  -0.258  0.00  0.00     0.085 C 
ATOM     16  C   UNL d   1       5.409   2.581  -1.631  0.00  0.00     0.034 C 
ATOM     17  C   UNL d   1       4.865   1.796  -2.847  0.00  0.00    -0.045 C 
ATOM     18  C   UNL d   1       3.332   1.873  -2.921  0.00  0.00     0.015 C 
ATOM     19  C   UNL d   1       5.426   2.431  -4.135  0.00  0.00     0.015 C 
ATOM     20  C   UNL d   1       5.318   0.325  -2.774  0.00  0.00     0.013 C 
ATOM     21  C   UNL d   1       4.976  -0.342  -1.433  0.00  0.00    -0.016 C 
ATOM     22  C   UNL d   1       5.539   0.480  -0.255  0.00  0.00     0.029 C 
ATOM     23  C   UNL d   1       5.483  -1.788  -1.436  0.00  0.00     0.010 C 
ENDBRANCH   2  15
TORSDOF 3
