REMARK  5 active torsions:
REMARK  status: ('A' for Active; 'I' for Inactive)
REMARK    1  A    between atoms: N_3  and  N_1 
REMARK    2  A    between atoms: C_7  and  C_5 
REMARK    3  A    between atoms: C_8  and  C_6 
REMARK    4  A    between atoms: O_19  and  C_13 
REMARK    5  A    between atoms: O_20  and  C_14 
ROOT
ATOM      1  N   UNL d   1       0.973   1.834   1.552  0.00  0.00    -0.304 N 
ATOM      2  HN  UNL d   1       0.463   2.548   2.073  1.00  0.00     0.186 HD
ATOM      3  C   UNL d   1       2.273   1.736   1.567  0.00  0.00     0.032 C 
ATOM      4  C   UNL d   1       3.050   0.681   0.794  0.00  0.00     0.070 C 
ENDROOT
BRANCH   1   5
ATOM      5  N   UNL d   1       0.349   0.884   0.767  0.00  0.00    -0.304 N 
ATOM      6  C   UNL d   1      -0.952   0.902   0.769  0.00  0.00     0.032 C 
ATOM      7  C   UNL d   1      -1.788   1.889   1.558  0.00  0.00     0.070 C 
ATOM      8  HN  UNL d   1       0.878   0.207   0.217  1.00  0.00     0.186 HD
BRANCH   6   9
ATOM      9  C   UNL d   1      -1.668  -0.125  -0.064  0.00  0.00    -0.012 A 
ATOM     10  C   UNL d   1      -0.911  -1.082  -0.756  0.00  0.00     0.016 A 
ATOM     11  C   UNL d   1      -1.530  -2.061  -1.541  0.00  0.00     0.037 A 
ATOM     12  C   UNL d   1      -2.917  -2.093  -1.651  0.00  0.00     0.068 A 
ATOM     13  C   UNL d   1      -3.677  -1.143  -0.962  0.00  0.00     0.037 A 
ATOM     14  C   UNL d   1      -3.061  -0.164  -0.173  0.00  0.00     0.016 A 
BRANCH  12  15
ATOM     15  O   UNL d   1      -3.643  -2.985  -2.390  0.00  0.00    -0.356 OA
ATOM     16  C   UNL d   1      -2.905  -3.968  -3.108  0.00  0.00     0.210 C 
ENDBRANCH  12  15
ENDBRANCH   6   9
ENDBRANCH   1   5
BRANCH   3  17
ATOM     17  C   UNL d   1       3.064   2.712   2.390  0.00  0.00    -0.012 A 
ATOM     18  C   UNL d   1       2.397   3.689   3.142  0.00  0.00     0.016 A 
ATOM     19  C   UNL d   1       3.114   4.607   3.922  0.00  0.00     0.037 A 
ATOM     20  C   UNL d   1       4.507   4.557   3.954  0.00  0.00     0.068 A 
ATOM     21  C   UNL d   1       5.175   3.576   3.222  0.00  0.00     0.037 A 
ATOM     22  C   UNL d   1       4.464   2.666   2.436  0.00  0.00     0.016 A 
BRANCH  20  23
ATOM     23  O   UNL d   1       5.315   5.375   4.693  0.00  0.00    -0.356 OA
ATOM     24  C   UNL d   1       4.809   6.682   4.934  0.00  0.00     0.210 C 
ENDBRANCH  20  23
ENDBRANCH   3  17
TORSDOF 5
