REMARK  2 active torsions:
REMARK  status: ('A' for Active; 'I' for Inactive)
REMARK    1  A    between atoms: C_6  and  C_2 
REMARK    2  A    between atoms: O_12  and  C_9 
ROOT
ATOM      1  N   UNL d   1       2.082  -1.356   0.419  0.00  0.00    -0.260 NA
ATOM      2  C   UNL d   1       2.327   0.061   0.083  0.00  0.00     0.239 A 
ATOM      3  O   UNL d   1       2.904   0.790   1.202  0.00  0.00    -0.324 OA
ATOM      4  C   UNL d   1       2.664  -1.419   1.700  0.00  0.00     0.044 A 
ATOM      5  C   UNL d   1       3.099  -0.182   2.141  0.00  0.00     0.092 A 
ATOM      6  C   UNL d   1       2.820  -2.539   2.490  0.00  0.00     0.026 A 
ATOM      7  C   UNL d   1       3.699  -0.001   3.369  0.00  0.00     0.039 A 
ATOM      8  C   UNL d   1       3.428  -2.388   3.741  0.00  0.00     0.002 A 
ATOM      9  C   UNL d   1       3.865  -1.125   4.178  0.00  0.00     0.003 A 
ATOM     10  H   UNL d   1       2.561  -1.993  -0.210  0.00  0.00     0.130 HD
ENDROOT
BRANCH   2  11
ATOM     11  C   UNL d   1       3.217   0.163  -1.148  0.00  0.00    -0.015 A 
ATOM     12  C   UNL d   1       2.649   0.185  -2.433  0.00  0.00     0.014 A 
ATOM     13  C   UNL d   1       3.457   0.265  -3.576  0.00  0.00     0.037 A 
ATOM     14  C   UNL d   1       4.845   0.310  -3.450  0.00  0.00     0.068 A 
ATOM     15  C   UNL d   1       5.418   0.285  -2.179  0.00  0.00     0.037 A 
ATOM     16  C   UNL d   1       4.616   0.197  -1.040  0.00  0.00     0.014 A 
BRANCH  14  17
ATOM     17  O   UNL d   1       5.733   0.427  -4.482  0.00  0.00    -0.356 OA
ATOM     18  C   UNL d   1       5.319  -0.136  -5.722  0.00  0.00     0.210 C 
ENDBRANCH  14  17
ENDBRANCH   2  11
TORSDOF 2
