REMARK  2 active torsions:
REMARK  status: ('A' for Active; 'I' for Inactive)
REMARK    1  A    between atoms: C_7  and  C_3 
REMARK    2  A    between atoms: C_10  and  N_5 
ROOT
ATOM      1  N   UNL d   1      -0.701   1.210   0.023  0.00  0.00    -0.270 N 
ATOM      2  C   UNL d   1      -1.446   0.031   0.028  0.00  0.00     0.335 A 
ATOM      3  C   UNL d   1       1.429  -0.016  -0.011  0.00  0.00     0.086 A 
ATOM      4  C   UNL d   1       0.683   1.276   0.004  0.00  0.00     0.266 A 
ATOM      5  N   UNL d   1      -0.694  -1.153  -0.001  0.00  0.00    -0.274 N 
ATOM      6  C   UNL d   1       0.690  -1.136  -0.033  0.00  0.00     0.122 A 
ATOM      7  O   UNL d   1      -2.678   0.058   0.011  0.00  0.00    -0.246 OA
ATOM      8  O   UNL d   1       1.292   2.348  -0.002  0.00  0.00    -0.267 OA
ATOM      9  C   UNL d   1      -1.416   2.473  -0.004  0.00  0.00     0.164 C 
ENDROOT
BRANCH   5  10
ATOM     10  C   UNL d   1      -1.400  -2.403  -0.015  0.00  0.00     0.043 A 
ATOM     11  C   UNL d   1      -1.091  -3.386  -0.965  0.00  0.00     0.030 A 
ATOM     12  C   UNL d   1      -1.823  -4.576  -1.011  0.00  0.00     0.002 A 
ATOM     13  C   UNL d   1      -2.838  -4.811  -0.085  0.00  0.00     0.000 A 
ATOM     14  C   UNL d   1      -3.127  -3.856   0.886  0.00  0.00     0.002 A 
ATOM     15  C   UNL d   1      -2.421  -2.652   0.913  0.00  0.00     0.030 A 
ENDBRANCH   5  10
BRANCH   3  16
ATOM     16  C   UNL d   1       2.933  -0.095   0.013  0.00  0.00     0.111 C 
ATOM     17  S   UNL d   1       3.904  -1.465   0.037  0.00  0.00    -0.060 SA
ATOM     18  N   UNL d   1       3.589   1.103   0.025  0.00  0.00    -0.389 N 
ATOM     19  H   UNL d   1       3.091   1.995   0.020  0.00  0.00     0.157 HD
ATOM     20  H   UNL d   1       4.601   1.130   0.048  0.00  0.00     0.157 HD
ENDBRANCH   3  16
TORSDOF 2
