REMARK  4 active torsions:
REMARK  status: ('A' for Active; 'I' for Inactive)
REMARK    1  A    between atoms: C_3  and  C_1 
REMARK    2  A    between atoms: C_9  and  C_2 
REMARK    3  A    between atoms: N_15  and  C_8 
REMARK    4  A    between atoms: C_16  and  N_15 
ROOT
ATOM      1  C   UNL d   1       0.472  -2.664  -0.134  0.00  0.00     0.056 A 
ATOM      2  N   UNL d   1      -0.305  -3.540  -0.850  0.00  0.00    -0.335 N 
ATOM      3  HN  UNL d   1      -1.114  -3.268  -1.408  1.00  0.00     0.168 HD
ATOM      4  C   UNL d   1       0.127  -4.774  -0.723  0.00  0.00     0.149 A 
ATOM      5  S   UNL d   1       1.547  -4.931   0.240  0.00  0.00    -0.064 SA
ATOM      6  C   UNL d   1       1.583  -3.228   0.457  0.00  0.00     0.083 A 
ENDROOT
BRANCH   1   7
ATOM      7  C   UNL d   1       0.033  -1.275  -0.057  0.00  0.00     0.052 A 
ATOM      8  C   UNL d   1      -1.317  -0.787   0.009  0.00  0.00     0.081 A 
ATOM      9  N   UNL d   1      -1.292   0.554   0.108  0.00  0.00    -0.259 N 
ATOM     10  O   UNL d   1       0.026   0.941   0.074  0.00  0.00    -0.241 OA
ATOM     11  HN  UNL d   1      -2.101   1.170   0.192  1.00  0.00     0.195 HD
ATOM     12  C   UNL d   1       0.823  -0.152  -0.003  0.00  0.00     0.087 A 
ATOM     13  C   UNL d   1       2.275   0.101  -0.010  0.00  0.00     0.080 C 
BRANCH   8  14
ATOM     14  C   UNL d   1      -2.600  -1.514   0.088  0.00  0.00     0.015 A 
ATOM     15  C   UNL d   1      -3.795  -1.056  -0.508  0.00  0.00     0.048 A 
ATOM     16  C   UNL d   1      -4.997  -1.766  -0.348  0.00  0.00     0.048 A 
ATOM     17 CL   UNL d   1      -3.892   0.363  -1.498  0.00  0.00    -0.083 Cl
ATOM     18  C   UNL d   1      -5.018  -2.953   0.375  0.00  0.00     0.035 A 
ATOM     19  C   UNL d   1      -3.854  -3.434   0.959  0.00  0.00     0.025 A 
ATOM     20 CL   UNL d   1      -6.487  -3.829   0.553  0.00  0.00    -0.084 Cl
ATOM     21  C   UNL d   1      -2.667  -2.706   0.837  0.00  0.00     0.017 A 
ENDBRANCH   8  14
ENDBRANCH   1   7
BRANCH   4  22
ATOM     22  N   UNL d   1      -0.482  -5.853  -1.257  0.00  0.00    -0.334 N 
ATOM     23  H   UNL d   1      -0.349  -6.768  -0.841  0.00  0.00     0.168 HD
BRANCH  22  24
ATOM     24  C   UNL d   1      -1.263  -5.843  -2.427  0.00  0.00     0.073 A 
ATOM     25  C   UNL d   1      -2.272  -6.804  -2.606  0.00  0.00     0.145 A 
ATOM     26  C   UNL d   1      -3.084  -6.812  -3.732  0.00  0.00     0.086 A 
ATOM     27  F   UNL d   1      -2.463  -7.739  -1.659  0.00  0.00    -0.204 F 
ATOM     28  C   UNL d   1      -2.895  -5.844  -4.703  0.00  0.00     0.119 A 
ATOM     29  C   UNL d   1      -1.921  -4.862  -4.557  0.00  0.00     0.044 A 
ATOM     30  F   UNL d   1      -3.658  -5.848  -5.804  0.00  0.00    -0.206 F 
ATOM     31  C   UNL d   1      -1.121  -4.855  -3.417  0.00  0.00     0.036 A 
ENDBRANCH  22  24
ENDBRANCH   4  22
TORSDOF 4
