REMARK  4 active torsions:
REMARK  status: ('A' for Active; 'I' for Inactive)
REMARK    1  A    between atoms: N_8  and  N_12 
REMARK    2  A    between atoms: N_12  and  C_17 
REMARK    3  A    between atoms: C_13  and  C_14 
REMARK    4  A    between atoms: C_17  and  C_15 
ROOT
ATOM      1  N   UNL d   1       1.419   0.215  -2.534  0.00  0.00    -0.197 NA
ATOM      2  C   UNL d   1       2.402  -0.349  -2.278  0.00  0.00     0.060 C 
ATOM      3  C   UNL d   1       3.643  -1.068  -1.950  0.00  0.00     0.140 C 
ENDROOT
BRANCH   3   4
ATOM      4  C   UNL d   1       4.706  -0.101  -1.420  0.00  0.00     0.124 C 
BRANCH   4   5
ATOM      5  N   UNL d   1       5.960  -0.783  -1.061  0.00  0.00    -0.240 NA
ATOM      6  H   UNL d   1       6.582  -0.110  -0.602  0.00  0.00     0.146 HD
BRANCH   5   7
ATOM      7  N   UNL d   1       6.587  -1.439  -2.069  0.00  0.00    -0.332 N 
ATOM      8  C   UNL d   1       7.713  -1.990  -1.733  0.00  0.00     0.113 C 
ATOM      9  HN  UNL d   1       6.205  -1.494  -3.013  1.00  0.00     0.179 HD
BRANCH   8  10
ATOM     10  C   UNL d   1       8.513  -2.771  -2.703  0.00  0.00    -0.017 A 
ATOM     11  C   UNL d   1       9.702  -3.372  -2.273  0.00  0.00     0.052 A 
ATOM     12  C   UNL d   1      10.397  -4.132  -3.192  0.00  0.00     0.105 A 
ATOM     13  O   UNL d   1      11.555  -4.805  -2.953  0.00  0.00    -0.323 OA
ATOM     14  C   UNL d   1       9.957  -4.294  -4.486  0.00  0.00     0.105 A 
ATOM     15  C   UNL d   1      11.767  -5.447  -4.229  0.00  0.00     0.352 A 
ATOM     16  O   UNL d   1      10.780  -5.090  -5.219  0.00  0.00    -0.323 OA
ATOM     17  C   UNL d   1       8.799  -3.701  -4.940  0.00  0.00     0.040 A 
ATOM     18  C   UNL d   1       8.066  -2.930  -4.032  0.00  0.00     0.016 A 
ENDBRANCH   8  10
ENDBRANCH   5   7
ENDBRANCH   4   5
ENDBRANCH   3   4
TORSDOF 4
