REMARK  3 active torsions:
REMARK  status: ('A' for Active; 'I' for Inactive)
REMARK    1  A    between atoms: C_5  and  C_1 
REMARK    2  A    between atoms: C_8  and  C_4 
REMARK       I    between atoms: N_9  and  C_5 
REMARK    3  A    between atoms: C_14  and  N_9 
ROOT
ATOM      1  C   UNL d   1       2.366   1.573   0.174  0.00  0.00     0.273 C 
ATOM      2  N   UNL d   1       2.244   2.942   0.005  0.00  0.00    -0.322 N 
ATOM      3  O   UNL d   1       1.451   0.794   0.429  0.00  0.00    -0.266 OA
ATOM      4  H   UNL d   1       3.078   3.414  -0.333  0.00  0.00     0.169 HD
ENDROOT
BRANCH   1   5
ATOM      5  C   UNL d   1       3.724   1.059  -0.037  0.00  0.00     0.108 A 
ATOM      6  N   UNL d   1       4.838   1.875  -0.260  0.00  0.00    -0.345 N 
ATOM      7  C   UNL d   1       5.922   1.129  -0.394  0.00  0.00     0.091 A 
ATOM      8  HN  UNL d   1       4.817   2.894  -0.311  1.00  0.00     0.167 HD
ATOM      9  S   UNL d   1       5.655  -0.573  -0.284  0.00  0.00    -0.080 SA
ATOM     10  C   UNL d   1       3.996  -0.296  -0.039  0.00  0.00     0.087 A 
BRANCH   7  11
ATOM     11  C   UNL d   1       7.246   1.663  -0.636  0.00  0.00     0.038 A 
ATOM     12  S   UNL d   1       7.512   3.353  -0.801  0.00  0.00    -0.099 SA
ATOM     13  C   UNL d   1       9.187   3.139  -1.081  0.00  0.00     0.050 A 
ATOM     14  C   UNL d   1       9.554   1.815  -1.034  0.00  0.00     0.008 A 
ATOM     15  C   UNL d   1       8.439   0.967  -0.773  0.00  0.00     0.022 A 
ENDBRANCH   7  11
ENDBRANCH   1   5
BRANCH   2  16
ATOM     16  C   UNL d   1       1.034   3.669   0.082  0.00  0.00     0.037 A 
ATOM     17  C   UNL d   1      -0.125   3.147   0.666  0.00  0.00     0.069 A 
ATOM     18  C   UNL d   1      -1.330   3.844   0.607  0.00  0.00     0.104 A 
ATOM     19  O   UNL d   1      -2.424   3.215   1.144  0.00  0.00    -0.346 OA
ATOM     20  C   UNL d   1      -1.386   5.103   0.011  0.00  0.00     0.102 A 
ATOM     21  C   UNL d   1      -3.628   3.749   0.589  0.00  0.00     0.202 C 
ATOM     22  C   UNL d   1      -3.614   5.266   0.669  0.00  0.00     0.202 C 
ATOM     23  O   UNL d   1      -2.544   5.827  -0.105  0.00  0.00    -0.346 OA
ATOM     24  C   UNL d   1      -0.226   5.661  -0.523  0.00  0.00     0.042 A 
ATOM     25  C   UNL d   1       0.984   4.951  -0.480  0.00  0.00     0.032 A 
ENDBRANCH   2  16
TORSDOF 3
