REMARK  6 active torsions:
REMARK  status: ('A' for Active; 'I' for Inactive)
REMARK    1  A    between atoms: C_10  and  C_1 
REMARK    2  A    between atoms: C_9  and  C_15 
REMARK    3  A    between atoms: O_17  and  C_9 
REMARK    4  A    between atoms: O_14  and  C_13 
REMARK    5  A    between atoms: C_15  and  O_14 
REMARK    6  A    between atoms: C_20  and  O_17 
ROOT
ATOM      1  C   UNL d   1      -0.460  -1.770  -0.012  0.00  0.00    -0.007 A 
ATOM      2  C   UNL d   1       0.317   0.579   0.014  0.00  0.00     0.093 A 
ATOM      3  C   UNL d   1       0.626  -0.780   0.013  0.00  0.00     0.009 A 
ATOM      4  O   UNL d   1      -1.020   1.018   0.011  0.00  0.00    -0.275 OA
ATOM      5  C   UNL d   1      -2.068   0.111   0.003  0.00  0.00     0.289 A 
ATOM      6  C   UNL d   1      -1.723  -1.317  -0.016  0.00  0.00     0.095 A 
ATOM      7  C   UNL d   1       1.306   1.566   0.002  0.00  0.00     0.075 A 
ATOM      8  C   UNL d   1       1.975  -1.151   0.013  0.00  0.00     0.018 A 
ATOM      9  O   UNL d   1      -3.240   0.472   0.005  0.00  0.00    -0.260 OA
ATOM     10  C   UNL d   1       2.643   1.181  -0.009  0.00  0.00     0.072 A 
ATOM     11  C   UNL d   1       2.973  -0.175  -0.006  0.00  0.00     0.038 A 
ENDROOT
BRANCH  10  12
ATOM     12  O   UNL d   1       3.711   2.025  -0.077  0.00  0.00    -0.341 OA
BRANCH  12  13
ATOM     13  C   UNL d   1       3.526   3.324   0.473  0.00  0.00     0.286 C 
BRANCH  13  14
ATOM     14  C   UNL d   1       4.878   4.008   0.574  0.00  0.00     0.283 C 
ATOM     15  O   UNL d   1       5.946   3.553   0.187  0.00  0.00    -0.263 OA
BRANCH  14  16
ATOM     16  O   UNL d   1       4.727   5.201   1.224  0.00  0.00    -0.320 OA
BRANCH  16  17
ATOM     17  C   UNL d   1       5.950   5.811   1.660  0.00  0.00     0.174 C 
ATOM     18  C   UNL d   1       6.298   5.260   3.030  0.00  0.00     0.034 C 
ENDBRANCH  16  17
ENDBRANCH  14  16
ENDBRANCH  13  14
ENDBRANCH  12  13
ENDBRANCH  10  12
BRANCH   1  19
ATOM     19  C   UNL d   1      -0.265  -3.230  -0.058  0.00  0.00    -0.025 A 
ATOM     20  C   UNL d   1      -0.172  -3.884  -1.294  0.00  0.00     0.012 A 
ATOM     21  C   UNL d   1       0.105  -5.252  -1.342  0.00  0.00     0.001 A 
ATOM     22  C   UNL d   1       0.288  -5.969  -0.160  0.00  0.00     0.000 A 
ATOM     23  C   UNL d   1       0.185  -5.323   1.073  0.00  0.00     0.001 A 
ATOM     24  C   UNL d   1      -0.092  -3.958   1.126  0.00  0.00     0.012 A 
ENDBRANCH   1  19
TORSDOF 6
