REMARK  5 active torsions:
REMARK  status: ('A' for Active; 'I' for Inactive)
REMARK    1  A    between atoms: C_4  and  C_1 
REMARK    2  A    between atoms: N_9  and  N_2 
REMARK    3  A    between atoms: O_11  and  C_4 
REMARK    4  A    between atoms: N_5  and  C_7 
REMARK    5  A    between atoms: C_10  and  N_9 
ROOT
ATOM      1  N   UNL d   1       0.511  -3.513   0.689  0.00  0.00    -0.242 N 
ATOM      2  HN  UNL d   1      -0.344  -3.274   1.190  1.00  0.00     0.208 HD
ATOM      3  N   UNL d   1       1.225  -2.722   0.039  0.00  0.00    -0.285 N 
ATOM      4  HN  UNL d   1       2.099  -2.975  -0.423  1.00  0.00     0.188 HD
ENDROOT
BRANCH   3   5
ATOM      5  C   UNL d   1       0.655  -1.421   0.029  0.00  0.00     0.065 A 
ATOM      6  C   UNL d   1       1.435  -0.246   0.036  0.00  0.00     0.067 A 
ATOM      7  C   UNL d   1       0.785   1.013   0.031  0.00  0.00     0.020 A 
ATOM      8  C   UNL d   1      -0.604   1.122   0.002  0.00  0.00     0.001 A 
ATOM      9  C   UNL d   1      -1.377  -0.026  -0.033  0.00  0.00     0.002 A 
ATOM     10  C   UNL d   1      -0.756  -1.275  -0.031  0.00  0.00     0.032 A 
BRANCH   6  11
ATOM     11  C   UNL d   1       2.925  -0.173   0.032  0.00  0.00     0.295 C 
ATOM     12  O   UNL d   1       3.512   0.900  -0.007  0.00  0.00    -0.259 OA
BRANCH  11  13
ATOM     13  O   UNL d   1       3.534  -1.380   0.055  0.00  0.00    -0.322 OA
ATOM     14  C   UNL d   1       4.966  -1.346   0.015  0.00  0.00     0.213 C 
ENDBRANCH  11  13
ENDBRANCH   6  11
ENDBRANCH   3   5
BRANCH   1  15
ATOM     15  N   UNL d   1       1.066  -4.739   0.613  0.00  0.00    -0.287 N 
ATOM     16  H   UNL d   1       2.050  -4.738   0.365  0.00  0.00     0.188 HD
BRANCH  15  17
ATOM     17  C   UNL d   1       0.697  -5.666   1.611  0.00  0.00     0.049 A 
ATOM     18  C   UNL d   1      -0.545  -5.600   2.264  0.00  0.00     0.032 A 
ATOM     19  C   UNL d   1      -0.885  -6.514   3.267  0.00  0.00     0.021 A 
ATOM     20  C   UNL d   1       0.010  -7.523   3.606  0.00  0.00     0.011 A 
ATOM     21  C   UNL d   1       1.218  -7.649   2.926  0.00  0.00     0.021 A 
ATOM     22 BR   UNL d   1      -0.415  -8.726   5.002  0.00  0.00    -0.051 Br
ATOM     23  C   UNL d   1       1.550  -6.733   1.920  0.00  0.00     0.032 A 
ENDBRANCH  15  17
ENDBRANCH   1  15
TORSDOF 5
