REMARK  5 active torsions:
REMARK  status: ('A' for Active; 'I' for Inactive)
REMARK    1  A    between atoms: C_2  and  N_1 
REMARK    2  A    between atoms: N_10  and  C_3 
REMARK    3  A    between atoms: C_4  and  C_9 
REMARK    4  A    between atoms: N_5  and  N_10 
REMARK    5  A    between atoms: O_17  and  C_8 
ROOT
ATOM      1  N   UNL d   1       1.952   2.260   3.241  0.00  0.00    -0.309 N 
ATOM      2  HN  UNL d   1       1.125   2.832   3.414  1.00  0.00     0.186 HD
ATOM      3  C   UNL d   1       3.081   2.450   3.861  0.00  0.00     0.121 C 
ENDROOT
BRANCH   1   4
ATOM      4  N   UNL d   1       1.965   1.222   2.331  0.00  0.00    -0.295 N 
ATOM      5  C   UNL d   1       2.841   1.424   1.162  0.00  0.00     0.178 C 
BRANCH   4   6
ATOM      6  C   UNL d   1       0.710   0.590   2.099  0.00  0.00     0.083 A 
ATOM      7  C   UNL d   1      -0.234   0.336   3.113  0.00  0.00     0.131 A 
ATOM      8  C   UNL d   1      -1.501  -0.235   2.865  0.00  0.00     0.038 A 
ATOM      9  C   UNL d   1      -1.852  -0.602   1.570  0.00  0.00     0.003 A 
ATOM     10  C   UNL d   1      -0.932  -0.420   0.546  0.00  0.00     0.002 A 
ATOM     11  C   UNL d   1       0.322   0.156   0.809  0.00  0.00     0.034 A 
BRANCH   7  12
ATOM     12  N   UNL d   1       0.091   0.554   4.511  0.00  0.00    -0.113 N 
ATOM     13  O   UNL d   1       0.986  -0.151   5.006  0.00  0.00    -0.532 OA
ATOM     14  O   UNL d   1      -0.637   1.334   5.146  0.00  0.00    -0.532 OA
ENDBRANCH   7  12
ENDBRANCH   4   6
ENDBRANCH   1   4
BRANCH   3  15
ATOM     15  C   UNL d   1       3.292   3.564   4.807  0.00  0.00     0.017 A 
ATOM     16  C   UNL d   1       4.566   3.807   5.339  0.00  0.00     0.099 A 
ATOM     17  C   UNL d   1       4.758   4.876   6.223  0.00  0.00     0.069 A 
ATOM     18 CL   UNL d   1       6.324   5.190   6.885  0.00  0.00    -0.081 Cl
ATOM     19  C   UNL d   1       3.697   5.705   6.575  0.00  0.00     0.050 A 
ATOM     20  C   UNL d   1       2.435   5.462   6.035  0.00  0.00     0.036 A 
ATOM     21  C   UNL d   1       2.225   4.399   5.154  0.00  0.00     0.039 A 
ATOM     22 CL   UNL d   1       1.123   6.494   6.453  0.00  0.00    -0.084 Cl
BRANCH  16  23
ATOM     23  O   UNL d   1       5.621   3.009   4.979  0.00  0.00    -0.358 OA
ATOM     24  H   UNL d   1       6.409   3.318   5.469  0.00  0.00     0.217 HD
ENDBRANCH  16  23
ENDBRANCH   3  15
TORSDOF 5
