REMARK  4 active torsions:
REMARK  status: ('A' for Active; 'I' for Inactive)
REMARK    1  A    between atoms: C_3  and  C_1 
REMARK    2  A    between atoms: C_13  and  N_4 
REMARK    3  A    between atoms: O_20  and  C_10 
REMARK    4  A    between atoms: C_21  and  O_20 
ROOT
ATOM      1  C   UNL d   1       2.965  -2.686   0.028  0.00  0.00     0.102 C 
ATOM      2  N   UNL d   1       2.341  -3.743  -0.382  0.00  0.00    -0.365 N 
ATOM      3  HN  UNL d   1       1.392  -3.685  -0.751  1.00  0.00     0.165 HD
ENDROOT
BRANCH   1   4
ATOM      4  C   UNL d   1       2.381  -1.336  -0.071  0.00  0.00     0.014 A 
ATOM      5  C   UNL d   1       3.167  -0.175   0.001  0.00  0.00     0.080 A 
ATOM      6  C   UNL d   1       2.526   1.071   0.026  0.00  0.00     0.039 A 
ATOM      7  C   UNL d   1       1.134   1.168  -0.049  0.00  0.00     0.022 A 
ATOM      8  C   UNL d   1       0.370   0.010  -0.150  0.00  0.00     0.011 A 
ATOM      9  C   UNL d   1       0.983  -1.239  -0.169  0.00  0.00     0.034 A 
ATOM     10 BR   UNL d   1      -1.516   0.133  -0.221  0.00  0.00    -0.051 Br
BRANCH   5  11
ATOM     11  O   UNL d   1       4.528  -0.096   0.130  0.00  0.00    -0.351 OA
BRANCH  11  12
ATOM     12  C   UNL d   1       5.320  -0.927  -0.723  0.00  0.00     0.171 C 
ATOM     13  C   UNL d   1       6.550  -0.151  -1.160  0.00  0.00     0.034 C 
ENDBRANCH  11  12
ENDBRANCH   5  11
ENDBRANCH   1   4
BRANCH   2  14
ATOM     14  C   UNL d   1       3.015  -4.977  -0.303  0.00  0.00     0.034 A 
ATOM     15  C   UNL d   1       3.774  -5.362   0.810  0.00  0.00     0.069 A 
ATOM     16  C   UNL d   1       4.441  -6.569   0.763  0.00  0.00     0.107 A 
ATOM     17  O   UNL d   1       5.254  -7.061   1.735  0.00  0.00    -0.323 OA
ATOM     18  C   UNL d   1       4.344  -7.409  -0.319  0.00  0.00     0.105 A 
ATOM     19  C   UNL d   1       5.675  -8.302   1.130  0.00  0.00     0.352 A 
ATOM     20  O   UNL d   1       5.083  -8.540  -0.164  0.00  0.00    -0.323 OA
ATOM     21  C   UNL d   1       3.573  -7.090  -1.414  0.00  0.00     0.042 A 
ATOM     22  C   UNL d   1       2.905  -5.859  -1.398  0.00  0.00     0.032 A 
ENDBRANCH   2  14
TORSDOF 4
