REMARK  8 active torsions:
REMARK  status: ('A' for Active; 'I' for Inactive)
REMARK    1  A    between atoms: N_2  and  S_1 
REMARK    2  A    between atoms: C_3  and  S_1 
REMARK    3  A    between atoms: C_5  and  N_2 
REMARK    4  A    between atoms: C_19  and  N_2 
REMARK    5  A    between atoms: C_8  and  C_5 
REMARK    6  A    between atoms: O_17  and  C_9 
REMARK    7  A    between atoms: O_18  and  C_11 
REMARK    8  A    between atoms: C_22  and  C_19 
ROOT
ATOM      1  S   UNL d   1       0.897  -0.021  -0.018  0.00  0.00     0.244 S 
ATOM      2  O   UNL d   1       0.132  -1.116   0.550  0.00  0.00    -0.206 OA
ATOM      3  O   UNL d   1       2.336   0.012   0.127  0.00  0.00    -0.206 OA
ENDROOT
BRANCH   1   4
ATOM      4  N   UNL d   1       0.257   1.445   0.655  0.00  0.00    -0.200 NA
BRANCH   4   5
ATOM      5  C   UNL d   1      -1.200   1.633   0.331  0.00  0.00     0.172 C 
BRANCH   5   6
ATOM      6  C   UNL d   1      -1.781   2.883   0.909  0.00  0.00     0.066 A 
ATOM      7  O   UNL d   1      -2.813   2.716   1.789  0.00  0.00    -0.326 OA
ATOM      8  C   UNL d   1      -3.215   3.954   2.176  0.00  0.00     0.142 A 
ATOM      9  C   UNL d   1      -2.454   4.919   1.561  0.00  0.00     0.027 A 
ATOM     10  C   UNL d   1      -1.527   4.230   0.741  0.00  0.00     0.036 A 
ENDBRANCH   5   6
ENDBRANCH   4   5
BRANCH   4  11
ATOM     11  C   UNL d   1       0.449   1.478   2.167  0.00  0.00     0.107 C 
BRANCH  11  12
ATOM     12  C   UNL d   1       1.902   1.507   2.637  0.00  0.00     0.011 C 
ATOM     13  C   UNL d   1       2.675   2.704   2.112  0.00  0.00     0.006 C 
ENDBRANCH  11  12
ENDBRANCH   4  11
ENDBRANCH   1   4
BRANCH   1  14
ATOM     14  C   UNL d   1       0.582  -0.051  -1.775  0.00  0.00     0.077 A 
ATOM     15  C   UNL d   1       1.674  -0.037  -2.659  0.00  0.00     0.064 A 
ATOM     16  C   UNL d   1       1.509  -0.361  -4.016  0.00  0.00     0.102 A 
ATOM     17  C   UNL d   1       0.218  -0.659  -4.492  0.00  0.00     0.101 A 
ATOM     18  C   UNL d   1      -0.867  -0.638  -3.603  0.00  0.00     0.041 A 
ATOM     19  C   UNL d   1      -0.687  -0.377  -2.246  0.00  0.00     0.028 A 
BRANCH  16  20
ATOM     20  O   UNL d   1       2.555  -0.415  -4.899  0.00  0.00    -0.353 OA
ATOM     21  C   UNL d   1       3.878  -0.276  -4.394  0.00  0.00     0.210 C 
ENDBRANCH  16  20
BRANCH  17  22
ATOM     22  O   UNL d   1      -0.170  -1.002  -5.761  0.00  0.00    -0.353 OA
ATOM     23  C   UNL d   1       0.825  -1.331  -6.719  0.00  0.00     0.210 C 
ENDBRANCH  17  22
ENDBRANCH   1  14
TORSDOF 8
