REMARK  7 active torsions:
REMARK  status: ('A' for Active; 'I' for Inactive)
REMARK    1  A    between atoms: C_18  and  N_1 
REMARK    2  A    between atoms: C_8  and  C_2 
REMARK    3  A    between atoms: S_9  and  C_5 
REMARK    4  A    between atoms: C_21  and  S_9 
REMARK    5  A    between atoms: C_11  and  C_21 
REMARK       I    between atoms: N_13  and  C_11 
REMARK    6  A    between atoms: C_24  and  N_13 
REMARK    7  A    between atoms: C_22  and  C_18 
ROOT
ATOM      1  N   UNL d   1      -0.182  -1.375   0.137  0.00  0.00    -0.307 N 
ATOM      2  C   UNL d   1       0.992  -0.694  -0.145  0.00  0.00     0.135 C 
ATOM      3  N   UNL d   1       0.683   0.578  -0.344  0.00  0.00    -0.283 N 
ATOM      4  HN  UNL d   1       1.320   1.298  -0.685  1.00  0.00     0.188 HD
ATOM      5  C   UNL d   1      -1.110  -0.393   0.355  0.00  0.00     0.163 C 
ATOM      6  N   UNL d   1      -0.630   0.767  -0.018  0.00  0.00    -0.278 N 
ATOM      7  HN  UNL d   1      -1.142   1.648  -0.059  1.00  0.00     0.189 HD
ENDROOT
BRANCH   2   8
ATOM      8  C   UNL d   1       2.369  -1.200  -0.159  0.00  0.00     0.011 A 
ATOM      9  C   UNL d   1       3.319  -0.595  -0.999  0.00  0.00     0.029 A 
ATOM     10  C   UNL d   1       4.681  -0.946  -0.933  0.00  0.00    -0.009 A 
ATOM     11  C   UNL d   1       5.650  -0.321  -1.729  0.00  0.00     0.015 A 
ATOM     12  C   UNL d   1       5.117  -1.929  -0.021  0.00  0.00     0.042 A 
ATOM     13  C   UNL d   1       6.987  -0.671  -1.590  0.00  0.00     0.018 A 
ATOM     14  C   UNL d   1       7.313  -1.644  -0.664  0.00  0.00     0.088 A 
ATOM     15  N   UNL d   1       6.405  -2.281   0.105  0.00  0.00    -0.365 N 
ATOM     16  HN  UNL d   1       6.689  -3.007   0.762  1.00  0.00     0.165 HD
ATOM     17  C   UNL d   1       4.169  -2.530   0.792  0.00  0.00     0.031 A 
ATOM     18  C   UNL d   1       2.817  -2.167   0.747  0.00  0.00     0.017 A 
ENDBRANCH   2   8
BRANCH   1  19
ATOM     19  C   UNL d   1      -0.375  -2.814   0.224  0.00  0.00     0.159 C 
BRANCH  19  20
ATOM     20  C   UNL d   1      -1.402  -3.347  -0.734  0.00  0.00    -0.017 C 
ATOM     21  C   UNL d   1      -2.478  -4.060  -0.368  0.00  0.00     0.008 C 
ENDBRANCH  19  20
ENDBRANCH   1  19
BRANCH   5  22
ATOM     22  S   UNL d   1      -2.663  -0.586   1.080  0.00  0.00    -0.083 SA
BRANCH  22  23
ATOM     23  C   UNL d   1      -2.290  -0.254   2.823  0.00  0.00     0.185 C 
BRANCH  23  24
ATOM     24  C   UNL d   1      -1.965   1.179   3.225  0.00  0.00     0.227 C 
ATOM     25  N   UNL d   1      -1.731   2.104   2.243  0.00  0.00    -0.357 N 
ATOM     26  H   UNL d   1      -1.736   1.804   1.271  0.00  0.00     0.162 HD
ATOM     27  O   UNL d   1      -1.885   1.466   4.422  0.00  0.00    -0.273 OA
BRANCH  25  28
ATOM     28  C   UNL d   1      -1.342   3.479   2.518  0.00  0.00     0.076 C 
ATOM     29  C   UNL d   1      -0.466   4.016   1.390  0.00  0.00     0.032 C 
ATOM     30  C   UNL d   1      -2.577   4.356   2.702  0.00  0.00     0.032 C 
ENDBRANCH  25  28
ENDBRANCH  23  24
ENDBRANCH  22  23
ENDBRANCH   5  22
TORSDOF 7
