REMARK  4 active torsions:
REMARK  status: ('A' for Active; 'I' for Inactive)
REMARK    1  A    between atoms: C_4  and  C_1 
REMARK    2  A    between atoms: O_7  and  C_1 
REMARK    3  A    between atoms: S_2  and  C_4 
REMARK    4  A    between atoms: C_5  and  S_2 
ROOT
ATOM      1  C   UNL d   1      -2.291   1.367  -2.172  0.00  0.00     0.001 A 
ATOM      2  C   UNL d   1      -3.506   2.826  -4.229  0.00  0.00     0.034 A 
ATOM      3 CL   UNL d   1      -4.264   3.724  -5.483  0.00  0.00    -0.084 Cl
ATOM      4  C   UNL d   1      -3.107   0.723  -3.108  0.00  0.00     0.020 A 
ATOM      5  C   UNL d   1      -2.097   2.750  -2.269  0.00  0.00     0.020 A 
ATOM      6  C   UNL d   1      -2.699   3.479  -3.299  0.00  0.00     0.025 A 
ATOM      7  C   UNL d   1      -3.711   1.451  -4.137  0.00  0.00     0.025 A 
ENDROOT
BRANCH   1   8
ATOM      8  S   UNL d   1      -1.530   0.483  -0.820  0.00  0.00    -0.119 SA
BRANCH   8   9
ATOM      9  C   UNL d   1      -0.593  -0.796  -1.733  0.00  0.00     0.189 C 
BRANCH   9  10
ATOM     10  C   UNL d   1       0.513  -0.207  -2.581  0.00  0.00     0.149 C 
ATOM     11  O   UNL d   1       0.945  -0.750  -3.588  0.00  0.00    -0.649 OA
BRANCH  10  12
ATOM     12  O   UNL d   1       1.058   0.932  -2.091  0.00  0.00    -0.776 OA
ATOM     13  H   UNL d   1       0.580   1.242  -1.295  0.00  0.00     0.167 HD
ENDBRANCH  10  12
ENDBRANCH   9  10
ENDBRANCH   8   9
ENDBRANCH   1   8
TORSDOF 4
