REMARK  4 active torsions:
REMARK  status: ('A' for Active; 'I' for Inactive)
REMARK    1  A    between atoms: C_7  and  C_3 
REMARK    2  A    between atoms: C_9  and  C_4 
REMARK    3  A    between atoms: S_8  and  C_9 
REMARK    4  A    between atoms: C_10  and  S_8 
ROOT
ATOM      1  N   UNL d   1       1.414  -0.584  -0.116  0.00  0.00    -0.352 N 
ATOM      2  HN  UNL d   1       2.307  -1.055  -0.261  1.00  0.00     0.166 HD
ATOM      3  C   UNL d   1       1.252   0.790   0.014  0.00  0.00     0.049 A 
ATOM      4  C   UNL d   1       0.246  -1.193  -0.024  0.00  0.00     0.060 A 
ATOM      5  S   UNL d   1      -1.100  -0.153   0.252  0.00  0.00    -0.086 SA
ATOM      6  C   UNL d   1      -0.055   1.202   0.185  0.00  0.00     0.081 A 
ENDROOT
BRANCH   4   7
ATOM      7  C   UNL d   1       0.060  -2.683  -0.100  0.00  0.00     0.144 C 
BRANCH   7   8
ATOM      8  S   UNL d   1      -0.784  -3.170  -1.649  0.00  0.00    -0.123 SA
BRANCH   8   9
ATOM      9  C   UNL d   1      -0.966  -4.935  -1.445  0.00  0.00     0.000 A 
ATOM     10  C   UNL d   1      -2.148  -5.529  -1.904  0.00  0.00     0.018 A 
ATOM     11  C   UNL d   1      -2.321  -6.914  -1.849  0.00  0.00     0.001 A 
ATOM     12  C   UNL d   1      -1.308  -7.722  -1.339  0.00  0.00     0.000 A 
ATOM     13  C   UNL d   1      -0.127  -7.142  -0.878  0.00  0.00     0.001 A 
ATOM     14  C   UNL d   1       0.045  -5.756  -0.934  0.00  0.00     0.018 A 
ENDBRANCH   8   9
ENDBRANCH   7   8
ENDBRANCH   4   7
BRANCH   3  15
ATOM     15  C   UNL d   1       2.397   1.696  -0.050  0.00  0.00    -0.009 A 
ATOM     16  C   UNL d   1       3.539   1.322  -0.772  0.00  0.00     0.014 A 
ATOM     17  C   UNL d   1       4.644   2.172  -0.850  0.00  0.00     0.001 A 
ATOM     18  C   UNL d   1       4.625   3.404  -0.201  0.00  0.00     0.000 A 
ATOM     19  C   UNL d   1       3.502   3.786   0.531  0.00  0.00     0.001 A 
ATOM     20  C   UNL d   1       2.394   2.937   0.607  0.00  0.00     0.014 A 
ENDBRANCH   3  15
TORSDOF 4
