REMARK  4 active torsions:
REMARK  status: ('A' for Active; 'I' for Inactive)
REMARK    1  A    between atoms: C_4  and  C_1 
REMARK    2  A    between atoms: C_5  and  C_1 
REMARK    3  A    between atoms: N_8  and  N_2 
REMARK    4  A    between atoms: C_12  and  N_8 
ROOT
ATOM      1  N   UNL d   1       1.031  -2.351  -0.102  0.00  0.00    -0.300 N 
ATOM      2  H   UNL d   1       1.780  -2.351   0.605  0.00  0.00     0.187 HD
ENDROOT
BRANCH   1   3
ATOM      3  N   UNL d   1       0.345  -1.184  -0.288  0.00  0.00    -0.294 N 
ATOM      4  C   UNL d   1       0.976  -0.060  -0.067  0.00  0.00     0.139 C 
ATOM      5  HN  UNL d   1      -0.629  -1.189  -0.590  1.00  0.00     0.187 HD
BRANCH   4   6
ATOM      6  C   UNL d   1       0.124   1.190  -0.132  0.00  0.00     0.177 C 
ATOM      7  O   UNL d   1       0.566   2.193  -0.677  0.00  0.00    -0.291 OA
ATOM      8  C   UNL d   1      -1.222   1.148   0.533  0.00  0.00     0.098 C 
ENDBRANCH   4   6
BRANCH   4   9
ATOM      9  C   UNL d   1       2.451  -0.006   0.294  0.00  0.00     0.177 C 
ATOM     10  O   UNL d   1       2.875  -0.795   1.136  0.00  0.00    -0.291 OA
ATOM     11  C   UNL d   1       3.347   0.934  -0.461  0.00  0.00     0.098 C 
ENDBRANCH   4   9
ENDBRANCH   1   3
BRANCH   1  12
ATOM     12  C   UNL d   1       0.262  -3.539  -0.089  0.00  0.00     0.049 A 
ATOM     13  C   UNL d   1       0.681  -4.638   0.672  0.00  0.00     0.056 A 
ATOM     14  C   UNL d   1      -0.044  -5.836   0.668  0.00  0.00     0.053 A 
ATOM     15 CL   UNL d   1       0.534  -7.121   1.672  0.00  0.00    -0.083 Cl
ATOM     16  C   UNL d   1      -1.190  -5.958  -0.125  0.00  0.00     0.032 A 
ATOM     17  C   UNL d   1      -1.607  -4.874  -0.903  0.00  0.00     0.023 A 
ATOM     18 BR   UNL d   1      -2.216  -7.554  -0.215  0.00  0.00    -0.049 Br
ATOM     19  C   UNL d   1      -0.886  -3.680  -0.880  0.00  0.00     0.032 A 
ENDBRANCH   1  12
TORSDOF 4
