REMARK  7 active torsions:
REMARK  status: ('A' for Active; 'I' for Inactive)
REMARK    1  A    between atoms: N_7  and  S_1 
REMARK    2  A    between atoms: C_2  and  O_8 
REMARK    3  A    between atoms: C_3  and  C_2 
REMARK    4  A    between atoms: O_8  and  N_4 
REMARK    5  A    between atoms: C_6  and  C_12 
REMARK    6  A    between atoms: N_19  and  C_6 
REMARK    7  A    between atoms: C_20  and  N_7 
ROOT
ATOM      1  N   UNL d   1       1.508  -0.590  -5.589  0.00  0.00    -0.246 N 
ATOM      2  HN  UNL d   1       2.120  -0.406  -4.794  1.00  0.00     0.196 HD
ATOM      3  C   UNL d   1       1.891  -0.560  -6.835  0.00  0.00     0.109 C 
ENDROOT
BRANCH   3   4
ATOM      4  C   UNL d   1       3.322  -0.195  -7.135  0.00  0.00     0.004 A 
ATOM      5  C   UNL d   1       4.203   0.096  -6.083  0.00  0.00     0.016 A 
ATOM      6  C   UNL d   1       5.530   0.458  -6.344  0.00  0.00     0.025 A 
ATOM      7  C   UNL d   1       5.984   0.533  -7.659  0.00  0.00     0.022 A 
ATOM      8  C   UNL d   1       5.120   0.251  -8.714  0.00  0.00     0.025 A 
ATOM      9  C   UNL d   1       3.797  -0.127  -8.454  0.00  0.00     0.016 A 
BRANCH   7  10
ATOM     10  N   UNL d   1       7.323   0.929  -7.943  0.00  0.00    -0.186 NA
ATOM     11  H   UNL d   1       8.031   0.480  -7.357  0.00  0.00     0.145 HD
BRANCH  10  12
ATOM     12  S   UNL d   1       7.653   2.590  -7.989  0.00  0.00     0.210 S 
ATOM     13  O   UNL d   1       9.018   2.716  -7.526  0.00  0.00    -0.211 OA
ATOM     14  O   UNL d   1       6.578   3.339  -7.378  0.00  0.00    -0.211 OA
ATOM     15  C   UNL d   1       7.653   2.902  -9.741  0.00  0.00     0.180 C 
ENDBRANCH  10  12
ENDBRANCH   7  10
ENDBRANCH   3   4
BRANCH   3  16
ATOM     16  N   UNL d   1       1.028  -0.839  -7.874  0.00  0.00    -0.286 NA
ATOM     17  H   UNL d   1       0.059  -0.865  -7.570  0.00  0.00     0.125 HD
ATOM     18  H   UNL d   1       1.139  -0.291  -8.717  0.00  0.00     0.125 HD
ENDBRANCH   3  16
BRANCH   1  19
ATOM     19  O   UNL d   1       0.136  -0.910  -5.486  0.00  0.00    -0.193 OA
BRANCH  19  20
ATOM     20  C   UNL d   1      -0.278  -0.908  -4.170  0.00  0.00     0.322 C 
ATOM     21  O   UNL d   1       0.435  -0.699  -3.195  0.00  0.00    -0.257 OA
BRANCH  20  22
ATOM     22  C   UNL d   1      -1.709  -1.186  -4.083  0.00  0.00     0.082 A 
ATOM     23  S   UNL d   1      -2.692  -1.451  -5.466  0.00  0.00    -0.096 SA
ATOM     24  C   UNL d   1      -4.097  -1.678  -4.520  0.00  0.00     0.050 A 
ATOM     25  C   UNL d   1      -3.837  -1.555  -3.174  0.00  0.00     0.009 A 
ATOM     26  C   UNL d   1      -2.463  -1.269  -2.924  0.00  0.00     0.026 A 
ENDBRANCH  20  22
ENDBRANCH  19  20
ENDBRANCH   1  19
TORSDOF 7
