REMARK  5 active torsions:
REMARK  status: ('A' for Active; 'I' for Inactive)
REMARK    1  A    between atoms: C_10  and  N_1 
REMARK    2  A    between atoms: C_9  and  C_3 
REMARK    3  A    between atoms: N_8  and  C_14 
REMARK    4  A    between atoms: C_12  and  C_10 
REMARK    5  A    between atoms: C_14  and  C_12 
ROOT
ATOM      1  N   UNL d   1       2.118  -0.261   0.206  0.00  0.00    -0.327 N 
ATOM      2  C   UNL d   1       1.201   0.760  -0.061  0.00  0.00     0.257 C 
ATOM      3  C   UNL d   1       1.729  -1.651  -0.041  0.00  0.00     0.199 C 
ATOM      4  N   UNL d   1       0.380  -1.889   0.441  0.00  0.00    -0.266 NA
ATOM      5  C   UNL d   1      -0.231   0.391  -0.106  0.00  0.00     0.053 A 
ATOM      6  C   UNL d   1      -0.582  -0.943   0.097  0.00  0.00     0.026 A 
ATOM      7  O   UNL d   1       1.516   1.935  -0.215  0.00  0.00    -0.267 OA
ATOM      8  C   UNL d   1      -1.212   1.383  -0.249  0.00  0.00     0.019 A 
ATOM      9  C   UNL d   1      -1.941  -1.275   0.146  0.00  0.00     0.024 A 
ATOM     10  C   UNL d   1      -2.561   1.039  -0.187  0.00  0.00     0.001 A 
ATOM     11  C   UNL d   1      -2.925  -0.293  -0.002  0.00  0.00     0.002 A 
ATOM     12  H   UNL d   1       0.085  -2.851   0.325  0.00  0.00     0.130 HD
ENDROOT
BRANCH   1  13
ATOM     13  C   UNL d   1       3.514   0.140   0.439  0.00  0.00     0.130 C 
BRANCH  13  14
ATOM     14  C   UNL d   1       4.599  -0.504  -0.425  0.00  0.00     0.050 C 
BRANCH  14  15
ATOM     15  C   UNL d   1       4.385  -0.238  -1.911  0.00  0.00     0.274 C 
BRANCH  15  16
ATOM     16  N   UNL d   1       5.247  -1.058  -2.780  0.00  0.00     0.092 N 
ATOM     17  C   UNL d   1       4.951  -0.767  -4.203  0.00  0.00     0.298 C 
ATOM     18  C   UNL d   1       5.455   0.615  -4.657  0.00  0.00     0.198 C 
ATOM     19  O   UNL d   1       6.865   0.751  -4.434  0.00  0.00    -0.388 OA
ATOM     20  C   UNL d   1       7.194   0.530  -3.055  0.00  0.00     0.198 C 
ATOM     21  C   UNL d   1       6.695  -0.841  -2.571  0.00  0.00     0.298 C 
ENDBRANCH  15  16
ENDBRANCH  14  15
ENDBRANCH  13  14
ENDBRANCH   1  13
BRANCH   3  22
ATOM     22  C   UNL d   1       2.590  -2.726   0.591  0.00  0.00    -0.021 A 
ATOM     23  C   UNL d   1       3.000  -2.641   1.933  0.00  0.00     0.010 A 
ATOM     24  C   UNL d   1       3.850  -3.599   2.488  0.00  0.00     0.001 A 
ATOM     25  C   UNL d   1       4.253  -4.694   1.725  0.00  0.00     0.000 A 
ATOM     26  C   UNL d   1       3.800  -4.834   0.416  0.00  0.00     0.001 A 
ATOM     27  C   UNL d   1       2.974  -3.860  -0.152  0.00  0.00     0.010 A 
ENDBRANCH   3  22
TORSDOF 5
