REMARK  8 active torsions:
REMARK  status: ('A' for Active; 'I' for Inactive)
REMARK    1  A    between atoms: C_3  and  C_1 
REMARK       I    between atoms: N_8  and  C_3 
REMARK    2  A    between atoms: C_14  and  N_8 
REMARK    3  A    between atoms: O_12  and  C_17 
REMARK    4  A    between atoms: C_16  and  O_12 
REMARK    5  A    between atoms: C_15  and  C_14 
REMARK    6  A    between atoms: C_17  and  C_15 
REMARK    7  A    between atoms: O_25  and  C_15 
REMARK    8  A    between atoms: O_26  and  C_18 
ROOT
ATOM      1  C   UNL d   1       3.584  -1.491  -0.142  0.00  0.00     0.249 C 
ATOM      2  N   UNL d   1       3.750  -2.848  -0.031  0.00  0.00    -0.355 N 
ATOM      3  O   UNL d   1       2.479  -0.957  -0.152  0.00  0.00    -0.268 OA
ATOM      4  H   UNL d   1       4.668  -3.271   0.003  0.00  0.00     0.162 HD
ENDROOT
BRANCH   2   5
ATOM      5  C   UNL d   1       2.598  -3.732  -0.003  0.00  0.00     0.156 C 
BRANCH   5   6
ATOM      6  C   UNL d   1       2.980  -5.219   0.004  0.00  0.00     0.160 C 
BRANCH   6   7
ATOM      7  C   UNL d   1       1.701  -6.075  -0.020  0.00  0.00     0.209 C 
BRANCH   7   8
ATOM      8  O   UNL d   1       2.022  -7.467   0.084  0.00  0.00    -0.349 OA
BRANCH   8   9
ATOM      9  C   UNL d   1       0.948  -8.321   0.092  0.00  0.00     0.069 A 
ATOM     10  C   UNL d   1      -0.311  -8.037  -0.439  0.00  0.00     0.039 A 
ATOM     11  C   UNL d   1      -1.337  -8.983  -0.364  0.00  0.00     0.039 A 
ATOM     12  C   UNL d   1      -1.117 -10.230   0.219  0.00  0.00     0.068 A 
ATOM     13  C   UNL d   1       0.143 -10.527   0.736  0.00  0.00     0.039 A 
ATOM     14  C   UNL d   1       1.172  -9.575   0.664  0.00  0.00     0.039 A 
BRANCH  12  15
ATOM     15  O   UNL d   1      -2.215 -11.042   0.273  0.00  0.00    -0.356 OA
ATOM     16  C   UNL d   1      -1.962 -12.441   0.263  0.00  0.00     0.210 C 
ENDBRANCH  12  15
ENDBRANCH   8   9
ENDBRANCH   7   8
ENDBRANCH   6   7
BRANCH   6  17
ATOM     17  O   UNL d   1       3.808  -5.489  -1.140  0.00  0.00    -0.392 OA
ATOM     18  H   UNL d   1       3.243  -5.495  -1.930  0.00  0.00     0.210 HD
ENDBRANCH   6  17
ENDBRANCH   5   6
ENDBRANCH   2   5
BRANCH   1  19
ATOM     19  C   UNL d   1       4.825  -0.664  -0.199  0.00  0.00     0.034 A 
ATOM     20  C   UNL d   1       6.005  -1.138  -0.620  0.00  0.00     0.029 A 
ATOM     21  C   UNL d   1       7.135  -0.219  -0.652  0.00  0.00    -0.000 A 
ATOM     22  C   UNL d   1       8.399  -0.660  -1.062  0.00  0.00     0.038 A 
ATOM     23  C   UNL d   1       6.964   1.114  -0.271  0.00  0.00     0.079 A 
ATOM     24  C   UNL d   1       9.473   0.228  -1.093  0.00  0.00     0.035 A 
ATOM     25 CL   UNL d   1      11.023  -0.324  -1.595  0.00  0.00    -0.084 Cl
ATOM     26  C   UNL d   1       9.299   1.559  -0.721  0.00  0.00     0.026 A 
ATOM     27  C   UNL d   1       8.042   2.002  -0.309  0.00  0.00     0.039 A 
ATOM     28  O   UNL d   1       5.778   1.636   0.158  0.00  0.00    -0.346 OA
ATOM     29  C   UNL d   1       4.627   0.774   0.198  0.00  0.00     0.220 A 
ENDBRANCH   1  19
TORSDOF 8
