REMARK  6 active torsions:
REMARK  status: ('A' for Active; 'I' for Inactive)
REMARK    1  A    between atoms: O_10  and  C_1 
REMARK    2  A    between atoms: C_2  and  S_9 
REMARK       I    between atoms: C_3  and  N_8 
REMARK    3  A    between atoms: C_15  and  C_3 
REMARK    4  A    between atoms: N_8  and  C_16 
REMARK    5  A    between atoms: S_9  and  C_15 
REMARK    6  A    between atoms: C_17  and  O_10 
ROOT
ATOM      1  C   UNL d   1       3.063   6.197   2.962  0.00  0.00     0.231 C 
ATOM      2  N   UNL d   1       1.872   5.860   2.345  0.00  0.00    -0.327 N 
ATOM      3  O   UNL d   1       4.106   5.544   2.908  0.00  0.00    -0.272 OA
ATOM      4  H   UNL d   1       1.115   6.525   2.456  0.00  0.00     0.169 HD
ENDROOT
BRANCH   2   5
ATOM      5  C   UNL d   1       1.576   4.674   1.644  0.00  0.00     0.034 A 
ATOM      6  C   UNL d   1       2.478   3.619   1.494  0.00  0.00     0.032 A 
ATOM      7  C   UNL d   1       2.124   2.461   0.789  0.00  0.00     0.039 A 
ATOM      8  C   UNL d   1       0.877   2.363   0.183  0.00  0.00     0.078 A 
ATOM      9  C   UNL d   1      -0.045   3.395   0.369  0.00  0.00     0.039 A 
ATOM     10  C   UNL d   1       0.300   4.544   1.090  0.00  0.00     0.032 A 
BRANCH   8  11
ATOM     11  O   UNL d   1       0.435   1.328  -0.582  0.00  0.00    -0.255 OA
BRANCH  11  12
ATOM     12  C   UNL d   1       1.386   0.502  -1.240  0.00  0.00     0.530 C 
ATOM     13  F   UNL d   1       2.589   1.088  -1.421  0.00  0.00    -0.144 F 
ATOM     14  F   UNL d   1       0.902   0.189  -2.463  0.00  0.00    -0.144 F 
ATOM     15  F   UNL d   1       1.553  -0.646  -0.548  0.00  0.00    -0.144 F 
ENDBRANCH  11  12
ENDBRANCH   8  11
ENDBRANCH   2   5
BRANCH   1  16
ATOM     16  C   UNL d   1       3.066   7.537   3.676  0.00  0.00     0.185 C 
BRANCH  16  17
ATOM     17  S   UNL d   1       1.460   7.928   4.429  0.00  0.00    -0.085 SA
BRANCH  17  18
ATOM     18  C   UNL d   1       1.843   9.518   5.111  0.00  0.00     0.144 A 
ATOM     19  N   UNL d   1       3.115   9.954   5.079  0.00  0.00    -0.347 N 
ATOM     20  C   UNL d   1       3.345  11.171   5.601  0.00  0.00     0.091 A 
ATOM     21  HN  UNL d   1       3.866   9.390   4.680  1.00  0.00     0.167 HD
ATOM     22  C   UNL d   1       2.361  11.961   6.139  0.00  0.00     0.034 A 
ATOM     23  C   UNL d   1       1.095  11.423   6.122  0.00  0.00     0.091 A 
ATOM     24  N   UNL d   1       0.810  10.211   5.614  0.00  0.00    -0.347 N 
ATOM     25  HN  UNL d   1      -0.139   9.839   5.610  1.00  0.00     0.167 HD
ENDBRANCH  17  18
ENDBRANCH  16  17
ENDBRANCH   1  16
TORSDOF 6
