REMARK  3 active torsions:
REMARK  status: ('A' for Active; 'I' for Inactive)
REMARK    1  A    between atoms: N_6  and  S_1 
REMARK    2  A    between atoms: C_12  and  S_1 
REMARK    3  A    between atoms: C_11  and  C_5 
REMARK       I    between atoms: C_8  and  N_6 
REMARK       I    between atoms: N_10  and  C_8 
ROOT
ATOM      1  C   UNL d   1       2.213  -0.763  -2.202  0.00  0.00     0.153 A 
ATOM      2  N   UNL d   1       2.415   0.060  -1.208  0.00  0.00    -0.335 N 
ATOM      3  HN  UNL d   1       2.241  -0.145  -0.224  1.00  0.00     0.168 HD
ATOM      4  C   UNL d   1       2.908   1.263  -1.710  0.00  0.00     0.057 A 
ATOM      5  N   UNL d   1       0.675  -1.700  -0.006  0.00  0.00    -0.232 N 
ATOM      6  S   UNL d   1       2.712  -0.251  -3.742  0.00  0.00    -0.057 SA
ATOM      7  C   UNL d   1       0.783  -2.429  -1.184  0.00  0.00     0.335 C 
ATOM      8  C   UNL d   1       3.073   1.304  -3.090  0.00  0.00     0.010 A 
ATOM      9  N   UNL d   1       1.591  -1.970  -2.185  0.00  0.00    -0.288 N 
ATOM     10  O   UNL d   1       0.170  -3.470  -1.372  0.00  0.00    -0.246 OA
ATOM     11  C   UNL d   1       3.463   2.407  -4.015  0.00  0.00     0.059 C 
ATOM     12  H   UNL d   1       1.266  -0.879   0.141  0.00  0.00     0.183 HD
ATOM     13  H   UNL d   1       1.534  -2.487  -3.048  0.00  0.00     0.172 HD
ENDROOT
BRANCH   5  14
ATOM     14  S   UNL d   1      -0.394  -2.044   1.217  0.00  0.00     0.266 S 
ATOM     15  O   UNL d   1      -1.737  -2.013   0.675  0.00  0.00    -0.200 OA
ATOM     16  O   UNL d   1      -0.030  -1.202   2.336  0.00  0.00    -0.200 OA
BRANCH  14  17
ATOM     17  C   UNL d   1       0.015  -3.714   1.663  0.00  0.00     0.080 A 
ATOM     18  C   UNL d   1       1.255  -3.970   2.252  0.00  0.00     0.026 A 
ATOM     19  C   UNL d   1       1.649  -5.290   2.469  0.00  0.00     0.008 A 
ATOM     20  C   UNL d   1       0.807  -6.353   2.110  0.00  0.00    -0.062 A 
ATOM     21  C   UNL d   1      -0.465  -6.076   1.590  0.00  0.00     0.008 A 
ATOM     22  C   UNL d   1       1.300  -7.765   2.234  0.00  0.00     0.048 C 
ATOM     23  C   UNL d   1      -0.866  -4.757   1.370  0.00  0.00     0.026 A 
ENDBRANCH  14  17
ENDBRANCH   5  14
BRANCH   4  24
ATOM     24  C   UNL d   1       3.115   2.369  -0.783  0.00  0.00    -0.007 A 
ATOM     25  C   UNL d   1       3.671   2.113   0.478  0.00  0.00     0.038 A 
ATOM     26  C   UNL d   1       3.734   3.123   1.444  0.00  0.00     0.040 A 
ATOM     27 CL   UNL d   1       4.386   2.721   2.993  0.00  0.00    -0.084 Cl
ATOM     28  C   UNL d   1       3.250   4.409   1.166  0.00  0.00    -0.040 A 
ATOM     29  C   UNL d   1       2.729   4.667  -0.108  0.00  0.00     0.009 A 
ATOM     30  C   UNL d   1       3.237   5.501   2.198  0.00  0.00     0.050 C 
ATOM     31  C   UNL d   1       2.655   3.657  -1.068  0.00  0.00     0.014 A 
ENDBRANCH   4  24
TORSDOF 3
