REMARK  10 active torsions:
REMARK  status: ('A' for Active; 'I' for Inactive)
REMARK    1  A    between atoms: N_3  and  S_1 
REMARK    2  A    between atoms: C_7  and  S_1 
REMARK    3  A    between atoms: N_2  and  C_8 
REMARK    4  A    between atoms: C_4  and  N_3 
REMARK    5  A    between atoms: C_6  and  C_4 
REMARK    6  A    between atoms: C_13  and  C_4 
REMARK    7  A    between atoms: C_5  and  O_14 
REMARK    8  A    between atoms: O_25  and  C_6 
REMARK    9  A    between atoms: C_23  and  C_13 
REMARK   10  A    between atoms: O_14  and  C_24 
ROOT
ATOM      1  N   UNL d   1       0.602  -0.395  -1.516  0.00  0.00    -0.201 NA
ATOM      2  H   UNL d   1       0.934  -0.161  -0.577  0.00  0.00     0.141 HD
ENDROOT
BRANCH   1   3
ATOM      3  S   UNL d   1       0.819  -2.051  -1.790  0.00  0.00     0.242 S 
ATOM      4  O   UNL d   1       0.923  -2.275  -3.217  0.00  0.00    -0.206 OA
ATOM      5  O   UNL d   1      -0.177  -2.728  -0.996  0.00  0.00    -0.206 OA
BRANCH   3   6
ATOM      6  C   UNL d   1       2.388  -2.457  -1.061  0.00  0.00     0.074 A 
ATOM      7  C   UNL d   1       2.532  -2.438   0.331  0.00  0.00     0.027 A 
ATOM      8  C   UNL d   1       3.736  -2.860   0.913  0.00  0.00     0.038 A 
ATOM      9  C   UNL d   1       4.793  -3.285   0.107  0.00  0.00     0.078 A 
ATOM     10  C   UNL d   1       4.625  -3.325  -1.282  0.00  0.00     0.038 A 
ATOM     11  C   UNL d   1       3.429  -2.912  -1.870  0.00  0.00     0.027 A 
BRANCH   9  12
ATOM     12  O   UNL d   1       5.998  -3.754   0.532  0.00  0.00    -0.255 OA
BRANCH  12  13
ATOM     13  C   UNL d   1       6.560  -3.280   1.745  0.00  0.00     0.530 C 
ATOM     14  F   UNL d   1       5.929  -2.208   2.267  0.00  0.00    -0.144 F 
ATOM     15  F   UNL d   1       6.559  -4.275   2.658  0.00  0.00    -0.144 F 
ATOM     16  F   UNL d   1       7.844  -2.929   1.508  0.00  0.00    -0.144 F 
ENDBRANCH  12  13
ENDBRANCH   9  12
ENDBRANCH   3   6
ENDBRANCH   1   3
BRANCH   1  17
ATOM     17  C   UNL d   1       1.087   0.621  -2.510  0.00  0.00     0.173 C 
BRANCH  17  18
ATOM     18  C   UNL d   1       2.612   0.654  -2.563  0.00  0.00     0.159 C 
ATOM     19  O   UNL d   1       3.299   0.306  -1.607  0.00  0.00    -0.649 OA
BRANCH  18  20
ATOM     20  O   UNL d   1       3.189   1.203  -3.650  0.00  0.00    -0.775 OA
ATOM     21  H   UNL d   1       2.619   1.540  -4.363  0.00  0.00     0.167 HD
ENDBRANCH  18  20
ENDBRANCH  17  18
BRANCH  17  22
ATOM     22  C   UNL d   1       0.371   0.541  -3.870  0.00  0.00     0.070 C 
BRANCH  22  23
ATOM     23  C   UNL d   1      -1.140   0.618  -3.814  0.00  0.00    -0.056 A 
ATOM     24  C   UNL d   1      -1.774   1.818  -3.455  0.00  0.00     0.009 A 
ATOM     25  C   UNL d   1      -3.167   1.916  -3.462  0.00  0.00     0.036 A 
ATOM     26  C   UNL d   1      -3.936   0.806  -3.831  0.00  0.00     0.102 A 
ATOM     27  C   UNL d   1      -3.320  -0.402  -4.178  0.00  0.00     0.036 A 
ATOM     28  C   UNL d   1      -1.925  -0.491  -4.167  0.00  0.00     0.009 A 
BRANCH  26  29
ATOM     29  N   UNL d   1      -5.399   0.920  -3.871  0.00  0.00    -0.116 N 
ATOM     30  O   UNL d   1      -6.047  -0.074  -4.228  0.00  0.00    -0.532 OA
ATOM     31  O   UNL d   1      -5.901   2.009  -3.555  0.00  0.00    -0.532 OA
ENDBRANCH  26  29
ENDBRANCH  22  23
ENDBRANCH  17  22
ENDBRANCH   1  17
TORSDOF 10
