REMARK  3 active torsions:
REMARK  status: ('A' for Active; 'I' for Inactive)
REMARK    1  A    between atoms: C_2  and  C_6 
REMARK       I    between atoms: N_8  and  C_2 
REMARK    2  A    between atoms: C_12  and  N_8 
REMARK    3  A    between atoms: O_23  and  C_15 
ROOT
ATOM      1  C   UNL d   1       0.552  -0.472   0.046  0.00  0.00    -0.003 A 
ATOM      2  C   UNL d   1      -0.895  -0.433  -0.124  0.00  0.00    -0.018 A 
ATOM      3  C   UNL d   1      -1.286   0.905  -0.375  0.00  0.00    -0.042 A 
ATOM      4  C   UNL d   1       1.042   0.853  -0.106  0.00  0.00    -0.042 A 
ATOM      5  C   UNL d   1       1.465  -1.482   0.318  0.00  0.00     0.043 A 
ATOM      6  C   UNL d   1      -0.092   1.828  -0.337  0.00  0.00     0.078 A 
ATOM      7  C   UNL d   1      -1.861  -1.426  -0.103  0.00  0.00     0.014 A 
ATOM      8  C   UNL d   1      -2.604   1.264  -0.617  0.00  0.00     0.026 A 
ATOM      9  C   UNL d   1      -3.559   0.251  -0.621  0.00  0.00     0.007 A 
ATOM     10  C   UNL d   1      -3.197  -1.081  -0.364  0.00  0.00     0.019 A 
ATOM     11  C   UNL d   1       2.391   1.173  -0.023  0.00  0.00     0.008 A 
ATOM     12  I   UNL d   1      -5.547   0.721  -1.017  0.00  0.00    -0.045 I 
ATOM     13  C   UNL d   1       2.836  -1.166   0.405  0.00  0.00     0.018 A 
ATOM     14  C   UNL d   1       3.295   0.145   0.226  0.00  0.00     0.002 A 
ENDROOT
BRANCH   5  15
ATOM     15  C   UNL d   1       1.127  -2.891   0.594  0.00  0.00     0.257 C 
ATOM     16  N   UNL d   1       0.675  -3.611  -0.493  0.00  0.00    -0.323 N 
ATOM     17  H   UNL d   1       0.417  -3.089  -1.322  0.00  0.00     0.169 HD
ATOM     18  O   UNL d   1       1.356  -3.312   1.723  0.00  0.00    -0.267 OA
BRANCH  16  19
ATOM     19  C   UNL d   1       0.632  -5.019  -0.597  0.00  0.00     0.035 A 
ATOM     20  C   UNL d   1       1.195  -5.883   0.348  0.00  0.00     0.032 A 
ATOM     21  C   UNL d   1       1.240  -7.266   0.121  0.00  0.00     0.039 A 
ATOM     22  C   UNL d   1       0.721  -7.796  -1.056  0.00  0.00     0.068 A 
ATOM     23  C   UNL d   1       0.085  -6.952  -1.964  0.00  0.00     0.039 A 
ATOM     24  C   UNL d   1       0.054  -5.570  -1.745  0.00  0.00     0.032 A 
BRANCH  22  25
ATOM     25  O   UNL d   1       0.761  -9.119  -1.395  0.00  0.00    -0.356 OA
ATOM     26  C   UNL d   1       1.964  -9.799  -1.042  0.00  0.00     0.210 C 
ENDBRANCH  22  25
ENDBRANCH  16  19
ENDBRANCH   5  15
TORSDOF 3
