REMARK  7 active torsions:
REMARK  status: ('A' for Active; 'I' for Inactive)
REMARK    1  A    between atoms: N_2  and  C_1 
REMARK       I    between atoms: C_3  and  N_5 
REMARK    2  A    between atoms: C_7  and  C_3 
REMARK    3  A    between atoms: S_6  and  C_4 
REMARK    4  A    between atoms: N_5  and  C_9 
REMARK    5  A    between atoms: C_10  and  S_6 
REMARK    6  A    between atoms: O_22  and  C_12 
REMARK    7  A    between atoms: O_24  and  C_15 
ROOT
ATOM      1  C   UNL d   1       4.196   2.260   0.759  0.00  0.00     0.052 A 
ATOM      2  C   UNL d   1       4.396   1.755  -0.550  0.00  0.00     0.032 A 
ATOM      3  C   UNL d   1       4.892   3.421   1.144  0.00  0.00     0.031 A 
ATOM      4  C   UNL d   1       5.371   2.357  -1.374  0.00  0.00     0.021 A 
ATOM      5  C   UNL d   1       6.103   3.461  -0.940  0.00  0.00     0.002 A 
ATOM      6  C   UNL d   1       5.844   4.010   0.307  0.00  0.00     0.002 A 
ENDROOT
BRANCH   1   7
ATOM      7  N   UNL d   1       3.355   1.708   1.778  0.00  0.00    -0.322 N 
ATOM      8  C   UNL d   1       3.167   0.355   1.997  0.00  0.00     0.256 C 
ATOM      9  O   UNL d   1       3.599  -0.559   1.302  0.00  0.00    -0.267 OA
ATOM     10  H   UNL d   1       3.124   2.324   2.539  0.00  0.00     0.169 HD
BRANCH   8  11
ATOM     11  C   UNL d   1       2.495  -0.071   3.254  0.00  0.00     0.035 A 
ATOM     12  C   UNL d   1       2.712   0.560   4.486  0.00  0.00     0.056 A 
ATOM     13  C   UNL d   1       2.282  -0.052   5.678  0.00  0.00     0.102 A 
ATOM     14  C   UNL d   1       1.666  -1.316   5.633  0.00  0.00     0.101 A 
ATOM     15  C   UNL d   1       1.388  -1.900   4.394  0.00  0.00     0.040 A 
ATOM     16  C   UNL d   1       1.803  -1.288   3.215  0.00  0.00     0.020 A 
BRANCH  13  17
ATOM     17  O   UNL d   1       2.535   0.504   6.906  0.00  0.00    -0.353 OA
ATOM     18  C   UNL d   1       2.361   1.913   6.994  0.00  0.00     0.210 C 
ENDBRANCH  13  17
BRANCH  14  19
ATOM     19  O   UNL d   1       1.260  -2.085   6.691  0.00  0.00    -0.353 OA
ATOM     20  C   UNL d   1       1.998  -1.963   7.901  0.00  0.00     0.210 C 
ENDBRANCH  14  19
ENDBRANCH   8  11
ENDBRANCH   1   7
BRANCH   2  21
ATOM     21  S   UNL d   1       3.285   0.612  -1.381  0.00  0.00    -0.086 SA
BRANCH  21  22
ATOM     22  C   UNL d   1       4.319  -0.774  -1.863  0.00  0.00     0.038 A 
ATOM     23  C   UNL d   1       4.085  -1.519  -3.031  0.00  0.00     0.121 A 
ATOM     24  C   UNL d   1       4.772  -2.710  -3.323  0.00  0.00     0.061 A 
ATOM     25  C   UNL d   1       5.726  -3.170  -2.425  0.00  0.00     0.036 A 
ATOM     26  C   UNL d   1       6.009  -2.444  -1.273  0.00  0.00     0.025 A 
ATOM     27 CL   UNL d   1       6.554  -4.644  -2.734  0.00  0.00    -0.084 Cl
ATOM     28  C   UNL d   1       5.317  -1.256  -1.001  0.00  0.00     0.023 A 
BRANCH  23  29
ATOM     29  N   UNL d   1       3.122  -1.073  -4.016  0.00  0.00    -0.114 N 
ATOM     30  O   UNL d   1       3.375  -0.018  -4.615  0.00  0.00    -0.532 OA
ATOM     31  O   UNL d   1       2.163  -1.822  -4.245  0.00  0.00    -0.532 OA
ENDBRANCH  23  29
ENDBRANCH  21  22
ENDBRANCH   2  21
TORSDOF 7
