REMARK  4 active torsions:
REMARK  status: ('A' for Active; 'I' for Inactive)
REMARK       I    between atoms: N_2  and  C_1 
REMARK       I    between atoms: N_5  and  C_1 
REMARK    1  A    between atoms: C_3  and  N_2 
REMARK    2  A    between atoms: C_4  and  C_7 
REMARK    3  A    between atoms: C_7  and  N_5 
REMARK    4  A    between atoms: S_10  and  C_8 
ROOT
ATOM      1  C   UNL d   1       0.753  -0.011   0.538  0.00  0.00     0.321 C 
ATOM      2  N   UNL d   1       0.107   1.191   0.375  0.00  0.00    -0.308 N 
ATOM      3  N   UNL d   1      -0.017  -1.131   0.498  0.00  0.00    -0.339 N 
ATOM      4  O   UNL d   1       1.974  -0.024   0.685  0.00  0.00    -0.247 OA
ATOM      5  H   UNL d   1       0.787   1.855   0.022  0.00  0.00     0.170 HD
ATOM      6  H   UNL d   1      -1.006  -1.039   0.318  0.00  0.00     0.164 HD
ENDROOT
BRANCH   2   7
ATOM      7  C   UNL d   1      -1.189   1.299  -0.162  0.00  0.00     0.053 A 
ATOM      8  C   UNL d   1      -2.339   1.400   0.645  0.00  0.00     0.027 A 
ATOM      9  C   UNL d   1      -3.588   1.384  -0.006  0.00  0.00     0.021 A 
ATOM     10  C   UNL d   1      -3.695   1.276  -1.395  0.00  0.00     0.002 A 
ATOM     11  C   UNL d   1      -2.548   1.205  -2.174  0.00  0.00     0.002 A 
ATOM     12  C   UNL d   1      -1.298   1.232  -1.562  0.00  0.00     0.031 A 
BRANCH   8  13
ATOM     13  S   UNL d   1      -2.478   1.544   2.430  0.00  0.00    -0.132 SA
ATOM     14  C   UNL d   1      -0.802   1.835   3.053  0.00  0.00     0.095 C 
ENDBRANCH   8  13
ENDBRANCH   2   7
BRANCH   3  15
ATOM     15  C   UNL d   1       0.530  -2.468   0.527  0.00  0.00     0.166 C 
BRANCH  15  16
ATOM     16  C   UNL d   1       0.446  -3.129  -0.824  0.00  0.00    -0.002 A 
ATOM     17  C   UNL d   1      -0.365  -4.248  -1.020  0.00  0.00     0.124 A 
ATOM     18  F   UNL d   1      -1.087  -4.741  -0.000  0.00  0.00    -0.205 F 
ATOM     19  C   UNL d   1      -0.452  -4.883  -2.257  0.00  0.00     0.043 A 
ATOM     20  C   UNL d   1       0.289  -4.395  -3.334  0.00  0.00     0.003 A 
ATOM     21  C   UNL d   1       1.112  -3.283  -3.161  0.00  0.00     0.001 A 
ATOM     22  C   UNL d   1       1.191  -2.655  -1.914  0.00  0.00     0.012 A 
ENDBRANCH  15  16
ENDBRANCH   3  15
TORSDOF 4
