REMARK  3 active torsions:
REMARK  status: ('A' for Active; 'I' for Inactive)
REMARK    1  A    between atoms: C_11  and  N_1 
REMARK    2  A    between atoms: C_13  and  N_3 
REMARK    3  A    between atoms: C_15  and  C_11 
ROOT
ATOM      1  N   UNL d   1       2.098   0.662   0.022  0.00  0.00    -0.260 N 
ATOM      2  C   UNL d   1       2.129  -0.743   0.168  0.00  0.00     0.338 A 
ATOM      3  N   UNL d   1       0.897  -1.421   0.084  0.00  0.00    -0.247 N 
ATOM      4  C   UNL d   1      -0.278  -0.698   0.021  0.00  0.00     0.150 A 
ATOM      5  C   UNL d   1      -0.248   0.666  -0.036  0.00  0.00     0.147 A 
ATOM      6  C   UNL d   1       0.942   1.433  -0.056  0.00  0.00     0.282 A 
ATOM      7  N   UNL d   1      -1.568  -1.151  -0.020  0.00  0.00    -0.336 N 
ATOM      8  HN  UNL d   1      -1.884  -2.121  -0.021  1.00  0.00     0.168 HD
ATOM      9  N   UNL d   1      -1.549   1.069  -0.070  0.00  0.00    -0.345 N 
ATOM     10  C   UNL d   1      -2.316  -0.065  -0.059  0.00  0.00     0.182 A 
ATOM     11  O   UNL d   1       3.191  -1.324   0.419  0.00  0.00    -0.246 OA
ATOM     12  O   UNL d   1       0.922   2.663  -0.116  0.00  0.00    -0.265 OA
ATOM     13  H   UNL d   1      -1.879   2.026  -0.096  0.00  0.00     0.167 HD
ENDROOT
BRANCH   1  14
ATOM     14  C   UNL d   1       3.376   1.371   0.040  0.00  0.00     0.175 C 
BRANCH  14  15
ATOM     15  C   UNL d   1       4.016   1.427  -1.332  0.00  0.00    -0.040 A 
ATOM     16  C   UNL d   1       3.738   2.486  -2.209  0.00  0.00     0.009 A 
ATOM     17  C   UNL d   1       4.256   2.486  -3.506  0.00  0.00     0.001 A 
ATOM     18  C   UNL d   1       5.060   1.433  -3.938  0.00  0.00     0.000 A 
ATOM     19  C   UNL d   1       5.372   0.394  -3.065  0.00  0.00     0.001 A 
ATOM     20  C   UNL d   1       4.856   0.392  -1.768  0.00  0.00     0.009 A 
ENDBRANCH  14  15
ENDBRANCH   1  14
BRANCH   3  21
ATOM     21  C   UNL d   1       0.831  -2.842   0.135  0.00  0.00     0.045 A 
ATOM     22  C   UNL d   1      -0.053  -3.505   0.998  0.00  0.00     0.030 A 
ATOM     23  C   UNL d   1      -0.026  -4.898   1.112  0.00  0.00     0.002 A 
ATOM     24  C   UNL d   1       0.858  -5.647   0.337  0.00  0.00     0.000 A 
ATOM     25  C   UNL d   1       1.713  -5.006  -0.554  0.00  0.00     0.002 A 
ATOM     26  C   UNL d   1       1.708  -3.612  -0.645  0.00  0.00     0.030 A 
ENDBRANCH   3  21
TORSDOF 3
