REMARK  4 active torsions:
REMARK  status: ('A' for Active; 'I' for Inactive)
REMARK    1  A    between atoms: C_6  and  S_1 
REMARK    2  A    between atoms: N_7  and  S_1 
REMARK    3  A    between atoms: S_2  and  C_5 
REMARK    4  A    between atoms: N_8  and  S_2 
ROOT
ATOM      1  C   UNL d   1      -0.383  -3.666  -5.023  0.00  0.00    -0.041 A 
ATOM      2  C   UNL d   1       0.172  -2.381  -3.127  0.00  0.00    -0.041 A 
ATOM      3  C   UNL d   1      -1.040  -4.264  -7.231  0.00  0.00     0.075 A 
ATOM      4  C   UNL d   1       0.511  -0.520  -1.679  0.00  0.00     0.075 A 
ATOM      5  C   UNL d   1      -0.634  -2.305  -5.311  0.00  0.00    -0.019 A 
ATOM      6  C   UNL d   1      -0.312  -1.517  -4.137  0.00  0.00    -0.019 A 
ATOM      7  C   UNL d   1       0.150  -3.817  -3.612  0.00  0.00     0.078 A 
ATOM      8  C   UNL d   1       0.588  -1.900  -1.893  0.00  0.00     0.033 A 
ATOM      9  C   UNL d   1      -0.593  -4.661  -5.966  0.00  0.00     0.033 A 
ATOM     10  C   UNL d   1      -1.078  -1.920  -6.567  0.00  0.00     0.014 A 
ATOM     11  C   UNL d   1      -0.413  -0.154  -3.908  0.00  0.00     0.014 A 
ATOM     12  C   UNL d   1      -0.001   0.347  -2.667  0.00  0.00     0.026 A 
ATOM     13  C   UNL d   1      -1.274  -2.909  -7.539  0.00  0.00     0.026 A 
ENDROOT
BRANCH   3  14
ATOM     14  S   UNL d   1      -1.316  -5.488  -8.491  0.00  0.00     0.243 S 
ATOM     15  O   UNL d   1      -0.479  -5.131  -9.617  0.00  0.00    -0.206 OA
ATOM     16  O   UNL d   1      -1.236  -6.798  -7.883  0.00  0.00    -0.206 OA
BRANCH  14  17
ATOM     17  N   UNL d   1      -2.963  -5.234  -8.932  0.00  0.00    -0.206 NA
ATOM     18  C   UNL d   1      -3.916  -5.321  -7.789  0.00  0.00     0.107 C 
ATOM     19  C   UNL d   1      -5.354  -5.697  -8.126  0.00  0.00     0.015 C 
ATOM     20  C   UNL d   1      -6.022  -4.774  -9.141  0.00  0.00     0.001 C 
ATOM     21  C   UNL d   1      -5.754  -5.189 -10.583  0.00  0.00     0.001 C 
ATOM     22  C   UNL d   1      -4.293  -5.090 -11.006  0.00  0.00     0.015 C 
ATOM     23  C   UNL d   1      -3.344  -5.954 -10.177  0.00  0.00     0.107 C 
ENDBRANCH  14  17
ENDBRANCH   3  14
BRANCH   4  24
ATOM     24  S   UNL d   1       0.983   0.139  -0.095  0.00  0.00     0.243 S 
ATOM     25  O   UNL d   1       0.313  -0.664   0.908  0.00  0.00    -0.206 OA
ATOM     26  O   UNL d   1       0.819   1.578  -0.132  0.00  0.00    -0.206 OA
BRANCH  24  27
ATOM     27  N   UNL d   1       2.679  -0.166   0.027  0.00  0.00    -0.206 NA
ATOM     28  C   UNL d   1       3.516   0.533  -0.980  0.00  0.00     0.107 C 
ATOM     29  C   UNL d   1       4.697  -0.353  -1.377  0.00  0.00     0.015 C 
ATOM     30  C   UNL d   1       5.894  -0.260  -0.436  0.00  0.00     0.001 C 
ATOM     31  C   UNL d   1       5.598  -0.655   1.006  0.00  0.00     0.001 C 
ATOM     32  C   UNL d   1       4.604   0.280   1.684  0.00  0.00     0.015 C 
ATOM     33  C   UNL d   1       3.136  -0.062   1.448  0.00  0.00     0.107 C 
ENDBRANCH  24  27
ENDBRANCH   4  24
TORSDOF 4
