REMARK  7 active torsions:
REMARK  status: ('A' for Active; 'I' for Inactive)
REMARK    1  A    between atoms: C_7  and  C_1 
REMARK    2  A    between atoms: C_2  and  C_5 
REMARK    3  A    between atoms: C_6  and  C_9 
REMARK    4  A    between atoms: O_16  and  C_7 
REMARK    5  A    between atoms: C_17  and  C_8 
REMARK    6  A    between atoms: N_29  and  C_8 
REMARK    7  A    between atoms: N_11  and  O_16 
ROOT
ATOM      1  C   UNL d   1      -2.397   4.694  -0.015  0.00  0.00     0.125 C 
ATOM      2  N   UNL d   1      -1.736   3.601  -0.251  0.00  0.00    -0.244 N 
ATOM      3  HN  UNL d   1      -0.749   3.591  -0.506  1.00  0.00     0.196 HD
ENDROOT
BRANCH   2   4
ATOM      4  O   UNL d   1      -2.516   2.417  -0.121  0.00  0.00    -0.192 OA
BRANCH   4   5
ATOM      5  C   UNL d   1      -1.671   1.343  -0.306  0.00  0.00     0.333 C 
ATOM      6  O   UNL d   1      -0.474   1.429  -0.544  0.00  0.00    -0.256 OA
BRANCH   5   7
ATOM      7  C   UNL d   1      -2.389   0.026  -0.186  0.00  0.00     0.132 A 
ATOM      8  N   UNL d   1      -3.714   0.062   0.163  0.00  0.00    -0.359 N 
ATOM      9  C   UNL d   1      -4.369  -1.125   0.292  0.00  0.00     0.105 A 
ATOM     10  HN  UNL d   1      -4.193   0.948   0.321  1.00  0.00     0.165 HD
ATOM     11  C   UNL d   1      -3.785  -2.367   0.085  0.00  0.00     0.065 A 
ATOM     12  C   UNL d   1      -2.436  -2.381  -0.272  0.00  0.00     0.044 A 
ATOM     13  C   UNL d   1      -1.721  -1.185  -0.411  0.00  0.00     0.067 A 
ATOM     14 CL   UNL d   1      -0.065  -1.363  -0.865  0.00  0.00    -0.082 Cl
BRANCH  11  15
ATOM     15  C   UNL d   1      -4.577  -3.632   0.242  0.00  0.00     0.418 C 
ATOM     16  F   UNL d   1      -3.850  -4.755  -0.015  0.00  0.00    -0.166 F 
ATOM     17  F   UNL d   1      -5.071  -3.787   1.499  0.00  0.00    -0.166 F 
ATOM     18  F   UNL d   1      -5.648  -3.683  -0.595  0.00  0.00    -0.166 F 
ENDBRANCH  11  15
ENDBRANCH   5   7
ENDBRANCH   4   5
ENDBRANCH   2   4
BRANCH   1  19
ATOM     19  C   UNL d   1      -1.641   6.010  -0.091  0.00  0.00     0.072 A 
ATOM     20  N   UNL d   1      -2.388   7.129   0.134  0.00  0.00    -0.362 N 
ATOM     21  C   UNL d   1      -1.725   8.315   0.125  0.00  0.00     0.104 A 
ATOM     22  HN  UNL d   1      -3.393   7.078   0.300  1.00  0.00     0.165 HD
ATOM     23  C   UNL d   1      -0.361   8.450  -0.113  0.00  0.00     0.063 A 
ATOM     24  C   UNL d   1       0.367   7.283  -0.374  0.00  0.00     0.020 A 
ATOM     25  C   UNL d   1      -0.278   6.045  -0.362  0.00  0.00     0.034 A 
BRANCH  23  26
ATOM     26  C   UNL d   1       0.302   9.795  -0.075  0.00  0.00     0.418 C 
ATOM     27  F   UNL d   1      -0.553  10.816   0.213  0.00  0.00    -0.166 F 
ATOM     28  F   UNL d   1       1.288   9.864   0.863  0.00  0.00    -0.166 F 
ATOM     29  F   UNL d   1       0.889  10.125  -1.258  0.00  0.00    -0.166 F 
ENDBRANCH  23  26
ENDBRANCH   1  19
BRANCH   1  30
ATOM     30  N   UNL d   1      -3.737   4.745   0.290  0.00  0.00    -0.285 NA
ATOM     31  H   UNL d   1      -4.272   3.947  -0.028  0.00  0.00     0.125 HD
ATOM     32  H   UNL d   1      -4.165   5.652   0.122  0.00  0.00     0.125 HD
ENDBRANCH   1  30
TORSDOF 7
