REMARK  6 active torsions:
REMARK  status: ('A' for Active; 'I' for Inactive)
REMARK       I    between atoms: N_3  and  C_1 
REMARK       I    between atoms: N_6  and  C_1 
REMARK    1  A    between atoms: C_2  and  O_8 
REMARK    2  A    between atoms: C_4  and  N_3 
REMARK    3  A    between atoms: C_16  and  N_6 
REMARK    4  A    between atoms: O_8  and  C_17 
REMARK    5  A    between atoms: O_11  and  C_19 
REMARK    6  A    between atoms: C_20  and  O_11 
ROOT
ATOM      1  C   UNL d   1      -1.070  -0.920  -0.629  0.00  0.00     0.036 A 
ATOM      2  C   UNL d   1      -3.863  -0.892  -0.852  0.00  0.00     0.076 A 
ATOM      3  C   UNL d   1      -1.738   0.261  -0.958  0.00  0.00     0.032 A 
ATOM      4  C   UNL d   1      -1.798  -2.107  -0.494  0.00  0.00     0.032 A 
ATOM      5  C   UNL d   1      -3.195  -2.085  -0.594  0.00  0.00     0.039 A 
ATOM      6  C   UNL d   1      -3.127   0.271  -1.101  0.00  0.00     0.039 A 
ENDROOT
BRANCH   1   7
ATOM      7  N   UNL d   1       0.329  -0.970  -0.479  0.00  0.00    -0.309 N 
ATOM      8  C   UNL d   1       1.117   0.109  -0.107  0.00  0.00     0.325 C 
ATOM      9  N   UNL d   1       2.446  -0.142  -0.404  0.00  0.00    -0.306 N 
ATOM     10  O   UNL d   1       0.700   1.150   0.385  0.00  0.00    -0.247 OA
ATOM     11  H   UNL d   1       2.575  -0.696  -1.243  0.00  0.00     0.171 HD
ATOM     12  H   UNL d   1       0.753  -1.873  -0.340  0.00  0.00     0.170 HD
BRANCH   9  13
ATOM     13  C   UNL d   1       3.479   0.779  -0.131  0.00  0.00     0.075 A 
ATOM     14  C   UNL d   1       4.498   0.928  -1.079  0.00  0.00     0.146 A 
ATOM     15  C   UNL d   1       5.520   1.851  -0.902  0.00  0.00     0.086 A 
ATOM     16  F   UNL d   1       4.461   0.200  -2.207  0.00  0.00    -0.204 F 
ATOM     17  C   UNL d   1       5.542   2.606   0.262  0.00  0.00     0.119 A 
ATOM     18  C   UNL d   1       4.564   2.449   1.241  0.00  0.00     0.044 A 
ATOM     19  F   UNL d   1       6.522   3.500   0.448  0.00  0.00    -0.206 F 
ATOM     20  C   UNL d   1       3.523   1.538   1.043  0.00  0.00     0.036 A 
ENDBRANCH   9  13
ENDBRANCH   1   7
BRANCH   2  21
ATOM     21  O   UNL d   1      -5.235  -0.941  -0.898  0.00  0.00    -0.311 OA
BRANCH  21  22
ATOM     22  C   UNL d   1      -5.968   0.108  -0.386  0.00  0.00     0.076 A 
ATOM     23  C   UNL d   1      -7.231   0.297  -0.944  0.00  0.00     0.040 A 
ATOM     24  C   UNL d   1      -8.051   1.331  -0.484  0.00  0.00     0.040 A 
ATOM     25  C   UNL d   1      -7.626   2.179   0.544  0.00  0.00     0.078 A 
ATOM     26  C   UNL d   1      -6.357   2.000   1.089  0.00  0.00     0.040 A 
ATOM     27  C   UNL d   1      -5.551   0.939   0.658  0.00  0.00     0.040 A 
BRANCH  25  28
ATOM     28  O   UNL d   1      -8.525   3.140   0.890  0.00  0.00    -0.255 OA
BRANCH  28  29
ATOM     29  C   UNL d   1      -8.494   3.694   2.197  0.00  0.00     0.530 C 
ATOM     30  F   UNL d   1      -7.780   2.973   3.087  0.00  0.00    -0.144 F 
ATOM     31  F   UNL d   1      -7.996   4.948   2.146  0.00  0.00    -0.144 F 
ATOM     32  F   UNL d   1      -9.765   3.764   2.656  0.00  0.00    -0.144 F 
ENDBRANCH  28  29
ENDBRANCH  25  28
ENDBRANCH  21  22
ENDBRANCH   2  21
TORSDOF 6
