REMARK  6 active torsions:
REMARK  status: ('A' for Active; 'I' for Inactive)
REMARK    1  A    between atoms: C_2  and  S_1 
REMARK    2  A    between atoms: C_3  and  S_1 
REMARK    3  A    between atoms: C_4  and  C_6 
REMARK    4  A    between atoms: C_5  and  C_7 
REMARK    5  A    between atoms: N_15  and  C_8 
REMARK    6  A    between atoms: C_16  and  N_15 
ROOT
ATOM      1  C   UNL d   1       0.553  -1.609  -0.346  0.00  0.00     0.159 C 
ATOM      2  C   UNL d   1      -0.136  -2.318   0.564  0.00  0.00     0.123 C 
ATOM      3  C   UNL d   1       0.997  -0.289  -0.123  0.00  0.00     0.113 C 
ATOM      4  N   UNL d   1       1.369   0.785   0.108  0.00  0.00    -0.191 NA
ENDROOT
BRANCH   1   5
ATOM      5  S   UNL d   1       0.859  -2.308  -1.901  0.00  0.00     0.219 S 
ATOM      6  O   UNL d   1       0.186  -1.483  -2.892  0.00  0.00    -0.216 OA
ATOM      7  O   UNL d   1       0.601  -3.737  -1.893  0.00  0.00    -0.216 OA
BRANCH   5   8
ATOM      8  C   UNL d   1       2.606  -2.135  -2.191  0.00  0.00     0.086 A 
ATOM      9  C   UNL d   1       3.554  -2.730  -1.355  0.00  0.00     0.056 A 
ATOM     10 CL   UNL d   1       3.164  -3.580   0.095  0.00  0.00    -0.083 Cl
ATOM     11  C   UNL d   1       4.912  -2.647  -1.688  0.00  0.00     0.025 A 
ATOM     12  C   UNL d   1       5.320  -1.984  -2.847  0.00  0.00     0.002 A 
ATOM     13  C   UNL d   1       4.374  -1.387  -3.676  0.00  0.00     0.002 A 
ATOM     14  C   UNL d   1       3.019  -1.460  -3.352  0.00  0.00     0.025 A 
ENDBRANCH   5   8
ENDBRANCH   1   5
BRANCH   2  15
ATOM     15  N   UNL d   1      -0.583  -1.932   1.810  0.00  0.00    -0.364 N 
ATOM     16  H   UNL d   1      -0.563  -0.939   2.036  0.00  0.00     0.165 HD
BRANCH  15  17
ATOM     17  C   UNL d   1      -1.138  -2.763   2.796  0.00  0.00     0.033 A 
ATOM     18  C   UNL d   1      -0.769  -4.106   2.940  0.00  0.00     0.045 A 
ATOM     19  C   UNL d   1      -1.382  -4.938   3.894  0.00  0.00     0.050 A 
ATOM     20  C   UNL d   1      -2.408  -4.413   4.693  0.00  0.00     0.032 A 
ATOM     21  C   UNL d   1      -2.820  -3.081   4.547  0.00  0.00     0.050 A 
ATOM     22  C   UNL d   1      -2.167  -2.266   3.605  0.00  0.00     0.045 A 
BRANCH  19  23
ATOM     23  C   UNL d   1      -0.928  -6.372   4.033  0.00  0.00     0.417 C 
ATOM     24  F   UNL d   1      -1.650  -7.082   4.943  0.00  0.00    -0.166 F 
ATOM     25  F   UNL d   1      -1.020  -7.061   2.863  0.00  0.00    -0.166 F 
ATOM     26  F   UNL d   1       0.371  -6.470   4.427  0.00  0.00    -0.166 F 
ENDBRANCH  19  23
BRANCH  21  27
ATOM     27  C   UNL d   1      -3.962  -2.516   5.358  0.00  0.00     0.417 C 
ATOM     28  F   UNL d   1      -4.549  -3.429   6.180  0.00  0.00    -0.166 F 
ATOM     29  F   UNL d   1      -3.573  -1.485   6.156  0.00  0.00    -0.166 F 
ATOM     30  F   UNL d   1      -4.959  -2.026   4.571  0.00  0.00    -0.166 F 
ENDBRANCH  21  27
ENDBRANCH  15  17
ENDBRANCH   2  15
TORSDOF 6
