REMARK  2 active torsions:
REMARK  status: ('A' for Active; 'I' for Inactive)
REMARK    1  A    between atoms: C_6  and  C_4 
REMARK    2  A    between atoms: O_13  and  N_7 
ROOT
ATOM      1  C   UNL d   1       7.235   0.101  -0.015  0.00  0.00    -0.021 A 
ATOM      2  O   UNL d   1       8.370   2.100  -0.149  0.00  0.00    -0.345 OA
ATOM      3  C   UNL d   1       7.156   1.475  -0.095  0.00  0.00     0.075 A 
ATOM      4  C   UNL d   1       4.840  -0.042  -0.010  0.00  0.00    -0.011 A 
ATOM      5  C   UNL d   1       6.091  -0.676   0.029  0.00  0.00     0.023 A 
ATOM      6  C   UNL d   1       8.645  -0.331   0.007  0.00  0.00     0.073 A 
ATOM      7  C   UNL d   1       9.352   1.033  -0.047  0.00  0.00     0.129 A 
ATOM      8  C   UNL d   1       5.941   2.132  -0.119  0.00  0.00     0.038 A 
ATOM      9  C   UNL d   1       4.769   1.363  -0.070  0.00  0.00     0.016 A 
ATOM     10  C   UNL d   1      10.308   1.132  -1.229  0.00  0.00     0.040 C 
ENDROOT
BRANCH   4  11
ATOM     11  C   UNL d   1       3.620  -0.906   0.026  0.00  0.00     0.038 C 
ATOM     12  N   UNL d   1       3.703  -2.068   0.615  0.00  0.00    -0.273 N 
ATOM     13  HN  UNL d   1       4.546  -2.419   1.068  1.00  0.00     0.193 HD
ATOM     14  C   UNL d   1       2.353  -0.426  -0.652  0.00  0.00     0.071 C 
BRANCH  12  15
ATOM     15  O   UNL d   1       2.498  -2.772   0.549  0.00  0.00    -0.290 OA
ATOM     16  H   UNL d   1       2.719  -3.601   1.012  0.00  0.00     0.244 HD
ENDBRANCH  12  15
ENDBRANCH   4  11
TORSDOF 2
