REMARK  5 active torsions:
REMARK  status: ('A' for Active; 'I' for Inactive)
REMARK    1  A    between atoms: C_2  and  C_1 
REMARK       I    between atoms: N_5  and  C_2 
REMARK    2  A    between atoms: C_4  and  C_7 
REMARK    3  A    between atoms: C_9  and  N_5 
REMARK    4  A    between atoms: C_13  and  C_6 
REMARK    5  A    between atoms: O_14  and  C_12 
ROOT
ATOM      1  C   UNL d   1      -0.368  -0.978  -0.038  0.00  0.00     0.144 A 
ATOM      2  O   UNL d   1       0.956  -0.608   0.015  0.00  0.00    -0.296 OA
ATOM      3  C   UNL d   1       0.967   0.755   0.013  0.00  0.00     0.130 A 
ATOM      4  C   UNL d   1      -1.167   0.152  -0.044  0.00  0.00     0.046 A 
ATOM      5  C   UNL d   1      -0.307   1.267  -0.012  0.00  0.00     0.050 A 
ENDROOT
BRANCH   1   6
ATOM      6  C   UNL d   1      -0.774  -2.369  -0.079  0.00  0.00     0.280 C 
ATOM      7  N   UNL d   1       0.243  -3.292   0.136  0.00  0.00    -0.319 N 
ATOM      8  H   UNL d   1       1.122  -2.903   0.437  0.00  0.00     0.169 HD
ATOM      9  O   UNL d   1      -1.957  -2.669  -0.226  0.00  0.00    -0.265 OA
BRANCH   7  10
ATOM     10  C   UNL d   1       0.000  -4.681   0.283  0.00  0.00     0.068 A 
ATOM     11  C   UNL d   1       0.647  -5.494   1.231  0.00  0.00     0.095 A 
ATOM     12  C   UNL d   1       0.267  -6.849   1.331  0.00  0.00     0.039 A 
ATOM     13  C   UNL d   1      -0.703  -7.409   0.500  0.00  0.00     0.003 A 
ATOM     14  C   UNL d   1      -1.297  -6.624  -0.473  0.00  0.00     0.002 A 
ATOM     15  C   UNL d   1      -0.945  -5.279  -0.577  0.00  0.00     0.032 A 
BRANCH  11  16
ATOM     16  O   UNL d   1       1.598  -5.196   2.167  0.00  0.00    -0.354 OA
ATOM     17  C   UNL d   1       1.995  -3.864   2.418  0.00  0.00     0.210 C 
ENDBRANCH  11  16
ENDBRANCH   7  10
ENDBRANCH   1   6
BRANCH   3  18
ATOM     18  C   UNL d   1       2.211   1.434   0.017  0.00  0.00    -0.036 C 
ATOM     19  C   UNL d   1       3.198   2.116  -0.003  0.00  0.00    -0.059 C 
BRANCH  19  20
ATOM     20  C   UNL d   1       4.333   2.989  -0.050  0.00  0.00     0.018 A 
ATOM     21  C   UNL d   1       4.158   4.375   0.023  0.00  0.00     0.020 A 
ATOM     22  C   UNL d   1       5.265   5.226  -0.032  0.00  0.00     0.001 A 
ATOM     23  C   UNL d   1       6.547   4.692  -0.162  0.00  0.00     0.000 A 
ATOM     24  C   UNL d   1       6.723   3.311  -0.235  0.00  0.00     0.001 A 
ATOM     25  C   UNL d   1       5.617   2.459  -0.179  0.00  0.00     0.020 A 
ENDBRANCH  19  20
ENDBRANCH   3  18
TORSDOF 5
