REMARK  4 active torsions:
REMARK  status: ('A' for Active; 'I' for Inactive)
REMARK    1  A    between atoms: C_11  and  C_3 
REMARK    2  A    between atoms: C_8  and  C_7 
REMARK    3  A    between atoms: O_16  and  C_9 
REMARK    4  A    between atoms: O_17  and  C_14 
ROOT
ATOM      1  N   UNL d   1      -0.746   0.085   0.383  0.00  0.00    -0.331 N 
ATOM      2  HN  UNL d   1      -1.730  -0.167   0.468  1.00  0.00     0.168 HD
ATOM      3  C   UNL d   1      -0.218   1.262   0.286  0.00  0.00     0.162 A 
ATOM      4  C   UNL d   1       0.347  -0.737   0.343  0.00  0.00     0.111 A 
ATOM      5  O   UNL d   1       1.134   1.343   0.227  0.00  0.00    -0.256 OA
ATOM      6  C   UNL d   1       1.599   0.061   0.281  0.00  0.00     0.316 A 
ATOM      7  C   UNL d   1       0.347  -2.066   0.196  0.00  0.00     0.050 C 
ATOM      8  O   UNL d   1       2.750  -0.313   0.210  0.00  0.00    -0.257 OA
ENDROOT
BRANCH   7   9
ATOM      9  C   UNL d   1      -0.893  -2.826   0.017  0.00  0.00    -0.000 A 
ATOM     10  C   UNL d   1      -1.548  -3.012  -1.214  0.00  0.00     0.081 A 
ATOM     11  C   UNL d   1      -2.765  -3.716  -1.240  0.00  0.00     0.074 A 
ATOM     12  C   UNL d   1      -3.336  -4.239  -0.082  0.00  0.00     0.070 A 
ATOM     13  C   UNL d   1      -2.676  -4.066   1.131  0.00  0.00     0.038 A 
ATOM     14  C   UNL d   1      -1.469  -3.365   1.183  0.00  0.00     0.017 A 
BRANCH  10  15
ATOM     15  O   UNL d   1      -1.194  -2.610  -2.474  0.00  0.00    -0.355 OA
ATOM     16  C   UNL d   1       0.011  -1.909  -2.716  0.00  0.00     0.210 C 
ENDBRANCH  10  15
BRANCH  12  17
ATOM     17  O   UNL d   1      -4.517  -4.925  -0.011  0.00  0.00    -0.356 OA
ATOM     18  C   UNL d   1      -5.216  -5.114  -1.237  0.00  0.00     0.210 C 
ENDBRANCH  12  17
ENDBRANCH   7   9
BRANCH   3  19
ATOM     19  C   UNL d   1      -0.943   2.537   0.219  0.00  0.00     0.015 A 
ATOM     20  C   UNL d   1      -2.333   2.532   0.396  0.00  0.00     0.016 A 
ATOM     21  C   UNL d   1      -3.051   3.726   0.323  0.00  0.00     0.001 A 
ATOM     22  C   UNL d   1      -2.385   4.924   0.067  0.00  0.00     0.000 A 
ATOM     23  C   UNL d   1      -1.002   4.931  -0.122  0.00  0.00     0.001 A 
ATOM     24  C   UNL d   1      -0.279   3.739  -0.047  0.00  0.00     0.016 A 
ENDBRANCH   3  19
TORSDOF 4
