REMARK  9 active torsions:
REMARK  status: ('A' for Active; 'I' for Inactive)
REMARK    1  A    between atoms: C_9  and  N_1 
REMARK    2  A    between atoms: C_10  and  C_2 
REMARK    3  A    between atoms: S_8  and  C_3 
REMARK    4  A    between atoms: C_17  and  S_8 
REMARK    5  A    between atoms: C_16  and  C_10 
REMARK    6  A    between atoms: C_11  and  C_17 
REMARK    7  A    between atoms: C_13  and  C_11 
REMARK    8  A    between atoms: O_26  and  C_12 
REMARK    9  A    between atoms: O_28  and  C_14 
ROOT
ATOM      1  N   UNL d   1      -0.338  -1.313   0.160  0.00  0.00    -0.279 N 
ATOM      2  C   UNL d   1       0.912  -0.708  -0.032  0.00  0.00     0.109 A 
ATOM      3  C   UNL d   1      -1.227  -0.233   0.087  0.00  0.00     0.168 A 
ATOM      4  N   UNL d   1       0.734   0.577  -0.302  0.00  0.00    -0.286 N 
ATOM      5  HN  UNL d   1       1.474   1.241  -0.528  1.00  0.00     0.188 HD
ATOM      6  N   UNL d   1      -0.594   0.869  -0.231  0.00  0.00    -0.278 N 
ATOM      7  HN  UNL d   1      -1.019   1.782  -0.395  1.00  0.00     0.189 HD
ENDROOT
BRANCH   2   8
ATOM      8  C   UNL d   1       2.280  -1.313   0.036  0.00  0.00     0.117 C 
BRANCH   8   9
ATOM      9  C   UNL d   1       2.889  -1.768  -1.274  0.00  0.00    -0.048 A 
ATOM     10  C   UNL d   1       3.294  -3.104  -1.464  0.00  0.00     0.047 A 
ATOM     11  C   UNL d   1       4.035  -3.495  -2.596  0.00  0.00     0.102 A 
ATOM     12  C   UNL d   1       4.338  -2.542  -3.582  0.00  0.00     0.101 A 
ATOM     13  C   UNL d   1       3.894  -1.223  -3.410  0.00  0.00     0.040 A 
ATOM     14  C   UNL d   1       3.185  -0.836  -2.272  0.00  0.00     0.010 A 
BRANCH  11  15
ATOM     15  O   UNL d   1       4.438  -4.791  -2.789  0.00  0.00    -0.353 OA
ATOM     16  C   UNL d   1       4.707  -5.559  -1.622  0.00  0.00     0.210 C 
ENDBRANCH  11  15
BRANCH  12  17
ATOM     17  O   UNL d   1       5.049  -2.700  -4.742  0.00  0.00    -0.353 OA
ATOM     18  C   UNL d   1       5.750  -3.915  -4.960  0.00  0.00     0.210 C 
ENDBRANCH  12  17
ENDBRANCH   8   9
ENDBRANCH   2   8
BRANCH   1  19
ATOM     19  C   UNL d   1      -0.655  -2.700   0.355  0.00  0.00     0.043 A 
ATOM     20  C   UNL d   1       0.193  -3.562   1.065  0.00  0.00     0.033 A 
ATOM     21  C   UNL d   1      -0.122  -4.920   1.211  0.00  0.00     0.044 A 
ATOM     22  C   UNL d   1      -1.305  -5.416   0.684  0.00  0.00     0.116 A 
ATOM     23  C   UNL d   1      -2.177  -4.579   0.005  0.00  0.00     0.044 A 
ATOM     24  F   UNL d   1      -1.611  -6.710   0.842  0.00  0.00    -0.206 F 
ATOM     25  C   UNL d   1      -1.846  -3.231  -0.173  0.00  0.00     0.033 A 
ENDBRANCH   1  19
BRANCH   3  26
ATOM     26  S   UNL d   1      -2.885  -0.267   0.610  0.00  0.00    -0.085 SA
BRANCH  26  27
ATOM     27  C   UNL d   1      -3.543   1.369   0.118  0.00  0.00     0.161 C 
BRANCH  27  28
ATOM     28  C   UNL d   1      -5.024   1.484   0.526  0.00  0.00     0.144 C 
ATOM     29  O   UNL d   1      -5.642   0.517   1.000  0.00  0.00    -0.296 OA
BRANCH  28  30
ATOM     30  C   UNL d   1      -5.793   2.793   0.249  0.00  0.00     0.010 C 
ATOM     31  C   UNL d   1      -6.450   2.682  -1.135  0.00  0.00     0.022 C 
ATOM     32  C   UNL d   1      -6.900   2.937   1.316  0.00  0.00     0.022 C 
ATOM     33  C   UNL d   1      -4.918   4.049   0.302  0.00  0.00     0.022 C 
ENDBRANCH  28  30
ENDBRANCH  27  28
ENDBRANCH  26  27
ENDBRANCH   3  26
TORSDOF 9
