REMARK  3 active torsions:
REMARK  status: ('A' for Active; 'I' for Inactive)
REMARK    1  A    between atoms: C_2  and  C_1 
REMARK       I    between atoms: N_3  and  C_1 
REMARK    2  A    between atoms: N_5  and  N_3 
REMARK    3  A    between atoms: C_4  and  N_5 
ROOT
ATOM      1  N   UNL d   1      -1.058   1.287  -0.006  0.00  0.00    -0.200 NA
ATOM      2  H   UNL d   1      -1.676   0.473  -0.135  0.00  0.00     0.153 HD
ENDROOT
BRANCH   1   3
ATOM      3  C   UNL d   1      -1.708   2.452  -0.495  0.00  0.00     0.066 A 
ATOM      4  C   UNL d   1      -1.551   2.983  -1.788  0.00  0.00     0.142 A 
ATOM      5  C   UNL d   1      -2.254   4.113  -2.201  0.00  0.00     0.086 A 
ATOM      6  F   UNL d   1      -0.714   2.414  -2.670  0.00  0.00    -0.204 F 
ATOM      7  C   UNL d   1      -3.145   4.712  -1.324  0.00  0.00     0.119 A 
ATOM      8  C   UNL d   1      -3.360   4.189  -0.055  0.00  0.00     0.044 A 
ATOM      9  F   UNL d   1      -3.815   5.807  -1.707  0.00  0.00    -0.206 F 
ATOM     10  C   UNL d   1      -2.655   3.053   0.350  0.00  0.00     0.031 A 
ENDBRANCH   1   3
BRANCH   1  11
ATOM     11  N   UNL d   1       0.180   1.021  -0.619  0.00  0.00    -0.282 N 
ATOM     12  C   UNL d   1       0.542  -0.303  -0.826  0.00  0.00     0.273 C 
ATOM     13  O   UNL d   1      -0.258  -1.218  -0.612  0.00  0.00    -0.266 OA
ATOM     14  H   UNL d   1       0.871   1.764  -0.630  0.00  0.00     0.184 HD
BRANCH  12  15
ATOM     15  C   UNL d   1       1.904  -0.529  -1.290  0.00  0.00     0.073 A 
ATOM     16  S   UNL d   1       2.930   0.752  -1.790  0.00  0.00    -0.097 SA
ATOM     17  C   UNL d   1       4.193  -0.325  -2.203  0.00  0.00     0.050 A 
ATOM     18  C   UNL d   1       3.861  -1.634  -1.942  0.00  0.00     0.009 A 
ATOM     19  C   UNL d   1       2.543  -1.751  -1.412  0.00  0.00     0.025 A 
ENDBRANCH  12  15
ENDBRANCH   1  11
TORSDOF 3
