REMARK  6 active torsions:
REMARK  status: ('A' for Active; 'I' for Inactive)
REMARK    1  A    between atoms: C_2  and  C_1 
REMARK       I    between atoms: N_7  and  C_2 
REMARK    2  A    between atoms: N_3  and  N_7 
REMARK    3  A    between atoms: O_16  and  C_5 
REMARK    4  A    between atoms: N_14  and  C_6 
REMARK    5  A    between atoms: O_17  and  C_8 
REMARK    6  A    between atoms: C_13  and  C_12 
ROOT
ATOM      1  N   UNL d   1      -1.114   3.846   0.185  0.00  0.00    -0.308 N 
ATOM      2  HN  UNL d   1      -1.622   3.025   0.514  1.00  0.00     0.186 HD
ATOM      3  C   UNL d   1      -1.738   4.942  -0.103  0.00  0.00     0.118 C 
ENDROOT
BRANCH   1   4
ATOM      4  N   UNL d   1       0.242   3.818   0.035  0.00  0.00    -0.266 N 
ATOM      5  C   UNL d   1       0.895   2.616   0.295  0.00  0.00     0.271 C 
ATOM      6  O   UNL d   1       0.325   1.582   0.644  0.00  0.00    -0.266 OA
ATOM      7  H   UNL d   1       0.724   4.615  -0.359  0.00  0.00     0.190 HD
BRANCH   5   8
ATOM      8  C   UNL d   1       2.380   2.592   0.129  0.00  0.00     0.054 A 
ATOM      9  C   UNL d   1       3.016   1.383  -0.241  0.00  0.00     0.021 A 
ATOM     10  C   UNL d   1       4.412   1.361  -0.358  0.00  0.00     0.024 A 
ATOM     11  C   UNL d   1       5.175   2.481  -0.030  0.00  0.00     0.002 A 
ATOM     12  C   UNL d   1       4.549   3.656   0.378  0.00  0.00     0.001 A 
ATOM     13  C   UNL d   1       3.155   3.717   0.456  0.00  0.00     0.019 A 
BRANCH   9  14
ATOM     14  N   UNL d   1       2.292   0.267  -0.715  0.00  0.00    -0.302 NA
ATOM     15  H   UNL d   1       1.339   0.262  -0.323  0.00  0.00     0.124 HD
ATOM     16  H   UNL d   1       2.756  -0.619  -0.551  0.00  0.00     0.124 HD
ENDBRANCH   9  14
ENDBRANCH   5   8
ENDBRANCH   1   4
BRANCH   3  17
ATOM     17  C   UNL d   1      -3.214   5.016   0.035  0.00  0.00    -0.017 A 
ATOM     18  C   UNL d   1      -3.881   6.212  -0.262  0.00  0.00     0.052 A 
ATOM     19  C   UNL d   1      -5.275   6.282  -0.133  0.00  0.00     0.102 A 
ATOM     20  C   UNL d   1      -5.980   5.143   0.293  0.00  0.00     0.099 A 
ATOM     21  C   UNL d   1      -5.318   3.953   0.588  0.00  0.00     0.040 A 
ATOM     22  C   UNL d   1      -3.932   3.890   0.458  0.00  0.00     0.016 A 
BRANCH  19  23
ATOM     23  O   UNL d   1      -6.038   7.390  -0.390  0.00  0.00    -0.353 OA
ATOM     24  C   UNL d   1      -5.376   8.568  -0.821  0.00  0.00     0.210 C 
ENDBRANCH  19  23
BRANCH  20  25
ATOM     25  O   UNL d   1      -7.342   5.209   0.420  0.00  0.00    -0.358 OA
ATOM     26  H   UNL d   1      -7.677   4.350   0.721  0.00  0.00     0.217 HD
ENDBRANCH  20  25
ENDBRANCH   3  17
TORSDOF 6
