REMARK  11 active torsions:
REMARK  status: ('A' for Active; 'I' for Inactive)
REMARK    1  A    between atoms: C_5  and  C_1 
REMARK    2  A    between atoms: N_4  and  C_2 
REMARK       I    between atoms: C_3  and  N_4 
REMARK    3  A    between atoms: C_11  and  C_3 
REMARK    4  A    between atoms: O_10  and  C_6 
REMARK    5  A    between atoms: C_8  and  C_11 
REMARK    6  A    between atoms: C_12  and  C_8 
REMARK    7  A    between atoms: C_17  and  C_8 
REMARK    8  A    between atoms: C_9  and  C_12 
REMARK    9  A    between atoms: O_23  and  C_9 
REMARK   10  A    between atoms: C_21  and  O_10 
REMARK   11  A    between atoms: O_28  and  C_22 
ROOT
ATOM      1  C   UNL d   1      -0.467   2.213  -2.946  0.00  0.00     0.069 A 
ATOM      2  C   UNL d   1      -0.145   0.110  -1.702  0.00  0.00     0.050 A 
ATOM      3  C   UNL d   1      -0.672   1.453  -4.119  0.00  0.00     0.102 A 
ATOM      4  C   UNL d   1      -0.228   1.513  -1.749  0.00  0.00     0.048 A 
ATOM      5  C   UNL d   1      -0.253  -0.612  -2.890  0.00  0.00     0.019 A 
ATOM      6  C   UNL d   1      -0.490   0.056  -4.088  0.00  0.00     0.040 A 
ENDROOT
BRANCH   1   7
ATOM      7  N   UNL d   1      -0.438   3.643  -2.996  0.00  0.00    -0.325 N 
ATOM      8  C   UNL d   1      -0.333   4.499  -1.902  0.00  0.00     0.222 C 
ATOM      9  O   UNL d   1      -0.476   4.152  -0.732  0.00  0.00    -0.273 OA
ATOM     10  H   UNL d   1      -0.495   4.049  -3.924  0.00  0.00     0.169 HD
BRANCH   8  11
ATOM     11  C   UNL d   1      -0.024   5.962  -2.242  0.00  0.00     0.113 C 
BRANCH  11  12
ATOM     12  C   UNL d   1       0.070   6.849  -0.961  0.00  0.00     0.037 C 
BRANCH  12  13
ATOM     13  C   UNL d   1       1.258   6.521  -0.021  0.00  0.00     0.119 C 
BRANCH  13  14
ATOM     14  C   UNL d   1       2.620   6.829  -0.579  0.00  0.00     0.140 C 
ATOM     15  O   UNL d   1       2.966   6.806  -1.751  0.00  0.00    -0.650 OA
BRANCH  14  16
ATOM     16  O   UNL d   1       3.524   7.072   0.392  0.00  0.00    -0.776 OA
ATOM     17  H   UNL d   1       4.365   7.221  -0.088  0.00  0.00     0.167 HD
ENDBRANCH  14  16
ENDBRANCH  13  14
ENDBRANCH  12  13
BRANCH  12  18
ATOM     18  C   UNL d   1       0.009   8.363  -1.168  0.00  0.00    -0.053 A 
ATOM     19  C   UNL d   1      -0.512   9.162  -0.128  0.00  0.00     0.007 A 
ATOM     20  C   UNL d   1      -0.489  10.555  -0.203  0.00  0.00     0.001 A 
ATOM     21  C   UNL d   1       0.047  11.179  -1.324  0.00  0.00     0.000 A 
ATOM     22  C   UNL d   1       0.552  10.406  -2.369  0.00  0.00     0.001 A 
ATOM     23  C   UNL d   1       0.537   9.007  -2.292  0.00  0.00     0.007 A 
ENDBRANCH  12  18
ENDBRANCH  11  12
ENDBRANCH   8  11
ENDBRANCH   1   7
BRANCH   3  24
ATOM     24  O   UNL d   1      -1.044   2.101  -5.292  0.00  0.00    -0.309 OA
BRANCH  24  25
ATOM     25  C   UNL d   1      -1.771   1.373  -6.226  0.00  0.00     0.076 A 
ATOM     26  C   UNL d   1      -2.896   0.608  -5.885  0.00  0.00     0.040 A 
ATOM     27  C   UNL d   1      -3.524  -0.199  -6.846  0.00  0.00     0.039 A 
ATOM     28  C   UNL d   1      -3.065  -0.206  -8.162  0.00  0.00     0.068 A 
ATOM     29  C   UNL d   1      -2.001   0.630  -8.517  0.00  0.00     0.039 A 
ATOM     30  C   UNL d   1      -1.349   1.413  -7.553  0.00  0.00     0.040 A 
BRANCH  28  31
ATOM     31  O   UNL d   1      -3.595  -0.942  -9.182  0.00  0.00    -0.356 OA
ATOM     32  C   UNL d   1      -4.220  -2.169  -8.814  0.00  0.00     0.210 C 
ENDBRANCH  28  31
ENDBRANCH  24  25
ENDBRANCH   3  24
BRANCH   2  33
ATOM     33  C   UNL d   1       0.068  -0.618  -0.396  0.00  0.00     0.417 C 
ATOM     34  F   UNL d   1       0.293   0.201   0.667  0.00  0.00    -0.166 F 
ATOM     35  F   UNL d   1       1.132  -1.468  -0.444  0.00  0.00    -0.166 F 
ATOM     36  F   UNL d   1      -1.005  -1.386  -0.056  0.00  0.00    -0.166 F 
ENDBRANCH   2  33
TORSDOF 11
