REMARK  0 active torsions:
REMARK  status: ('A' for Active; 'I' for Inactive)
ROOT
ATOM      1  C   UNL d   1       0.299  -0.732  -0.000  0.00  0.00     0.073 A 
ATOM      2  C   UNL d   1       0.275   0.772  -0.001  0.00  0.00     0.068 A 
ATOM      3  C   UNL d   1      -0.906  -1.497   0.001  0.00  0.00    -0.025 A 
ATOM      4  C   UNL d   1      -2.120  -0.733   0.001  0.00  0.00    -0.036 A 
ATOM      5  C   UNL d   1      -0.940   1.484  -0.001  0.00  0.00     0.052 A 
ATOM      6  C   UNL d   1      -2.109   0.703   0.000  0.00  0.00     0.019 A 
ATOM      7  S   UNL d   1       2.582   0.071  -0.001  0.00  0.00     0.068 SA
ATOM      8  N   UNL d   1       1.550  -1.226  -0.000  0.00  0.00    -0.310 N 
ATOM      9  HN  UNL d   1       1.813  -2.211   0.000  1.00  0.00     0.176 HD
ATOM     10  N   UNL d   1       1.498   1.326  -0.002  0.00  0.00    -0.310 N 
ATOM     11  HN  UNL d   1       1.717   2.322  -0.002  1.00  0.00     0.176 HD
ATOM     12 BR   UNL d   1      -3.742   1.702   0.000  0.00  0.00    -0.050 Br
ATOM     13  C   UNL d   1      -0.897  -3.000   0.002  0.00  0.00     0.051 C 
ATOM     14  C   UNL d   1      -3.457  -1.451   0.002  0.00  0.00     0.050 C 
ENDROOT
TORSDOF 0
