REMARK  6 active torsions:
REMARK  status: ('A' for Active; 'I' for Inactive)
REMARK    1  A    between atoms: C_3  and  C_1 
REMARK    2  A    between atoms: C_2  and  C_5 
REMARK    3  A    between atoms: C_4  and  N_6 
REMARK       I    between atoms: N_6  and  C_10 
REMARK    4  A    between atoms: C_10  and  C_25 
REMARK    5  A    between atoms: S_14  and  C_11 
REMARK    6  A    between atoms: C_25  and  S_14 
ROOT
ATOM      1  N   UNL d   1      -1.104   3.803  -7.659  0.00  0.00    -0.325 N 
ATOM      2  C   UNL d   1      -1.960   2.773  -7.305  0.00  0.00     0.231 C 
ATOM      3  O   UNL d   1      -3.035   2.533  -7.852  0.00  0.00    -0.272 OA
ATOM      4  H   UNL d   1      -0.144   3.752  -7.332  0.00  0.00     0.169 HD
ENDROOT
BRANCH   2   5
ATOM      5  C   UNL d   1      -1.430   1.866  -6.210  0.00  0.00     0.184 C 
BRANCH   5   6
ATOM      6  S   UNL d   1      -1.320   2.785  -4.641  0.00  0.00    -0.103 SA
BRANCH   6   7
ATOM      7  C   UNL d   1      -0.717   1.494  -3.571  0.00  0.00     0.070 A 
ATOM      8  C   UNL d   1      -0.494   1.779  -2.230  0.00  0.00     0.038 A 
ATOM      9  C   UNL d   1       0.052   0.788  -1.415  0.00  0.00     0.020 A 
ATOM     10  C   UNL d   1       0.358  -0.464  -1.956  0.00  0.00     0.063 A 
ATOM     11  C   UNL d   1       0.066  -0.666  -3.296  0.00  0.00     0.105 A 
ATOM     12  N   UNL d   1      -0.455   0.283  -4.109  0.00  0.00    -0.360 N 
ATOM     13  HN  UNL d   1      -0.643   0.090  -5.093  1.00  0.00     0.166 HD
BRANCH  10  14
ATOM     14  C   UNL d   1       1.007  -1.538  -1.139  0.00  0.00     0.418 C 
ATOM     15  F   UNL d   1       1.252  -2.681  -1.837  0.00  0.00    -0.166 F 
ATOM     16  F   UNL d   1       0.258  -1.907  -0.066  0.00  0.00    -0.166 F 
ATOM     17  F   UNL d   1       2.212  -1.145  -0.638  0.00  0.00    -0.166 F 
ENDBRANCH  10  14
ENDBRANCH   6   7
ENDBRANCH   5   6
ENDBRANCH   2   5
BRANCH   1  18
ATOM     18  C   UNL d   1      -1.389   4.835  -8.585  0.00  0.00     0.057 A 
ATOM     19  C   UNL d   1      -2.705   5.202  -8.905  0.00  0.00     0.047 A 
ATOM     20  C   UNL d   1      -2.975   6.236  -9.813  0.00  0.00     0.050 A 
ATOM     21  C   UNL d   1      -1.903   6.897 -10.429  0.00  0.00     0.018 A 
ATOM     22  C   UNL d   1      -0.588   6.553 -10.113  0.00  0.00     0.027 A 
ATOM     23  C   UNL d   1      -0.333   5.542  -9.181  0.00  0.00     0.060 A 
ATOM     24 CL   UNL d   1       1.315   5.159  -8.820  0.00  0.00    -0.082 Cl
BRANCH  20  25
ATOM     25  C   UNL d   1      -4.396   6.648 -10.119  0.00  0.00     0.417 C 
ATOM     26  F   UNL d   1      -5.337   5.943  -9.434  0.00  0.00    -0.166 F 
ATOM     27  F   UNL d   1      -4.624   7.958  -9.821  0.00  0.00    -0.166 F 
ATOM     28  F   UNL d   1      -4.704   6.508 -11.437  0.00  0.00    -0.166 F 
ENDBRANCH  20  25
ENDBRANCH   1  18
TORSDOF 6
