REMARK  4 active torsions:
REMARK  status: ('A' for Active; 'I' for Inactive)
REMARK    1  A    between atoms: C_6  and  N_1 
REMARK    2  A    between atoms: C_7  and  C_6 
REMARK    3  A    between atoms: C_8  and  C_7 
REMARK    4  A    between atoms: O_14  and  C_8 
ROOT
ATOM      1  N   UNL d   1       1.603  -1.063   0.043  0.00  0.00    -0.290 N 
ATOM      2  C   UNL d   1       2.354   0.100   0.006  0.00  0.00     0.372 A 
ATOM      3  C   UNL d   1       0.275  -0.700   0.022  0.00  0.00     0.073 A 
ATOM      4  O   UNL d   1       1.529   1.234   0.002  0.00  0.00    -0.259 OA
ATOM      5  C   UNL d   1       0.260   0.681   0.009  0.00  0.00     0.107 A 
ATOM      6  O   UNL d   1       3.575   0.163  -0.006  0.00  0.00    -0.237 OA
ATOM      7  C   UNL d   1      -0.887  -1.444   0.013  0.00  0.00     0.039 A 
ATOM      8  C   UNL d   1      -0.919   1.395  -0.002  0.00  0.00     0.040 A 
ATOM      9  C   UNL d   1      -2.106  -0.747   0.005  0.00  0.00    -0.060 A 
ATOM     10  C   UNL d   1      -2.113   0.668  -0.001  0.00  0.00     0.009 A 
ATOM     11  C   UNL d   1      -3.412  -1.488   0.007  0.00  0.00     0.048 C 
ENDROOT
BRANCH   1  12
ATOM     12  C   UNL d   1       2.127  -2.410  -0.006  0.00  0.00     0.145 C 
BRANCH  12  13
ATOM     13  C   UNL d   1       2.996  -2.748   1.203  0.00  0.00     0.130 C 
BRANCH  13  14
ATOM     14  C   UNL d   1       3.475  -4.173   1.132  0.00  0.00     0.141 C 
ATOM     15  O   UNL d   1       3.203  -4.963   0.242  0.00  0.00    -0.650 OA
BRANCH  14  16
ATOM     16  O   UNL d   1       4.248  -4.515   2.189  0.00  0.00    -0.776 OA
ATOM     17  H   UNL d   1       4.400  -3.788   2.824  0.00  0.00     0.167 HD
ENDBRANCH  14  16
ENDBRANCH  13  14
ENDBRANCH  12  13
ENDBRANCH   1  12
TORSDOF 4
