REMARK  4 active torsions:
REMARK  status: ('A' for Active; 'I' for Inactive)
REMARK    1  A    between atoms: C_9  and  C_1 
REMARK    2  A    between atoms: N_17  and  C_3 
REMARK    3  A    between atoms: C_11  and  C_6 
REMARK    4  A    between atoms: C_13  and  C_9 
ROOT
ATOM      1  C   UNL d   1      -3.717  -0.005  -0.002  0.00  0.00     0.085 C 
ATOM      2  C   UNL d   1      -1.458   0.754   0.040  0.00  0.00     0.038 A 
ATOM      3  C   UNL d   1      -2.870   1.084   0.181  0.00  0.00     0.061 C 
ATOM      4  C   UNL d   1      -1.338  -0.630  -0.044  0.00  0.00     0.088 A 
ATOM      5  S   UNL d   1      -2.820  -1.455  -0.111  0.00  0.00    -0.065 SA
ATOM      6  C   UNL d   1      -0.219   1.480   0.023  0.00  0.00     0.004 A 
ATOM      7  N   UNL d   1      -0.209  -1.354  -0.081  0.00  0.00    -0.353 N 
ATOM      8  HN  UNL d   1      -0.220  -2.372  -0.144  1.00  0.00     0.166 HD
ATOM      9  C   UNL d   1       1.000   0.744  -0.014  0.00  0.00    -0.023 A 
ATOM     10  C   UNL d   1       0.934  -0.656  -0.029  0.00  0.00     0.017 A 
ATOM     11  C   UNL d   1       2.350   1.429   0.031  0.00  0.00     0.041 C 
ATOM     12  C   UNL d   1       2.176  -1.515  -0.061  0.00  0.00     0.057 C 
ATOM     13  C   UNL d   1       3.526   0.543  -0.372  0.00  0.00     0.005 C 
ATOM     14  C   UNL d   1       3.444  -0.786   0.358  0.00  0.00     0.006 C 
ENDROOT
BRANCH   1  15
ATOM     15  C   UNL d   1      -5.168  -0.100  -0.085  0.00  0.00     0.201 C 
ATOM     16  O   UNL d   1      -5.818  -1.093   0.268  0.00  0.00    -0.286 OA
BRANCH  15  17
ATOM     17  C   UNL d   1      -5.958   1.041  -0.619  0.00  0.00     0.018 A 
ATOM     18  C   UNL d   1      -5.485   1.829  -1.678  0.00  0.00     0.061 A 
ATOM     19  C   UNL d   1      -6.205   2.957  -2.062  0.00  0.00     0.155 A 
ATOM     20  F   UNL d   1      -5.712   3.748  -3.025  0.00  0.00    -0.203 F 
ATOM     21  C   UNL d   1      -7.403   3.281  -1.436  0.00  0.00     0.154 A 
ATOM     22  C   UNL d   1      -7.912   2.471  -0.427  0.00  0.00     0.046 A 
ATOM     23  F   UNL d   1      -8.071   4.386  -1.793  0.00  0.00    -0.203 F 
ATOM     24  C   UNL d   1      -7.191   1.345  -0.019  0.00  0.00     0.018 A 
ENDBRANCH  15  17
ENDBRANCH   1  15
BRANCH   3  25
ATOM     25  N   UNL d   1      -3.324   2.325   0.463  0.00  0.00    -0.397 N 
ATOM     26  H   UNL d   1      -2.711   3.139   0.435  0.00  0.00     0.156 HD
ATOM     27  H   UNL d   1      -4.288   2.569   0.663  0.00  0.00     0.156 HD
ENDBRANCH   3  25
BRANCH   6  28
ATOM     28  C   UNL d   1      -0.224   2.960   0.041  0.00  0.00     0.016 C 
ATOM     29  S   UNL d   1      -1.111   3.853  -1.139  0.00  0.00    -0.101 SA
ATOM     30  C   UNL d   1      -0.704   5.353  -0.427  0.00  0.00     0.050 C 
ATOM     31  C   UNL d   1       0.234   5.205   0.566  0.00  0.00     0.008 C 
ATOM     32  C   UNL d   1       0.492   3.831   0.848  0.00  0.00     0.020 C 
ENDBRANCH   6  28
TORSDOF 4
