REMARK  9 active torsions:
REMARK  status: ('A' for Active; 'I' for Inactive)
REMARK    1  A    between atoms: C_3  and  C_1 
REMARK    2  A    between atoms: S_4  and  C_2 
REMARK    3  A    between atoms: N_6  and  C_3 
REMARK    4  A    between atoms: C_11  and  S_4 
REMARK       I    between atoms: C_5  and  N_6 
REMARK    5  A    between atoms: C_21  and  C_5 
REMARK    6  A    between atoms: C_8  and  C_22 
REMARK    7  A    between atoms: O_14  and  C_8 
REMARK    8  A    between atoms: C_23  and  C_21 
REMARK    9  A    between atoms: C_22  and  C_23 
ROOT
ATOM      1  C   UNL d   1       0.228   1.094  -0.184  0.00  0.00    -0.002 A 
ATOM      2  C   UNL d   1       1.640   1.206  -0.213  0.00  0.00     0.015 A 
ATOM      3  C   UNL d   1      -0.329  -0.205  -0.175  0.00  0.00     0.043 A 
ATOM      4 CL   UNL d   1      -2.038  -0.495  -0.168  0.00  0.00    -0.084 Cl
ATOM      5  C   UNL d   1       2.438   0.048  -0.183  0.00  0.00     0.019 A 
ATOM      6  C   UNL d   1       1.866  -1.220  -0.160  0.00  0.00     0.003 A 
ATOM      7  C   UNL d   1       0.483  -1.345  -0.161  0.00  0.00     0.024 A 
ENDROOT
BRANCH   1   8
ATOM      8  C   UNL d   1      -0.673   2.309  -0.131  0.00  0.00     0.164 C 
BRANCH   8   9
ATOM      9  N   UNL d   1      -0.487   3.220   0.989  0.00  0.00    -0.357 N 
ATOM     10  C   UNL d   1      -0.169   2.841   2.275  0.00  0.00     0.217 C 
ATOM     11  O   UNL d   1       0.031   1.689   2.636  0.00  0.00    -0.274 OA
ATOM     12  H   UNL d   1      -0.869   4.149   0.866  0.00  0.00     0.162 HD
BRANCH  10  13
ATOM     13  C   UNL d   1      -0.054   4.025   3.220  0.00  0.00     0.103 C 
BRANCH  13  14
ATOM     14  C   UNL d   1       0.958   3.789   4.345  0.00  0.00     0.019 C 
BRANCH  14  15
ATOM     15  C   UNL d   1       2.408   3.712   3.860  0.00  0.00     0.110 C 
BRANCH  15  16
ATOM     16  C   UNL d   1       2.883   5.033   3.306  0.00  0.00     0.139 C 
ATOM     17  O   UNL d   1       2.795   6.097   3.905  0.00  0.00    -0.650 OA
BRANCH  16  18
ATOM     18  O   UNL d   1       3.414   4.955   2.067  0.00  0.00    -0.776 OA
ATOM     19  H   UNL d   1       3.389   4.058   1.675  0.00  0.00     0.167 HD
ENDBRANCH  16  18
ENDBRANCH  15  16
ENDBRANCH  14  15
ENDBRANCH  13  14
ENDBRANCH  10  13
ENDBRANCH   8   9
ENDBRANCH   1   8
BRANCH   2  20
ATOM     20  S   UNL d   1       2.510   2.762  -0.078  0.00  0.00    -0.090 SA
BRANCH  20  21
ATOM     21  C   UNL d   1       2.982   3.243  -1.722  0.00  0.00     0.005 A 
ATOM     22  C   UNL d   1       3.245   4.610  -1.924  0.00  0.00     0.020 A 
ATOM     23  C   UNL d   1       3.716   5.076  -3.155  0.00  0.00     0.025 A 
ATOM     24  C   UNL d   1       3.932   4.177  -4.193  0.00  0.00     0.034 A 
ATOM     25  C   UNL d   1       3.669   2.821  -4.012  0.00  0.00     0.025 A 
ATOM     26 CL   UNL d   1       4.544   4.740  -5.698  0.00  0.00    -0.084 Cl
ATOM     27  C   UNL d   1       3.193   2.357  -2.780  0.00  0.00     0.020 A 
ENDBRANCH  20  21
ENDBRANCH   2  20
TORSDOF 9
