REMARK  1 active torsions:
REMARK  status: ('A' for Active; 'I' for Inactive)
REMARK    1  A    between atoms: C_2  and  C_1 
REMARK       I    between atoms: N_7  and  C_2 
ROOT
ATOM      1  C   UNL d   1       1.327   1.537  -0.175  0.00  0.00     0.044 A 
ATOM      2  C   UNL d   1       1.209   0.103  -0.159  0.00  0.00     0.006 A 
ATOM      3  C   UNL d   1       0.043  -0.727  -0.315  0.00  0.00     0.018 A 
ATOM      4  C   UNL d   1       2.439  -0.600   0.018  0.00  0.00    -0.024 A 
ATOM      5  I   UNL d   1      -1.863  -0.052  -0.955  0.00  0.00    -0.044 I 
ATOM      6  C   UNL d   1       2.574   2.190  -0.136  0.00  0.00     0.018 A 
ATOM      7  C   UNL d   1       3.744   1.460  -0.024  0.00  0.00     0.002 A 
ATOM      8  C   UNL d   1       1.310  -2.757   0.059  0.00  0.00     0.002 A 
ATOM      9  C   UNL d   1       0.101  -2.126  -0.180  0.00  0.00     0.019 A 
ATOM     10  C   UNL d   1       2.469  -1.998   0.134  0.00  0.00     0.012 A 
ATOM     11  C   UNL d   1       3.669   0.077   0.074  0.00  0.00     0.012 A 
ENDROOT
BRANCH   1  12
ATOM     12  C   UNL d   1       0.192   2.480  -0.117  0.00  0.00     0.250 C 
ATOM     13  O   UNL d   1       0.035   3.350  -0.963  0.00  0.00    -0.268 OA
ATOM     14  N   UNL d   1      -0.597   2.398   0.996  0.00  0.00    -0.366 N 
ATOM     15  H   UNL d   1      -0.535   1.630   1.649  0.00  0.00     0.159 HD
ATOM     16  H   UNL d   1      -1.410   2.999   1.031  0.00  0.00     0.159 HD
ENDBRANCH   1  12
TORSDOF 1
