REMARK  6 active torsions:
REMARK  status: ('A' for Active; 'I' for Inactive)
REMARK    1  A    between atoms: C_2  and  C_1 
REMARK    2  A    between atoms: O_8  and  C_2 
REMARK    3  A    between atoms: N_4  and  O_8 
REMARK    4  A    between atoms: C_11  and  C_7 
REMARK    5  A    between atoms: N_19  and  C_7 
REMARK    6  A    between atoms: C_12  and  C_13 
ROOT
ATOM      1  N   UNL d   1       0.373   3.799   0.220  0.00  0.00    -0.246 N 
ATOM      2  HN  UNL d   1      -0.609   3.723   0.486  1.00  0.00     0.196 HD
ATOM      3  C   UNL d   1       0.967   4.926  -0.037  0.00  0.00     0.109 C 
ENDROOT
BRANCH   3   4
ATOM      4  C   UNL d   1       0.150   6.186   0.033  0.00  0.00     0.004 A 
ATOM      5  C   UNL d   1      -0.961   6.268   0.874  0.00  0.00     0.015 A 
ATOM      6  C   UNL d   1      -1.720   7.447   0.933  0.00  0.00     0.009 A 
ATOM      7  C   UNL d   1      -1.405   8.570   0.141  0.00  0.00    -0.051 A 
ATOM      8  C   UNL d   1      -0.278   8.464  -0.694  0.00  0.00     0.009 A 
ATOM      9  C   UNL d   1       0.489   7.291  -0.750  0.00  0.00     0.015 A 
BRANCH   7  10
ATOM     10  C   UNL d   1      -2.295   9.830   0.170  0.00  0.00    -0.024 C 
ATOM     11  C   UNL d   1      -1.817  10.939  -0.797  0.00  0.00     0.019 C 
ATOM     12  C   UNL d   1      -3.737   9.459  -0.240  0.00  0.00     0.019 C 
ATOM     13  C   UNL d   1      -2.329  10.447   1.585  0.00  0.00     0.019 C 
ENDBRANCH   7  10
ENDBRANCH   3   4
BRANCH   3  14
ATOM     14  N   UNL d   1       2.302   5.034  -0.355  0.00  0.00    -0.286 NA
ATOM     15  H   UNL d   1       2.834   4.207  -0.107  0.00  0.00     0.125 HD
ATOM     16  H   UNL d   1       2.754   5.889  -0.050  0.00  0.00     0.125 HD
ENDBRANCH   3  14
BRANCH   1  17
ATOM     17  O   UNL d   1       1.244   2.683   0.088  0.00  0.00    -0.193 OA
BRANCH  17  18
ATOM     18  C   UNL d   1       0.554   1.512   0.316  0.00  0.00     0.322 C 
ATOM     19  O   UNL d   1      -0.636   1.438   0.615  0.00  0.00    -0.257 OA
BRANCH  18  20
ATOM     20  C   UNL d   1       1.406   0.337   0.174  0.00  0.00     0.082 A 
ATOM     21  S   UNL d   1       3.057   0.423  -0.272  0.00  0.00    -0.095 SA
ATOM     22  C   UNL d   1       3.247  -1.276  -0.186  0.00  0.00     0.057 A 
ATOM     23  C   UNL d   1       2.085  -1.928   0.176  0.00  0.00    -0.054 A 
ATOM     24  C   UNL d   1       1.025  -0.983   0.371  0.00  0.00     0.032 A 
ATOM     25  C   UNL d   1       1.959  -3.408   0.340  0.00  0.00     0.048 C 
ENDBRANCH  18  20
ENDBRANCH  17  18
ENDBRANCH   1  17
TORSDOF 6
