REMARK  7 active torsions:
REMARK  status: ('A' for Active; 'I' for Inactive)
REMARK    1  A    between atoms: S_13  and  C_5 
REMARK    2  A    between atoms: C_12  and  C_11 
REMARK    3  A    between atoms: C_17  and  S_13 
REMARK    4  A    between atoms: C_19  and  C_14 
REMARK    5  A    between atoms: C_18  and  C_17 
REMARK    6  A    between atoms: C_22  and  C_19 
REMARK    7  A    between atoms: C_23  and  C_22 
ROOT
ATOM      1  C   UNL d   1      -0.026   1.200   0.027  0.00  0.00     0.158 A 
ATOM      2  N   UNL d   1       0.815   0.105   0.026  0.00  0.00    -0.314 N 
ATOM      3  N   UNL d   1      -1.270   0.773   0.080  0.00  0.00    -0.281 N 
ATOM      4  HN  UNL d   1      -2.101   1.363   0.137  1.00  0.00     0.188 HD
ATOM      5  C   UNL d   1      -0.008  -1.006  -0.001  0.00  0.00     0.163 A 
ATOM      6  N   UNL d   1      -1.262  -0.607   0.044  0.00  0.00    -0.278 N 
ATOM      7  HN  UNL d   1      -2.084  -1.212   0.052  1.00  0.00     0.189 HD
ATOM      8  C   UNL d   1       0.356   2.584  -0.039  0.00  0.00     0.122 A 
ATOM      9  O   UNL d   1       1.473   3.055  -0.707  0.00  0.00    -0.298 OA
ATOM     10  C   UNL d   1      -0.316   3.672   0.501  0.00  0.00     0.044 A 
ATOM     11  C   UNL d   1       1.500   4.423  -0.600  0.00  0.00     0.129 A 
ATOM     12  C   UNL d   1       0.405   4.838   0.143  0.00  0.00     0.049 A 
ATOM     13  C   UNL d   1       2.253   0.168   0.077  0.00  0.00     0.160 C 
ENDROOT
BRANCH   5  14
ATOM     14  S   UNL d   1       0.524  -2.673   0.025  0.00  0.00    -0.088 SA
BRANCH  14  15
ATOM     15  C   UNL d   1      -0.794  -3.620  -0.852  0.00  0.00     0.121 C 
BRANCH  15  16
ATOM     16  C   UNL d   1      -0.538  -5.127  -0.902  0.00  0.00    -0.049 A 
ATOM     17  C   UNL d   1      -1.051  -5.963   0.105  0.00  0.00     0.008 A 
ATOM     18  C   UNL d   1      -0.891  -7.351   0.041  0.00  0.00     0.001 A 
ATOM     19  C   UNL d   1      -0.233  -7.931  -1.040  0.00  0.00     0.000 A 
ATOM     20  C   UNL d   1       0.297  -7.119  -2.041  0.00  0.00     0.001 A 
ATOM     21  C   UNL d   1       0.162  -5.726  -1.964  0.00  0.00     0.008 A 
ENDBRANCH  15  16
ENDBRANCH  14  15
ENDBRANCH   5  14
BRANCH  11  22
ATOM     22  C   UNL d   1       2.561   5.176  -1.214  0.00  0.00    -0.041 C 
ATOM     23  C   UNL d   1       3.442   5.872  -1.707  0.00  0.00    -0.099 C 
BRANCH  23  24
ATOM     24  C   UNL d   1       4.529   6.738  -2.311  0.00  0.00     0.094 C 
BRANCH  24  25
ATOM     25  C   UNL d   1       5.372   7.418  -1.220  0.00  0.00     0.012 C 
BRANCH  25  26
ATOM     26  C   UNL d   1       6.479   8.294  -1.804  0.00  0.00    -0.004 C 
ATOM     27  C   UNL d   1       7.293   8.950  -0.701  0.00  0.00     0.005 C 
ENDBRANCH  25  26
ENDBRANCH  24  25
ENDBRANCH  23  24
ENDBRANCH  11  22
TORSDOF 7
