REMARK  5 active torsions:
REMARK  status: ('A' for Active; 'I' for Inactive)
REMARK    1  A    between atoms: C_6  and  N_1 
REMARK    2  A    between atoms: C_8  and  C_6 
REMARK    3  A    between atoms: N_7  and  C_9 
REMARK    4  A    between atoms: C_9  and  C_8 
REMARK    5  A    between atoms: O_11  and  C_8 
ROOT
ATOM      1  N   UNL d   1       0.280  -1.604  -0.756  0.00  0.00    -0.343 N 
ATOM      2  C   UNL d   1       0.614  -1.324  -2.068  0.00  0.00     0.046 A 
ATOM      3  C   UNL d   1       0.222  -0.446  -0.005  0.00  0.00     0.046 A 
ATOM      4  C   UNL d   1       0.922   0.039  -2.119  0.00  0.00     0.003 A 
ATOM      5  C   UNL d   1       0.702   0.582  -0.813  0.00  0.00     0.003 A 
ATOM      6  C   UNL d   1      -0.152  -0.229   1.334  0.00  0.00     0.030 A 
ATOM      7  C   UNL d   1       0.696  -2.144  -3.206  0.00  0.00     0.030 A 
ATOM      8  C   UNL d   1       1.358   0.593  -3.341  0.00  0.00     0.014 A 
ATOM      9  C   UNL d   1       0.864   1.865  -0.252  0.00  0.00     0.014 A 
ATOM     10  C   UNL d   1       1.442  -0.214  -4.480  0.00  0.00     0.001 A 
ATOM     11  C   UNL d   1       0.535   2.083   1.092  0.00  0.00     0.001 A 
ATOM     12  C   UNL d   1       1.105  -1.564  -4.411  0.00  0.00     0.002 A 
ATOM     13  C   UNL d   1       0.025   1.050   1.869  0.00  0.00     0.002 A 
ENDROOT
BRANCH   1  14
ATOM     14  C   UNL d   1       0.128  -2.942  -0.206  0.00  0.00     0.163 C 
BRANCH  14  15
ATOM     15  C   UNL d   1       1.442  -3.555   0.306  0.00  0.00     0.164 C 
BRANCH  15  16
ATOM     16  C   UNL d   1       2.121  -2.719   1.422  0.00  0.00     0.305 C 
BRANCH  16  17
ATOM     17  N   UNL d   1       3.315  -3.372   2.019  0.00  0.00     0.095 N 
ATOM     18  C   UNL d   1       4.438  -3.417   1.047  0.00  0.00     0.298 C 
ATOM     19  C   UNL d   1       5.739  -3.924   1.693  0.00  0.00     0.198 C 
ATOM     20  O   UNL d   1       6.122  -3.109   2.805  0.00  0.00    -0.388 OA
ATOM     21  C   UNL d   1       5.078  -3.098   3.785  0.00  0.00     0.198 C 
ATOM     22  C   UNL d   1       3.766  -2.567   3.187  0.00  0.00     0.298 C 
ENDBRANCH  16  17
ENDBRANCH  15  16
BRANCH  15  23
ATOM     23  O   UNL d   1       1.142  -4.860   0.830  0.00  0.00    -0.392 OA
ATOM     24  H   UNL d   1       1.774  -4.999   1.565  0.00  0.00     0.210 HD
ENDBRANCH  15  23
ENDBRANCH  14  15
ENDBRANCH   1  14
TORSDOF 5
