REMARK  6 active torsions:
REMARK  status: ('A' for Active; 'I' for Inactive)
REMARK    1  A    between atoms: C_7  and  C_1 
REMARK    2  A    between atoms: C_14  and  C_4 
REMARK    3  A    between atoms: C_5  and  C_10 
REMARK       I    between atoms: N_11  and  C_7 
REMARK    4  A    between atoms: O_12  and  C_9 
REMARK    5  A    between atoms: C_10  and  N_11 
REMARK    6  A    between atoms: C_16  and  O_12 
ROOT
ATOM      1  C   UNL d   1      -1.590  -1.334  -1.390  0.00  0.00     0.256 C 
ATOM      2  N   UNL d   1      -1.546  -2.718  -1.327  0.00  0.00    -0.352 N 
ATOM      3  O   UNL d   1      -2.404  -0.675  -0.755  0.00  0.00    -0.267 OA
ATOM      4  H   UNL d   1      -0.787  -3.229  -1.758  0.00  0.00     0.163 HD
ENDROOT
BRANCH   2   5
ATOM      5  C   UNL d   1      -2.448  -3.373  -0.403  0.00  0.00     0.166 C 
BRANCH   5   6
ATOM      6  C   UNL d   1      -2.851  -4.805  -0.684  0.00  0.00     0.015 A 
ATOM      7  C   UNL d   1      -2.851  -5.745   0.369  0.00  0.00     0.085 A 
ATOM      8  C   UNL d   1      -3.559  -6.951   0.281  0.00  0.00     0.038 A 
ATOM      9  C   UNL d   1      -4.228  -7.283  -0.889  0.00  0.00     0.004 A 
ATOM     10  C   UNL d   1      -4.159  -6.422  -1.978  0.00  0.00     0.024 A 
ATOM     11  C   UNL d   1      -3.481  -5.197  -1.879  0.00  0.00     0.044 A 
ATOM     12 CL   UNL d   1      -3.517  -4.201  -3.284  0.00  0.00    -0.084 Cl
BRANCH   7  13
ATOM     13  O   UNL d   1      -2.270  -5.492   1.592  0.00  0.00    -0.310 OA
BRANCH  13  14
ATOM     14  C   UNL d   1      -0.893  -5.432   1.663  0.00  0.00     0.076 A 
ATOM     15  C   UNL d   1      -0.392  -4.865   2.839  0.00  0.00     0.037 A 
ATOM     16  C   UNL d   1       0.982  -4.710   3.017  0.00  0.00     0.003 A 
ATOM     17  C   UNL d   1       1.863  -5.127   2.021  0.00  0.00     0.000 A 
ATOM     18  C   UNL d   1       1.370  -5.714   0.856  0.00  0.00     0.003 A 
ATOM     19  C   UNL d   1      -0.006  -5.877   0.679  0.00  0.00     0.037 A 
ENDBRANCH  13  14
ENDBRANCH   7  13
ENDBRANCH   5   6
ENDBRANCH   2   5
BRANCH   1  20
ATOM     20  C   UNL d   1      -0.637  -0.696  -2.257  0.00  0.00     0.092 A 
ATOM     21  C   UNL d   1      -0.906   0.116  -3.401  0.00  0.00     0.083 A 
ATOM     22  N   UNL d   1       0.227   0.661  -3.869  0.00  0.00    -0.259 N 
ATOM     23  O   UNL d   1       1.233   0.252  -3.018  0.00  0.00    -0.241 OA
ATOM     24  HN  UNL d   1       0.325   1.258  -4.691  1.00  0.00     0.195 HD
ATOM     25  C   UNL d   1       0.711  -0.534  -2.037  0.00  0.00     0.090 A 
ATOM     26  C   UNL d   1       1.640  -0.924  -0.960  0.00  0.00     0.080 C 
BRANCH  21  27
ATOM     27  C   UNL d   1      -2.200   0.387  -4.024  0.00  0.00    -0.006 A 
ATOM     28  C   UNL d   1      -3.066  -0.665  -4.328  0.00  0.00     0.014 A 
ATOM     29  C   UNL d   1      -4.331  -0.417  -4.867  0.00  0.00     0.001 A 
ATOM     30  C   UNL d   1      -4.731   0.892  -5.119  0.00  0.00     0.000 A 
ATOM     31  C   UNL d   1      -3.866   1.950  -4.841  0.00  0.00     0.001 A 
ATOM     32  C   UNL d   1      -2.600   1.700  -4.297  0.00  0.00     0.014 A 
ENDBRANCH  21  27
ENDBRANCH   1  20
TORSDOF 6
