REMARK  4 active torsions:
REMARK  status: ('A' for Active; 'I' for Inactive)
REMARK    1  A    between atoms: C_8  and  C_5 
REMARK    2  A    between atoms: C_13  and  N_6 
REMARK    3  A    between atoms: C_14  and  C_13 
REMARK    4  A    between atoms: O_18  and  C_15 
ROOT
ATOM      1  N   UNL d   1       2.811  -3.296  -4.045  0.00  0.00    -0.197 NA
ATOM      2  C   UNL d   1       2.467  -2.435  -3.349  0.00  0.00     0.060 C 
ATOM      3  C   UNL d   1       2.027  -1.353  -2.466  0.00  0.00     0.146 C 
ENDROOT
BRANCH   3   4
ATOM      4  C   UNL d   1       0.899  -1.827  -1.564  0.00  0.00     0.168 C 
BRANCH   4   5
ATOM      5  N   UNL d   1       0.450  -0.783  -0.672  0.00  0.00    -0.240 N 
ATOM      6  C   UNL d   1       0.374  -0.850   0.716  0.00  0.00     0.342 A 
ATOM      7  N   UNL d   1      -0.108   0.363   1.108  0.00  0.00    -0.291 N 
ATOM      8  O   UNL d   1       0.687  -1.769   1.452  0.00  0.00    -0.245 OA
ATOM      9  C   UNL d   1      -0.262   1.095  -0.025  0.00  0.00     0.134 A 
ATOM     10  H   UNL d   1      -0.207   0.639   2.068  0.00  0.00     0.172 HD
ATOM     11  N   UNL d   1       0.055   0.461  -1.117  0.00  0.00    -0.279 N 
ATOM     12  HN  UNL d   1       0.019   0.804  -2.076  1.00  0.00     0.189 HD
BRANCH   9  13
ATOM     13  C   UNL d   1      -0.712   2.491   0.053  0.00  0.00     0.009 A 
ATOM     14  C   UNL d   1      -1.529   2.929   1.101  0.00  0.00     0.018 A 
ATOM     15  C   UNL d   1      -1.916   4.272   1.174  0.00  0.00     0.037 A 
ATOM     16  C   UNL d   1      -1.491   5.176   0.200  0.00  0.00     0.068 A 
ATOM     17  C   UNL d   1      -0.672   4.735  -0.842  0.00  0.00     0.037 A 
ATOM     18  C   UNL d   1      -0.295   3.393  -0.928  0.00  0.00     0.018 A 
BRANCH  16  19
ATOM     19  O   UNL d   1      -1.771   6.514   0.194  0.00  0.00    -0.356 OA
ATOM     20  C   UNL d   1      -3.017   6.887   0.774  0.00  0.00     0.210 C 
ENDBRANCH  16  19
ENDBRANCH   9  13
ENDBRANCH   4   5
ENDBRANCH   3   4
TORSDOF 4
