REMARK  4 active torsions:
REMARK  status: ('A' for Active; 'I' for Inactive)
REMARK    1  A    between atoms: N_5  and  C_1 
REMARK    2  A    between atoms: N_8  and  C_2 
REMARK    3  A    between atoms: C_9  and  N_5 
REMARK    4  A    between atoms: C_10  and  C_9 
ROOT
ATOM      1  C   UNL d   1      -2.049   0.201  -1.136  0.00  0.00     0.114 A 
ATOM      2  C   UNL d   1      -1.319   1.312  -1.478  0.00  0.00     0.111 A 
ATOM      3  C   UNL d   1      -2.415  -0.058  -2.555  0.00  0.00     0.252 A 
ATOM      4  C   UNL d   1      -1.645   1.154  -2.918  0.00  0.00     0.252 A 
ATOM      5  O   UNL d   1      -3.006  -0.883  -3.212  0.00  0.00    -0.281 OA
ATOM      6  O   UNL d   1      -1.401   1.697  -3.968  0.00  0.00    -0.281 OA
ENDROOT
BRANCH   1   7
ATOM      7  N   UNL d   1      -2.345  -0.463  -0.037  0.00  0.00    -0.380 N 
ATOM      8  H   UNL d   1      -2.023  -0.153   0.875  0.00  0.00     0.160 HD
BRANCH   7   9
ATOM      9  C   UNL d   1      -3.123  -1.694  -0.005  0.00  0.00     0.158 C 
BRANCH   9  10
ATOM     10  C   UNL d   1      -4.608  -1.429   0.066  0.00  0.00    -0.041 A 
ATOM     11  C   UNL d   1      -5.451  -1.853  -0.973  0.00  0.00     0.009 A 
ATOM     12  C   UNL d   1      -6.834  -1.687  -0.882  0.00  0.00     0.001 A 
ATOM     13  C   UNL d   1      -7.392  -1.088   0.244  0.00  0.00     0.000 A 
ATOM     14  C   UNL d   1      -6.567  -0.643   1.275  0.00  0.00     0.001 A 
ATOM     15  C   UNL d   1      -5.182  -0.810   1.187  0.00  0.00     0.009 A 
ENDBRANCH   9  10
ENDBRANCH   7   9
ENDBRANCH   1   7
BRANCH   2  16
ATOM     16  N   UNL d   1      -0.584   2.223  -0.889  0.00  0.00    -0.394 N 
ATOM     17  H   UNL d   1      -0.415   2.249   0.113  0.00  0.00     0.156 HD
ATOM     18  H   UNL d   1      -0.120   2.976  -1.398  0.00  0.00     0.156 HD
ENDBRANCH   2  16
TORSDOF 4
