REMARK  7 active torsions:
REMARK  status: ('A' for Active; 'I' for Inactive)
REMARK    1  A    between atoms: C_5  and  N_1 
REMARK    2  A    between atoms: C_2  and  C_9 
REMARK    3  A    between atoms: O_6  and  C_2 
REMARK    4  A    between atoms: N_3  and  O_6 
REMARK    5  A    between atoms: C_16  and  C_17 
REMARK    6  A    between atoms: C_17  and  C_21 
REMARK    7  A    between atoms: O_28  and  C_18 
ROOT
ATOM      1  N   UNL d   1      -3.583   3.780  -2.257  0.00  0.00    -0.266 N 
ATOM      2  HN  UNL d   1      -3.267   3.916  -3.217  1.00  0.00     0.194 HD
ATOM      3  C   UNL d   1      -2.782   3.538  -1.264  0.00  0.00     0.010 C 
ATOM      4  C   UNL d   1      -1.291   3.566  -1.562  0.00  0.00     0.055 C 
ATOM      5  C   UNL d   1      -3.221   3.389   0.181  0.00  0.00     0.055 C 
ATOM      6  C   UNL d   1      -0.847   2.652   0.777  0.00  0.00    -0.010 C 
ATOM      7  C   UNL d   1      -2.354   2.389   0.938  0.00  0.00     0.010 C 
ATOM      8  C   UNL d   1      -0.507   2.569  -0.719  0.00  0.00     0.010 C 
ENDROOT
BRANCH   1   9
ATOM      9  O   UNL d   1      -4.934   3.835  -1.868  0.00  0.00    -0.195 OA
BRANCH   9  10
ATOM     10  C   UNL d   1      -5.707   4.222  -2.928  0.00  0.00     0.315 C 
ATOM     11  O   UNL d   1      -5.333   4.542  -4.048  0.00  0.00    -0.257 OA
BRANCH  10  12
ATOM     12  C   UNL d   1      -7.151   4.210  -2.553  0.00  0.00     0.041 A 
ATOM     13  C   UNL d   1      -8.093   4.426  -3.574  0.00  0.00     0.020 A 
ATOM     14  C   UNL d   1      -9.463   4.466  -3.289  0.00  0.00     0.037 A 
ATOM     15  C   UNL d   1      -9.895   4.293  -1.970  0.00  0.00     0.102 A 
ATOM     16  C   UNL d   1      -8.969   4.057  -0.944  0.00  0.00     0.037 A 
ATOM     17  C   UNL d   1      -7.599   4.016  -1.238  0.00  0.00     0.020 A 
BRANCH  15  18
ATOM     18  N   UNL d   1     -11.329   4.378  -1.657  0.00  0.00    -0.116 N 
ATOM     19  O   UNL d   1     -11.666   4.239  -0.472  0.00  0.00    -0.532 OA
ATOM     20  O   UNL d   1     -12.112   4.590  -2.592  0.00  0.00    -0.532 OA
ENDBRANCH  15  18
ENDBRANCH  10  12
ENDBRANCH   9  10
ENDBRANCH   1   9
BRANCH   6  21
ATOM     21  C   UNL d   1      -0.377   3.990   1.401  0.00  0.00     0.043 C 
BRANCH  21  22
ATOM     22  C   UNL d   1      -0.640   4.089   2.885  0.00  0.00    -0.058 A 
ATOM     23  C   UNL d   1      -0.040   3.193   3.778  0.00  0.00     0.010 A 
ATOM     24  C   UNL d   1      -0.330   3.242   5.146  0.00  0.00     0.037 A 
ATOM     25  C   UNL d   1      -1.220   4.196   5.640  0.00  0.00     0.068 A 
ATOM     26  C   UNL d   1      -1.790   5.116   4.760  0.00  0.00     0.037 A 
ATOM     27  C   UNL d   1      -1.504   5.068   3.393  0.00  0.00     0.010 A 
BRANCH  25  28
ATOM     28  O   UNL d   1      -1.610   4.327   6.944  0.00  0.00    -0.356 OA
ATOM     29  C   UNL d   1      -1.123   3.352   7.858  0.00  0.00     0.210 C 
ENDBRANCH  25  28
ENDBRANCH  21  22
ENDBRANCH   6  21
TORSDOF 7
