REMARK  6 active torsions:
REMARK  status: ('A' for Active; 'I' for Inactive)
REMARK    1  A    between atoms: C_5  and  C_1 
REMARK    2  A    between atoms: C_8  and  C_2 
REMARK       I    between atoms: N_11  and  C_8 
REMARK    3  A    between atoms: C_18  and  N_11 
REMARK    4  A    between atoms: C_14  and  O_16 
REMARK    5  A    between atoms: O_16  and  C_19 
REMARK    6  A    between atoms: C_19  and  C_18 
ROOT
ATOM      1  C   UNL d   1      -1.189  -0.843   0.480  0.00  0.00     0.085 A 
ATOM      2  C   UNL d   1       0.023  -1.343  -0.114  0.00  0.00     0.092 A 
ATOM      3  N   UNL d   1      -1.133   0.496   0.569  0.00  0.00    -0.259 N 
ATOM      4  HN  UNL d   1      -1.837   1.106   0.985  1.00  0.00     0.195 HD
ATOM      5  O   UNL d   1       0.049   0.886  -0.003  0.00  0.00    -0.241 OA
ATOM      6  C   UNL d   1       0.750  -0.203  -0.403  0.00  0.00     0.090 A 
ATOM      7  C   UNL d   1       2.043   0.107  -1.043  0.00  0.00     0.080 C 
ENDROOT
BRANCH   2   8
ATOM      8  C   UNL d   1       0.391  -2.719  -0.383  0.00  0.00     0.256 C 
ATOM      9  O   UNL d   1      -0.427  -3.565  -0.722  0.00  0.00    -0.267 OA
ATOM     10  N   UNL d   1       1.720  -3.025  -0.149  0.00  0.00    -0.355 N 
ATOM     11  H   UNL d   1       2.264  -2.359   0.385  0.00  0.00     0.162 HD
BRANCH  10  12
ATOM     12  C   UNL d   1       2.174  -4.406  -0.199  0.00  0.00     0.149 C 
BRANCH  12  13
ATOM     13  C   UNL d   1       3.692  -4.534  -0.081  0.00  0.00     0.195 C 
BRANCH  13  14
ATOM     14  O   UNL d   1       4.053  -5.915  -0.152  0.00  0.00    -0.350 OA
BRANCH  14  15
ATOM     15  C   UNL d   1       5.380  -6.213  -0.007  0.00  0.00     0.068 A 
ATOM     16  C   UNL d   1       6.414  -5.289   0.167  0.00  0.00     0.037 A 
ATOM     17  C   UNL d   1       7.734  -5.725   0.306  0.00  0.00     0.003 A 
ATOM     18  C   UNL d   1       8.032  -7.083   0.276  0.00  0.00     0.000 A 
ATOM     19  C   UNL d   1       7.009  -8.012   0.097  0.00  0.00     0.003 A 
ATOM     20  C   UNL d   1       5.691  -7.575  -0.046  0.00  0.00     0.037 A 
ENDBRANCH  14  15
ENDBRANCH  13  14
ENDBRANCH  12  13
ENDBRANCH  10  12
ENDBRANCH   2   8
BRANCH   1  21
ATOM     21  C   UNL d   1      -2.323  -1.577   1.059  0.00  0.00     0.015 A 
ATOM     22  C   UNL d   1      -3.662  -1.159   0.929  0.00  0.00     0.046 A 
ATOM     23 CL   UNL d   1      -4.154   0.189  -0.041  0.00  0.00    -0.083 Cl
ATOM     24  C   UNL d   1      -4.692  -1.860   1.576  0.00  0.00     0.025 A 
ATOM     25  C   UNL d   1      -4.411  -2.993   2.337  0.00  0.00     0.002 A 
ATOM     26  C   UNL d   1      -3.098  -3.430   2.459  0.00  0.00     0.001 A 
ATOM     27  C   UNL d   1      -2.064  -2.723   1.837  0.00  0.00     0.015 A 
ENDBRANCH   1  21
TORSDOF 6
