REMARK  4 active torsions:
REMARK  status: ('A' for Active; 'I' for Inactive)
REMARK    1  A    between atoms: C_17  and  N_11 
REMARK    2  A    between atoms: C_16  and  C_12 
REMARK    3  A    between atoms: C_20  and  C_17 
REMARK    4  A    between atoms: C_21  and  C_20 
ROOT
ATOM      1  N   UNL d   1       1.243  -0.590  -0.045  0.00  0.00    -0.203 N 
ATOM      2  C   UNL d   1      -1.173  -0.630  -0.032  0.00  0.00     0.062 A 
ATOM      3  C   UNL d   1       1.230   0.801  -0.003  0.00  0.00     0.133 A 
ATOM      4  C   UNL d   1      -1.103   0.702   0.001  0.00  0.00     0.116 A 
ATOM      5  C   UNL d   1       0.082  -1.405  -0.060  0.00  0.00     0.278 A 
ATOM      6  N   UNL d   1       2.509  -1.080  -0.068  0.00  0.00    -0.289 N 
ATOM      7  HN  UNL d   1       2.797  -2.057  -0.124  1.00  0.00     0.188 HD
ATOM      8  N   UNL d   1       0.042   1.446   0.008  0.00  0.00    -0.336 N 
ATOM      9  C   UNL d   1      -2.490   1.205   0.032  0.00  0.00     0.271 A 
ATOM     10  C   UNL d   1       2.532   1.208   0.025  0.00  0.00     0.082 A 
ATOM     11  N   UNL d   1      -3.304   0.084   0.041  0.00  0.00    -0.342 N 
ATOM     12  C   UNL d   1       3.299   0.008   0.001  0.00  0.00     0.062 A 
ATOM     13  C   UNL d   1      -2.549  -1.158  -0.020  0.00  0.00     0.173 A 
ATOM     14  O   UNL d   1       0.128  -2.627  -0.092  0.00  0.00    -0.265 OA
ATOM     15  O   UNL d   1      -2.799   2.382   0.046  0.00  0.00    -0.266 OA
ATOM     16  H   UNL d   1      -0.078   2.459   0.041  0.00  0.00     0.168 HD
ENDROOT
BRANCH  12  17
ATOM     17  C   UNL d   1       4.759  -0.091   0.039  0.00  0.00    -0.008 A 
ATOM     18  C   UNL d   1       5.425  -1.131  -0.623  0.00  0.00     0.014 A 
ATOM     19  C   UNL d   1       6.820  -1.209  -0.598  0.00  0.00     0.001 A 
ATOM     20  C   UNL d   1       7.562  -0.254   0.096  0.00  0.00     0.000 A 
ATOM     21  C   UNL d   1       6.912   0.782   0.764  0.00  0.00     0.001 A 
ATOM     22  C   UNL d   1       5.518   0.864   0.734  0.00  0.00     0.014 A 
ENDBRANCH  12  17
BRANCH  11  23
ATOM     23  C   UNL d   1      -4.753   0.143   0.017  0.00  0.00     0.126 C 
BRANCH  23  24
ATOM     24  C   UNL d   1      -5.416  -0.563   1.198  0.00  0.00     0.020 C 
BRANCH  24  25
ATOM     25  C   UNL d   1      -5.024   0.035   2.551  0.00  0.00    -0.003 C 
ATOM     26  C   UNL d   1      -5.715  -0.698   3.691  0.00  0.00     0.005 C 
ENDBRANCH  24  25
ENDBRANCH  23  24
ENDBRANCH  11  23
TORSDOF 4
