REMARK  5 active torsions:
REMARK  status: ('A' for Active; 'I' for Inactive)
REMARK    1  A    between atoms: C_4  and  C_1 
REMARK    2  A    between atoms: C_12  and  C_2 
REMARK    3  A    between atoms: C_10  and  C_5 
REMARK    4  A    between atoms: N_11  and  N_8 
REMARK    5  A    between atoms: C_13  and  N_11 
ROOT
ATOM      1  S   UNL d   1       4.704   0.887  -0.076  0.00  0.00    -0.099 SA
ATOM      2  C   UNL d   1       2.314  -0.062  -0.041  0.00  0.00     0.025 A 
ATOM      3  C   UNL d   1       4.530  -0.816  -0.087  0.00  0.00     0.023 A 
ATOM      4  C   UNL d   1       3.196  -1.188  -0.065  0.00  0.00     0.041 A 
ATOM      5  C   UNL d   1       3.011   1.126  -0.051  0.00  0.00     0.071 A 
ENDROOT
BRANCH   3   6
ATOM      6  C   UNL d   1       5.724  -1.630  -0.116  0.00  0.00     0.126 C 
ATOM      7  N   UNL d   1       5.654  -2.924  -0.132  0.00  0.00    -0.310 N 
ATOM      8  HN  UNL d   1       4.764  -3.422  -0.141  1.00  0.00     0.186 HD
BRANCH   7   9
ATOM      9  N   UNL d   1       6.859  -3.578  -0.138  0.00  0.00    -0.301 N 
ATOM     10  H   UNL d   1       7.615  -3.208   0.437  0.00  0.00     0.187 HD
BRANCH   9  11
ATOM     11  C   UNL d   1       6.792  -4.992  -0.122  0.00  0.00     0.048 A 
ATOM     12  C   UNL d   1       5.735  -5.670  -0.744  0.00  0.00     0.031 A 
ATOM     13  C   UNL d   1       5.664  -7.064  -0.731  0.00  0.00     0.002 A 
ATOM     14  C   UNL d   1       6.662  -7.804  -0.103  0.00  0.00     0.000 A 
ATOM     15  C   UNL d   1       7.737  -7.149   0.496  0.00  0.00     0.002 A 
ATOM     16  C   UNL d   1       7.809  -5.751   0.474  0.00  0.00     0.031 A 
ENDBRANCH   9  11
ENDBRANCH   7   9
ENDBRANCH   3   6
BRANCH   2  17
ATOM     17  C   UNL d   1       0.880  -0.109  -0.019  0.00  0.00    -0.061 C 
ATOM     18  C   UNL d   1      -0.325  -0.106  -0.025  0.00  0.00    -0.061 C 
BRANCH  18  19
ATOM     19  C   UNL d   1      -1.753  -0.100  -0.081  0.00  0.00     0.018 A 
ATOM     20  C   UNL d   1      -2.457  -1.306  -0.121  0.00  0.00     0.020 A 
ATOM     21  C   UNL d   1      -3.849  -1.306  -0.236  0.00  0.00     0.001 A 
ATOM     22  C   UNL d   1      -4.544  -0.099  -0.297  0.00  0.00     0.000 A 
ATOM     23  C   UNL d   1      -3.850   1.109  -0.232  0.00  0.00     0.001 A 
ATOM     24  C   UNL d   1      -2.456   1.110  -0.123  0.00  0.00     0.020 A 
ENDBRANCH  18  19
ENDBRANCH   2  17
TORSDOF 5
