REMARK  5 active torsions:
REMARK  status: ('A' for Active; 'I' for Inactive)
REMARK    1  A    between atoms: N_2  and  S_1 
REMARK    2  A    between atoms: C_11  and  S_1 
REMARK       I    between atoms: C_4  and  N_2 
REMARK    3  A    between atoms: C_5  and  C_4 
REMARK    4  A    between atoms: C_6  and  C_9 
REMARK    5  A    between atoms: C_10  and  C_12 
ROOT
ATOM      1  N   UNL d   1       0.688   0.734  -1.190  0.00  0.00    -0.277 N 
ATOM      2  HN  UNL d   1       0.423   0.208  -2.023  1.00  0.00     0.179 HD
ATOM      3  C   UNL d   1       0.862   2.130  -1.262  0.00  0.00     0.281 C 
ATOM      4  O   UNL d   1       1.690   2.692  -0.551  0.00  0.00    -0.265 OA
ENDROOT
BRANCH   1   5
ATOM      5  S   UNL d   1       0.898   0.003   0.152  0.00  0.00     0.071 S 
ATOM      6  O   UNL d   1       0.351   0.457   1.422  0.00  0.00    -0.243 OA
ATOM      7  C   UNL d   1       2.637  -0.273   0.410  0.00  0.00     0.144 C 
BRANCH   5   8
ATOM      8  C   UNL d   1       0.257  -1.650  -0.075  0.00  0.00     0.107 A 
ATOM      9  N   UNL d   1       1.165  -2.558  -0.514  0.00  0.00    -0.357 N 
ATOM     10  C   UNL d   1       0.724  -3.830  -0.621  0.00  0.00     0.105 A 
ATOM     11  HN  UNL d   1       2.122  -2.295  -0.750  1.00  0.00     0.166 HD
ATOM     12  C   UNL d   1      -0.566  -4.234  -0.292  0.00  0.00     0.063 A 
ATOM     13  C   UNL d   1      -1.465  -3.262   0.165  0.00  0.00     0.020 A 
ATOM     14  C   UNL d   1      -1.052  -1.936   0.280  0.00  0.00     0.041 A 
BRANCH  12  15
ATOM     15  C   UNL d   1      -0.964  -5.674  -0.410  0.00  0.00     0.418 C 
ATOM     16  F   UNL d   1       0.036  -6.481  -0.861  0.00  0.00    -0.166 F 
ATOM     17  F   UNL d   1      -1.358  -6.202   0.782  0.00  0.00    -0.166 F 
ATOM     18  F   UNL d   1      -2.007  -5.858  -1.264  0.00  0.00    -0.166 F 
ENDBRANCH  12  15
ENDBRANCH   5   8
ENDBRANCH   1   5
BRANCH   3  19
ATOM     19  C   UNL d   1       0.055   2.973  -2.240  0.00  0.00     0.123 A 
ATOM     20  N   UNL d   1      -1.135   2.423  -2.652  0.00  0.00    -0.359 N 
ATOM     21  C   UNL d   1      -1.960   3.185  -3.408  0.00  0.00     0.105 A 
ATOM     22  HN  UNL d   1      -1.389   1.468  -2.397  1.00  0.00     0.165 HD
ATOM     23  C   UNL d   1      -1.685   4.495  -3.767  0.00  0.00     0.065 A 
ATOM     24  C   UNL d   1      -0.446   5.019  -3.383  0.00  0.00     0.044 A 
ATOM     25  C   UNL d   1       0.449   4.252  -2.627  0.00  0.00     0.067 A 
ATOM     26 CL   UNL d   1       1.984   4.966  -2.296  0.00  0.00    -0.082 Cl
BRANCH  23  27
ATOM     27  C   UNL d   1      -2.702   5.298  -4.520  0.00  0.00     0.418 C 
ATOM     28  F   UNL d   1      -2.310   6.581  -4.751  0.00  0.00    -0.166 F 
ATOM     29  F   UNL d   1      -2.992   4.768  -5.737  0.00  0.00    -0.166 F 
ATOM     30  F   UNL d   1      -3.885   5.385  -3.854  0.00  0.00    -0.166 F 
ENDBRANCH  23  27
ENDBRANCH   3  19
TORSDOF 5
