REMARK  3 active torsions:
REMARK  status: ('A' for Active; 'I' for Inactive)
REMARK    1  A    between atoms: C_11  and  C_8 
REMARK    2  A    between atoms: O_15  and  C_11 
REMARK    3  A    between atoms: C_16  and  O_15 
ROOT
ATOM      1  C   UNL d   1       0.804  -0.492  -0.046  0.00  0.00     0.110 A 
ATOM      2  N   UNL d   1      -0.542  -0.440  -0.031  0.00  0.00    -0.294 N 
ATOM      3  C   UNL d   1      -0.846   0.901  -0.024  0.00  0.00     0.156 A 
ATOM      4  C   UNL d   1       1.219   0.791  -0.047  0.00  0.00     0.070 A 
ATOM      5  N   UNL d   1       0.202   1.695  -0.033  0.00  0.00    -0.334 N 
ATOM      6  HN  UNL d   1       0.241   2.714  -0.031  1.00  0.00     0.168 HD
ATOM      7  S   UNL d   1       2.005  -1.631  -0.047  0.00  0.00    -0.064 SA
ATOM      8  C   UNL d   1       3.203  -0.355  -0.015  0.00  0.00     0.084 A 
ATOM      9  C   UNL d   1       2.612   0.911  -0.042  0.00  0.00     0.057 A 
ATOM     10  S   UNL d   1      -2.566   1.140   0.003  0.00  0.00    -0.064 SA
ATOM     11  C   UNL d   1      -1.615  -1.297  -0.014  0.00  0.00     0.107 A 
ATOM     12  C   UNL d   1      -2.779  -0.624   0.005  0.00  0.00     0.071 A 
ENDROOT
BRANCH   8  13
ATOM     13  C   UNL d   1       4.605  -0.711   0.087  0.00  0.00     0.300 C 
ATOM     14  O   UNL d   1       5.066  -1.843   0.149  0.00  0.00    -0.259 OA
BRANCH  13  15
ATOM     15  O   UNL d   1       5.346   0.431   0.194  0.00  0.00    -0.317 OA
BRANCH  15  16
ATOM     16  C   UNL d   1       6.686   0.266   0.675  0.00  0.00     0.174 C 
ATOM     17  C   UNL d   1       6.662   0.375   2.189  0.00  0.00     0.034 C 
ENDBRANCH  15  16
ENDBRANCH  13  15
ENDBRANCH   8  13
TORSDOF 3
