REMARK  8 active torsions:
REMARK  status: ('A' for Active; 'I' for Inactive)
REMARK    1  A    between atoms: C_5  and  C_1 
REMARK    2  A    between atoms: C_11  and  C_2 
REMARK    3  A    between atoms: C_9  and  C_4 
REMARK    4  A    between atoms: C_7  and  O_12 
REMARK    5  A    between atoms: C_8  and  O_13 
REMARK       I    between atoms: N_10  and  C_8 
REMARK    6  A    between atoms: C_23  and  N_10 
REMARK    7  A    between atoms: O_13  and  C_11 
REMARK    8  A    between atoms: O_12  and  C_24 
ROOT
ATOM      1  C   UNL d   1       2.245   1.583   0.081  0.00  0.00     0.222 C 
ENDROOT
BRANCH   1   2
ATOM      2  C   UNL d   1       0.982   0.801   0.239  0.00  0.00     0.008 A 
ATOM      3  C   UNL d   1       0.011   0.537  -0.720  0.00  0.00     0.168 A 
ATOM      4  O   UNL d   1      -0.928  -0.319  -0.208  0.00  0.00    -0.304 OA
ATOM      5  C   UNL d   1      -0.574  -0.617   1.076  0.00  0.00     0.087 A 
ATOM      6  C   UNL d   1       0.568   0.089   1.401  0.00  0.00     0.050 A 
BRANCH   3   7
ATOM      7  C   UNL d   1      -0.159   0.943  -2.139  0.00  0.00     0.440 C 
ATOM      8  F   UNL d   1       0.831   1.776  -2.557  0.00  0.00    -0.164 F 
ATOM      9  F   UNL d   1      -0.138  -0.123  -2.981  0.00  0.00    -0.164 F 
ATOM     10  F   UNL d   1      -1.329   1.595  -2.356  0.00  0.00    -0.164 F 
ENDBRANCH   3   7
BRANCH   5  11
ATOM     11  C   UNL d   1      -1.398  -1.597   1.786  0.00  0.00    -0.002 A 
ATOM     12  C   UNL d   1      -2.528  -2.184   1.195  0.00  0.00     0.016 A 
ATOM     13  C   UNL d   1      -3.284  -3.145   1.882  0.00  0.00     0.024 A 
ATOM     14  C   UNL d   1      -2.915  -3.530   3.168  0.00  0.00     0.034 A 
ATOM     15  C   UNL d   1      -1.799  -2.962   3.773  0.00  0.00     0.024 A 
ATOM     16 CL   UNL d   1      -3.836  -4.713   4.011  0.00  0.00    -0.084 Cl
ATOM     17  C   UNL d   1      -1.048  -2.002   3.085  0.00  0.00     0.016 A 
ENDBRANCH   5  11
ENDBRANCH   1   2
BRANCH   1  18
ATOM     18  O   UNL d   1       2.025   2.986  -0.150  0.00  0.00    -0.299 OA
BRANCH  18  19
ATOM     19  C   UNL d   1       2.557   3.819   0.790  0.00  0.00     0.365 C 
ATOM     20  N   UNL d   1       2.452   5.115   0.352  0.00  0.00    -0.303 N 
ATOM     21  H   UNL d   1       2.062   5.212  -0.575  0.00  0.00     0.171 HD
ATOM     22  O   UNL d   1       3.054   3.432   1.833  0.00  0.00    -0.238 OA
BRANCH  20  23
ATOM     23  C   UNL d   1       2.772   6.291   1.062  0.00  0.00     0.037 A 
ATOM     24  C   UNL d   1       3.247   6.300   2.376  0.00  0.00     0.032 A 
ATOM     25  C   UNL d   1       3.450   7.506   3.068  0.00  0.00     0.039 A 
ATOM     26  C   UNL d   1       3.223   8.725   2.438  0.00  0.00     0.078 A 
ATOM     27  C   UNL d   1       2.771   8.719   1.115  0.00  0.00     0.039 A 
ATOM     28  C   UNL d   1       2.552   7.517   0.429  0.00  0.00     0.032 A 
BRANCH  26  29
ATOM     29  O   UNL d   1       3.395   9.969   2.962  0.00  0.00    -0.255 OA
BRANCH  29  30
ATOM     30  C   UNL d   1       4.013  10.128   4.229  0.00  0.00     0.530 C 
ATOM     31  F   UNL d   1       5.022   9.257   4.435  0.00  0.00    -0.144 F 
ATOM     32  F   UNL d   1       4.533  11.376   4.290  0.00  0.00    -0.144 F 
ATOM     33  F   UNL d   1       3.102  10.004   5.217  0.00  0.00    -0.144 F 
ENDBRANCH  29  30
ENDBRANCH  26  29
ENDBRANCH  20  23
ENDBRANCH  18  19
ENDBRANCH   1  18
TORSDOF 8
