REMARK  5 active torsions:
REMARK  status: ('A' for Active; 'I' for Inactive)
REMARK    1  A    between atoms: C_7  and  C_1 
REMARK    2  A    between atoms: C_11  and  C_4 
REMARK    3  A    between atoms: N_9  and  C_7 
REMARK       I    between atoms: C_8  and  N_9 
REMARK    4  A    between atoms: C_10  and  C_8 
REMARK    5  A    between atoms: O_18  and  C_15 
ROOT
ATOM      1  C   UNL d   1       0.021  -1.239  -0.021  0.00  0.00     0.020 A 
ATOM      2  N   UNL d   1      -1.341   0.590   0.141  0.00  0.00    -0.260 N 
ATOM      3  HN  UNL d   1      -2.156   1.191   0.262  1.00  0.00     0.195 HD
ATOM      4  C   UNL d   1      -1.323  -0.754   0.181  0.00  0.00     0.075 A 
ATOM      5  O   UNL d   1      -0.054   0.998  -0.095  0.00  0.00    -0.242 OA
ATOM      6  C   UNL d   1       0.762  -0.082  -0.187  0.00  0.00     0.082 A 
ATOM      7  C   UNL d   1       2.185   0.234  -0.419  0.00  0.00     0.079 C 
ENDROOT
BRANCH   1   8
ATOM      8  C   UNL d   1       0.449  -2.665  -0.022  0.00  0.00     0.166 C 
BRANCH   8   9
ATOM      9  N   UNL d   1       1.877  -2.829  -0.134  0.00  0.00    -0.352 N 
ATOM     10  C   UNL d   1       2.467  -3.080  -1.356  0.00  0.00     0.251 C 
ATOM     11  O   UNL d   1       1.853  -3.131  -2.413  0.00  0.00    -0.268 OA
ATOM     12  H   UNL d   1       2.396  -2.997   0.716  0.00  0.00     0.163 HD
BRANCH  10  13
ATOM     13  C   UNL d   1       3.932  -3.328  -1.331  0.00  0.00     0.032 A 
ATOM     14  C   UNL d   1       4.489  -4.145  -2.322  0.00  0.00     0.020 A 
ATOM     15  C   UNL d   1       5.861  -4.409  -2.327  0.00  0.00     0.038 A 
ATOM     16  C   UNL d   1       6.683  -3.847  -1.348  0.00  0.00     0.068 A 
ATOM     17  C   UNL d   1       6.132  -2.998  -0.386  0.00  0.00     0.038 A 
ATOM     18  C   UNL d   1       4.761  -2.742  -0.368  0.00  0.00     0.020 A 
BRANCH  16  19
ATOM     19  O   UNL d   1       8.037  -4.014  -1.268  0.00  0.00    -0.356 OA
ATOM     20  C   UNL d   1       8.519  -5.276  -1.716  0.00  0.00     0.210 C 
ENDBRANCH  16  19
ENDBRANCH  10  13
ENDBRANCH   8   9
ENDBRANCH   1   8
BRANCH   4  21
ATOM     21  C   UNL d   1      -2.565  -1.492   0.452  0.00  0.00    -0.007 A 
ATOM     22  C   UNL d   1      -2.790  -2.784  -0.043  0.00  0.00     0.014 A 
ATOM     23  C   UNL d   1      -3.958  -3.484   0.275  0.00  0.00     0.001 A 
ATOM     24  C   UNL d   1      -4.936  -2.888   1.064  0.00  0.00     0.000 A 
ATOM     25  C   UNL d   1      -4.751  -1.591   1.531  0.00  0.00     0.001 A 
ATOM     26  C   UNL d   1      -3.573  -0.900   1.230  0.00  0.00     0.014 A 
ENDBRANCH   4  21
TORSDOF 5
