REMARK  8 active torsions:
REMARK  status: ('A' for Active; 'I' for Inactive)
REMARK    1  A    between atoms: C_9  and  C_1 
REMARK    2  A    between atoms: S_10  and  C_4 
REMARK    3  A    between atoms: C_11  and  C_5 
REMARK    4  A    between atoms: C_16  and  S_10 
REMARK    5  A    between atoms: C_12  and  C_16 
REMARK    6  A    between atoms: O_17  and  C_12 
REMARK    7  A    between atoms: O_19  and  C_13 
REMARK    8  A    between atoms: C_23  and  O_17 
ROOT
ATOM      1  C   UNL d   1       0.978   1.016   0.209  0.00  0.00     0.119 A 
ATOM      2  N   UNL d   1       1.660  -0.132   0.281  0.00  0.00    -0.335 N 
ATOM      3  HN  UNL d   1       2.677  -0.137   0.351  1.00  0.00     0.168 HD
ATOM      4  C   UNL d   1       0.951  -1.291   0.257  0.00  0.00     0.087 A 
ATOM      5  C   UNL d   1      -0.440  -1.341   0.140  0.00  0.00     0.065 A 
ATOM      6  N   UNL d   1      -0.362   1.061   0.155  0.00  0.00    -0.344 N 
ATOM      7  HN  UNL d   1      -0.847   1.959   0.141  1.00  0.00     0.167 HD
ATOM      8  C   UNL d   1      -1.065  -0.097   0.119  0.00  0.00     0.023 A 
ATOM      9  C   UNL d   1      -2.536   0.157  -0.043  0.00  0.00     0.069 C 
ENDROOT
BRANCH   1  10
ATOM     10  C   UNL d   1       1.678   2.294  -0.052  0.00  0.00     0.041 A 
ATOM     11  C   UNL d   1       2.948   2.642   0.455  0.00  0.00     0.082 A 
ATOM     12  C   UNL d   1       3.532   3.870   0.087  0.00  0.00     0.038 A 
ATOM     13  C   UNL d   1       2.867   4.773  -0.746  0.00  0.00     0.003 A 
ATOM     14  C   UNL d   1       1.606   4.465  -1.226  0.00  0.00     0.001 A 
ATOM     15  C   UNL d   1       1.027   3.244  -0.882  0.00  0.00     0.018 A 
BRANCH  11  16
ATOM     16  O   UNL d   1       3.574   1.746   1.288  0.00  0.00    -0.355 OA
ATOM     17  C   UNL d   1       4.592   2.263   2.140  0.00  0.00     0.210 C 
ENDBRANCH  11  16
ENDBRANCH   1  10
BRANCH   4  18
ATOM     18  S   UNL d   1       2.047  -2.702   0.309  0.00  0.00    -0.101 SA
BRANCH  18  19
ATOM     19  C   UNL d   1       2.382  -2.777   2.098  0.00  0.00     0.191 C 
BRANCH  19  20
ATOM     20  C   UNL d   1       1.234  -3.385   2.871  0.00  0.00     0.268 C 
ATOM     21  O   UNL d   1       0.148  -3.717   2.409  0.00  0.00    -0.264 OA
BRANCH  20  22
ATOM     22  O   UNL d   1       1.584  -3.506   4.185  0.00  0.00    -0.321 OA
BRANCH  22  23
ATOM     23  C   UNL d   1       0.571  -4.034   5.056  0.00  0.00     0.174 C 
ATOM     24  C   UNL d   1      -0.315  -2.905   5.548  0.00  0.00     0.034 C 
ENDBRANCH  22  23
ENDBRANCH  20  22
ENDBRANCH  19  20
ENDBRANCH  18  19
ENDBRANCH   4  18
BRANCH   5  25
ATOM     25  C   UNL d   1      -1.256  -2.587   0.078  0.00  0.00     0.160 C 
ATOM     26  O   UNL d   1      -2.310  -2.641   0.712  0.00  0.00    -0.293 OA
ATOM     27  C   UNL d   1      -0.857  -3.732  -0.822  0.00  0.00     0.097 C 
ENDBRANCH   5  25
TORSDOF 8
