REMARK  3 active torsions:
REMARK  status: ('A' for Active; 'I' for Inactive)
REMARK       I    between atoms: N_2  and  C_1 
REMARK    1  A    between atoms: C_7  and  C_1 
REMARK    2  A    between atoms: C_3  and  N_2 
REMARK    3  A    between atoms: C_8  and  C_4 
ROOT
ATOM      1  C   UNL d   1       1.049  -1.090  -2.154  0.00  0.00     0.052 A 
ATOM      2  C   UNL d   1       2.537  -1.717  -4.505  0.00  0.00    -0.049 A 
ATOM      3  C   UNL d   1       2.240  -1.821  -2.075  0.00  0.00     0.038 A 
ATOM      4  C   UNL d   1       2.961  -2.145  -3.231  0.00  0.00     0.029 A 
ATOM      5  C   UNL d   1       0.628  -0.653  -3.410  0.00  0.00     0.031 A 
ATOM      6  C   UNL d   1       1.363  -0.956  -4.563  0.00  0.00     0.010 A 
ATOM      7 BR   UNL d   1       2.900  -2.455  -0.406  0.00  0.00    -0.049 Br
ENDROOT
BRANCH   1   8
ATOM      8  N   UNL d   1       0.332  -0.786  -0.976  0.00  0.00    -0.324 N 
ATOM      9  C   UNL d   1      -1.023  -0.502  -0.894  0.00  0.00     0.255 C 
ATOM     10  O   UNL d   1      -1.809  -0.554  -1.839  0.00  0.00    -0.270 OA
ATOM     11  H   UNL d   1       0.814  -0.981  -0.102  0.00  0.00     0.169 HD
BRANCH   9  12
ATOM     12  C   UNL d   1      -1.512  -0.056   0.486  0.00  0.00     0.270 C 
ATOM     13 CL   UNL d   1      -0.623  -0.877   1.790  0.00  0.00    -0.098 Cl
ATOM     14 CL   UNL d   1      -1.312   1.704   0.609  0.00  0.00    -0.098 Cl
ENDBRANCH   9  12
ENDBRANCH   1   8
BRANCH   2  15
ATOM     15  C   UNL d   1       3.351  -2.085  -5.758  0.00  0.00    -0.024 C 
ATOM     16  C   UNL d   1       2.793  -1.477  -7.065  0.00  0.00     0.019 C 
ATOM     17  C   UNL d   1       4.802  -1.580  -5.607  0.00  0.00     0.019 C 
ATOM     18  C   UNL d   1       3.360  -3.618  -5.934  0.00  0.00     0.019 C 
ENDBRANCH   2  15
TORSDOF 3
