REMARK  5 active torsions:
REMARK  status: ('A' for Active; 'I' for Inactive)
REMARK    1  A    between atoms: C_2  and  S_1 
REMARK    2  A    between atoms: C_6  and  S_1 
REMARK    3  A    between atoms: N_9  and  C_3 
REMARK    4  A    between atoms: C_15  and  C_6 
REMARK    5  A    between atoms: C_10  and  N_9 
ROOT
ATOM      1  C   UNL d   1       0.365  -1.560  -0.567  0.00  0.00     0.154 C 
ATOM      2  C   UNL d   1      -0.183  -2.421   0.313  0.00  0.00     0.123 C 
ATOM      3  C   UNL d   1       0.750  -0.246  -0.173  0.00  0.00     0.113 C 
ATOM      4  N   UNL d   1       1.044   0.799   0.243  0.00  0.00    -0.191 NA
ENDROOT
BRANCH   1   5
ATOM      5  S   UNL d   1       0.753  -2.067  -2.193  0.00  0.00     0.190 S 
ATOM      6  O   UNL d   1       1.702  -3.164  -2.107  0.00  0.00    -0.222 OA
ATOM      7  O   UNL d   1       1.069  -0.892  -2.982  0.00  0.00    -0.222 OA
BRANCH   5   8
ATOM      8  C   UNL d   1      -0.800  -2.725  -2.803  0.00  0.00     0.185 C 
BRANCH   8   9
ATOM      9  C   UNL d   1      -0.728  -3.214  -4.240  0.00  0.00    -0.044 A 
ATOM     10  C   UNL d   1      -0.937  -4.577  -4.528  0.00  0.00     0.010 A 
ATOM     11  C   UNL d   1      -1.061  -5.029  -5.847  0.00  0.00     0.024 A 
ATOM     12  C   UNL d   1      -0.972  -4.123  -6.896  0.00  0.00     0.034 A 
ATOM     13  C   UNL d   1      -0.729  -2.778  -6.642  0.00  0.00     0.024 A 
ATOM     14 CL   UNL d   1      -1.199  -4.665  -8.518  0.00  0.00    -0.084 Cl
ATOM     15  C   UNL d   1      -0.608  -2.325  -5.324  0.00  0.00     0.010 A 
ENDBRANCH   8   9
ENDBRANCH   5   8
ENDBRANCH   1   5
BRANCH   2  16
ATOM     16  N   UNL d   1      -0.648  -2.164   1.585  0.00  0.00    -0.364 N 
ATOM     17  H   UNL d   1      -0.734  -1.190   1.869  0.00  0.00     0.165 HD
BRANCH  16  18
ATOM     18  C   UNL d   1      -0.926  -3.081   2.621  0.00  0.00     0.032 A 
ATOM     19  C   UNL d   1      -0.388  -4.370   2.669  0.00  0.00     0.036 A 
ATOM     20  C   UNL d   1      -0.733  -5.268   3.693  0.00  0.00    -0.059 A 
ATOM     21  C   UNL d   1      -0.138  -6.644   3.745  0.00  0.00     0.048 C 
ATOM     22  C   UNL d   1      -1.657  -4.874   4.668  0.00  0.00     0.013 A 
ATOM     23  C   UNL d   1      -2.219  -3.595   4.642  0.00  0.00    -0.059 A 
ATOM     24  C   UNL d   1      -1.845  -2.708   3.621  0.00  0.00     0.036 A 
ATOM     25  C   UNL d   1      -3.224  -3.200   5.685  0.00  0.00     0.048 C 
ENDBRANCH  16  18
ENDBRANCH   2  16
TORSDOF 5
