REMARK  7 active torsions:
REMARK  status: ('A' for Active; 'I' for Inactive)
REMARK    1  A    between atoms: O_7  and  C_1 
REMARK    2  A    between atoms: C_3  and  C_17 
REMARK       I    between atoms: N_9  and  C_3 
REMARK    3  A    between atoms: C_20  and  O_7 
REMARK    4  A    between atoms: C_21  and  N_9 
REMARK    5  A    between atoms: S_11  and  C_19 
REMARK    6  A    between atoms: C_17  and  S_11 
REMARK    7  A    between atoms: C_18  and  C_21 
ROOT
ATOM      1  C   UNL d   1       4.093  -8.387   0.425  0.00  0.00     0.227 C 
ATOM      2  N   UNL d   1       3.128  -9.352   0.599  0.00  0.00    -0.356 N 
ATOM      3  O   UNL d   1       5.255  -8.660   0.130  0.00  0.00    -0.273 OA
ATOM      4  H   UNL d   1       2.183  -9.061   0.816  0.00  0.00     0.162 HD
ENDROOT
BRANCH   1   5
ATOM      5  C   UNL d   1       3.648  -6.931   0.490  0.00  0.00     0.182 C 
BRANCH   5   6
ATOM      6  S   UNL d   1       2.204  -6.589   1.545  0.00  0.00    -0.121 SA
BRANCH   6   7
ATOM      7  C   UNL d   1       2.740  -7.173   3.142  0.00  0.00     0.001 A 
ATOM      8  C   UNL d   1       4.065  -7.127   3.583  0.00  0.00     0.021 A 
ATOM      9  C   UNL d   1       4.434  -7.733   4.788  0.00  0.00     0.038 A 
ATOM     10  C   UNL d   1       3.485  -8.408   5.550  0.00  0.00     0.078 A 
ATOM     11  C   UNL d   1       2.143  -8.352   5.176  0.00  0.00     0.038 A 
ATOM     12  C   UNL d   1       1.771  -7.736   3.978  0.00  0.00     0.021 A 
BRANCH  10  13
ATOM     13  O   UNL d   1       3.752  -9.084   6.700  0.00  0.00    -0.255 OA
BRANCH  13  14
ATOM     14  C   UNL d   1       4.910  -9.915   6.724  0.00  0.00     0.530 C 
ATOM     15  F   UNL d   1       5.618  -9.927   5.574  0.00  0.00    -0.144 F 
ATOM     16  F   UNL d   1       4.532 -11.185   6.997  0.00  0.00    -0.144 F 
ATOM     17  F   UNL d   1       5.721  -9.497   7.720  0.00  0.00    -0.144 F 
ENDBRANCH  13  14
ENDBRANCH  10  13
ENDBRANCH   6   7
ENDBRANCH   5   6
ENDBRANCH   1   5
BRANCH   2  18
ATOM     18  C   UNL d   1       3.385 -10.752   0.318  0.00  0.00     0.161 C 
BRANCH  18  19
ATOM     19  C   UNL d   1       3.117 -11.715   1.454  0.00  0.00    -0.038 A 
ATOM     20  C   UNL d   1       2.704 -11.312   2.732  0.00  0.00     0.048 A 
ATOM     21  C   UNL d   1       2.486 -12.281   3.693  0.00  0.00     0.105 A 
ATOM     22  O   UNL d   1       2.075 -12.057   4.970  0.00  0.00    -0.323 OA
ATOM     23  C   UNL d   1       2.674 -13.618   3.432  0.00  0.00     0.105 A 
ATOM     24  C   UNL d   1       2.009 -13.408   5.475  0.00  0.00     0.352 A 
ATOM     25  O   UNL d   1       2.406 -14.402   4.509  0.00  0.00    -0.323 OA
ATOM     26  C   UNL d   1       3.090 -14.060   2.198  0.00  0.00     0.040 A 
ATOM     27  C   UNL d   1       3.309 -13.099   1.205  0.00  0.00     0.012 A 
ENDBRANCH  18  19
ENDBRANCH   2  18
TORSDOF 7
