REMARK  4 active torsions:
REMARK  status: ('A' for Active; 'I' for Inactive)
REMARK    1  A    between atoms: N_2  and  C_1 
REMARK       I    between atoms: C_3  and  N_2 
REMARK    2  A    between atoms: C_5  and  C_3 
REMARK    3  A    between atoms: C_4  and  C_6 
REMARK    4  A    between atoms: C_17  and  C_10 
ROOT
ATOM      1  N   UNL d   1       1.077   2.340   0.613  0.00  0.00    -0.323 N 
ATOM      2  C   UNL d   1       1.055   3.246   1.639  0.00  0.00     0.245 C 
ATOM      3  O   UNL d   1       2.047   3.955   1.829  0.00  0.00    -0.268 OA
ATOM      4  H   UNL d   1       2.025   2.260   0.270  0.00  0.00     0.169 HD
ENDROOT
BRANCH   1   5
ATOM      5  C   UNL d   1       0.155   1.360   0.173  0.00  0.00     0.047 C 
ATOM      6  C   UNL d   1      -1.242   1.468   0.277  0.00  0.00    -0.035 C 
ATOM      7  C   UNL d   1      -2.036   0.312   0.176  0.00  0.00     0.009 C 
ATOM      8  C   UNL d   1      -1.977   2.783   0.260  0.00  0.00     0.050 C 
ATOM      9  C   UNL d   1      -1.477  -0.907  -0.178  0.00  0.00     0.001 C 
ATOM     10  C   UNL d   1      -0.137  -0.955  -0.540  0.00  0.00     0.009 C 
ATOM     11  C   UNL d   1       0.680   0.184  -0.418  0.00  0.00    -0.031 C 
BRANCH  11  12
ATOM     12  C   UNL d   1       2.052   0.127  -1.060  0.00  0.00     0.036 C 
ATOM     13  C   UNL d   1       2.045   0.909  -2.374  0.00  0.00     0.010 C 
ENDBRANCH  11  12
ENDBRANCH   1   5
BRANCH   2  14
ATOM     14  C   UNL d   1      -0.125   3.367   2.523  0.00  0.00     0.077 C 
ATOM     15  C   UNL d   1      -0.432   4.580   3.002  0.00  0.00     0.042 C 
BRANCH  15  16
ATOM     16  C   UNL d   1      -1.706   4.829   3.589  0.00  0.00     0.075 A 
ATOM     17  O   UNL d   1      -2.746   3.921   3.595  0.00  0.00    -0.323 OA
ATOM     18  C   UNL d   1      -3.848   4.530   4.091  0.00  0.00     0.142 A 
ATOM     19  C   UNL d   1      -3.558   5.822   4.453  0.00  0.00     0.027 A 
ATOM     20  C   UNL d   1      -2.188   6.007   4.150  0.00  0.00     0.039 A 
ENDBRANCH  15  16
ENDBRANCH   2  14
TORSDOF 4
