REMARK  5 active torsions:
REMARK  status: ('A' for Active; 'I' for Inactive)
REMARK    1  A    between atoms: C_4  and  C_1 
REMARK    2  A    between atoms: C_5  and  C_1 
REMARK    3  A    between atoms: N_6  and  N_2 
REMARK    4  A    between atoms: C_9  and  N_6 
REMARK    5  A    between atoms: O_15  and  C_10 
ROOT
ATOM      1  N   UNL d   1       1.043  -0.876  -2.211  0.00  0.00    -0.300 N 
ATOM      2  H   UNL d   1       2.062  -0.768  -2.305  0.00  0.00     0.187 HD
ENDROOT
BRANCH   1   3
ATOM      3  N   UNL d   1       0.389  -0.352  -1.146  0.00  0.00    -0.294 N 
ATOM      4  C   UNL d   1       1.076  -0.162  -0.051  0.00  0.00     0.139 C 
ATOM      5  HN  UNL d   1      -0.602  -0.116  -1.196  1.00  0.00     0.187 HD
BRANCH   4   6
ATOM      6  C   UNL d   1       0.275   0.296   1.153  0.00  0.00     0.177 C 
ATOM      7  O   UNL d   1       0.837   0.982   1.998  0.00  0.00    -0.291 OA
ATOM      8  C   UNL d   1      -1.147  -0.176   1.278  0.00  0.00     0.098 C 
ENDBRANCH   4   6
BRANCH   4   9
ATOM      9  C   UNL d   1       2.579  -0.395   0.035  0.00  0.00     0.177 C 
ATOM     10  O   UNL d   1       3.278  -0.217  -0.962  0.00  0.00    -0.291 OA
ATOM     11  C   UNL d   1       3.160  -0.862   1.336  0.00  0.00     0.098 C 
ENDBRANCH   4   9
ENDBRANCH   1   3
BRANCH   1  12
ATOM     12  C   UNL d   1       0.374  -0.996  -3.443  0.00  0.00     0.048 A 
ATOM     13  C   UNL d   1      -0.720  -0.201  -3.799  0.00  0.00     0.034 A 
ATOM     14  C   UNL d   1      -1.385  -0.397  -5.018  0.00  0.00     0.039 A 
ATOM     15  C   UNL d   1      -0.984  -1.421  -5.875  0.00  0.00     0.068 A 
ATOM     16  C   UNL d   1       0.115  -2.208  -5.533  0.00  0.00     0.039 A 
ATOM     17  C   UNL d   1       0.791  -1.994  -4.330  0.00  0.00     0.034 A 
BRANCH  15  18
ATOM     18  O   UNL d   1      -1.564  -1.724  -7.076  0.00  0.00    -0.356 OA
ATOM     19  C   UNL d   1      -2.943  -1.395  -7.192  0.00  0.00     0.210 C 
ENDBRANCH  15  18
ENDBRANCH   1  12
TORSDOF 5
