REMARK  3 active torsions:
REMARK  status: ('A' for Active; 'I' for Inactive)
REMARK    1  A    between atoms: N_8  and  C_5 
REMARK    2  A    between atoms: C_9  and  C_6 
REMARK    3  A    between atoms: C_11  and  N_8 
ROOT
ATOM      1  N   UNL d   1      -0.405   1.256  -0.007  0.00  0.00    -0.301 N 
ATOM      2  HN  UNL d   1      -0.528   2.255   0.158  1.00  0.00     0.186 HD
ATOM      3  N   UNL d   1       0.866   0.740  -0.287  0.00  0.00    -0.280 N 
ATOM      4  HN  UNL d   1       1.535   1.329  -0.784  1.00  0.00     0.189 HD
ATOM      5  C   UNL d   1       1.227  -0.457   0.059  0.00  0.00     0.155 C 
ATOM      6  C   UNL d   1      -1.426   0.456   0.042  0.00  0.00     0.045 C 
ATOM      7  S   UNL d   1       0.128  -1.615   0.775  0.00  0.00    -0.087 SA
ATOM      8  C   UNL d   1      -1.323  -1.038  -0.120  0.00  0.00     0.142 C 
ENDROOT
BRANCH   6   9
ATOM      9  C   UNL d   1      -2.782   1.036   0.267  0.00  0.00    -0.011 A 
ATOM     10  C   UNL d   1      -3.919   0.458  -0.313  0.00  0.00     0.015 A 
ATOM     11  C   UNL d   1      -5.184   0.995  -0.056  0.00  0.00     0.024 A 
ATOM     12  C   UNL d   1      -5.311   2.110   0.771  0.00  0.00     0.034 A 
ATOM     13  C   UNL d   1      -4.182   2.709   1.327  0.00  0.00     0.024 A 
ATOM     14 CL   UNL d   1      -6.873   2.745   1.110  0.00  0.00    -0.084 Cl
ATOM     15  C   UNL d   1      -2.915   2.177   1.069  0.00  0.00     0.015 A 
ENDBRANCH   6   9
BRANCH   5  16
ATOM     16  N   UNL d   1       2.478  -0.993  -0.095  0.00  0.00    -0.362 N 
ATOM     17  H   UNL d   1       2.592  -1.856   0.425  0.00  0.00     0.162 HD
BRANCH  16  18
ATOM     18  C   UNL d   1       3.710  -0.234  -0.312  0.00  0.00     0.021 C 
ATOM     19  C   UNL d   1       3.942   0.754   0.838  0.00  0.00     0.037 C 
ATOM     20  C   UNL d   1       4.876  -1.242  -0.335  0.00  0.00     0.037 C 
ATOM     21  C   UNL d   1       3.676   0.491  -1.663  0.00  0.00     0.037 C 
ENDBRANCH  16  18
ENDBRANCH   5  16
TORSDOF 3
