REMARK  2 active torsions:
REMARK  status: ('A' for Active; 'I' for Inactive)
REMARK    1  A    between atoms: C_7  and  C_3 
REMARK    2  A    between atoms: C_12  and  C_4 
ROOT
ATOM      1  N   UNL d   1       6.769   4.979   0.202  0.00  0.00    -0.191 NA
ATOM      2  C   UNL d   1       5.868   4.251   0.134  0.00  0.00     0.099 C 
ATOM      3  C   UNL d   1       2.499   1.657  -0.022  0.00  0.00    -0.009 A 
ATOM      4  C   UNL d   1       2.449   2.937  -0.598  0.00  0.00     0.015 A 
ATOM      5  C   UNL d   1       3.699   1.234   0.567  0.00  0.00     0.015 A 
ATOM      6  C   UNL d   1       4.742   3.366   0.059  0.00  0.00     0.044 A 
ATOM      7  C   UNL d   1       4.812   2.083   0.612  0.00  0.00     0.023 A 
ATOM      8  C   UNL d   1       3.561   3.786  -0.557  0.00  0.00     0.023 A 
ENDROOT
BRANCH   3   9
ATOM      9  C   UNL d   1       1.332   0.779  -0.015  0.00  0.00     0.050 A 
ATOM     10  N   UNL d   1       1.451  -0.605   0.016  0.00  0.00    -0.349 N 
ATOM     11  C   UNL d   1       0.259  -1.174  -0.014  0.00  0.00     0.085 A 
ATOM     12  HN  UNL d   1       2.336  -1.111   0.057  1.00  0.00     0.166 HD
ATOM     13  S   UNL d   1      -1.064  -0.064   0.010  0.00  0.00    -0.081 SA
ATOM     14  C   UNL d   1       0.033   1.244   0.002  0.00  0.00     0.082 A 
BRANCH  11  15
ATOM     15  C   UNL d   1       0.015  -2.629  -0.033  0.00  0.00     0.001 A 
ATOM     16  C   UNL d   1       0.933  -3.499   0.578  0.00  0.00     0.054 A 
ATOM     17  C   UNL d   1       0.734  -4.883   0.547  0.00  0.00     0.103 A 
ATOM     18  O   UNL d   1       1.682  -5.659   1.165  0.00  0.00    -0.346 OA
ATOM     19  C   UNL d   1      -0.393  -5.417  -0.082  0.00  0.00     0.102 A 
ATOM     20  C   UNL d   1       1.575  -7.033   0.771  0.00  0.00     0.202 C 
ATOM     21  C   UNL d   1       0.128  -7.497   0.793  0.00  0.00     0.202 C 
ATOM     22  O   UNL d   1      -0.660  -6.759  -0.147  0.00  0.00    -0.346 OA
ATOM     23  C   UNL d   1      -1.306  -4.572  -0.702  0.00  0.00     0.040 A 
ATOM     24  C   UNL d   1      -1.105  -3.189  -0.675  0.00  0.00     0.017 A 
ENDBRANCH  11  15
ENDBRANCH   3   9
TORSDOF 2
