REMARK  6 active torsions:
REMARK  status: ('A' for Active; 'I' for Inactive)
REMARK    1  A    between atoms: C_10  and  C_1 
REMARK    2  A    between atoms: C_15  and  N_2 
REMARK    3  A    between atoms: C_6  and  C_16 
REMARK    4  A    between atoms: C_17  and  C_9 
REMARK       I    between atoms: N_14  and  C_10 
REMARK    5  A    between atoms: C_23  and  N_14 
REMARK    6  A    between atoms: C_25  and  C_15 
ROOT
ATOM      1  C   UNL d   1      -0.531  -3.098   0.197  0.00  0.00     0.274 C 
ATOM      2  N   UNL d   1       0.095  -3.731   1.270  0.00  0.00    -0.322 N 
ATOM      3  O   UNL d   1      -1.176  -3.668  -0.667  0.00  0.00    -0.266 OA
ATOM      4  H   UNL d   1       0.290  -3.141   2.069  0.00  0.00     0.169 HD
ENDROOT
BRANCH   1   5
ATOM      5  C   UNL d   1      -0.369  -1.655   0.227  0.00  0.00     0.121 C 
ATOM      6  N   UNL d   1       0.835  -0.994   0.147  0.00  0.00    -0.282 N 
ATOM      7  N   UNL d   1       0.728   0.338   0.282  0.00  0.00    -0.301 N 
ATOM      8  C   UNL d   1      -0.587   0.591   0.213  0.00  0.00     0.036 C 
ATOM      9  HN  UNL d   1       1.484   1.011   0.409  1.00  0.00     0.187 HD
ATOM     10  C   UNL d   1      -1.313  -0.633   0.189  0.00  0.00     0.064 C 
BRANCH   6  11
ATOM     11  C   UNL d   1       2.149  -1.554  -0.139  0.00  0.00     0.188 C 
BRANCH  11  12
ATOM     12  C   UNL d   1       2.405  -1.623  -1.622  0.00  0.00    -0.038 A 
ATOM     13  C   UNL d   1       2.777  -0.470  -2.333  0.00  0.00     0.009 A 
ATOM     14  C   UNL d   1       3.022  -0.531  -3.706  0.00  0.00     0.001 A 
ATOM     15  C   UNL d   1       2.891  -1.741  -4.383  0.00  0.00     0.000 A 
ATOM     16  C   UNL d   1       2.499  -2.887  -3.693  0.00  0.00     0.001 A 
ATOM     17  C   UNL d   1       2.253  -2.829  -2.320  0.00  0.00     0.009 A 
ENDBRANCH  11  12
ENDBRANCH   6  11
BRANCH   8  18
ATOM     18  C   UNL d   1      -1.040   2.048   0.132  0.00  0.00    -0.007 C 
ATOM     19  C   UNL d   1      -2.566   2.216   0.278  0.00  0.00     0.021 C 
ATOM     20  C   UNL d   1      -0.370   2.885   1.247  0.00  0.00     0.021 C 
ATOM     21  C   UNL d   1      -0.625   2.644  -1.232  0.00  0.00     0.021 C 
ENDBRANCH   8  18
ENDBRANCH   1   5
BRANCH   2  22
ATOM     22  C   UNL d   1       0.172  -5.128   1.484  0.00  0.00     0.035 A 
ATOM     23  C   UNL d   1       0.192  -6.062   0.449  0.00  0.00     0.030 A 
ATOM     24  C   UNL d   1       0.193  -7.436   0.737  0.00  0.00     0.016 A 
ATOM     25  C   UNL d   1       0.149  -7.907   2.060  0.00  0.00    -0.002 A 
ATOM     26  C   UNL d   1       0.199  -6.968   3.095  0.00  0.00     0.016 A 
ATOM     27  C   UNL d   1       0.232  -5.592   2.805  0.00  0.00     0.030 A 
BRANCH  25  28
ATOM     28  C   UNL d   1      -0.087  -9.340   2.292  0.00  0.00     0.085 A 
ATOM     29  N   UNL d   1      -1.075  -9.991   1.718  0.00  0.00    -0.349 N 
ATOM     30  C   UNL d   1      -0.966 -11.345   1.953  0.00  0.00     0.050 A 
ATOM     31  HN  UNL d   1      -1.820  -9.554   1.174  1.00  0.00     0.166 HD
ATOM     32  C   UNL d   1      -1.811 -12.333   1.415  0.00  0.00     0.031 A 
ATOM     33  C   UNL d   1       0.111 -11.732   2.752  0.00  0.00     0.034 A 
ATOM     34  C   UNL d   1      -1.501 -13.683   1.592  0.00  0.00     0.009 A 
ATOM     35  C   UNL d   1      -0.381 -14.066   2.333  0.00  0.00    -0.061 A 
ATOM     36  C   UNL d   1       0.396 -13.092   2.990  0.00  0.00     0.028 A 
ATOM     37  C   UNL d   1       0.003 -15.518   2.404  0.00  0.00     0.048 C 
ATOM     38  S   UNL d   1       0.941 -10.304   3.277  0.00  0.00    -0.070 SA
ENDBRANCH  25  28
ENDBRANCH   2  22
TORSDOF 6
