REMARK  4 active torsions:
REMARK  status: ('A' for Active; 'I' for Inactive)
REMARK    1  A    between atoms: C_2  and  C_5 
REMARK       I    between atoms: C_5  and  N_10 
REMARK    2  A    between atoms: N_10  and  C_19 
REMARK    3  A    between atoms: C_18  and  N_12 
REMARK    4  A    between atoms: C_20  and  C_18 
ROOT
ATOM      1  C   UNL d   1      -4.209  -3.650   3.215  0.00  0.00     0.035 A 
ATOM      2  C   UNL d   1      -3.080  -1.205   2.318  0.00  0.00    -0.030 A 
ATOM      3  C   UNL d   1      -3.154  -3.633   2.300  0.00  0.00     0.030 A 
ATOM      4  C   UNL d   1      -4.725  -2.423   3.648  0.00  0.00     0.030 A 
ATOM      5  C   UNL d   1      -4.166  -1.209   3.204  0.00  0.00     0.011 A 
ATOM      6  C   UNL d   1      -2.595  -2.432   1.862  0.00  0.00     0.011 A 
ENDROOT
BRANCH   1   7
ATOM      7  N   UNL d   1      -4.771  -4.847   3.720  0.00  0.00    -0.322 N 
ATOM      8  C   UNL d   1      -4.335  -6.137   3.443  0.00  0.00     0.274 C 
ATOM      9  O   UNL d   1      -3.383  -6.441   2.734  0.00  0.00    -0.266 OA
ATOM     10  H   UNL d   1      -5.557  -4.777   4.357  0.00  0.00     0.169 HD
BRANCH   8  11
ATOM     11  C   UNL d   1      -5.143  -7.203   4.046  0.00  0.00     0.125 A 
ATOM     12  N   UNL d   1      -6.136  -6.981   4.924  0.00  0.00    -0.256 N 
ATOM     13  O   UNL d   1      -6.694  -8.229   5.180  0.00  0.00    -0.242 OA
ATOM     14  HN  UNL d   1      -6.421  -6.085   5.320  1.00  0.00     0.195 HD
ATOM     15  C   UNL d   1      -6.045  -9.178   4.451  0.00  0.00     0.075 A 
ATOM     16  C   UNL d   1      -5.020  -8.589   3.762  0.00  0.00     0.071 A 
ATOM     17  C   UNL d   1      -6.571 -10.553   4.509  0.00  0.00     0.079 C 
ENDBRANCH   8  11
ENDBRANCH   1   7
BRANCH   2  18
ATOM     18  C   UNL d   1      -2.444   0.073   1.813  0.00  0.00     0.311 C 
BRANCH  18  19
ATOM     19  N   UNL d   1      -1.842   0.929   2.851  0.00  0.00     0.094 N 
ATOM     20  C   UNL d   1      -0.810   0.280   3.678  0.00  0.00     0.287 C 
ATOM     21  C   UNL d   1       0.458  -0.125   2.949  0.00  0.00     0.170 C 
ATOM     22  S   UNL d   1       1.210   1.278   2.162  0.00  0.00     0.147 S 
ATOM     23  C   UNL d   1      -0.155   2.073   1.351  0.00  0.00     0.170 C 
ATOM     24  O   UNL d   1       2.099   0.778   1.129  0.00  0.00    -0.228 OA
ATOM     25  O   UNL d   1       1.704   2.169   3.190  0.00  0.00    -0.228 OA
ATOM     26  C   UNL d   1      -1.340   2.200   2.295  0.00  0.00     0.287 C 
ENDBRANCH  18  19
ENDBRANCH   2  18
TORSDOF 4
