REMARK  6 active torsions:
REMARK  status: ('A' for Active; 'I' for Inactive)
REMARK    1  A    between atoms: N_3  and  S_1 
REMARK    2  A    between atoms: C_10  and  S_1 
REMARK    3  A    between atoms: S_2  and  N_5 
REMARK    4  A    between atoms: C_11  and  S_2 
REMARK    5  A    between atoms: C_4  and  N_3 
REMARK    6  A    between atoms: N_5  and  C_23 
ROOT
ATOM      1  C   UNL d   1       0.531  -1.397   0.799  0.00  0.00     0.075 A 
ATOM      2  C   UNL d   1       0.888  -2.615   0.212  0.00  0.00     0.027 A 
ATOM      3  C   UNL d   1      -0.065  -1.370   2.065  0.00  0.00     0.027 A 
ATOM      4  C   UNL d   1      -0.032  -3.788   2.113  0.00  0.00     0.042 A 
ATOM      5  C   UNL d   1      -0.340  -2.571   2.724  0.00  0.00     0.031 A 
ATOM      6  C   UNL d   1       0.594  -3.813   0.867  0.00  0.00     0.031 A 
ENDROOT
BRANCH   1   7
ATOM      7  S   UNL d   1       0.981   0.127  -0.003  0.00  0.00     0.248 S 
ATOM      8  O   UNL d   1       0.992   1.148   1.027  0.00  0.00    -0.205 OA
ATOM      9  O   UNL d   1       2.166  -0.114  -0.798  0.00  0.00    -0.205 OA
BRANCH   7  10
ATOM     10  N   UNL d   1      -0.326   0.491  -0.974  0.00  0.00    -0.151 NA
ATOM     11  H   UNL d   1      -0.452   1.497  -1.010  0.00  0.00     0.149 HD
BRANCH  10  12
ATOM     12  C   UNL d   1      -0.266  -0.049  -2.257  0.00  0.00     0.171 A 
ATOM     13  N   UNL d   1      -0.631  -1.321  -2.415  0.00  0.00    -0.336 N 
ATOM     14  C   UNL d   1      -0.653  -1.762  -3.689  0.00  0.00     0.009 A 
ATOM     15  HN  UNL d   1      -0.876  -1.920  -1.626  1.00  0.00     0.168 HD
ATOM     16  C   UNL d   1      -1.137  -3.162  -3.934  0.00  0.00     0.068 C 
ATOM     17  C   UNL d   1      -0.284  -0.964  -4.759  0.00  0.00     0.049 A 
ATOM     18  C   UNL d   1       0.090   0.335  -4.466  0.00  0.00     0.009 A 
ATOM     19  N   UNL d   1       0.075   0.823  -3.209  0.00  0.00    -0.336 N 
ATOM     20  C   UNL d   1       0.510   1.264  -5.567  0.00  0.00     0.068 C 
ATOM     21  HN  UNL d   1       0.308   1.793  -2.999  1.00  0.00     0.168 HD
ENDBRANCH  10  12
ENDBRANCH   7  10
ENDBRANCH   1   7
BRANCH   4  22
ATOM     22  N   UNL d   1      -0.327  -4.998   2.780  0.00  0.00    -0.281 N 
ATOM     23  H   UNL d   1       0.232  -5.306   3.571  0.00  0.00     0.179 HD
BRANCH  22  24
ATOM     24  S   UNL d   1      -1.751  -5.828   2.477  0.00  0.00     0.263 S 
ATOM     25  O   UNL d   1      -1.837  -6.110   1.061  0.00  0.00    -0.200 OA
ATOM     26  O   UNL d   1      -1.803  -6.898   3.454  0.00  0.00    -0.200 OA
BRANCH  24  27
ATOM     27  C   UNL d   1      -3.029  -4.660   2.891  0.00  0.00     0.079 A 
ATOM     28  C   UNL d   1      -3.559  -3.844   1.887  0.00  0.00     0.026 A 
ATOM     29  C   UNL d   1      -4.553  -2.917   2.203  0.00  0.00     0.008 A 
ATOM     30  C   UNL d   1      -5.032  -2.806   3.516  0.00  0.00    -0.062 A 
ATOM     31  C   UNL d   1      -4.524  -3.660   4.504  0.00  0.00     0.008 A 
ATOM     32  C   UNL d   1      -6.078  -1.780   3.841  0.00  0.00     0.048 C 
ATOM     33  C   UNL d   1      -3.527  -4.592   4.195  0.00  0.00     0.026 A 
ENDBRANCH  24  27
ENDBRANCH  22  24
ENDBRANCH   4  22
TORSDOF 6
