REMARK  7 active torsions:
REMARK  status: ('A' for Active; 'I' for Inactive)
REMARK    1  A    between atoms: S_16  and  C_2 
REMARK    2  A    between atoms: C_18  and  C_3 
REMARK    3  A    between atoms: C_10  and  C_11 
REMARK    4  A    between atoms: C_12  and  S_17 
REMARK    5  A    between atoms: C_23  and  S_16 
REMARK    6  A    between atoms: S_17  and  C_18 
REMARK    7  A    between atoms: C_25  and  C_23 
ROOT
ATOM      1  N   UNL d   1       0.884   0.145   0.056  0.00  0.00    -0.319 N 
ATOM      2  C   UNL d   1      -0.004   1.188   0.093  0.00  0.00     0.162 A 
ATOM      3  C   UNL d   1       0.116  -1.004   0.007  0.00  0.00     0.109 A 
ATOM      4  N   UNL d   1      -1.229   0.720   0.045  0.00  0.00    -0.278 N 
ATOM      5  HN  UNL d   1      -2.084   1.276   0.050  1.00  0.00     0.189 HD
ATOM      6  N   UNL d   1      -1.157  -0.651  -0.011  0.00  0.00    -0.286 N 
ATOM      7  HN  UNL d   1      -1.951  -1.288  -0.059  1.00  0.00     0.188 HD
ATOM      8  C   UNL d   1       2.324   0.194   0.074  0.00  0.00     0.159 C 
ENDROOT
BRANCH   3   9
ATOM      9  C   UNL d   1       0.632  -2.408  -0.060  0.00  0.00     0.157 C 
BRANCH   9  10
ATOM     10  S   UNL d   1       1.265  -2.961   1.568  0.00  0.00    -0.121 SA
BRANCH  10  11
ATOM     11  C   UNL d   1       1.905  -4.601   1.176  0.00  0.00     0.015 A 
ATOM     12  C   UNL d   1       3.297  -4.743   1.225  0.00  0.00     0.053 A 
ATOM     13  C   UNL d   1       3.862  -5.998   1.027  0.00  0.00     0.118 A 
ATOM     14  N   UNL d   1       3.096  -7.092   0.773  0.00  0.00    -0.352 N 
ATOM     15  C   UNL d   1       1.763  -6.970   0.747  0.00  0.00     0.044 A 
ATOM     16  HN  UNL d   1       3.533  -7.998   0.604  1.00  0.00     0.166 HD
ATOM     17  C   UNL d   1       1.091  -5.741   0.949  0.00  0.00     0.007 A 
ATOM     18  C   UNL d   1       1.022  -8.124   0.531  0.00  0.00     0.030 A 
ATOM     19  C   UNL d   1      -0.325  -5.746   0.938  0.00  0.00     0.015 A 
ATOM     20  C   UNL d   1      -1.048  -6.919   0.715  0.00  0.00     0.001 A 
ATOM     21  C   UNL d   1      -0.373  -8.112   0.510  0.00  0.00     0.002 A 
BRANCH  13  22
ATOM     22  C   UNL d   1       5.375  -6.158   1.117  0.00  0.00     0.432 C 
ATOM     23  F   UNL d   1       5.822  -7.434   0.943  0.00  0.00    -0.165 F 
ATOM     24  F   UNL d   1       6.030  -5.403   0.187  0.00  0.00    -0.165 F 
ATOM     25  F   UNL d   1       5.868  -5.754   2.325  0.00  0.00    -0.165 F 
ENDBRANCH  13  22
ENDBRANCH  10  11
ENDBRANCH   9  10
ENDBRANCH   3   9
BRANCH   2  26
ATOM     26  S   UNL d   1       0.439   2.863   0.180  0.00  0.00    -0.088 SA
BRANCH  26  27
ATOM     27  C   UNL d   1      -1.111   3.576   0.811  0.00  0.00     0.121 C 
BRANCH  27  28
ATOM     28  C   UNL d   1      -1.042   5.078   0.998  0.00  0.00    -0.048 A 
ATOM     29  C   UNL d   1      -1.552   5.944   0.016  0.00  0.00     0.009 A 
ATOM     30  C   UNL d   1      -1.557   7.327   0.216  0.00  0.00     0.024 A 
ATOM     31  C   UNL d   1      -1.042   7.858   1.398  0.00  0.00     0.034 A 
ATOM     32  C   UNL d   1      -0.510   7.017   2.372  0.00  0.00     0.024 A 
ATOM     33 CL   UNL d   1      -1.077   9.559   1.659  0.00  0.00    -0.084 Cl
ATOM     34  C   UNL d   1      -0.507   5.633   2.171  0.00  0.00     0.009 A 
ENDBRANCH  27  28
ENDBRANCH  26  27
ENDBRANCH   2  26
TORSDOF 7
