REMARK  7 active torsions:
REMARK  status: ('A' for Active; 'I' for Inactive)
REMARK    1  A    between atoms: S_7  and  C_3 
REMARK    2  A    between atoms: C_18  and  S_7 
REMARK    3  A    between atoms: C_9  and  N_17 
REMARK    4  A    between atoms: N_15  and  C_9 
REMARK    5  A    between atoms: N_11  and  C_10 
REMARK    6  A    between atoms: N_17  and  N_11 
REMARK    7  A    between atoms: C_19  and  N_15 
ROOT
ATOM      1  N   UNL d   1       1.119  -1.471   0.699  0.00  0.00    -0.329 N 
ATOM      2  HN  UNL d   1       1.083  -2.475   0.879  1.00  0.00     0.168 HD
ATOM      3  C   UNL d   1       2.219  -0.626   0.747  0.00  0.00     0.105 A 
ATOM      4  C   UNL d   1       1.877   0.688   0.425  0.00  0.00     0.091 A 
ATOM      5  C   UNL d   1       0.143  -0.674   0.370  0.00  0.00     0.156 A 
ATOM      6  N   UNL d   1       0.521   0.623   0.232  0.00  0.00    -0.298 N 
ATOM      7  S   UNL d   1      -1.567  -0.859   0.125  0.00  0.00    -0.064 SA
ATOM      8  C   UNL d   1       2.631   1.897   0.284  0.00  0.00     0.140 C 
ATOM      9  C   UNL d   1      -0.500   1.512  -0.050  0.00  0.00     0.107 A 
ATOM     10  C   UNL d   1      -1.686   0.891  -0.137  0.00  0.00     0.071 A 
ENDROOT
BRANCH   3  11
ATOM     11  S   UNL d   1       3.764  -1.153   1.369  0.00  0.00    -0.070 SA
BRANCH  11  12
ATOM     12  C   UNL d   1       4.289  -2.600   0.475  0.00  0.00     0.007 A 
ATOM     13  C   UNL d   1       5.599  -3.038   0.738  0.00  0.00     0.020 A 
ATOM     14  C   UNL d   1       6.131  -4.166   0.106  0.00  0.00     0.025 A 
ATOM     15  C   UNL d   1       5.353  -4.874  -0.801  0.00  0.00     0.034 A 
ATOM     16  C   UNL d   1       4.051  -4.460  -1.075  0.00  0.00     0.025 A 
ATOM     17 CL   UNL d   1       6.000  -6.263  -1.582  0.00  0.00    -0.084 Cl
ATOM     18  C   UNL d   1       3.521  -3.328  -0.439  0.00  0.00     0.020 A 
ENDBRANCH  11  12
ENDBRANCH   3  11
BRANCH   8  19
ATOM     19  N   UNL d   1       3.917   1.921   0.148  0.00  0.00    -0.307 N 
ATOM     20  HN  UNL d   1       4.505   1.095   0.260  1.00  0.00     0.186 HD
BRANCH  19  21
ATOM     21  N   UNL d   1       4.414   3.155  -0.162  0.00  0.00    -0.276 N 
ATOM     22  H   UNL d   1       3.775   3.903  -0.407  0.00  0.00     0.189 HD
BRANCH  21  23
ATOM     23  C   UNL d   1       5.757   3.417  -0.325  0.00  0.00     0.191 C 
ATOM     24  S   UNL d   1       7.021   2.538   0.319  0.00  0.00    -0.039 SA
BRANCH  23  25
ATOM     25  N   UNL d   1       6.023   4.581  -1.016  0.00  0.00    -0.332 N 
ATOM     26  H   UNL d   1       6.942   4.976  -0.844  0.00  0.00     0.168 HD
BRANCH  25  27
ATOM     27  C   UNL d   1       5.363   5.045  -2.177  0.00  0.00     0.034 A 
ATOM     28  C   UNL d   1       5.613   6.354  -2.600  0.00  0.00     0.031 A 
ATOM     29  C   UNL d   1       5.042   6.835  -3.784  0.00  0.00     0.026 A 
ATOM     30  C   UNL d   1       4.244   5.998  -4.561  0.00  0.00     0.034 A 
ATOM     31  C   UNL d   1       3.997   4.690  -4.156  0.00  0.00     0.026 A 
ATOM     32 CL   UNL d   1       3.578   6.574  -6.038  0.00  0.00    -0.084 Cl
ATOM     33  C   UNL d   1       4.552   4.215  -2.964  0.00  0.00     0.031 A 
ENDBRANCH  25  27
ENDBRANCH  23  25
ENDBRANCH  21  23
ENDBRANCH  19  21
ENDBRANCH   8  19
TORSDOF 7
