REMARK  2 active torsions:
REMARK  status: ('A' for Active; 'I' for Inactive)
REMARK    1  A    between atoms: N_4  and  C_1 
REMARK    2  A    between atoms: N_11  and  C_2 
ROOT
ATOM      1  C   UNL d   1       2.399  -0.714   0.008  0.00  0.00     0.199 A 
ATOM      2  C   UNL d   1       1.306  -1.503   0.065  0.00  0.00     0.058 A 
ATOM      3  C   UNL d   1       2.422   0.745  -0.066  0.00  0.00     0.323 A 
ATOM      4  O   UNL d   1       1.179   1.360  -0.003  0.00  0.00    -0.273 OA
ATOM      5  C   UNL d   1       0.005  -0.789   0.060  0.00  0.00     0.022 A 
ATOM      6  C   UNL d   1      -0.011   0.608   0.016  0.00  0.00     0.091 A 
ATOM      7  O   UNL d   1       3.439   1.413  -0.203  0.00  0.00    -0.257 OA
ATOM      8  C   UNL d   1      -1.240  -1.439   0.083  0.00  0.00     0.016 A 
ATOM      9  C   UNL d   1      -1.195   1.346  -0.029  0.00  0.00     0.038 A 
ATOM     10  C   UNL d   1      -2.436  -0.713   0.019  0.00  0.00     0.001 A 
ATOM     11  C   UNL d   1      -2.414   0.678  -0.041  0.00  0.00     0.003 A 
ENDROOT
BRANCH   1  12
ATOM     12  N   UNL d   1       3.679  -1.355  -0.051  0.00  0.00    -0.107 N 
ATOM     13  O   UNL d   1       3.878  -2.139  -0.993  0.00  0.00    -0.531 OA
ATOM     14  O   UNL d   1       4.473  -1.133   0.874  0.00  0.00    -0.531 OA
ENDBRANCH   1  12
BRANCH   2  15
ATOM     15  N   UNL d   1       1.267  -2.896   0.125  0.00  0.00    -0.300 NA
ATOM     16  H   UNL d   1       2.151  -3.352  -0.124  0.00  0.00     0.124 HD
ATOM     17  H   UNL d   1       0.514  -3.312  -0.420  0.00  0.00     0.124 HD
ENDBRANCH   2  15
TORSDOF 2
