REMARK  5 active torsions:
REMARK  status: ('A' for Active; 'I' for Inactive)
REMARK    1  A    between atoms: C_2  and  C_1 
REMARK       I    between atoms: N_3  and  C_1 
REMARK    2  A    between atoms: C_6  and  N_3 
REMARK    3  A    between atoms: C_4  and  C_12 
REMARK    4  A    between atoms: C_14  and  C_5 
REMARK    5  A    between atoms: O_15  and  C_11 
ROOT
ATOM      1  C   UNL d   1       0.491   0.740   1.378  0.00  0.00     0.049 A 
ATOM      2  N   UNL d   1      -1.364   1.128   2.890  0.00  0.00    -0.373 N 
ATOM      3  HN  UNL d   1      -2.194   0.790   3.377  1.00  0.00     0.164 HD
ATOM      4  C   UNL d   1       0.967   2.038   1.612  0.00  0.00     0.040 A 
ATOM      5  C   UNL d   1       0.251   2.882   2.458  0.00  0.00     0.034 A 
ATOM      6  C   UNL d   1      -0.668   0.338   2.034  0.00  0.00     0.104 A 
ATOM      7  C   UNL d   1      -0.898   2.390   3.064  0.00  0.00     0.108 A 
ENDROOT
BRANCH   1   8
ATOM      8  C   UNL d   1       1.102  -0.175   0.384  0.00  0.00     0.257 C 
ATOM      9  N   UNL d   1       2.472  -0.068   0.221  0.00  0.00    -0.320 N 
ATOM     10  H   UNL d   1       3.014   0.296   0.994  0.00  0.00     0.169 HD
ATOM     11  O   UNL d   1       0.387  -0.992  -0.185  0.00  0.00    -0.267 OA
BRANCH   9  12
ATOM     12  C   UNL d   1       3.187  -0.844  -0.717  0.00  0.00     0.068 A 
ATOM     13  C   UNL d   1       4.338  -1.555  -0.344  0.00  0.00     0.095 A 
ATOM     14  C   UNL d   1       5.149  -2.122  -1.335  0.00  0.00     0.039 A 
ATOM     15  C   UNL d   1       4.819  -1.995  -2.686  0.00  0.00     0.003 A 
ATOM     16  C   UNL d   1       3.655  -1.323  -3.053  0.00  0.00     0.002 A 
ATOM     17  C   UNL d   1       2.831  -0.766  -2.071  0.00  0.00     0.032 A 
BRANCH  13  18
ATOM     18  O   UNL d   1       4.781  -1.743   0.941  0.00  0.00    -0.354 OA
ATOM     19  C   UNL d   1       3.774  -2.068   1.900  0.00  0.00     0.210 C 
ENDBRANCH  13  18
ENDBRANCH   9  12
ENDBRANCH   1   8
BRANCH   5  20
ATOM     20  C   UNL d   1       0.645   4.239   2.669  0.00  0.00    -0.060 C 
ATOM     21  C   UNL d   1       0.909   5.392   2.895  0.00  0.00    -0.061 C 
BRANCH  21  22
ATOM     22  C   UNL d   1       1.162   6.754   3.240  0.00  0.00     0.018 A 
ATOM     23  C   UNL d   1       1.175   7.126   4.587  0.00  0.00     0.020 A 
ATOM     24  C   UNL d   1       1.410   8.454   4.947  0.00  0.00     0.001 A 
ATOM     25  C   UNL d   1       1.634   9.413   3.962  0.00  0.00     0.000 A 
ATOM     26  C   UNL d   1       1.618   9.048   2.615  0.00  0.00     0.001 A 
ATOM     27  C   UNL d   1       1.383   7.717   2.252  0.00  0.00     0.020 A 
ENDBRANCH  21  22
ENDBRANCH   5  20
TORSDOF 5
