REMARK  7 active torsions:
REMARK  status: ('A' for Active; 'I' for Inactive)
REMARK       I    between atoms: C_2  and  N_1 
REMARK       I    between atoms: C_4  and  N_1 
REMARK    1  A    between atoms: C_11  and  N_1 
REMARK       I    between atoms: N_3  and  C_2 
REMARK    2  A    between atoms: C_5  and  N_3 
REMARK    3  A    between atoms: C_6  and  C_7 
REMARK    4  A    between atoms: O_22  and  C_6 
REMARK    5  A    between atoms: C_8  and  C_13 
REMARK    6  A    between atoms: O_23  and  C_8 
REMARK    7  A    between atoms: C_21  and  C_11 
ROOT
ATOM      1  N   UNL d   1       0.968   0.098   0.077  0.00  0.00    -0.266 N 
ATOM      2  C   UNL d   1       0.143  -0.503   1.053  0.00  0.00     0.329 C 
ATOM      3  N   UNL d   1      -1.220  -0.349   0.904  0.00  0.00    -0.308 N 
ATOM      4  C   UNL d   1       0.699   1.008  -0.963  0.00  0.00     0.224 C 
ATOM      5  O   UNL d   1       0.630  -1.172   1.967  0.00  0.00    -0.246 OA
ATOM      6  O   UNL d   1       1.470   1.174  -1.915  0.00  0.00    -0.273 OA
ATOM      7  C   UNL d   1      -0.584   1.797  -0.935  0.00  0.00     0.117 C 
ATOM      8  H   UNL d   1      -1.542  -0.314  -0.050  0.00  0.00     0.170 HD
ENDROOT
BRANCH   1   9
ATOM      9  C   UNL d   1       2.380  -0.290   0.180  0.00  0.00     0.175 C 
BRANCH   9  10
ATOM     10  C   UNL d   1       3.187   0.735   0.960  0.00  0.00    -0.040 A 
ATOM     11  C   UNL d   1       2.948   0.953   2.325  0.00  0.00     0.010 A 
ATOM     12  C   UNL d   1       3.643   1.939   3.024  0.00  0.00     0.018 A 
ATOM     13  C   UNL d   1       4.614   2.705   2.375  0.00  0.00     0.039 A 
ATOM     14  C   UNL d   1       4.885   2.476   1.021  0.00  0.00     0.018 A 
ATOM     15  C   UNL d   1       4.170   1.501   0.317  0.00  0.00     0.010 A 
BRANCH  13  16
ATOM     16  C   UNL d   1       5.301   3.759   3.161  0.00  0.00     0.292 C 
ATOM     17  O   UNL d   1       4.866   4.205   4.213  0.00  0.00    -0.259 OA
BRANCH  16  18
ATOM     18  O   UNL d   1       6.465   4.114   2.566  0.00  0.00    -0.323 OA
ATOM     19  C   UNL d   1       7.202   5.098   3.293  0.00  0.00     0.213 C 
ENDBRANCH  16  18
ENDBRANCH  13  16
ENDBRANCH   9  10
ENDBRANCH   1   9
BRANCH   3  20
ATOM     20  C   UNL d   1      -2.152  -0.869   1.847  0.00  0.00     0.042 C 
ATOM     21  C   UNL d   1      -3.397  -1.355   1.408  0.00  0.00    -0.034 C 
ATOM     22  C   UNL d   1      -4.194  -2.088   2.310  0.00  0.00     0.026 C 
ATOM     23  C   UNL d   1      -3.876  -1.182  -0.006  0.00  0.00     0.050 C 
ATOM     24  C   UNL d   1      -3.790  -2.298   3.636  0.00  0.00     0.040 C 
ATOM     25  C   UNL d   1      -2.627  -1.681   4.097  0.00  0.00     0.020 C 
ATOM     26  C   UNL d   1      -1.824  -0.965   3.208  0.00  0.00     0.031 C 
BRANCH  24  27
ATOM     27  C   UNL d   1      -4.582  -3.226   4.486  0.00  0.00     0.292 C 
ATOM     28  O   UNL d   1      -5.628  -3.744   4.122  0.00  0.00    -0.259 OA
BRANCH  27  29
ATOM     29  O   UNL d   1      -3.934  -3.473   5.652  0.00  0.00    -0.323 OA
ATOM     30  C   UNL d   1      -4.525  -4.505   6.445  0.00  0.00     0.213 C 
ENDBRANCH  27  29
ENDBRANCH  24  27
ENDBRANCH   3  20
TORSDOF 7
