REMARK  5 active torsions:
REMARK  status: ('A' for Active; 'I' for Inactive)
REMARK    1  A    between atoms: N_3  and  C_1 
REMARK    2  A    between atoms: N_9  and  C_1 
REMARK    3  A    between atoms: C_2  and  C_4 
REMARK    4  A    between atoms: C_6  and  N_5 
REMARK    5  A    between atoms: C_21  and  N_9 
ROOT
ATOM      1  N   UNL d   1       0.280  -1.081  -0.752  0.00  0.00    -0.356 N 
ATOM      2  N   UNL d   1      -1.873  -2.682  -1.960  0.00  0.00    -0.366 N 
ATOM      3  C   UNL d   1      -0.620  -0.552  -1.800  0.00  0.00     0.145 C 
ATOM      4  C   UNL d   1      -2.012  -1.219  -1.864  0.00  0.00     0.144 C 
ATOM      5  C   UNL d   1      -0.283  -3.507  -0.265  0.00  0.00     0.040 C 
ATOM      6  C   UNL d   1       0.675  -2.487  -0.864  0.00  0.00     0.127 C 
ATOM      7  C   UNL d   1      -1.745  -3.354  -0.663  0.00  0.00     0.126 C 
ENDROOT
BRANCH   1   8
ATOM      8  C   UNL d   1       0.967  -0.227   0.088  0.00  0.00     0.174 C 
ATOM      9  S   UNL d   1       1.081  -0.467   1.740  0.00  0.00    -0.041 SA
BRANCH   8  10
ATOM     10  N   UNL d   1       1.468   0.931  -0.447  0.00  0.00    -0.332 N 
ATOM     11  H   UNL d   1       1.600   1.679   0.226  0.00  0.00     0.168 HD
BRANCH  10  12
ATOM     12  C   UNL d   1       2.230   1.057  -1.636  0.00  0.00     0.049 A 
ATOM     13  C   UNL d   1       2.569   2.325  -2.105  0.00  0.00     0.117 A 
ATOM     14  N   UNL d   1       3.338   2.564  -3.193  0.00  0.00    -0.373 N 
ATOM     15  C   UNL d   1       3.814   1.483  -3.846  0.00  0.00     0.088 A 
ATOM     16  HN  UNL d   1       3.547   3.512  -3.504  1.00  0.00     0.164 HD
ATOM     17  C   UNL d   1       3.556   0.181  -3.458  0.00  0.00     0.019 A 
ATOM     18  C   UNL d   1       2.754  -0.028  -2.336  0.00  0.00     0.032 A 
ENDBRANCH  10  12
ENDBRANCH   8  10
ENDBRANCH   1   8
BRANCH   2  19
ATOM     19  C   UNL d   1      -2.702  -3.329  -2.875  0.00  0.00     0.102 A 
ATOM     20  N   UNL d   1      -3.848  -2.755  -3.293  0.00  0.00    -0.352 N 
ATOM     21  C   UNL d   1      -4.594  -3.406  -4.219  0.00  0.00     0.106 A 
ATOM     22  HN  UNL d   1      -4.146  -1.853  -2.922  1.00  0.00     0.166 HD
ATOM     23  C   UNL d   1      -4.249  -4.623  -4.783  0.00  0.00     0.063 A 
ATOM     24  C   UNL d   1      -3.058  -5.205  -4.356  0.00  0.00     0.021 A 
ATOM     25  C   UNL d   1      -2.287  -4.558  -3.393  0.00  0.00     0.049 A 
BRANCH  23  26
ATOM     26  C   UNL d   1      -5.107  -5.269  -5.824  0.00  0.00     0.418 C 
ATOM     27  F   UNL d   1      -6.291  -4.631  -6.032  0.00  0.00    -0.166 F 
ATOM     28  F   UNL d   1      -4.495  -5.326  -7.039  0.00  0.00    -0.166 F 
ATOM     29  F   UNL d   1      -5.428  -6.555  -5.510  0.00  0.00    -0.166 F 
ENDBRANCH  23  26
ENDBRANCH   2  19
TORSDOF 5
