REMARK  5 active torsions:
REMARK  status: ('A' for Active; 'I' for Inactive)
REMARK    1  A    between atoms: N_2  and  C_1 
REMARK    2  A    between atoms: N_7  and  C_3 
REMARK    3  A    between atoms: C_6  and  C_5 
REMARK    4  A    between atoms: O_13  and  C_6 
REMARK    5  A    between atoms: C_14  and  N_7 
ROOT
ATOM      1  C   UNL d   1       1.394  -0.052  -0.116  0.00  0.00     0.130 A 
ATOM      2  C   UNL d   1       0.613  -1.222  -0.019  0.00  0.00     0.061 A 
ATOM      3  C   UNL d   1       0.846   1.242  -0.067  0.00  0.00     0.056 A 
ATOM      4  C   UNL d   1      -0.538   1.401   0.051  0.00  0.00     0.042 A 
ATOM      5  C   UNL d   1      -0.777  -1.015   0.053  0.00  0.00     0.032 A 
ATOM      6  C   UNL d   1      -1.347   0.265   0.088  0.00  0.00     0.020 A 
ENDROOT
BRANCH   2   7
ATOM      7  N   UNL d   1       1.143  -2.513  -0.028  0.00  0.00    -0.384 N 
ATOM      8  H   UNL d   1       2.159  -2.592  -0.053  0.00  0.00     0.160 HD
BRANCH   7   9
ATOM      9  C   UNL d   1       0.448  -3.635   0.612  0.00  0.00     0.073 C 
ATOM     10  C   UNL d   1      -0.362  -4.412  -0.425  0.00  0.00     0.031 C 
ATOM     11  C   UNL d   1       1.464  -4.565   1.276  0.00  0.00     0.031 C 
ENDBRANCH   7   9
ENDBRANCH   2   7
BRANCH   1  12
ATOM     12  N   UNL d   1       2.840  -0.136  -0.214  0.00  0.00    -0.113 N 
ATOM     13  O   UNL d   1       3.315  -0.763  -1.170  0.00  0.00    -0.532 OA
ATOM     14  O   UNL d   1       3.498   0.436   0.666  0.00  0.00    -0.532 OA
ENDBRANCH   1  12
BRANCH   4  15
ATOM     15  C   UNL d   1      -1.089   2.777   0.154  0.00  0.00     0.293 C 
ATOM     16  O   UNL d   1      -0.400   3.782   0.088  0.00  0.00    -0.259 OA
BRANCH  15  17
ATOM     17  O   UNL d   1      -2.427   2.737   0.369  0.00  0.00    -0.323 OA
ATOM     18  C   UNL d   1      -3.023   4.018   0.584  0.00  0.00     0.213 C 
ENDBRANCH  15  17
ENDBRANCH   4  15
TORSDOF 5
