REMARK  1 active torsions:
REMARK  status: ('A' for Active; 'I' for Inactive)
REMARK    1  A    between atoms: C_15  and  C_5 
ROOT
ATOM      1  C   UNL d   1       1.245   0.685   0.029  0.00  0.00     0.030 A 
ATOM      2  C   UNL d   1      -1.257   0.689   0.030  0.00  0.00     0.030 A 
ATOM      3  C   UNL d   1       1.192  -0.625   0.330  0.00  0.00     0.065 A 
ATOM      4  C   UNL d   1      -1.206  -0.625   0.320  0.00  0.00     0.065 A 
ATOM      5  C   UNL d   1      -0.005   1.527  -0.160  0.00  0.00     0.097 A 
ATOM      6  O   UNL d   1      -0.008  -1.299   0.493  0.00  0.00    -0.318 OA
ATOM      7  C   UNL d   1       2.584   1.311  -0.155  0.00  0.00     0.159 C 
ATOM      8  C   UNL d   1      -2.597   1.324  -0.137  0.00  0.00     0.159 C 
ATOM      9  C   UNL d   1       2.390  -1.519   0.504  0.00  0.00     0.075 C 
ATOM     10  C   UNL d   1      -2.405  -1.524   0.465  0.00  0.00     0.075 C 
ATOM     11  C   UNL d   1       3.696  -0.944  -0.080  0.00  0.00    -0.035 C 
ATOM     12  C   UNL d   1      -3.702  -0.940  -0.131  0.00  0.00    -0.035 C 
ATOM     13  C   UNL d   1      -3.818   0.532   0.292  0.00  0.00     0.092 C 
ATOM     14  C   UNL d   1       3.802   0.537   0.311  0.00  0.00     0.092 C 
ATOM     15  O   UNL d   1      -2.709   2.460  -0.589  0.00  0.00    -0.293 OA
ATOM     16  O   UNL d   1       2.699   2.429  -0.656  0.00  0.00    -0.293 OA
ATOM     17  C   UNL d   1       3.724  -1.093  -1.616  0.00  0.00     0.015 C 
ATOM     18  C   UNL d   1      -4.904  -1.736   0.405  0.00  0.00     0.015 C 
ATOM     19  C   UNL d   1      -3.703  -1.051  -1.670  0.00  0.00     0.015 C 
ATOM     20  C   UNL d   1       4.891  -1.722   0.497  0.00  0.00     0.015 C 
ENDROOT
BRANCH   5  21
ATOM     21  C   UNL d   1       0.002   2.766   0.739  0.00  0.00    -0.045 A 
ATOM     22  C   UNL d   1      -0.026   2.672   2.139  0.00  0.00     0.009 A 
ATOM     23  C   UNL d   1      -0.019   3.829   2.924  0.00  0.00     0.019 A 
ATOM     24  C   UNL d   1       0.019   5.083   2.316  0.00  0.00     0.011 A 
ATOM     25  C   UNL d   1       0.050   5.196   0.931  0.00  0.00     0.019 A 
ATOM     26 BR   UNL d   1       0.026   6.644   3.383  0.00  0.00    -0.051 Br
ATOM     27  C   UNL d   1       0.042   4.042   0.148  0.00  0.00     0.009 A 
ENDBRANCH   5  21
TORSDOF 1
