REMARK  5 active torsions:
REMARK  status: ('A' for Active; 'I' for Inactive)
REMARK    1  A    between atoms: S_2  and  N_1 
REMARK    2  A    between atoms: C_9  and  S_2 
REMARK    3  A    between atoms: S_15  and  C_5 
REMARK    4  A    between atoms: C_14  and  C_7 
REMARK    5  A    between atoms: C_8  and  C_10 
ROOT
ATOM      1  N   UNL d   1       0.896  -0.690  -0.060  0.00  0.00    -0.170 N 
ATOM      2  N   UNL d   1       0.938   0.675  -0.107  0.00  0.00    -0.283 N 
ATOM      3  HN  UNL d   1       1.763   1.270  -0.185  1.00  0.00     0.188 HD
ATOM      4  C   UNL d   1      -0.399  -1.177  -0.024  0.00  0.00     0.107 A 
ATOM      5  C   UNL d   1      -1.208  -0.064   0.005  0.00  0.00     0.071 A 
ATOM      6  C   UNL d   1      -0.343   1.059  -0.029  0.00  0.00     0.062 A 
ENDROOT
BRANCH   1   7
ATOM      7  S   UNL d   1       2.307  -1.683   0.021  0.00  0.00     0.283 S 
ATOM      8  O   UNL d   1       2.275  -2.318   1.328  0.00  0.00    -0.198 OA
ATOM      9  O   UNL d   1       2.340  -2.438  -1.218  0.00  0.00    -0.198 OA
BRANCH   7  10
ATOM     10  C   UNL d   1       3.675  -0.543   0.011  0.00  0.00     0.082 A 
ATOM     11  C   UNL d   1       4.138  -0.007   1.220  0.00  0.00     0.041 A 
ATOM     12  C   UNL d   1       5.256   0.841   1.230  0.00  0.00     0.049 A 
ATOM     13  C   UNL d   1       5.895   1.137   0.013  0.00  0.00     0.016 A 
ATOM     14  C   UNL d   1       5.431   0.595  -1.188  0.00  0.00     0.002 A 
ATOM     15  C   UNL d   1       4.323  -0.252  -1.192  0.00  0.00     0.025 A 
BRANCH  12  16
ATOM     16  C   UNL d   1       5.790   1.423   2.518  0.00  0.00     0.417 C 
ATOM     17  F   UNL d   1       5.073   1.060   3.618  0.00  0.00    -0.166 F 
ATOM     18  F   UNL d   1       7.073   1.043   2.766  0.00  0.00    -0.166 F 
ATOM     19  F   UNL d   1       5.798   2.784   2.510  0.00  0.00    -0.166 F 
ENDBRANCH  12  16
ENDBRANCH   7  10
ENDBRANCH   1   7
BRANCH   4  20
ATOM     20  S   UNL d   1      -0.809  -2.868  -0.009  0.00  0.00    -0.114 SA
ATOM     21  C   UNL d   1      -2.613  -2.857   0.061  0.00  0.00     0.097 C 
ENDBRANCH   4  20
BRANCH   6  22
ATOM     22  C   UNL d   1      -0.716   2.472   0.018  0.00  0.00    -0.008 A 
ATOM     23  C   UNL d   1       0.076   3.439  -0.622  0.00  0.00     0.017 A 
ATOM     24  C   UNL d   1      -0.276   4.790  -0.572  0.00  0.00     0.043 A 
ATOM     25  C   UNL d   1      -1.416   5.175   0.123  0.00  0.00     0.116 A 
ATOM     26  C   UNL d   1      -2.211   4.236   0.769  0.00  0.00     0.043 A 
ATOM     27  F   UNL d   1      -1.752   6.470   0.176  0.00  0.00    -0.206 F 
ATOM     28  C   UNL d   1      -1.864   2.884   0.715  0.00  0.00     0.017 A 
ENDBRANCH   6  22
TORSDOF 5
