REMARK  6 active torsions:
REMARK  status: ('A' for Active; 'I' for Inactive)
REMARK    1  A    between atoms: N_2  and  S_1 
REMARK    2  A    between atoms: C_3  and  S_1 
REMARK    3  A    between atoms: N_4  and  N_2 
REMARK    4  A    between atoms: O_20  and  C_8 
REMARK    5  A    between atoms: O_22  and  C_9 
REMARK    6  A    between atoms: C_15  and  C_14 
ROOT
ATOM      1  N   UNL d   1      -1.033  -3.410  -1.307  0.00  0.00    -0.302 N 
ATOM      2  HN  UNL d   1      -1.715  -3.940  -1.850  1.00  0.00     0.186 HD
ATOM      3  C   UNL d   1       0.221  -3.387  -1.620  0.00  0.00     0.119 C 
ENDROOT
BRANCH   1   4
ATOM      4  N   UNL d   1      -1.409  -2.650  -0.158  0.00  0.00    -0.223 N 
ATOM      5  H   UNL d   1      -0.731  -2.356   0.547  0.00  0.00     0.200 HD
BRANCH   4   6
ATOM      6  S   UNL d   1      -2.974  -2.858   0.482  0.00  0.00     0.276 S 
ATOM      7  O   UNL d   1      -2.898  -2.442   1.869  0.00  0.00    -0.199 OA
ATOM      8  O   UNL d   1      -3.501  -4.154   0.113  0.00  0.00    -0.199 OA
BRANCH   6   9
ATOM      9  C   UNL d   1      -3.885  -1.614  -0.406  0.00  0.00     0.081 A 
ATOM     10  C   UNL d   1      -4.464  -1.929  -1.640  0.00  0.00     0.027 A 
ATOM     11  C   UNL d   1      -5.234  -0.970  -2.304  0.00  0.00     0.025 A 
ATOM     12  C   UNL d   1      -5.423   0.287  -1.729  0.00  0.00     0.034 A 
ATOM     13  C   UNL d   1      -4.847   0.599  -0.496  0.00  0.00     0.025 A 
ATOM     14 CL   UNL d   1      -6.386   1.462  -2.538  0.00  0.00    -0.084 Cl
ATOM     15  C   UNL d   1      -4.078  -0.355   0.172  0.00  0.00     0.027 A 
ENDBRANCH   6   9
ENDBRANCH   4   6
ENDBRANCH   1   4
BRANCH   3  16
ATOM     16  C   UNL d   1       0.720  -4.177  -2.763  0.00  0.00    -0.017 A 
ATOM     17  C   UNL d   1       2.056  -4.056  -3.161  0.00  0.00     0.052 A 
ATOM     18  C   UNL d   1       2.536  -4.786  -4.262  0.00  0.00     0.102 A 
ATOM     19  C   UNL d   1       1.660  -5.657  -4.938  0.00  0.00     0.101 A 
ATOM     20  C   UNL d   1       0.325  -5.763  -4.530  0.00  0.00     0.040 A 
ATOM     21  C   UNL d   1      -0.146  -5.032  -3.443  0.00  0.00     0.016 A 
BRANCH  18  22
ATOM     22  O   UNL d   1       3.813  -4.670  -4.743  0.00  0.00    -0.353 OA
ATOM     23  C   UNL d   1       4.702  -3.772  -4.093  0.00  0.00     0.210 C 
ENDBRANCH  18  22
BRANCH  19  24
ATOM     24  O   UNL d   1       1.934  -6.418  -6.046  0.00  0.00    -0.353 OA
ATOM     25  C   UNL d   1       3.251  -6.941  -6.158  0.00  0.00     0.210 C 
ENDBRANCH  19  24
ENDBRANCH   3  16
TORSDOF 6
