REMARK  3 active torsions:
REMARK  status: ('A' for Active; 'I' for Inactive)
REMARK    1  A    between atoms: C_8  and  C_1 
REMARK    2  A    between atoms: C_10  and  C_2 
REMARK    3  A    between atoms: C_13  and  C_8 
ROOT
ATOM      1  N   UNL d   1       5.953   1.533  -7.142  0.00  0.00    -0.191 NA
ATOM      2  C   UNL d   1       5.471   1.579  -6.084  0.00  0.00     0.099 C 
ATOM      3  C   UNL d   1       4.881   1.624  -4.780  0.00  0.00     0.044 A 
ATOM      4  C   UNL d   1       3.772   1.631  -2.183  0.00  0.00    -0.054 A 
ATOM      5  C   UNL d   1       3.771   0.830  -4.484  0.00  0.00     0.023 A 
ATOM      6  C   UNL d   1       5.412   2.455  -3.793  0.00  0.00     0.023 A 
ATOM      7  C   UNL d   1       3.204   0.858  -3.205  0.00  0.00     0.009 A 
ATOM      8  C   UNL d   1       4.865   2.453  -2.506  0.00  0.00     0.009 A 
ENDROOT
BRANCH   4   9
ATOM      9  C   UNL d   1       3.296   1.616  -0.736  0.00  0.00     0.082 C 
BRANCH   9  10
ATOM     10  C   UNL d   1       2.182   0.647  -0.369  0.00  0.00     0.015 C 
ATOM     11  C   UNL d   1       2.340  -0.687  -0.224  0.00  0.00     0.026 C 
ATOM     12  S   UNL d   1       1.102  -1.817   0.205  0.00  0.00    -0.088 SA
ATOM     13  C   UNL d   1      -0.372  -0.859   0.003  0.00  0.00     0.019 A 
ATOM     14  C   UNL d   1      -0.379   0.530  -0.077  0.00  0.00     0.032 A 
ATOM     15  C   UNL d   1      -1.597  -1.544  -0.022  0.00  0.00     0.020 A 
ATOM     16  C   UNL d   1       0.871   1.313  -0.088  0.00  0.00     0.191 C 
ATOM     17  C   UNL d   1      -1.598   1.227  -0.148  0.00  0.00     0.017 A 
ATOM     18  O   UNL d   1       0.811   2.525   0.106  0.00  0.00    -0.287 OA
ATOM     19  C   UNL d   1      -2.809   0.537  -0.166  0.00  0.00     0.001 A 
ATOM     20  C   UNL d   1      -2.808  -0.852  -0.112  0.00  0.00     0.001 A 
BRANCH  11  21
ATOM     21  C   UNL d   1       3.655  -1.341  -0.401  0.00  0.00    -0.018 A 
ATOM     22  C   UNL d   1       4.577  -1.373   0.654  0.00  0.00     0.013 A 
ATOM     23  C   UNL d   1       5.837  -1.949   0.476  0.00  0.00     0.001 A 
ATOM     24  C   UNL d   1       6.190  -2.492  -0.759  0.00  0.00     0.000 A 
ATOM     25  C   UNL d   1       5.276  -2.485  -1.809  0.00  0.00     0.001 A 
ATOM     26  C   UNL d   1       4.008  -1.929  -1.625  0.00  0.00     0.013 A 
ENDBRANCH  11  21
ENDBRANCH   9  10
ENDBRANCH   4   9
TORSDOF 3
