REMARK  2 active torsions:
REMARK  status: ('A' for Active; 'I' for Inactive)
REMARK    1  A    between atoms: C_2  and  C_1 
REMARK       I    between atoms: N_7  and  C_2 
REMARK    2  A    between atoms: C_11  and  N_7 
ROOT
ATOM      1  N   UNL d   1       2.499  -2.072   0.866  0.00  0.00    -0.342 N 
ATOM      2  HN  UNL d   1       1.817  -1.656   1.500  1.00  0.00     0.167 HD
ATOM      3  C   UNL d   1       2.127  -3.049   0.025  0.00  0.00     0.108 A 
ATOM      4  C   UNL d   1       3.766  -1.642   0.871  0.00  0.00     0.043 A 
ATOM      5  C   UNL d   1       4.748  -2.189   0.025  0.00  0.00    -0.009 A 
ATOM      6  C   UNL d   1       4.360  -3.239  -0.817  0.00  0.00     0.017 A 
ATOM      7  C   UNL d   1       3.035  -3.674  -0.820  0.00  0.00     0.049 A 
ATOM      8  C   UNL d   1       4.121  -0.608   1.724  0.00  0.00     0.030 A 
ATOM      9  C   UNL d   1       6.055  -1.668   0.042  0.00  0.00     0.013 A 
ATOM     10  C   UNL d   1       5.415  -0.085   1.741  0.00  0.00     0.002 A 
ATOM     11  C   UNL d   1       6.383  -0.612   0.892  0.00  0.00     0.001 A 
ENDROOT
BRANCH   3  12
ATOM     12  N   UNL d   1       0.778  -3.433  -0.044  0.00  0.00    -0.308 N 
ATOM     13  C   UNL d   1      -0.240  -2.843   0.689  0.00  0.00     0.267 C 
ATOM     14  O   UNL d   1      -0.065  -1.974   1.538  0.00  0.00    -0.267 OA
ATOM     15  H   UNL d   1       0.536  -4.145  -0.715  0.00  0.00     0.170 HD
BRANCH  13  16
ATOM     16  C   UNL d   1      -1.585  -3.305   0.394  0.00  0.00     0.110 A 
ATOM     17  C   UNL d   1      -2.806  -2.861   0.894  0.00  0.00     0.043 A 
ATOM     18  N   UNL d   1      -3.917  -3.534   0.389  0.00  0.00    -0.296 N 
ATOM     19  C   UNL d   1      -3.075  -1.775   1.877  0.00  0.00     0.071 C 
ATOM     20  N   UNL d   1      -3.577  -4.473  -0.475  0.00  0.00    -0.061 NA
ATOM     21  HN  UNL d   1      -4.879  -3.326   0.655  1.00  0.00     0.183 HD
ATOM     22  S   UNL d   1      -1.931  -4.574  -0.704  0.00  0.00     0.007 SA
ENDBRANCH  13  16
ENDBRANCH   3  12
TORSDOF 2
