REMARK  4 active torsions:
REMARK  status: ('A' for Active; 'I' for Inactive)
REMARK    1  A    between atoms: C_4  and  C_1 
REMARK    2  A    between atoms: N_7  and  N_2 
REMARK    3  A    between atoms: C_9  and  C_4 
REMARK    4  A    between atoms: C_10  and  N_7 
ROOT
ATOM      1  C   UNL d   1       1.109   0.057  -0.053  0.00  0.00     0.179 C 
ATOM      2  N   UNL d   1       0.489   1.025  -0.669  0.00  0.00    -0.287 N 
ATOM      3  HN  UNL d   1      -0.530   1.062  -0.662  1.00  0.00     0.188 HD
ATOM      4  C   UNL d   1       2.551   0.001  -0.099  0.00  0.00     0.123 C 
ATOM      5  N   UNL d   1       3.710   0.000  -0.175  0.00  0.00    -0.190 NA
ENDROOT
BRANCH   1   6
ATOM      6  C   UNL d   1       0.312  -0.981   0.680  0.00  0.00     0.220 C 
ATOM      7  O   UNL d   1       0.692  -2.145   0.624  0.00  0.00    -0.284 OA
BRANCH   6   8
ATOM      8  C   UNL d   1      -0.909  -0.606   1.434  0.00  0.00     0.017 A 
ATOM      9  C   UNL d   1      -1.905  -1.576   1.610  0.00  0.00     0.015 A 
ATOM     10  C   UNL d   1      -3.076  -1.260   2.299  0.00  0.00     0.001 A 
ATOM     11  C   UNL d   1      -3.250   0.018   2.828  0.00  0.00     0.000 A 
ATOM     12  C   UNL d   1      -2.254   0.981   2.671  0.00  0.00     0.001 A 
ATOM     13  C   UNL d   1      -1.082   0.673   1.975  0.00  0.00     0.015 A 
ENDBRANCH   6   8
ENDBRANCH   1   6
BRANCH   2  14
ATOM     14  N   UNL d   1       1.200   1.987  -1.323  0.00  0.00    -0.300 N 
ATOM     15  H   UNL d   1       2.107   1.784  -1.747  0.00  0.00     0.187 HD
BRANCH  14  16
ATOM     16  C   UNL d   1       0.492   3.010  -1.992  0.00  0.00     0.048 A 
ATOM     17  C   UNL d   1      -0.881   3.223  -1.809  0.00  0.00     0.031 A 
ATOM     18  C   UNL d   1      -1.531   4.301  -2.418  0.00  0.00     0.002 A 
ATOM     19  C   UNL d   1      -0.810   5.195  -3.206  0.00  0.00     0.000 A 
ATOM     20  C   UNL d   1       0.558   5.009  -3.387  0.00  0.00     0.002 A 
ATOM     21  C   UNL d   1       1.204   3.929  -2.778  0.00  0.00     0.031 A 
ENDBRANCH  14  16
ENDBRANCH   2  14
TORSDOF 4
