REMARK  4 active torsions:
REMARK  status: ('A' for Active; 'I' for Inactive)
REMARK    1  A    between atoms: S_6  and  C_1 
REMARK    2  A    between atoms: C_18  and  S_6 
REMARK    3  A    between atoms: C_9  and  C_18 
REMARK       I    between atoms: N_11  and  C_9 
REMARK    4  A    between atoms: C_15  and  N_11 
ROOT
ATOM      1  C   UNL d   1       2.651   4.284  -0.195  0.00  0.00     0.231 C 
ATOM      2  N   UNL d   1       1.730   5.260   0.146  0.00  0.00    -0.326 N 
ATOM      3  O   UNL d   1       3.799   4.490  -0.585  0.00  0.00    -0.272 OA
ATOM      4  H   UNL d   1       0.841   4.933   0.507  0.00  0.00     0.169 HD
ENDROOT
BRANCH   1   5
ATOM      5  C   UNL d   1       2.193   2.857   0.058  0.00  0.00     0.185 C 
BRANCH   5   6
ATOM      6  S   UNL d   1       0.526   2.527  -0.592  0.00  0.00    -0.084 SA
BRANCH   6   7
ATOM      7  C   UNL d   1       0.467   0.815  -0.318  0.00  0.00     0.146 A 
ATOM      8  N   UNL d   1      -0.514  -0.008  -0.805  0.00  0.00    -0.341 N 
ATOM      9  C   UNL d   1      -0.226  -1.279  -0.376  0.00  0.00     0.109 A 
ATOM     10  C   UNL d   1      -1.653   0.339  -1.618  0.00  0.00     0.158 C 
ATOM     11  C   UNL d   1       0.938  -1.160   0.345  0.00  0.00     0.107 A 
ATOM     12  N   UNL d   1       1.355   0.144   0.380  0.00  0.00    -0.345 N 
ATOM     13  HN  UNL d   1       2.180   0.516   0.850  1.00  0.00     0.167 HD
ENDBRANCH   6   7
ENDBRANCH   5   6
ENDBRANCH   1   5
BRANCH   2  14
ATOM     14  C   UNL d   1       1.885   6.660   0.004  0.00  0.00     0.037 A 
ATOM     15  C   UNL d   1       3.007   7.256  -0.581  0.00  0.00     0.069 A 
ATOM     16  C   UNL d   1       3.039   8.632  -0.688  0.00  0.00     0.107 A 
ATOM     17  O   UNL d   1       4.044   9.359  -1.247  0.00  0.00    -0.323 OA
ATOM     18  C   UNL d   1       2.013   9.421  -0.231  0.00  0.00     0.105 A 
ATOM     19  C   UNL d   1       3.514  10.693  -1.125  0.00  0.00     0.352 A 
ATOM     20  O   UNL d   1       2.243  10.744  -0.442  0.00  0.00    -0.323 OA
ATOM     21  C   UNL d   1       0.896   8.876   0.360  0.00  0.00     0.042 A 
ATOM     22  C   UNL d   1       0.833   7.480   0.472  0.00  0.00     0.032 A 
ENDBRANCH   2  14
TORSDOF 4
