REMARK  4 active torsions:
REMARK  status: ('A' for Active; 'I' for Inactive)
REMARK    1  A    between atoms: C_9  and  N_1 
REMARK    2  A    between atoms: C_5  and  C_2 
REMARK    3  A    between atoms: O_15  and  C_8 
REMARK    4  A    between atoms: O_21  and  C_11 
ROOT
ATOM      1  N   UNL d   1       2.224  -0.135   0.195  0.00  0.00    -0.292 N 
ATOM      2  C   UNL d   1       1.890  -1.501  -0.203  0.00  0.00     0.207 C 
ATOM      3  C   UNL d   1       1.287   0.894   0.082  0.00  0.00     0.261 C 
ATOM      4  N   UNL d   1       0.528  -1.819   0.234  0.00  0.00    -0.266 NA
ATOM      5  C   UNL d   1      -0.130   0.498  -0.053  0.00  0.00     0.053 A 
ATOM      6  C   UNL d   1      -0.453  -0.855   0.012  0.00  0.00     0.026 A 
ATOM      7  O   UNL d   1       1.556   2.094   0.113  0.00  0.00    -0.267 OA
ATOM      8  C   UNL d   1      -1.127   1.477  -0.163  0.00  0.00     0.019 A 
ATOM      9  C   UNL d   1      -1.806  -1.215   0.048  0.00  0.00     0.024 A 
ATOM     10  C   UNL d   1      -2.469   1.105  -0.165  0.00  0.00     0.001 A 
ATOM     11  C   UNL d   1      -2.806  -0.245  -0.055  0.00  0.00     0.002 A 
ATOM     12  H   UNL d   1       0.243  -2.753  -0.055  0.00  0.00     0.130 HD
ENDROOT
BRANCH   2  13
ATOM     13  C   UNL d   1       2.762  -2.558   0.474  0.00  0.00     0.015 A 
ATOM     14  C   UNL d   1       2.803  -2.684   1.885  0.00  0.00     0.108 A 
ATOM     15  C   UNL d   1       3.642  -3.618   2.503  0.00  0.00     0.102 A 
ATOM     16  C   UNL d   1       4.418  -4.457   1.695  0.00  0.00     0.039 A 
ATOM     17  C   UNL d   1       4.366  -4.372   0.303  0.00  0.00     0.004 A 
ATOM     18  C   UNL d   1       3.543  -3.427  -0.307  0.00  0.00     0.013 A 
BRANCH  14  19
ATOM     19  O   UNL d   1       1.990  -1.884   2.649  0.00  0.00    -0.357 OA
ATOM     20  H   UNL d   1       1.295  -1.510   2.072  0.00  0.00     0.217 HD
ENDBRANCH  14  19
BRANCH  15  21
ATOM     21  O   UNL d   1       3.811  -3.854   3.841  0.00  0.00    -0.353 OA
ATOM     22  C   UNL d   1       3.097  -3.039   4.761  0.00  0.00     0.210 C 
ENDBRANCH  15  21
ENDBRANCH   2  13
BRANCH   1  23
ATOM     23  C   UNL d   1       3.587   0.244   0.358  0.00  0.00     0.039 A 
ATOM     24  C   UNL d   1       3.954   0.914   1.536  0.00  0.00     0.033 A 
ATOM     25  C   UNL d   1       5.279   1.289   1.751  0.00  0.00     0.044 A 
ATOM     26  C   UNL d   1       6.228   1.020   0.774  0.00  0.00     0.116 A 
ATOM     27  C   UNL d   1       5.880   0.365  -0.403  0.00  0.00     0.044 A 
ATOM     28  F   UNL d   1       7.498   1.402   0.966  0.00  0.00    -0.206 F 
ATOM     29  C   UNL d   1       4.559  -0.039  -0.609  0.00  0.00     0.033 A 
ENDBRANCH   1  23
TORSDOF 4
