REMARK  5 active torsions:
REMARK  status: ('A' for Active; 'I' for Inactive)
REMARK    1  A    between atoms: C_12  and  C_2 
REMARK    2  A    between atoms: C_16  and  C_10 
REMARK    3  A    between atoms: C_13  and  C_11 
REMARK    4  A    between atoms: O_26  and  C_15 
REMARK    5  A    between atoms: O_30  and  C_17 
ROOT
ATOM      1  N   UNL d   1       0.312   0.623   0.055  0.00  0.00    -0.235 N 
ATOM      2  C   UNL d   1      -0.808   1.446   0.046  0.00  0.00     0.144 A 
ATOM      3  C   UNL d   1       0.161  -0.766   0.063  0.00  0.00     0.130 A 
ATOM      4  N   UNL d   1       1.619   0.963   0.044  0.00  0.00    -0.291 N 
ATOM      5  HN  UNL d   1       2.004   1.908   0.049  1.00  0.00     0.187 HD
ATOM      6  N   UNL d   1      -1.059  -1.377   0.089  0.00  0.00    -0.340 N 
ATOM      7  HN  UNL d   1      -1.147  -2.394   0.095  1.00  0.00     0.167 HD
ATOM      8  C   UNL d   1      -2.038   0.892   0.055  0.00  0.00     0.067 A 
ATOM      9  C   UNL d   1       1.431  -1.290   0.044  0.00  0.00     0.082 A 
ATOM     10  C   UNL d   1       2.311  -0.184   0.025  0.00  0.00     0.062 A 
ATOM     11  C   UNL d   1      -2.107  -0.603   0.107  0.00  0.00     0.046 A 
ENDROOT
BRANCH  11  12
ATOM     12  C   UNL d   1      -3.466  -1.222   0.170  0.00  0.00    -0.006 A 
ATOM     13  C   UNL d   1      -3.652  -2.501  -0.379  0.00  0.00     0.053 A 
ATOM     14  C   UNL d   1      -4.902  -3.144  -0.330  0.00  0.00     0.102 A 
ATOM     15  C   UNL d   1      -5.981  -2.480   0.279  0.00  0.00     0.101 A 
ATOM     16  C   UNL d   1      -5.781  -1.208   0.837  0.00  0.00     0.040 A 
ATOM     17  C   UNL d   1      -4.536  -0.583   0.794  0.00  0.00     0.016 A 
BRANCH  14  18
ATOM     18  O   UNL d   1      -5.118  -4.392  -0.848  0.00  0.00    -0.353 OA
ATOM     19  C   UNL d   1      -4.027  -5.080  -1.447  0.00  0.00     0.210 C 
ENDBRANCH  14  18
BRANCH  15  20
ATOM     20  O   UNL d   1      -7.277  -2.899   0.432  0.00  0.00    -0.353 OA
ATOM     21  C   UNL d   1      -7.653  -4.179  -0.052  0.00  0.00     0.210 C 
ENDBRANCH  15  20
ENDBRANCH  11  12
BRANCH   2  22
ATOM     22  C   UNL d   1      -0.629   2.918   0.013  0.00  0.00     0.434 C 
ATOM     23  F   UNL d   1       0.640   3.383  -0.034  0.00  0.00    -0.165 F 
ATOM     24  F   UNL d   1      -1.272   3.453  -1.062  0.00  0.00    -0.165 F 
ATOM     25  F   UNL d   1      -1.206   3.491   1.107  0.00  0.00    -0.165 F 
ENDBRANCH   2  22
BRANCH  10  26
ATOM     26  C   UNL d   1       3.780  -0.185  -0.013  0.00  0.00    -0.008 A 
ATOM     27  C   UNL d   1       4.492   1.027  -0.002  0.00  0.00     0.015 A 
ATOM     28  C   UNL d   1       5.890   1.043  -0.051  0.00  0.00     0.024 A 
ATOM     29  C   UNL d   1       6.591  -0.157  -0.111  0.00  0.00     0.034 A 
ATOM     30  C   UNL d   1       5.907  -1.370  -0.121  0.00  0.00     0.024 A 
ATOM     31 CL   UNL d   1       8.310  -0.143  -0.177  0.00  0.00    -0.084 Cl
ATOM     32  C   UNL d   1       4.508  -1.384  -0.072  0.00  0.00     0.015 A 
ENDBRANCH  10  26
TORSDOF 5
