REMARK  9 active torsions:
REMARK  status: ('A' for Active; 'I' for Inactive)
REMARK    1  A    between atoms: C_9  and  C_4 
REMARK    2  A    between atoms: N_7  and  C_10 
REMARK    3  A    between atoms: N_8  and  C_14 
REMARK       I    between atoms: N_16  and  C_9 
REMARK    4  A    between atoms: C_24  and  N_16 
REMARK    5  A    between atoms: C_25  and  N_16 
REMARK    6  A    between atoms: C_27  and  C_24 
REMARK    7  A    between atoms: C_26  and  C_25 
REMARK    8  A    between atoms: C_29  and  C_26 
REMARK    9  A    between atoms: C_28  and  C_27 
ROOT
ATOM      1  C   UNL d   1      -2.179   1.022  -0.915  0.00  0.00     0.005 C 
ATOM      2  C   UNL d   1      -2.082  -0.385  -1.004  0.00  0.00     0.029 C 
ATOM      3  C   UNL d   1      -3.215   0.400  -2.927  0.00  0.00     0.028 C 
ATOM      4  C   UNL d   1      -1.487   1.656   0.123  0.00  0.00     0.046 C 
ATOM      5  C   UNL d   1      -3.022   1.467  -2.026  0.00  0.00    -0.010 C 
ATOM      6  C   UNL d   1      -2.643  -0.805  -2.307  0.00  0.00     0.194 C 
ATOM      7  C   UNL d   1      -1.063  -0.552   1.112  0.00  0.00     0.104 C 
ATOM      8  C   UNL d   1      -1.541  -1.200  -0.029  0.00  0.00     0.052 C 
ATOM      9  C   UNL d   1      -1.028   0.855   1.187  0.00  0.00     0.054 C 
ATOM     10  C   UNL d   1      -3.935   0.486  -4.106  0.00  0.00     0.052 C 
ATOM     11  C   UNL d   1      -4.575   1.702  -4.355  0.00  0.00     0.103 C 
ATOM     12  C   UNL d   1      -3.770   2.616  -2.237  0.00  0.00     0.016 C 
ATOM     13  O   UNL d   1      -2.643  -1.932  -2.760  0.00  0.00    -0.287 OA
ATOM     14  C   UNL d   1      -4.545   2.740  -3.403  0.00  0.00     0.037 C 
ENDROOT
BRANCH   4  15
ATOM     15  C   UNL d   1      -1.207   3.123   0.150  0.00  0.00     0.254 C 
ATOM     16  N   UNL d   1       0.043   3.634   0.570  0.00  0.00    -0.348 N 
ATOM     17  O   UNL d   1      -2.113   3.868  -0.203  0.00  0.00    -0.267 OA
BRANCH  16  18
ATOM     18  C   UNL d   1       0.188   5.101   0.575  0.00  0.00     0.126 C 
BRANCH  18  19
ATOM     19  C   UNL d   1      -0.770   5.868   1.497  0.00  0.00     0.020 C 
BRANCH  19  20
ATOM     20  C   UNL d   1      -0.695   5.444   2.963  0.00  0.00    -0.003 C 
ATOM     21  C   UNL d   1      -1.659   6.264   3.811  0.00  0.00     0.005 C 
ENDBRANCH  19  20
ENDBRANCH  18  19
ENDBRANCH  16  18
BRANCH  16  22
ATOM     22  C   UNL d   1       1.309   2.879   0.658  0.00  0.00     0.126 C 
BRANCH  22  23
ATOM     23  C   UNL d   1       1.920   2.448  -0.680  0.00  0.00     0.020 C 
BRANCH  23  24
ATOM     24  C   UNL d   1       2.321   3.605  -1.595  0.00  0.00    -0.003 C 
ATOM     25  C   UNL d   1       3.012   3.097  -2.854  0.00  0.00     0.005 C 
ENDBRANCH  23  24
ENDBRANCH  22  23
ENDBRANCH  16  22
ENDBRANCH   4  15
BRANCH   7  26
ATOM     26  N   UNL d   1      -0.560  -1.348   2.238  0.00  0.00    -0.116 N 
ATOM     27  O   UNL d   1      -0.725  -2.573   2.197  0.00  0.00    -0.532 OA
ATOM     28  O   UNL d   1      -0.004  -0.738   3.161  0.00  0.00    -0.532 OA
ENDBRANCH   7  26
BRANCH  11  29
ATOM     29  N   UNL d   1      -5.296   1.903  -5.618  0.00  0.00    -0.116 N 
ATOM     30  O   UNL d   1      -5.137   1.057  -6.508  0.00  0.00    -0.532 OA
ATOM     31  O   UNL d   1      -6.001   2.917  -5.725  0.00  0.00    -0.532 OA
ENDBRANCH  11  29
TORSDOF 9
