REMARK  5 active torsions:
REMARK  status: ('A' for Active; 'I' for Inactive)
REMARK    1  A    between atoms: C_2  and  C_1 
REMARK       I    between atoms: N_11  and  C_2 
REMARK    2  A    between atoms: C_4  and  C_9 
REMARK    3  A    between atoms: C_5  and  C_10 
REMARK    4  A    between atoms: C_14  and  C_6 
REMARK    5  A    between atoms: C_12  and  N_11 
ROOT
ATOM      1  C   UNL d   1       2.634  -1.514   0.011  0.00  0.00     0.256 C 
ATOM      2  N   UNL d   1       2.466  -2.884  -0.125  0.00  0.00    -0.323 N 
ATOM      3  O   UNL d   1       3.723  -0.946   0.047  0.00  0.00    -0.267 OA
ATOM      4  H   UNL d   1       1.541  -3.221  -0.344  0.00  0.00     0.169 HD
ENDROOT
BRANCH   2   5
ATOM      5  C   UNL d   1       3.470  -3.868   0.047  0.00  0.00     0.036 A 
ATOM      6  C   UNL d   1       4.752  -3.575   0.517  0.00  0.00     0.045 A 
ATOM      7  C   UNL d   1       5.684  -4.588   0.794  0.00  0.00     0.050 A 
ATOM      8  C   UNL d   1       5.324  -5.922   0.566  0.00  0.00     0.032 A 
ATOM      9  C   UNL d   1       4.043  -6.245   0.092  0.00  0.00     0.050 A 
ATOM     10  C   UNL d   1       3.128  -5.208  -0.178  0.00  0.00     0.045 A 
BRANCH   7  11
ATOM     11  C   UNL d   1       7.022  -4.216   1.386  0.00  0.00     0.417 C 
ATOM     12  F   UNL d   1       7.786  -5.295   1.711  0.00  0.00    -0.166 F 
ATOM     13  F   UNL d   1       7.779  -3.459   0.546  0.00  0.00    -0.166 F 
ATOM     14  F   UNL d   1       6.893  -3.495   2.534  0.00  0.00    -0.166 F 
ENDBRANCH   7  11
BRANCH   9  15
ATOM     15  C   UNL d   1       3.627  -7.689  -0.078  0.00  0.00     0.417 C 
ATOM     16  F   UNL d   1       4.549  -8.577   0.386  0.00  0.00    -0.166 F 
ATOM     17  F   UNL d   1       2.473  -7.970   0.588  0.00  0.00    -0.166 F 
ATOM     18  F   UNL d   1       3.402  -8.021  -1.377  0.00  0.00    -0.166 F 
ENDBRANCH   9  15
ENDBRANCH   2   5
BRANCH   1  19
ATOM     19  C   UNL d   1       1.406  -0.713   0.113  0.00  0.00     0.040 A 
ATOM     20  C   UNL d   1       1.426   0.729   0.183  0.00  0.00     0.037 A 
ATOM     21  C   UNL d   1       0.182   1.317   0.321  0.00  0.00     0.016 A 
ATOM     22  S   UNL d   1      -1.033   0.105   0.343  0.00  0.00    -0.100 SA
ATOM     23  C   UNL d   1       0.106  -1.166   0.223  0.00  0.00     0.067 A 
BRANCH  21  24
ATOM     24  C   UNL d   1      -0.151   2.754   0.419  0.00  0.00    -0.019 A 
ATOM     25  C   UNL d   1       0.698   3.716  -0.156  0.00  0.00     0.014 A 
ATOM     26  C   UNL d   1       0.407   5.083  -0.073  0.00  0.00     0.024 A 
ATOM     27  C   UNL d   1      -0.740   5.507   0.590  0.00  0.00     0.034 A 
ATOM     28  C   UNL d   1      -1.591   4.577   1.177  0.00  0.00     0.024 A 
ATOM     29 CL   UNL d   1      -1.106   7.185   0.685  0.00  0.00    -0.084 Cl
ATOM     30  C   UNL d   1      -1.296   3.211   1.095  0.00  0.00     0.014 A 
ENDBRANCH  21  24
ENDBRANCH   1  19
TORSDOF 5
