REMARK  2 active torsions:
REMARK  status: ('A' for Active; 'I' for Inactive)
REMARK    1  A    between atoms: C_9  and  C_6 
REMARK    2  A    between atoms: C_8  and  C_7 
ROOT
ATOM      1  O   UNL d   1      -1.097  -0.006  -0.029  0.00  0.00    -0.273 OA
ATOM      2  N   UNL d   1       1.027   0.698   0.035  0.00  0.00    -0.277 N 
ATOM      3  HN  UNL d   1       1.839   1.314   0.059  1.00  0.00     0.189 HD
ATOM      4  N   UNL d   1       1.038  -0.678   0.024  0.00  0.00    -0.277 N 
ATOM      5  HN  UNL d   1       1.860  -1.281   0.044  1.00  0.00     0.189 HD
ATOM      6  C   UNL d   1      -0.222  -1.064  -0.019  0.00  0.00     0.174 A 
ATOM      7  C   UNL d   1      -0.239   1.065   0.008  0.00  0.00     0.174 A 
ENDROOT
BRANCH   6   8
ATOM      8  C   UNL d   1      -0.773  -2.413  -0.063  0.00  0.00     0.017 A 
ATOM      9  C   UNL d   1       0.098  -3.513   0.024  0.00  0.00     0.017 A 
ATOM     10  C   UNL d   1      -0.387  -4.822  -0.041  0.00  0.00     0.025 A 
ATOM     11  C   UNL d   1      -1.752  -5.045  -0.193  0.00  0.00     0.034 A 
ATOM     12  C   UNL d   1      -2.635  -3.970  -0.272  0.00  0.00     0.025 A 
ATOM     13 CL   UNL d   1      -2.351  -6.654  -0.291  0.00  0.00    -0.084 Cl
ATOM     14  C   UNL d   1      -2.148  -2.658  -0.206  0.00  0.00     0.017 A 
ENDBRANCH   6   8
BRANCH   7  15
ATOM     15  C   UNL d   1      -0.813   2.405   0.018  0.00  0.00     0.017 A 
ATOM     16  C   UNL d   1       0.044   3.518  -0.028  0.00  0.00     0.017 A 
ATOM     17  C   UNL d   1      -0.464   4.820   0.006  0.00  0.00     0.025 A 
ATOM     18  C   UNL d   1      -1.838   5.021   0.086  0.00  0.00     0.034 A 
ATOM     19  C   UNL d   1      -2.707   3.932   0.124  0.00  0.00     0.025 A 
ATOM     20 CL   UNL d   1      -2.466   6.621   0.145  0.00  0.00    -0.084 Cl
ATOM     21  C   UNL d   1      -2.196   2.629   0.088  0.00  0.00     0.017 A 
ENDBRANCH   7  15
TORSDOF 2
