REMARK  5 active torsions:
REMARK  status: ('A' for Active; 'I' for Inactive)
REMARK    1  A    between atoms: C_5  and  N_1 
REMARK    2  A    between atoms: C_2  and  C_3 
REMARK    3  A    between atoms: N_4  and  C_12 
REMARK    4  A    between atoms: C_13  and  N_4 
REMARK    5  A    between atoms: C_16  and  C_5 
ROOT
ATOM      1  N   UNL d   1       1.359  -0.137   0.291  0.00  0.00     0.092 N 
ATOM      2  C   UNL d   1      -0.713   1.244   0.370  0.00  0.00     0.055 C 
ATOM      3  C   UNL d   1      -0.875  -1.245   0.279  0.00  0.00     0.055 C 
ATOM      4  C   UNL d   1       0.576  -1.285  -0.201  0.00  0.00     0.275 C 
ATOM      5  C   UNL d   1       0.727   1.127  -0.121  0.00  0.00     0.275 C 
ATOM      6  C   UNL d   1      -1.579   0.065  -0.083  0.00  0.00     0.085 C 
ENDROOT
BRANCH   6   7
ATOM      7  N   UNL d   1      -1.849   0.147  -1.530  0.00  0.00    -0.385 N 
ATOM      8  H   UNL d   1      -1.585   1.035  -1.946  0.00  0.00     0.160 HD
BRANCH   7   9
ATOM      9  C   UNL d   1      -3.060  -0.318  -2.054  0.00  0.00     0.028 A 
ATOM     10  C   UNL d   1      -3.450   0.089  -3.338  0.00  0.00     0.029 A 
ATOM     11  C   UNL d   1      -4.620  -0.402  -3.940  0.00  0.00     0.010 A 
ATOM     12  C   UNL d   1      -5.434  -1.350  -3.300  0.00  0.00    -0.051 A 
ATOM     13  C   UNL d   1      -5.021  -1.776  -2.033  0.00  0.00     0.010 A 
ATOM     14  C   UNL d   1      -3.857  -1.277  -1.432  0.00  0.00     0.029 A 
BRANCH  12  15
ATOM     15  C   UNL d   1      -6.702  -1.894  -3.980  0.00  0.00    -0.024 C 
ATOM     16  C   UNL d   1      -7.439  -2.964  -3.141  0.00  0.00     0.019 C 
ATOM     17  C   UNL d   1      -7.697  -0.741  -4.229  0.00  0.00     0.019 C 
ATOM     18  C   UNL d   1      -6.341  -2.549  -5.330  0.00  0.00     0.019 C 
ENDBRANCH  12  15
ENDBRANCH   7   9
ENDBRANCH   6   7
BRANCH   1  19
ATOM     19  C   UNL d   1       2.740  -0.168  -0.239  0.00  0.00     0.311 C 
BRANCH  19  20
ATOM     20  C   UNL d   1       3.544  -1.390   0.149  0.00  0.00    -0.030 A 
ATOM     21  C   UNL d   1       4.016  -2.269  -0.839  0.00  0.00     0.009 A 
ATOM     22  C   UNL d   1       4.765  -3.393  -0.490  0.00  0.00     0.001 A 
ATOM     23  C   UNL d   1       5.053  -3.651   0.848  0.00  0.00     0.000 A 
ATOM     24  C   UNL d   1       4.592  -2.784   1.839  0.00  0.00     0.001 A 
ATOM     25  C   UNL d   1       3.842  -1.659   1.492  0.00  0.00     0.009 A 
ENDBRANCH  19  20
ENDBRANCH   1  19
TORSDOF 5
