REMARK  3 active torsions:
REMARK  status: ('A' for Active; 'I' for Inactive)
REMARK    1  A    between atoms: C_10  and  C_3 
REMARK    2  A    between atoms: C_11  and  C_7 
REMARK    3  A    between atoms: C_8  and  C_10 
ROOT
ATOM      1  N   UNL d   1       1.301  -1.149  -0.057  0.00  0.00    -0.297 N 
ATOM      2  HN  UNL d   1       1.853  -2.007  -0.060  1.00  0.00     0.187 HD
ATOM      3  C   UNL d   1      -0.234   1.237  -0.045  0.00  0.00     0.018 A 
ATOM      4  N   UNL d   1      -0.061  -1.177  -0.144  0.00  0.00    -0.266 N 
ATOM      5  C   UNL d   1      -0.892  -0.084  -0.189  0.00  0.00     0.266 A 
ATOM      6  C   UNL d   1       1.098   1.289   0.090  0.00  0.00     0.045 A 
ATOM      7  C   UNL d   1       1.861   0.020   0.029  0.00  0.00     0.059 A 
ATOM      8  O   UNL d   1      -2.107  -0.192  -0.313  0.00  0.00    -0.266 OA
ATOM      9  H   UNL d   1      -0.489  -2.090  -0.235  0.00  0.00     0.190 HD
ENDROOT
BRANCH   7  10
ATOM     10  C   UNL d   1       3.348   0.125   0.098  0.00  0.00    -0.008 A 
ATOM     11  C   UNL d   1       4.074  -0.917   0.687  0.00  0.00     0.014 A 
ATOM     12  C   UNL d   1       5.467  -0.839   0.784  0.00  0.00     0.007 A 
ATOM     13  C   UNL d   1       6.152   0.276   0.287  0.00  0.00    -0.062 A 
ATOM     14  C   UNL d   1       5.428   1.303  -0.326  0.00  0.00     0.007 A 
ATOM     15  C   UNL d   1       7.646   0.352   0.401  0.00  0.00     0.048 C 
ATOM     16  C   UNL d   1       4.036   1.226  -0.428  0.00  0.00     0.014 A 
ENDBRANCH   7  10
BRANCH   3  17
ATOM     17  C   UNL d   1      -1.108   2.459  -0.022  0.00  0.00     0.090 C 
BRANCH  17  18
ATOM     18  C   UNL d   1      -1.338   3.075  -1.375  0.00  0.00    -0.013 A 
ATOM     19  S   UNL d   1      -0.245   4.244  -1.992  0.00  0.00    -0.106 SA
ATOM     20  C   UNL d   1      -1.122   4.384  -3.453  0.00  0.00     0.050 A 
ATOM     21  C   UNL d   1      -2.232   3.570  -3.469  0.00  0.00     0.008 A 
ATOM     22  C   UNL d   1      -2.359   2.816  -2.267  0.00  0.00     0.015 A 
ENDBRANCH  17  18
ENDBRANCH   3  17
TORSDOF 3
