REMARK  6 active torsions:
REMARK  status: ('A' for Active; 'I' for Inactive)
REMARK    1  A    between atoms: N_2  and  C_3 
REMARK       I    between atoms: C_5  and  N_2 
REMARK    2  A    between atoms: C_12  and  C_5 
REMARK    3  A    between atoms: C_6  and  C_13 
REMARK    4  A    between atoms: O_11  and  C_6 
REMARK    5  A    between atoms: O_10  and  C_12 
REMARK    6  A    between atoms: C_13  and  O_10 
ROOT
ATOM      1  N   UNL d   1       1.310   2.298   0.959  0.00  0.00    -0.346 N 
ATOM      2  C   UNL d   1       2.017   2.363   2.146  0.00  0.00     0.242 C 
ATOM      3  O   UNL d   1       1.843   1.584   3.082  0.00  0.00    -0.271 OA
ATOM      4  H   UNL d   1       1.787   2.641   0.132  0.00  0.00     0.163 HD
ENDROOT
BRANCH   1   5
ATOM      5  C   UNL d   1       0.401   1.177   0.723  0.00  0.00     0.176 C 
ATOM      6  C   UNL d   1       1.193   0.038   0.057  0.00  0.00     0.240 C 
ATOM      7  N   UNL d   1       0.561  -1.167  -0.078  0.00  0.00    -0.359 N 
ATOM      8  O   UNL d   1       2.323   0.192  -0.400  0.00  0.00    -0.271 OA
ATOM      9  C   UNL d   1      -0.777  -1.482   0.371  0.00  0.00     0.122 C 
ATOM     10  H   UNL d   1       1.117  -1.884  -0.530  0.00  0.00     0.162 HD
ATOM     11  C   UNL d   1      -1.839  -0.725  -0.420  0.00  0.00     0.020 C 
ATOM     12  C   UNL d   1      -2.001   0.740  -0.011  0.00  0.00     0.004 C 
ATOM     13  C   UNL d   1      -0.753   1.609  -0.184  0.00  0.00     0.035 C 
ENDBRANCH   1   5
BRANCH   2  14
ATOM     14  C   UNL d   1       3.035   3.513   2.200  0.00  0.00     0.271 C 
BRANCH  14  15
ATOM     15  O   UNL d   1       4.252   3.309   2.913  0.00  0.00    -0.372 OA
BRANCH  15  16
ATOM     16  C   UNL d   1       5.019   2.203   2.422  0.00  0.00     0.277 C 
BRANCH  16  17
ATOM     17  C   UNL d   1       5.727   2.546   1.118  0.00  0.00     0.164 C 
ATOM     18  O   UNL d   1       6.090   1.737   0.279  0.00  0.00    -0.648 OA
BRANCH  17  19
ATOM     19  O   UNL d   1       5.944   3.882   0.999  0.00  0.00    -0.775 OA
ATOM     20  H   UNL d   1       5.599   4.338   1.799  0.00  0.00     0.167 HD
ENDBRANCH  17  19
ENDBRANCH  16  17
ENDBRANCH  15  16
ENDBRANCH  14  15
ENDBRANCH   2  14
TORSDOF 6
