REMARK  10 active torsions:
REMARK  status: ('A' for Active; 'I' for Inactive)
REMARK    1  A    between atoms: S_4  and  C_1 
REMARK    2  A    between atoms: S_5  and  C_1 
REMARK    3  A    between atoms: C_12  and  C_1 
REMARK    4  A    between atoms: C_2  and  C_8 
REMARK    5  A    between atoms: O_11  and  C_2 
REMARK    6  A    between atoms: C_3  and  C_9 
REMARK    7  A    between atoms: O_10  and  C_3 
REMARK    8  A    between atoms: C_8  and  S_4 
REMARK    9  A    between atoms: C_9  and  S_5 
REMARK   10  A    between atoms: C_14  and  C_12 
ROOT
ATOM      1  C   UNL d   1       1.100  -0.033  -0.012  0.00  0.00     0.053 C 
ATOM      2  C   UNL d   1       2.635   0.008   0.010  0.00  0.00     0.039 C 
ENDROOT
BRANCH   1   3
ATOM      3  S   UNL d   1       0.468  -0.032  -1.757  0.00  0.00    -0.138 SA
BRANCH   3   4
ATOM      4  C   UNL d   1       1.137   1.557  -2.389  0.00  0.00     0.185 C 
BRANCH   4   5
ATOM      5  C   UNL d   1       0.762   1.818  -3.837  0.00  0.00     0.149 C 
ATOM      6  O   UNL d   1       1.113   2.822  -4.440  0.00  0.00    -0.649 OA
BRANCH   5   7
ATOM      7  O   UNL d   1       0.010   0.858  -4.421  0.00  0.00    -0.776 OA
ATOM      8  H   UNL d   1      -0.182   0.128  -3.792  0.00  0.00     0.167 HD
ENDBRANCH   5   7
ENDBRANCH   4   5
ENDBRANCH   3   4
ENDBRANCH   1   3
BRANCH   1   9
ATOM      9  S   UNL d   1       0.515  -1.587   0.834  0.00  0.00    -0.138 SA
BRANCH   9  10
ATOM     10  C   UNL d   1       1.264  -2.918  -0.176  0.00  0.00     0.185 C 
BRANCH  10  11
ATOM     11  C   UNL d   1       0.889  -4.295   0.352  0.00  0.00     0.149 C 
ATOM     12  O   UNL d   1       1.286  -5.332  -0.162  0.00  0.00    -0.649 OA
BRANCH  11  13
ATOM     13  O   UNL d   1       0.082  -4.303   1.437  0.00  0.00    -0.776 OA
ATOM     14  H   UNL d   1      -0.139  -3.382   1.707  0.00  0.00     0.167 HD
ENDBRANCH  11  13
ENDBRANCH  10  11
ENDBRANCH   9  10
ENDBRANCH   1   9
BRANCH   1  15
ATOM     15  C   UNL d   1       0.538   1.161   0.815  0.00  0.00     0.031 C 
BRANCH  15  16
ATOM     16  C   UNL d   1      -0.994   1.265   0.924  0.00  0.00    -0.002 C 
ATOM     17  C   UNL d   1      -1.411   2.437   1.801  0.00  0.00     0.005 C 
ENDBRANCH  15  16
ENDBRANCH   1  15
TORSDOF 10
