REMARK  5 active torsions:
REMARK  status: ('A' for Active; 'I' for Inactive)
REMARK    1  A    between atoms: C_3  and  C_1 
REMARK    2  A    between atoms: C_8  and  N_4 
REMARK    3  A    between atoms: C_5  and  C_7 
REMARK       I    between atoms: N_12  and  C_5 
REMARK    4  A    between atoms: C_7  and  C_8 
REMARK    5  A    between atoms: C_17  and  N_12 
ROOT
ATOM      1  C   UNL d   1       3.753   0.418  -0.492  0.00  0.00     0.123 C 
ENDROOT
BRANCH   1   2
ATOM      2  C   UNL d   1       4.816   1.492  -0.517  0.00  0.00     0.223 C 
ATOM      3  N   UNL d   1       5.682   1.404  -1.592  0.00  0.00    -0.327 N 
ATOM      4  H   UNL d   1       5.337   0.890  -2.399  0.00  0.00     0.169 HD
ATOM      5  O   UNL d   1       4.862   2.324   0.391  0.00  0.00    -0.273 OA
BRANCH   3   6
ATOM      6  C   UNL d   1       6.783   2.267  -1.818  0.00  0.00     0.034 C 
ATOM      7  C   UNL d   1       7.373   3.020  -0.800  0.00  0.00     0.030 C 
ATOM      8  C   UNL d   1       8.296   4.023  -1.102  0.00  0.00     0.009 C 
ATOM      9  C   UNL d   1       8.663   4.271  -2.426  0.00  0.00    -0.062 C 
ATOM     10  C   UNL d   1       8.180   3.424  -3.430  0.00  0.00     0.009 C 
ATOM     11  C   UNL d   1       9.442   5.508  -2.763  0.00  0.00     0.048 C 
ATOM     12  C   UNL d   1       7.258   2.415  -3.124  0.00  0.00     0.030 C 
ENDBRANCH   3   6
ENDBRANCH   1   2
BRANCH   1  13
ATOM     13  C   UNL d   1       2.343   0.996  -0.358  0.00  0.00     0.140 C 
BRANCH  13  14
ATOM     14  N   UNL d   1       1.726   1.724  -1.491  0.00  0.00    -0.324 N 
ATOM     15  C   UNL d   1       2.174   1.583  -2.812  0.00  0.00     0.262 A 
ATOM     16  C   UNL d   1       1.437   2.357  -3.845  0.00  0.00     0.115 A 
ATOM     17  O   UNL d   1       3.126   0.875  -3.130  0.00  0.00    -0.267 OA
ATOM     18  C   UNL d   1       0.319   3.023  -3.508  0.00  0.00     0.023 A 
ATOM     19  C   UNL d   1      -0.152   3.034  -2.152  0.00  0.00     0.018 A 
ATOM     20  C   UNL d   1       0.558   2.424  -1.201  0.00  0.00     0.094 A 
BRANCH  16  21
ATOM     21  C   UNL d   1       1.985   2.370  -5.229  0.00  0.00     0.422 C 
ATOM     22  F   UNL d   1       3.184   1.767  -5.413  0.00  0.00    -0.166 F 
ATOM     23  F   UNL d   1       1.121   1.787  -6.106  0.00  0.00    -0.166 F 
ATOM     24  F   UNL d   1       2.144   3.652  -5.668  0.00  0.00    -0.166 F 
ENDBRANCH  16  21
ENDBRANCH  13  14
ENDBRANCH   1  13
TORSDOF 5
