REMARK  5 active torsions:
REMARK  status: ('A' for Active; 'I' for Inactive)
REMARK    1  A    between atoms: C_2  and  C_1 
REMARK       I    between atoms: N_6  and  C_1 
REMARK       I    between atoms: C_3  and  N_4 
REMARK    2  A    between atoms: C_9  and  C_3 
REMARK    3  A    between atoms: N_4  and  C_5 
REMARK    4  A    between atoms: C_10  and  N_6 
REMARK    5  A    between atoms: O_17  and  C_11 
ROOT
ATOM      1  C   UNL d   1       0.240  -0.499  -1.213  0.00  0.00     0.059 A 
ATOM      2  C   UNL d   1       0.779  -1.779  -1.461  0.00  0.00     0.050 A 
ATOM      3  C   UNL d   1      -0.862  -0.058  -1.970  0.00  0.00     0.019 A 
ATOM      4  C   UNL d   1       0.160  -2.609  -2.407  0.00  0.00     0.030 A 
ATOM      5  C   UNL d   1      -1.464  -0.896  -2.909  0.00  0.00     0.001 A 
ATOM      6  C   UNL d   1      -0.960  -2.175  -3.118  0.00  0.00     0.002 A 
ENDROOT
BRANCH   1   7
ATOM      7  C   UNL d   1       0.895   0.427  -0.229  0.00  0.00     0.258 C 
ATOM      8  N   UNL d   1       0.070   1.390   0.327  0.00  0.00    -0.323 N 
ATOM      9  H   UNL d   1      -0.924   1.294   0.171  0.00  0.00     0.169 HD
ATOM     10  O   UNL d   1       2.075   0.245   0.059  0.00  0.00    -0.267 OA
BRANCH   8  11
ATOM     11  C   UNL d   1       0.445   2.409   1.224  0.00  0.00     0.035 A 
ATOM     12  C   UNL d   1       1.765   2.709   1.560  0.00  0.00     0.032 A 
ATOM     13  C   UNL d   1       2.056   3.694   2.513  0.00  0.00     0.039 A 
ATOM     14  C   UNL d   1       1.027   4.394   3.138  0.00  0.00     0.068 A 
ATOM     15  C   UNL d   1      -0.292   4.138   2.761  0.00  0.00     0.039 A 
ATOM     16  C   UNL d   1      -0.583   3.157   1.809  0.00  0.00     0.032 A 
BRANCH  14  17
ATOM     17  O   UNL d   1       1.173   5.337   4.117  0.00  0.00    -0.356 OA
ATOM     18  C   UNL d   1       2.486   5.519   4.635  0.00  0.00     0.210 C 
ENDBRANCH  14  17
ENDBRANCH   8  11
ENDBRANCH   1   7
BRANCH   2  19
ATOM     19  N   UNL d   1       1.922  -2.241  -0.756  0.00  0.00    -0.322 N 
ATOM     20  C   UNL d   1       2.958  -2.915  -1.378  0.00  0.00     0.256 C 
ATOM     21  O   UNL d   1       3.022  -3.176  -2.579  0.00  0.00    -0.267 OA
ATOM     22  H   UNL d   1       2.214  -1.665   0.036  0.00  0.00     0.169 HD
BRANCH  20  23
ATOM     23  C   UNL d   1       4.107  -3.275  -0.512  0.00  0.00     0.032 A 
ATOM     24  C   UNL d   1       3.912  -3.817   0.764  0.00  0.00     0.017 A 
ATOM     25  C   UNL d   1       5.014  -4.232   1.516  0.00  0.00     0.001 A 
ATOM     26  C   UNL d   1       6.305  -4.100   1.002  0.00  0.00     0.000 A 
ATOM     27  C   UNL d   1       6.502  -3.551  -0.265  0.00  0.00     0.001 A 
ATOM     28  C   UNL d   1       5.404  -3.146  -1.025  0.00  0.00     0.017 A 
ENDBRANCH  20  23
ENDBRANCH   2  19
TORSDOF 5
