REMARK  9 active torsions:
REMARK  status: ('A' for Active; 'I' for Inactive)
REMARK    1  A    between atoms: O_3  and  C_1 
REMARK    2  A    between atoms: C_4  and  C_1 
REMARK    3  A    between atoms: C_2  and  N_14 
REMARK    4  A    between atoms: N_11  and  C_2 
REMARK    5  A    between atoms: C_5  and  O_3 
REMARK    6  A    between atoms: O_27  and  C_8 
REMARK    7  A    between atoms: N_14  and  N_9 
REMARK    8  A    between atoms: C_21  and  N_11 
REMARK    9  A    between atoms: C_20  and  C_22 
ROOT
ATOM      1  C   UNL d   1      -1.083  -0.978   0.545  0.00  0.00     0.112 A 
ATOM      2  C   UNL d   1      -1.728  -0.157  -0.397  0.00  0.00     0.102 A 
ATOM      3  C   UNL d   1      -3.110  -0.277  -0.559  0.00  0.00     0.052 A 
ATOM      4  C   UNL d   1      -1.806  -1.859   1.353  0.00  0.00     0.041 A 
ATOM      5  C   UNL d   1      -3.832  -1.170   0.242  0.00  0.00    -0.017 A 
ATOM      6  C   UNL d   1      -3.188  -1.956   1.200  0.00  0.00     0.016 A 
ENDROOT
BRANCH   5   7
ATOM      7  C   UNL d   1      -5.286  -1.325   0.063  0.00  0.00     0.118 C 
ATOM      8  N   UNL d   1      -5.881  -0.910  -1.008  0.00  0.00    -0.309 N 
ATOM      9  HN  UNL d   1      -5.393  -0.403  -1.747  1.00  0.00     0.186 HD
BRANCH   8  10
ATOM     10  N   UNL d   1      -7.208  -1.201  -1.073  0.00  0.00    -0.276 N 
ATOM     11  H   UNL d   1      -7.704  -1.451  -0.227  0.00  0.00     0.189 HD
BRANCH  10  12
ATOM     12  C   UNL d   1      -7.887  -1.222  -2.263  0.00  0.00     0.191 C 
ATOM     13  S   UNL d   1      -7.444  -0.382  -3.645  0.00  0.00    -0.039 SA
BRANCH  12  14
ATOM     14  N   UNL d   1      -9.024  -1.984  -2.324  0.00  0.00    -0.332 N 
ATOM     15  H   UNL d   1      -9.560  -1.799  -3.167  0.00  0.00     0.168 HD
BRANCH  14  16
ATOM     16  C   UNL d   1      -9.462  -3.086  -1.555  0.00  0.00     0.034 A 
ATOM     17  C   UNL d   1      -8.686  -3.744  -0.591  0.00  0.00     0.032 A 
ATOM     18  C   UNL d   1      -9.201  -4.833   0.118  0.00  0.00     0.044 A 
ATOM     19  C   UNL d   1     -10.478  -5.295  -0.167  0.00  0.00     0.116 A 
ATOM     20  C   UNL d   1     -11.248  -4.691  -1.150  0.00  0.00     0.044 A 
ATOM     21  F   UNL d   1     -10.963  -6.350   0.500  0.00  0.00    -0.206 F 
ATOM     22  C   UNL d   1     -10.739  -3.585  -1.842  0.00  0.00     0.032 A 
ENDBRANCH  14  16
ENDBRANCH  12  14
ENDBRANCH  10  12
ENDBRANCH   8  10
ENDBRANCH   5   7
BRANCH   2  23
ATOM     23  O   UNL d   1      -0.932   0.708  -1.103  0.00  0.00    -0.353 OA
ATOM     24  C   UNL d   1      -1.598   1.690  -1.891  0.00  0.00     0.210 C 
ENDBRANCH   2  23
BRANCH   1  25
ATOM     25  O   UNL d   1       0.315  -0.804   0.691  0.00  0.00    -0.272 OA
BRANCH  25  26
ATOM     26  C   UNL d   1       1.162  -1.855   0.988  0.00  0.00     0.298 C 
ATOM     27  O   UNL d   1       0.859  -3.022   1.180  0.00  0.00    -0.259 OA
BRANCH  26  28
ATOM     28  C   UNL d   1       2.569  -1.364   1.050  0.00  0.00     0.041 A 
ATOM     29  C   UNL d   1       3.572  -2.280   1.399  0.00  0.00     0.043 A 
ATOM     30  C   UNL d   1       4.910  -1.875   1.461  0.00  0.00     0.056 A 
ATOM     31 CL   UNL d   1       6.088  -3.062   1.896  0.00  0.00    -0.083 Cl
ATOM     32  C   UNL d   1       5.254  -0.549   1.176  0.00  0.00     0.055 A 
ATOM     33  C   UNL d   1       4.256   0.367   0.832  0.00  0.00     0.026 A 
ATOM     34 CL   UNL d   1       6.884   0.019   1.227  0.00  0.00    -0.083 Cl
ATOM     35  C   UNL d   1       2.918  -0.036   0.768  0.00  0.00     0.019 A 
ENDBRANCH  26  28
ENDBRANCH  25  26
ENDBRANCH   1  25
TORSDOF 9
