REMARK  4 active torsions:
REMARK  status: ('A' for Active; 'I' for Inactive)
REMARK    1  A    between atoms: C_10  and  C_3 
REMARK    2  A    between atoms: N_6  and  C_8 
REMARK    3  A    between atoms: C_20  and  C_11 
REMARK    4  A    between atoms: N_17  and  C_16 
ROOT
ATOM      1  N   UNL d   1      -0.800   0.047   0.014  0.00  0.00    -0.331 N 
ATOM      2  HN  UNL d   1      -1.783  -0.220   0.055  1.00  0.00     0.168 HD
ATOM      3  C   UNL d   1      -0.289   1.231  -0.058  0.00  0.00     0.162 A 
ATOM      4  C   UNL d   1       0.306  -0.759   0.023  0.00  0.00     0.111 A 
ATOM      5  O   UNL d   1       1.060   1.336  -0.092  0.00  0.00    -0.256 OA
ATOM      6  C   UNL d   1       1.546   0.061  -0.037  0.00  0.00     0.316 A 
ATOM      7  C   UNL d   1       0.315  -2.096   0.051  0.00  0.00     0.047 C 
ATOM      8  O   UNL d   1       2.708  -0.288  -0.050  0.00  0.00    -0.257 OA
ENDROOT
BRANCH   3   9
ATOM      9  C   UNL d   1      -1.050   2.486  -0.108  0.00  0.00     0.018 A 
ATOM     10  C   UNL d   1      -2.436   2.424   0.066  0.00  0.00     0.052 A 
ATOM     11  C   UNL d   1      -3.187   3.603  -0.006  0.00  0.00     0.109 A 
ATOM     12  C   UNL d   1      -2.587   4.852  -0.247  0.00  0.00    -0.029 A 
ATOM     13  C   UNL d   1      -1.193   4.887  -0.412  0.00  0.00     0.010 A 
ATOM     14  C   UNL d   1      -3.370   6.133  -0.314  0.00  0.00     0.050 C 
ATOM     15  C   UNL d   1      -0.429   3.716  -0.342  0.00  0.00     0.016 A 
BRANCH  11  16
ATOM     16  N   UNL d   1      -4.623   3.486   0.194  0.00  0.00    -0.115 N 
ATOM     17  O   UNL d   1      -5.001   2.994   1.266  0.00  0.00    -0.532 OA
ATOM     18  O   UNL d   1      -5.359   3.867  -0.724  0.00  0.00    -0.532 OA
ENDBRANCH  11  16
ENDBRANCH   3   9
BRANCH   7  19
ATOM     19  C   UNL d   1      -0.925  -2.874   0.048  0.00  0.00    -0.034 A 
ATOM     20  C   UNL d   1      -1.494  -3.276  -1.156  0.00  0.00     0.013 A 
ATOM     21  C   UNL d   1      -2.703  -3.989  -1.169  0.00  0.00     0.030 A 
ATOM     22  C   UNL d   1      -3.385  -4.332   0.010  0.00  0.00     0.029 A 
ATOM     23  C   UNL d   1      -2.786  -3.907   1.209  0.00  0.00     0.030 A 
ATOM     24  C   UNL d   1      -1.581  -3.184   1.235  0.00  0.00     0.013 A 
BRANCH  22  25
ATOM     25  N   UNL d   1      -4.555  -5.078   0.005  0.00  0.00    -0.390 N 
ATOM     26  C   UNL d   1      -5.577  -4.906   1.035  0.00  0.00     0.149 C 
ATOM     27  C   UNL d   1      -4.986  -5.850  -1.157  0.00  0.00     0.149 C 
ENDBRANCH  22  25
ENDBRANCH   7  19
TORSDOF 4
