REMARK  7 active torsions:
REMARK  status: ('A' for Active; 'I' for Inactive)
REMARK    1  A    between atoms: C_3  and  C_1 
REMARK    2  A    between atoms: O_15  and  C_1 
REMARK       I    between atoms: C_2  and  N_4 
REMARK    3  A    between atoms: C_13  and  C_2 
REMARK    4  A    between atoms: N_4  and  C_14 
REMARK    5  A    between atoms: C_5  and  S_8 
REMARK    6  A    between atoms: S_8  and  C_13 
REMARK    7  A    between atoms: C_20  and  O_15 
ROOT
ATOM      1  C   UNL d   1      -3.091  -0.620   5.183  0.00  0.00     0.231 C 
ATOM      2  N   UNL d   1      -1.994   0.149   4.807  0.00  0.00    -0.327 N 
ATOM      3  O   UNL d   1      -3.691  -1.408   4.455  0.00  0.00    -0.272 OA
ATOM      4  H   UNL d   1      -1.632   0.806   5.487  0.00  0.00     0.169 HD
ENDROOT
BRANCH   2   5
ATOM      5  C   UNL d   1      -1.312   0.102   3.568  0.00  0.00     0.034 A 
ATOM      6  C   UNL d   1      -1.627  -0.799   2.548  0.00  0.00     0.030 A 
ATOM      7  C   UNL d   1      -0.884  -0.834   1.361  0.00  0.00     0.020 A 
ATOM      8  C   UNL d   1       0.188   0.038   1.170  0.00  0.00     0.039 A 
ATOM      9  C   UNL d   1       0.498   0.961   2.176  0.00  0.00     0.020 A 
ATOM     10  C   UNL d   1      -0.246   0.990   3.367  0.00  0.00     0.030 A 
BRANCH   8  11
ATOM     11  C   UNL d   1       1.020   0.011  -0.069  0.00  0.00     0.293 C 
ATOM     12  O   UNL d   1       1.887   0.832  -0.321  0.00  0.00    -0.259 OA
BRANCH  11  13
ATOM     13  O   UNL d   1       0.679  -1.058  -0.830  0.00  0.00    -0.318 OA
BRANCH  13  14
ATOM     14  C   UNL d   1       1.400  -1.224  -2.063  0.00  0.00     0.174 C 
ATOM     15  C   UNL d   1       2.685  -1.995  -1.826  0.00  0.00     0.034 C 
ENDBRANCH  13  14
ENDBRANCH  11  13
ENDBRANCH   8  11
ENDBRANCH   2   5
BRANCH   1  16
ATOM     16  C   UNL d   1      -3.535  -0.406   6.625  0.00  0.00     0.184 C 
BRANCH  16  17
ATOM     17  S   UNL d   1      -3.302  -1.959   7.553  0.00  0.00    -0.103 SA
BRANCH  17  18
ATOM     18  C   UNL d   1      -4.063  -1.533   9.107  0.00  0.00     0.069 A 
ATOM     19  N   UNL d   1      -4.577  -0.292   9.259  0.00  0.00    -0.361 N 
ATOM     20  C   UNL d   1      -5.124   0.004  10.460  0.00  0.00     0.089 A 
ATOM     21  HN  UNL d   1      -4.552   0.391   8.502  1.00  0.00     0.165 HD
ATOM     22  C   UNL d   1      -5.171  -0.875  11.529  0.00  0.00     0.017 A 
ATOM     23  C   UNL d   1      -4.639  -2.146  11.353  0.00  0.00     0.004 A 
ATOM     24  C   UNL d   1      -4.083  -2.485  10.122  0.00  0.00     0.037 A 
ENDBRANCH  17  18
ENDBRANCH  16  17
ENDBRANCH   1  16
TORSDOF 7
