REMARK  7 active torsions:
REMARK  status: ('A' for Active; 'I' for Inactive)
REMARK    1  A    between atoms: N_2  and  C_1 
REMARK    2  A    between atoms: C_3  and  C_6 
REMARK       I    between atoms: N_4  and  C_3 
REMARK    3  A    between atoms: C_10  and  N_4 
REMARK    4  A    between atoms: C_12  and  N_4 
REMARK    5  A    between atoms: S_8  and  C_7 
REMARK    6  A    between atoms: C_23  and  S_8 
REMARK    7  A    between atoms: C_20  and  C_12 
ROOT
ATOM      1  C   UNL d   1      -1.865  -2.359  -0.055  0.00  0.00     0.258 C 
ATOM      2  N   UNL d   1      -3.259  -2.295   0.095  0.00  0.00    -0.310 N 
ATOM      3  O   UNL d   1      -1.174  -1.338  -0.153  0.00  0.00    -0.267 OA
ENDROOT
BRANCH   2   4
ATOM      4  C   UNL d   1      -4.149  -3.389  -0.054  0.00  0.00     0.038 A 
ATOM      5  C   UNL d   1      -5.142  -3.596   0.918  0.00  0.00     0.033 A 
ATOM      6  C   UNL d   1      -6.044  -4.650   0.790  0.00  0.00     0.044 A 
ATOM      7  C   UNL d   1      -5.981  -5.482  -0.318  0.00  0.00     0.116 A 
ATOM      8  C   UNL d   1      -5.001  -5.292  -1.295  0.00  0.00     0.044 A 
ATOM      9  F   UNL d   1      -6.856  -6.479  -0.448  0.00  0.00    -0.206 F 
ATOM     10  C   UNL d   1      -4.080  -4.251  -1.162  0.00  0.00     0.033 A 
ENDBRANCH   2   4
BRANCH   2  11
ATOM     11  C   UNL d   1      -3.869  -0.951   0.241  0.00  0.00     0.171 C 
BRANCH  11  12
ATOM     12  C   UNL d   1      -4.163  -0.257  -1.081  0.00  0.00    -0.037 A 
ATOM     13  C   UNL d   1      -5.009  -0.850  -2.033  0.00  0.00     0.048 A 
ATOM     14  C   UNL d   1      -5.099  -0.259  -3.274  0.00  0.00     0.105 A 
ATOM     15  O   UNL d   1      -5.710  -0.797  -4.367  0.00  0.00    -0.323 OA
ATOM     16  C   UNL d   1      -4.473   0.930  -3.566  0.00  0.00     0.105 A 
ATOM     17  C   UNL d   1      -5.095   0.010  -5.392  0.00  0.00     0.352 C 
ATOM     18  O   UNL d   1      -4.614   1.270  -4.878  0.00  0.00    -0.323 OA
ATOM     19  C   UNL d   1      -3.743   1.614  -2.622  0.00  0.00     0.040 A 
ATOM     20  C   UNL d   1      -3.567   0.995  -1.376  0.00  0.00     0.012 A 
ENDBRANCH  11  12
ENDBRANCH   2  11
BRANCH   1  21
ATOM     21  C   UNL d   1      -1.103  -3.656  -0.004  0.00  0.00     0.035 A 
ATOM     22  C   UNL d   1       0.135  -3.691  -0.663  0.00  0.00     0.054 A 
ATOM     23  C   UNL d   1       0.952  -4.834  -0.588  0.00  0.00     0.120 A 
ATOM     24  C   UNL d   1       0.587  -5.963   0.156  0.00  0.00     0.034 A 
ATOM     25  C   UNL d   1      -0.676  -5.929   0.771  0.00  0.00     0.022 A 
ATOM     26  C   UNL d   1      -1.491  -4.783   0.726  0.00  0.00     0.018 A 
BRANCH  23  27
ATOM     27  N   UNL d   1       2.173  -4.807  -1.371  0.00  0.00    -0.114 N 
ATOM     28  O   UNL d   1       2.038  -4.650  -2.596  0.00  0.00    -0.532 OA
ATOM     29  O   UNL d   1       3.251  -4.873  -0.773  0.00  0.00    -0.532 OA
ENDBRANCH  23  27
BRANCH  24  30
ATOM     30  S   UNL d   1       1.544  -7.467   0.287  0.00  0.00    -0.118 SA
BRANCH  30  31
ATOM     31  C   UNL d   1       2.307  -7.371   1.993  0.00  0.00     0.002 C 
ATOM     32  C   UNL d   1       1.251  -7.173   3.087  0.00  0.00     0.026 C 
ATOM     33  C   UNL d   1       3.020  -8.715   2.232  0.00  0.00     0.026 C 
ATOM     34  C   UNL d   1       3.348  -6.249   2.061  0.00  0.00     0.026 C 
ENDBRANCH  30  31
ENDBRANCH  24  30
ENDBRANCH   1  21
TORSDOF 7
