REMARK  4 active torsions:
REMARK  status: ('A' for Active; 'I' for Inactive)
REMARK    1  A    between atoms: C_7  and  N_1 
REMARK    2  A    between atoms: C_8  and  C_3 
REMARK    3  A    between atoms: S_10  and  C_8 
REMARK    4  A    between atoms: C_11  and  S_10 
ROOT
ATOM      1  N   UNL d   1       1.016  -0.742  -0.014  0.00  0.00    -0.250 N 
ATOM      2  C   UNL d   1      -0.281  -1.145  -0.254  0.00  0.00     0.347 A 
ATOM      3  C   UNL d   1       0.967   0.610   0.053  0.00  0.00     0.117 A 
ATOM      4  N   UNL d   1      -0.238   1.111  -0.037  0.00  0.00    -0.284 N 
ATOM      5  HN  UNL d   1      -0.515   2.092   0.011  1.00  0.00     0.188 HD
ATOM      6  N   UNL d   1      -1.038   0.023  -0.209  0.00  0.00    -0.249 N 
ATOM      7  O   UNL d   1      -0.732  -2.263  -0.445  0.00  0.00    -0.245 OA
ATOM      8  H   UNL d   1      -2.037   0.087  -0.359  0.00  0.00     0.192 HD
ENDROOT
BRANCH   3   9
ATOM      9  C   UNL d   1       2.174   1.510   0.141  0.00  0.00     0.158 C 
BRANCH   9  10
ATOM     10  S   UNL d   1       3.153   1.401  -1.399  0.00  0.00    -0.122 SA
BRANCH  10  11
ATOM     11  C   UNL d   1       4.475   2.510  -0.964  0.00  0.00     0.001 A 
ATOM     12  C   UNL d   1       5.772   2.018  -0.777  0.00  0.00     0.020 A 
ATOM     13  C   UNL d   1       6.805   2.888  -0.415  0.00  0.00     0.025 A 
ATOM     14  C   UNL d   1       6.542   4.247  -0.251  0.00  0.00     0.034 A 
ATOM     15  C   UNL d   1       5.256   4.745  -0.455  0.00  0.00     0.025 A 
ATOM     16 CL   UNL d   1       7.807   5.317   0.207  0.00  0.00    -0.084 Cl
ATOM     17  C   UNL d   1       4.226   3.878  -0.816  0.00  0.00     0.020 A 
ENDBRANCH  10  11
ENDBRANCH   9  10
ENDBRANCH   3   9
BRANCH   1  18
ATOM     18  C   UNL d   1       2.136  -1.590   0.012  0.00  0.00     0.045 A 
ATOM     19  C   UNL d   1       2.290  -2.575  -0.971  0.00  0.00     0.030 A 
ATOM     20  C   UNL d   1       3.443  -3.362  -1.009  0.00  0.00     0.002 A 
ATOM     21  C   UNL d   1       4.429  -3.203  -0.038  0.00  0.00     0.000 A 
ATOM     22  C   UNL d   1       4.261  -2.262   0.975  0.00  0.00     0.002 A 
ATOM     23  C   UNL d   1       3.122  -1.455   0.997  0.00  0.00     0.030 A 
ENDBRANCH   1  18
TORSDOF 4
