REMARK  5 active torsions:
REMARK  status: ('A' for Active; 'I' for Inactive)
REMARK    1  A    between atoms: C_7  and  N_1 
REMARK    2  A    between atoms: S_11  and  C_2 
REMARK    3  A    between atoms: C_17  and  S_11 
REMARK    4  A    between atoms: C_13  and  C_17 
REMARK    5  A    between atoms: C_15  and  C_13 
ROOT
ATOM      1  N   UNL d   1      -0.284  -1.330  -0.041  0.00  0.00    -0.279 N 
ATOM      2  C   UNL d   1       0.975  -0.737  -0.105  0.00  0.00     0.168 A 
ATOM      3  N   UNL d   1       0.876   0.566   0.024  0.00  0.00    -0.278 N 
ATOM      4  HN  UNL d   1       1.653   1.226   0.069  1.00  0.00     0.189 HD
ATOM      5  N   UNL d   1      -0.449   0.878   0.089  0.00  0.00    -0.287 N 
ATOM      6  HN  UNL d   1      -0.835   1.817   0.186  1.00  0.00     0.188 HD
ATOM      7  C   UNL d   1      -1.151  -0.238   0.003  0.00  0.00     0.101 A 
ATOM      8  C   UNL d   1      -2.633  -0.272   0.060  0.00  0.00     0.091 C 
ENDROOT
BRANCH   2   9
ATOM      9  S   UNL d   1       2.442  -1.554  -0.558  0.00  0.00    -0.084 SA
BRANCH   9  10
ATOM     10  C   UNL d   1       3.665  -0.224  -0.398  0.00  0.00     0.166 C 
BRANCH  10  11
ATOM     11  C   UNL d   1       5.053  -0.672  -0.835  0.00  0.00     0.169 C 
ATOM     12  O   UNL d   1       5.302  -1.778  -1.315  0.00  0.00    -0.291 OA
BRANCH  11  13
ATOM     13  C   UNL d   1       6.188   0.295  -0.668  0.00  0.00     0.011 A 
ATOM     14  C   UNL d   1       5.998   1.597  -0.193  0.00  0.00     0.017 A 
ATOM     15  C   UNL d   1       7.092   2.454  -0.024  0.00  0.00     0.025 A 
ATOM     16  C   UNL d   1       8.379   2.013  -0.333  0.00  0.00     0.034 A 
ATOM     17  C   UNL d   1       8.579   0.726  -0.823  0.00  0.00     0.025 A 
ATOM     18 CL   UNL d   1       9.719   3.063  -0.098  0.00  0.00    -0.084 Cl
ATOM     19  C   UNL d   1       7.488  -0.132  -0.992  0.00  0.00     0.017 A 
ENDBRANCH  11  13
ENDBRANCH  10  11
ENDBRANCH   9  10
ENDBRANCH   2   9
BRANCH   1  20
ATOM     20  C   UNL d   1      -0.602  -2.724  -0.037  0.00  0.00     0.045 A 
ATOM     21  C   UNL d   1       0.266  -3.638   0.582  0.00  0.00     0.069 A 
ATOM     22  C   UNL d   1       0.038  -5.010   0.478  0.00  0.00     0.104 A 
ATOM     23  O   UNL d   1       0.987  -5.835   1.027  0.00  0.00    -0.346 OA
ATOM     24  C   UNL d   1      -1.098  -5.487  -0.175  0.00  0.00     0.102 A 
ATOM     25  C   UNL d   1       0.905  -7.144   0.453  0.00  0.00     0.202 C 
ATOM     26  C   UNL d   1      -0.532  -7.640   0.490  0.00  0.00     0.202 C 
ATOM     27  O   UNL d   1      -1.383  -6.819  -0.320  0.00  0.00    -0.346 OA
ATOM     28  C   UNL d   1      -1.993  -4.588  -0.745  0.00  0.00     0.042 A 
ATOM     29  C   UNL d   1      -1.746  -3.210  -0.683  0.00  0.00     0.033 A 
ENDBRANCH   1  20
TORSDOF 5
