REMARK  2 active torsions:
REMARK  status: ('A' for Active; 'I' for Inactive)
REMARK       I    between atoms: N_3  and  C_1 
REMARK       I    between atoms: N_4  and  C_1 
REMARK    1  A    between atoms: C_2  and  N_5 
REMARK    2  A    between atoms: C_6  and  N_4 
ROOT
ATOM      1  C   UNL d   1       1.001   0.080  -0.083  0.00  0.00     0.323 C 
ATOM      2  N   UNL d   1       0.294   0.721   0.935  0.00  0.00    -0.332 N 
ATOM      3  N   UNL d   1       1.547   0.966  -0.986  0.00  0.00    -0.308 N 
ATOM      4  N   UNL d   1      -1.901   1.948   2.497  0.00  0.00    -0.376 N 
ATOM      5  O   UNL d   1       1.051  -1.141  -0.187  0.00  0.00    -0.247 OA
ATOM      6  C   UNL d   1      -0.589  -0.078   1.791  0.00  0.00     0.147 C 
ATOM      7  C   UNL d   1      -1.979   0.546   2.021  0.00  0.00     0.143 C 
ATOM      8  C   UNL d   1      -0.196   3.164   1.147  0.00  0.00     0.040 C 
ATOM      9  C   UNL d   1       0.726   2.003   1.492  0.00  0.00     0.129 C 
ATOM     10  C   UNL d   1      -1.682   2.945   1.435  0.00  0.00     0.125 C 
ATOM     11  H   UNL d   1       1.029   1.823  -1.062  0.00  0.00     0.170 HD
ENDROOT
BRANCH   3  12
ATOM     12  C   UNL d   1       2.436   0.652  -2.038  0.00  0.00     0.047 A 
ATOM     13  C   UNL d   1       2.432   1.436  -3.230  0.00  0.00     0.001 A 
ATOM     14  C   UNL d   1       3.408   1.161  -4.223  0.00  0.00    -0.024 A 
ATOM     15  C   UNL d   1       1.487   2.455  -3.517  0.00  0.00     0.014 A 
ATOM     16  C   UNL d   1       3.429   1.900  -5.416  0.00  0.00     0.012 A 
ATOM     17  C   UNL d   1       4.346   0.138  -4.017  0.00  0.00     0.012 A 
ATOM     18  C   UNL d   1       2.490   2.899  -5.663  0.00  0.00     0.001 A 
ATOM     19  C   UNL d   1       1.514   3.173  -4.714  0.00  0.00     0.001 A 
ATOM     20  C   UNL d   1       4.324  -0.630  -2.856  0.00  0.00     0.003 A 
ATOM     21  C   UNL d   1       3.371  -0.378  -1.874  0.00  0.00     0.030 A 
ENDBRANCH   3  12
BRANCH   4  22
ATOM     22  C   UNL d   1      -2.802   2.374   3.499  0.00  0.00     0.077 A 
ATOM     23  C   UNL d   1      -2.324   3.197   4.548  0.00  0.00     0.077 A 
ATOM     24 CL   UNL d   1      -0.674   3.712   4.652  0.00  0.00    -0.080 Cl
ATOM     25  C   UNL d   1      -3.186   3.609   5.561  0.00  0.00     0.113 A 
ATOM     26  N   UNL d   1      -4.491   3.272   5.628  0.00  0.00    -0.372 N 
ATOM     27  C   UNL d   1      -4.951   2.506   4.615  0.00  0.00     0.113 A 
ATOM     28  HN  UNL d   1      -5.091   3.576   6.395  1.00  0.00     0.164 HD
ATOM     29  C   UNL d   1      -4.177   2.055   3.544  0.00  0.00     0.077 A 
ATOM     30 CL   UNL d   1      -5.016   1.199   2.297  0.00  0.00    -0.080 Cl
ENDBRANCH   4  22
TORSDOF 2
