REMARK  3 active torsions:
REMARK  status: ('A' for Active; 'I' for Inactive)
REMARK    1  A    between atoms: C_12  and  N_1 
REMARK    2  A    between atoms: N_2  and  C_11 
REMARK    3  A    between atoms: C_11  and  C_12 
ROOT
ATOM      1  C   UNL d   1       1.797  -2.966  -0.059  0.00  0.00     0.149 C 
ENDROOT
BRANCH   1   2
ATOM      2  N   UNL d   1       3.051  -3.711   0.040  0.00  0.00    -0.353 N 
ATOM      3  C   UNL d   1       3.801  -4.192  -1.023  0.00  0.00     0.008 A 
ATOM      4  C   UNL d   1       4.876  -4.885  -0.494  0.00  0.00     0.026 A 
ATOM      5  C   UNL d   1       3.495  -4.010  -2.469  0.00  0.00     0.068 C 
ATOM      6  C   UNL d   1       4.785  -4.821   0.907  0.00  0.00     0.026 A 
ATOM      7  C   UNL d   1       3.657  -4.092   1.226  0.00  0.00     0.008 A 
ATOM      8  C   UNL d   1       3.155  -3.772   2.590  0.00  0.00     0.068 C 
ENDBRANCH   1   2
BRANCH   1   9
ATOM      9  C   UNL d   1       2.000  -1.456   0.051  0.00  0.00     0.149 C 
BRANCH   9  10
ATOM     10  N   UNL d   1       0.747  -0.709  -0.049  0.00  0.00    -0.353 N 
ATOM     11  C   UNL d   1      -0.007  -0.231   1.012  0.00  0.00     0.008 A 
ATOM     12  C   UNL d   1      -1.079   0.464   0.482  0.00  0.00     0.026 A 
ATOM     13  C   UNL d   1       0.293  -0.419   2.458  0.00  0.00     0.068 C 
ATOM     14  C   UNL d   1      -0.981   0.409  -0.919  0.00  0.00     0.026 A 
ATOM     15  C   UNL d   1       0.148  -0.320  -1.236  0.00  0.00     0.008 A 
ATOM     16  C   UNL d   1       0.655  -0.630  -2.601  0.00  0.00     0.068 C 
ENDBRANCH   9  10
ENDBRANCH   1   9
TORSDOF 3
