REMARK  9 active torsions:
REMARK  status: ('A' for Active; 'I' for Inactive)
REMARK    1  A    between atoms: N_2  and  S_1 
REMARK    2  A    between atoms: C_8  and  S_1 
REMARK    3  A    between atoms: C_3  and  N_2 
REMARK       I    between atoms: C_11  and  N_12 
REMARK    4  A    between atoms: C_25  and  C_11 
REMARK    5  A    between atoms: N_12  and  C_21 
REMARK    6  A    between atoms: C_15  and  C_26 
REMARK    7  A    between atoms: O_22  and  C_15 
REMARK    8  A    between atoms: C_27  and  C_25 
REMARK    9  A    between atoms: C_26  and  C_27 
ROOT
ATOM      1  C   UNL d   1       0.484  -1.099   1.236  0.00  0.00     0.075 A 
ATOM      2  C   UNL d   1       0.600  -2.489   1.146  0.00  0.00     0.027 A 
ATOM      3  C   UNL d   1       0.126  -0.506   2.446  0.00  0.00     0.027 A 
ATOM      4  C   UNL d   1      -0.056  -2.703   3.480  0.00  0.00     0.034 A 
ATOM      5  C   UNL d   1      -0.144  -1.308   3.557  0.00  0.00     0.031 A 
ATOM      6  C   UNL d   1       0.332  -3.287   2.267  0.00  0.00     0.031 A 
ENDROOT
BRANCH   1   7
ATOM      7  S   UNL d   1       0.990  -0.071  -0.124  0.00  0.00     0.248 S 
ATOM      8  O   UNL d   1       1.354   1.214   0.437  0.00  0.00    -0.205 OA
ATOM      9  O   UNL d   1       1.950  -0.813  -0.914  0.00  0.00    -0.205 OA
BRANCH   7  10
ATOM     10  N   UNL d   1      -0.409   0.204  -0.990  0.00  0.00    -0.151 NA
ATOM     11  H   UNL d   1      -0.392   1.147  -1.365  0.00  0.00     0.149 HD
BRANCH  10  12
ATOM     12  C   UNL d   1      -0.664  -0.728  -1.990  0.00  0.00     0.171 A 
ATOM     13  N   UNL d   1      -1.248  -1.873  -1.635  0.00  0.00    -0.336 N 
ATOM     14  C   UNL d   1      -1.578  -2.693  -2.653  0.00  0.00     0.009 A 
ATOM     15  HN  UNL d   1      -1.433  -2.112  -0.660  1.00  0.00     0.168 HD
ATOM     16  C   UNL d   1      -2.328  -3.947  -2.319  0.00  0.00     0.068 C 
ATOM     17  C   UNL d   1      -1.285  -2.394  -3.973  0.00  0.00     0.049 A 
ATOM     18  C   UNL d   1      -0.652  -1.189  -4.214  0.00  0.00     0.009 A 
ATOM     19  N   UNL d   1      -0.360  -0.321  -3.225  0.00  0.00    -0.336 N 
ATOM     20  C   UNL d   1      -0.290  -0.796  -5.616  0.00  0.00     0.068 C 
ATOM     21  HN  UNL d   1       0.066   0.588  -3.408  1.00  0.00     0.168 HD
ENDBRANCH  10  12
ENDBRANCH   7  10
ENDBRANCH   1   7
BRANCH   4  22
ATOM     22  N   UNL d   1      -0.329  -3.553   4.578  0.00  0.00    -0.327 N 
ATOM     23  C   UNL d   1      -0.979  -3.175   5.742  0.00  0.00     0.222 C 
ATOM     24  O   UNL d   1      -1.427  -2.060   5.985  0.00  0.00    -0.273 OA
ATOM     25  H   UNL d   1      -0.119  -4.536   4.453  0.00  0.00     0.169 HD
BRANCH  23  26
ATOM     26  C   UNL d   1      -1.145  -4.301   6.748  0.00  0.00     0.103 C 
BRANCH  26  27
ATOM     27  C   UNL d   1      -2.430  -4.120   7.573  0.00  0.00     0.019 C 
BRANCH  27  28
ATOM     28  C   UNL d   1      -3.711  -4.184   6.732  0.00  0.00     0.110 C 
BRANCH  28  29
ATOM     29  C   UNL d   1      -3.899  -5.532   6.077  0.00  0.00     0.139 C 
ATOM     30  O   UNL d   1      -3.484  -6.588   6.529  0.00  0.00    -0.650 OA
BRANCH  29  31
ATOM     31  O   UNL d   1      -4.590  -5.468   4.918  0.00  0.00    -0.776 OA
ATOM     32  H   UNL d   1      -4.867  -4.565   4.668  0.00  0.00     0.167 HD
ENDBRANCH  29  31
ENDBRANCH  28  29
ENDBRANCH  27  28
ENDBRANCH  26  27
ENDBRANCH  23  26
ENDBRANCH   4  22
TORSDOF 9
