REMARK  10 active torsions:
REMARK  status: ('A' for Active; 'I' for Inactive)
REMARK    1  A    between atoms: C_1  and  C_3 
REMARK    2  A    between atoms: C_2  and  O_14 
REMARK    3  A    between atoms: C_4  and  O_15 
REMARK    4  A    between atoms: C_6  and  O_16 
REMARK    5  A    between atoms: C_12  and  C_21 
REMARK    6  A    between atoms: C_17  and  O_14 
REMARK    7  A    between atoms: C_18  and  O_15 
REMARK    8  A    between atoms: C_19  and  O_16 
REMARK    9  A    between atoms: C_20  and  O_22 
REMARK   10  A    between atoms: O_22  and  C_21 
ROOT
ATOM      1  C   UNL d   1      -0.624  -1.310   0.360  0.00  0.00     0.224 C 
ATOM      2  C   UNL d   1       0.835  -1.436  -0.134  0.00  0.00     0.200 C 
ATOM      3  C   UNL d   1       1.638  -0.159   0.165  0.00  0.00     0.196 C 
ATOM      4  O   UNL d   1      -1.234  -0.076  -0.063  0.00  0.00    -0.365 OA
ATOM      5  C   UNL d   1       0.908   1.094  -0.347  0.00  0.00     0.195 C 
ATOM      6  C   UNL d   1      -0.514   1.115   0.241  0.00  0.00     0.179 C 
ENDROOT
BRANCH   1   7
ATOM      7  C   UNL d   1      -1.428  -2.478  -0.148  0.00  0.00     0.142 A 
ATOM      8  N   UNL d   1      -2.346  -2.369  -1.163  0.00  0.00    -0.268 N 
ATOM      9  N   UNL d   1      -2.808  -3.590  -1.389  0.00  0.00    -0.005 NA
ATOM     10  HN  UNL d   1      -2.619  -1.515  -1.648  1.00  0.00     0.185 HD
ATOM     11  N   UNL d   1      -2.152  -4.367  -0.522  0.00  0.00    -0.225 N 
ATOM     12  N   UNL d   1      -1.280  -3.743   0.288  0.00  0.00    -0.273 N 
ATOM     13  H   UNL d   1      -2.304  -5.370  -0.490  0.00  0.00     0.205 HD
ATOM     14  HN  UNL d   1      -0.679  -4.120   1.021  1.00  0.00     0.189 HD
ENDBRANCH   1   7
BRANCH   2  15
ATOM     15  O   UNL d   1       1.483  -2.555   0.516  0.00  0.00    -0.310 OA
BRANCH  15  16
ATOM     16  C   UNL d   1       2.160  -3.409  -0.298  0.00  0.00     0.255 C 
ATOM     17  O   UNL d   1       2.289  -3.284  -1.510  0.00  0.00    -0.266 OA
ATOM     18  C   UNL d   1       2.824  -4.488   0.497  0.00  0.00     0.126 C 
ENDBRANCH  15  16
ENDBRANCH   2  15
BRANCH   3  19
ATOM     19  O   UNL d   1       2.933  -0.203  -0.486  0.00  0.00    -0.311 OA
BRANCH  19  20
ATOM     20  C   UNL d   1       3.969  -0.755   0.195  0.00  0.00     0.255 C 
ATOM     21  O   UNL d   1       3.920  -1.183   1.337  0.00  0.00    -0.266 OA
ATOM     22  C   UNL d   1       5.181  -0.809  -0.684  0.00  0.00     0.126 C 
ENDBRANCH  19  20
ENDBRANCH   3  19
BRANCH   6  23
ATOM     23  C   UNL d   1      -1.321   2.341  -0.213  0.00  0.00     0.213 C 
BRANCH  23  24
ATOM     24  O   UNL d   1      -0.722   3.567   0.254  0.00  0.00    -0.319 OA
BRANCH  24  25
ATOM     25  C   UNL d   1      -0.998   3.900   1.544  0.00  0.00     0.254 C 
ATOM     26  O   UNL d   1      -1.664   3.227   2.318  0.00  0.00    -0.266 OA
ATOM     27  C   UNL d   1      -0.333   5.188   1.922  0.00  0.00     0.126 C 
ENDBRANCH  24  25
ENDBRANCH  23  24
ENDBRANCH   6  23
BRANCH   5  28
ATOM     28  O   UNL d   1       1.069   1.217  -1.791  0.00  0.00    -0.311 OA
BRANCH  28  29
ATOM     29  C   UNL d   1       0.378   0.434  -2.655  0.00  0.00     0.255 C 
ATOM     30  O   UNL d   1      -0.834   0.352  -2.704  0.00  0.00    -0.266 OA
ATOM     31  C   UNL d   1       1.311  -0.334  -3.550  0.00  0.00     0.126 C 
ENDBRANCH  28  29
ENDBRANCH   5  28
TORSDOF 10
