REMARK  6 active torsions:
REMARK  status: ('A' for Active; 'I' for Inactive)
REMARK    1  A    between atoms: C_7  and  C_1 
REMARK    2  A    between atoms: C_12  and  C_6 
REMARK    3  A    between atoms: O_11  and  C_7 
REMARK    4  A    between atoms: N_8  and  O_11 
REMARK    5  A    between atoms: C_14  and  C_10 
REMARK    6  A    between atoms: N_15  and  C_10 
ROOT
ATOM      1  C   UNL d   1       1.521  -0.962   0.064  0.00  0.00     0.333 C 
ATOM      2  O   UNL d   1       1.890   0.207   0.114  0.00  0.00    -0.256 OA
ENDROOT
BRANCH   1   3
ATOM      3  C   UNL d   1       0.137  -1.387   0.100  0.00  0.00     0.129 A 
ATOM      4  N   UNL d   1      -0.948  -0.545   0.179  0.00  0.00    -0.291 N 
ATOM      5  N   UNL d   1      -2.130  -1.189   0.217  0.00  0.00    -0.302 N 
ATOM      6  C   UNL d   1      -1.002   0.898   0.238  0.00  0.00     0.178 C 
ATOM      7  C   UNL d   1      -1.826  -2.486   0.142  0.00  0.00     0.036 A 
ATOM      8  HN  UNL d   1      -3.059  -0.773   0.289  1.00  0.00     0.186 HD
ATOM      9  C   UNL d   1      -0.420  -2.660   0.066  0.00  0.00     0.065 A 
BRANCH   7  10
ATOM     10  C   UNL d   1      -2.922  -3.543   0.160  0.00  0.00    -0.007 C 
ATOM     11  C   UNL d   1      -2.784  -4.423   1.417  0.00  0.00     0.021 C 
ATOM     12  C   UNL d   1      -4.337  -2.917   0.176  0.00  0.00     0.021 C 
ATOM     13  C   UNL d   1      -2.823  -4.436  -1.092  0.00  0.00     0.021 C 
ENDBRANCH   7  10
ENDBRANCH   1   3
BRANCH   1  14
ATOM     14  O   UNL d   1       2.365  -2.053  -0.022  0.00  0.00    -0.192 OA
BRANCH  14  15
ATOM     15  N   UNL d   1       3.701  -1.595  -0.122  0.00  0.00    -0.246 N 
ATOM     16  C   UNL d   1       4.561  -2.564  -0.213  0.00  0.00     0.109 C 
ATOM     17  HN  UNL d   1       3.960  -0.609  -0.124  1.00  0.00     0.196 HD
BRANCH  16  18
ATOM     18  C   UNL d   1       6.008  -2.194  -0.354  0.00  0.00     0.004 A 
ATOM     19  C   UNL d   1       6.469  -0.971   0.150  0.00  0.00     0.015 A 
ATOM     20  C   UNL d   1       7.817  -0.623   0.027  0.00  0.00     0.001 A 
ATOM     21  C   UNL d   1       8.706  -1.488  -0.610  0.00  0.00     0.000 A 
ATOM     22  C   UNL d   1       8.249  -2.702  -1.125  0.00  0.00     0.001 A 
ATOM     23  C   UNL d   1       6.903  -3.057  -0.998  0.00  0.00     0.015 A 
ENDBRANCH  16  18
BRANCH  16  24
ATOM     24  N   UNL d   1       4.221  -3.897  -0.166  0.00  0.00    -0.286 NA
ATOM     25  H   UNL d   1       3.289  -4.043   0.204  0.00  0.00     0.125 HD
ATOM     26  H   UNL d   1       4.908  -4.500   0.275  0.00  0.00     0.125 HD
ENDBRANCH  16  24
ENDBRANCH  14  15
ENDBRANCH   1  14
TORSDOF 6
