REMARK  5 active torsions:
REMARK  status: ('A' for Active; 'I' for Inactive)
REMARK    1  A    between atoms: C_2  and  C_1 
REMARK    2  A    between atoms: O_4  and  C_1 
REMARK    3  A    between atoms: C_9  and  O_4 
REMARK    4  A    between atoms: C_5  and  C_9 
REMARK    5  A    between atoms: C_6  and  C_5 
ROOT
ATOM      1  C   UNL d   1      -1.671   2.217   1.523  0.00  0.00     0.183 C 
ATOM      2  O   UNL d   1      -0.932   3.079   2.000  0.00  0.00    -0.290 OA
ENDROOT
BRANCH   1   3
ATOM      3  C   UNL d   1      -1.151   1.105   0.614  0.00  0.00     0.263 C 
BRANCH   3   4
ATOM      4  O   UNL d   1       0.252   1.187   0.366  0.00  0.00    -0.308 OA
BRANCH   4   5
ATOM      5  C   UNL d   1       1.043   0.660   1.344  0.00  0.00     0.317 C 
ATOM      6  O   UNL d   1       0.616   0.100   2.349  0.00  0.00    -0.257 OA
BRANCH   5   7
ATOM      7  C   UNL d   1       2.440   0.816   1.008  0.00  0.00     0.149 A 
ATOM      8  O   UNL d   1       2.809   1.372  -0.191  0.00  0.00    -0.317 OA
ATOM      9  C   UNL d   1       4.166   1.394  -0.228  0.00  0.00     0.143 A 
ATOM     10  C   UNL d   1       4.689   0.856   0.923  0.00  0.00     0.027 A 
ATOM     11  C   UNL d   1       3.580   0.475   1.716  0.00  0.00     0.045 A 
ENDBRANCH   5   7
ENDBRANCH   4   5
ENDBRANCH   3   4
ENDBRANCH   1   3
BRANCH   1  12
ATOM     12  C   UNL d   1      -3.139   2.265   1.822  0.00  0.00     0.012 A 
ATOM     13  C   UNL d   1      -4.046   1.342   1.283  0.00  0.00     0.017 A 
ATOM     14  C   UNL d   1      -5.409   1.427   1.595  0.00  0.00     0.025 A 
ATOM     15  C   UNL d   1      -5.870   2.432   2.443  0.00  0.00     0.034 A 
ATOM     16  C   UNL d   1      -4.981   3.360   2.979  0.00  0.00     0.025 A 
ATOM     17 CL   UNL d   1      -7.543   2.524   2.828  0.00  0.00    -0.084 Cl
ATOM     18  C   UNL d   1      -3.619   3.276   2.669  0.00  0.00     0.017 A 
ENDBRANCH   1  12
TORSDOF 5
