REMARK  7 active torsions:
REMARK  status: ('A' for Active; 'I' for Inactive)
REMARK    1  A    between atoms: C_2  and  C_1 
REMARK    2  A    between atoms: O_11  and  C_2 
REMARK    3  A    between atoms: C_4  and  C_6 
REMARK    4  A    between atoms: O_13  and  C_4 
REMARK    5  A    between atoms: S_10  and  C_5 
REMARK    6  A    between atoms: C_6  and  C_12 
REMARK    7  A    between atoms: C_12  and  S_10 
ROOT
ATOM      1  C   UNL d   1       1.366  -1.135   0.246  0.00  0.00     0.050 A 
ATOM      2  C   UNL d   1       0.025  -0.643   0.111  0.00  0.00     0.008 A 
ATOM      3  C   UNL d   1      -1.207  -1.393   0.066  0.00  0.00     0.012 A 
ATOM      4  C   UNL d   1      -0.085   0.772  -0.026  0.00  0.00    -0.024 A 
ATOM      5  C   UNL d   1       2.493  -0.306   0.099  0.00  0.00     0.019 A 
ATOM      6  C   UNL d   1       2.336   1.053  -0.111  0.00  0.00     0.002 A 
ATOM      7  C   UNL d   1      -2.510   0.657  -0.078  0.00  0.00     0.002 A 
ATOM      8  C   UNL d   1      -2.440  -0.727  -0.052  0.00  0.00     0.019 A 
ATOM      9  C   UNL d   1      -1.338   1.396  -0.080  0.00  0.00     0.012 A 
ATOM     10  C   UNL d   1       1.054   1.588  -0.136  0.00  0.00     0.012 A 
ENDROOT
BRANCH   3  11
ATOM     11  S   UNL d   1      -1.293  -3.177  -0.185  0.00  0.00    -0.129 SA
BRANCH  11  12
ATOM     12  C   UNL d   1      -1.995  -3.813   1.390  0.00  0.00     0.090 C 
BRANCH  12  13
ATOM     13  C   UNL d   1      -3.428  -3.380   1.673  0.00  0.00     0.120 C 
BRANCH  13  14
ATOM     14  C   UNL d   1      -3.990  -4.118   2.865  0.00  0.00     0.140 C 
ATOM     15  O   UNL d   1      -3.399  -4.965   3.508  0.00  0.00    -0.650 OA
BRANCH  14  16
ATOM     16  O   UNL d   1      -5.246  -3.722   3.172  0.00  0.00    -0.776 OA
ATOM     17  H   UNL d   1      -5.611  -3.033   2.586  0.00  0.00     0.167 HD
ENDBRANCH  14  16
ENDBRANCH  13  14
ENDBRANCH  12  13
ENDBRANCH  11  12
ENDBRANCH   3  11
BRANCH   1  18
ATOM     18  C   UNL d   1       1.698  -2.507   0.687  0.00  0.00     0.177 C 
ATOM     19  O   UNL d   1       2.495  -3.228   0.114  0.00  0.00    -0.646 OA
BRANCH  18  20
ATOM     20  O   UNL d   1       1.183  -2.771   1.909  0.00  0.00    -0.773 OA
ATOM     21  H   UNL d   1       0.625  -2.057   2.268  0.00  0.00     0.167 HD
ENDBRANCH  18  20
ENDBRANCH   1  18
TORSDOF 7
