REMARK  4 active torsions:
REMARK  status: ('A' for Active; 'I' for Inactive)
REMARK    1  A    between atoms: N_6  and  C_1 
REMARK       I    between atoms: C_8  and  N_6 
REMARK    2  A    between atoms: C_7  and  C_8 
REMARK    3  A    between atoms: C_18  and  C_17 
REMARK    4  A    between atoms: C_22  and  C_18 
ROOT
ATOM      1  C   UNL d   1       1.428  -1.294   0.061  0.00  0.00     0.098 C 
ATOM      2  C   UNL d   1       1.325   0.078  -0.101  0.00  0.00     0.085 C 
ATOM      3  C   UNL d   1      -0.880  -0.482   0.252  0.00  0.00    -0.007 C 
ATOM      4  C   UNL d   1       0.019   0.561   0.245  0.00  0.00    -0.021 C 
ATOM      5  S   UNL d   1      -0.114  -1.993   0.283  0.00  0.00    -0.075 SA
ATOM      6  C   UNL d   1       2.397   0.908  -0.562  0.00  0.00     0.103 C 
ATOM      7  C   UNL d   1      -2.369  -0.335   0.218  0.00  0.00     0.052 C 
ATOM      8  N   UNL d   1       3.249   1.562  -0.999  0.00  0.00    -0.191 NA
ATOM      9  C   UNL d   1      -0.421   1.989   0.401  0.00  0.00     0.042 C 
ATOM     10  C   UNL d   1      -2.763   1.073  -0.319  0.00  0.00    -0.002 C 
ATOM     11  C   UNL d   1      -1.950   2.130   0.485  0.00  0.00     0.010 C 
ENDROOT
BRANCH   1  12
ATOM     12  N   UNL d   1       2.571  -2.084   0.008  0.00  0.00    -0.314 N 
ATOM     13  C   UNL d   1       2.693  -3.375   0.493  0.00  0.00     0.282 C 
ATOM     14  O   UNL d   1       1.783  -4.053   0.965  0.00  0.00    -0.265 OA
ATOM     15  H   UNL d   1       3.441  -1.618  -0.250  0.00  0.00     0.170 HD
BRANCH  13  16
ATOM     16  C   UNL d   1       4.044  -3.892   0.464  0.00  0.00     0.168 A 
ATOM     17  O   UNL d   1       5.044  -3.165  -0.115  0.00  0.00    -0.233 OA
ATOM     18  N   UNL d   1       6.235  -3.853   0.009  0.00  0.00    -0.272 N 
ATOM     19  C   UNL d   1       5.942  -4.981   0.662  0.00  0.00     0.117 A 
ATOM     20  HN  UNL d   1       7.151  -3.560  -0.329  1.00  0.00     0.194 HD
ATOM     21  C   UNL d   1       4.576  -5.058   0.971  0.00  0.00     0.064 A 
ENDBRANCH  13  16
ENDBRANCH   1  12
BRANCH  10  22
ATOM     22  C   UNL d   1      -2.763   1.257  -1.899  0.00  0.00    -0.044 C 
ATOM     23  C   UNL d   1      -3.203   2.700  -2.245  0.00  0.00     0.015 C 
ATOM     24  C   UNL d   1      -1.393   1.042  -2.577  0.00  0.00     0.015 C 
BRANCH  22  25
ATOM     25  C   UNL d   1      -3.733   0.253  -2.604  0.00  0.00     0.004 C 
ATOM     26  C   UNL d   1      -5.214   0.395  -2.278  0.00  0.00     0.006 C 
ENDBRANCH  22  25
ENDBRANCH  10  22
TORSDOF 4
