REMARK  7 active torsions:
REMARK  status: ('A' for Active; 'I' for Inactive)
REMARK    1  A    between atoms: N_2  and  S_1 
REMARK    2  A    between atoms: C_5  and  S_1 
REMARK    3  A    between atoms: C_3  and  N_2 
REMARK    4  A    between atoms: C_4  and  C_3 
REMARK    5  A    between atoms: C_15  and  C_3 
REMARK    6  A    between atoms: O_11  and  C_4 
REMARK    7  A    between atoms: O_16  and  C_15 
ROOT
ATOM      1  S   UNL d   1       1.116  -0.158  -0.037  0.00  0.00     0.242 S 
ATOM      2  O   UNL d   1       0.638  -1.510   0.138  0.00  0.00    -0.206 OA
ATOM      3  O   UNL d   1       2.527   0.152  -0.097  0.00  0.00    -0.206 OA
ENDROOT
BRANCH   1   4
ATOM      4  N   UNL d   1       0.452   0.840   1.159  0.00  0.00    -0.199 NA
ATOM      5  H   UNL d   1       0.314   1.782   0.789  0.00  0.00     0.141 HD
BRANCH   4   6
ATOM      6  C   UNL d   1      -0.802   0.351   1.819  0.00  0.00     0.194 C 
BRANCH   6   7
ATOM      7  C   UNL d   1      -0.735  -1.010   2.491  0.00  0.00     0.279 C 
ATOM      8  O   UNL d   1      -1.691  -1.770   2.554  0.00  0.00    -0.263 OA
BRANCH   7   9
ATOM      9  O   UNL d   1       0.480  -1.222   3.069  0.00  0.00    -0.325 OA
ATOM     10  C   UNL d   1       0.674  -2.522   3.629  0.00  0.00     0.213 C 
ENDBRANCH   7   9
ENDBRANCH   6   7
BRANCH   6  11
ATOM     11  C   UNL d   1      -1.190   1.360   2.907  0.00  0.00     0.194 C 
BRANCH  11  12
ATOM     12  O   UNL d   1      -1.399   2.651   2.325  0.00  0.00    -0.399 OA
ATOM     13  H   UNL d   1      -0.554   3.129   2.388  0.00  0.00     0.209 HD
ENDBRANCH  11  12
ENDBRANCH   6  11
ENDBRANCH   4   6
ENDBRANCH   1   4
BRANCH   1  14
ATOM     14  C   UNL d   1       0.382   0.484  -1.527  0.00  0.00     0.074 A 
ATOM     15  C   UNL d   1       1.047   1.489  -2.236  0.00  0.00     0.025 A 
ATOM     16  C   UNL d   1       0.577   1.870  -3.494  0.00  0.00     0.008 A 
ATOM     17  C   UNL d   1      -0.547   1.246  -4.051  0.00  0.00    -0.062 A 
ATOM     18  C   UNL d   1      -1.226   0.266  -3.313  0.00  0.00     0.008 A 
ATOM     19  C   UNL d   1      -0.972   1.589  -5.451  0.00  0.00     0.048 C 
ATOM     20  C   UNL d   1      -0.762  -0.120  -2.053  0.00  0.00     0.025 A 
ENDBRANCH   1  14
TORSDOF 7
