REMARK  3 active torsions:
REMARK  status: ('A' for Active; 'I' for Inactive)
REMARK    1  A    between atoms: C_5  and  C_1 
REMARK    2  A    between atoms: C_9  and  C_4 
REMARK       I    between atoms: N_10  and  C_5 
REMARK    3  A    between atoms: N_13  and  N_10 
ROOT
ATOM      1  C   UNL d   1       1.337   0.795  -0.038  0.00  0.00     0.109 A 
ATOM      2  N   UNL d   1       1.465  -0.600  -0.011  0.00  0.00    -0.345 N 
ATOM      3  HN  UNL d   1       2.351  -1.104   0.020  1.00  0.00     0.167 HD
ATOM      4  C   UNL d   1       0.273  -1.170  -0.031  0.00  0.00     0.085 A 
ATOM      5  S   UNL d   1      -1.054  -0.067   0.006  0.00  0.00    -0.081 SA
ATOM      6  C   UNL d   1       0.032   1.249  -0.018  0.00  0.00     0.087 A 
ENDROOT
BRANCH   1   7
ATOM      7  C   UNL d   1       2.497   1.685  -0.101  0.00  0.00     0.282 C 
ATOM      8  O   UNL d   1       2.406   2.911  -0.167  0.00  0.00    -0.265 OA
ATOM      9  N   UNL d   1       3.711   1.013  -0.097  0.00  0.00    -0.288 N 
ATOM     10  H   UNL d   1       3.699   0.000   0.034  0.00  0.00     0.183 HD
BRANCH   9  11
ATOM     11  N   UNL d   1       4.933   1.726  -0.127  0.00  0.00    -0.247 NA
ATOM     12  H   UNL d   1       4.701   2.724  -0.017  0.00  0.00     0.143 HD
ATOM     13  H   UNL d   1       5.312   1.661  -1.075  0.00  0.00     0.143 HD
ENDBRANCH   9  11
ENDBRANCH   1   7
BRANCH   4  14
ATOM     14  C   UNL d   1       0.039  -2.624  -0.044  0.00  0.00     0.000 A 
ATOM     15  C   UNL d   1       0.953  -3.477   0.584  0.00  0.00     0.031 A 
ATOM     16  C   UNL d   1       0.714  -4.842   0.564  0.00  0.00     0.088 A 
ATOM     17  N   UNL d   1      -0.350  -5.409  -0.039  0.00  0.00    -0.375 N 
ATOM     18  C   UNL d   1      -1.214  -4.578  -0.654  0.00  0.00     0.088 A 
ATOM     19  HN  UNL d   1      -0.494  -6.418  -0.030  1.00  0.00     0.164 HD
ATOM     20  C   UNL d   1      -1.064  -3.200  -0.686  0.00  0.00     0.031 A 
ENDBRANCH   4  14
TORSDOF 3
