REMARK  1 active torsions:
REMARK  status: ('A' for Active; 'I' for Inactive)
REMARK    1  A    between atoms: C_2  and  N_1 
ROOT
ATOM      1  C   UNL d   1       0.015   2.335  -0.036  0.00  0.00     0.048 A 
ATOM      2  C   UNL d   1       0.712   3.043  -1.032  0.00  0.00     0.070 A 
ATOM      3  C   UNL d   1       0.664   4.424  -1.025  0.00  0.00     0.107 A 
ATOM      4  C   UNL d   1      -0.017   5.125  -0.062  0.00  0.00     0.105 A 
ATOM      5  O   UNL d   1       1.247   5.242  -1.944  0.00  0.00    -0.323 OA
ATOM      6  O   UNL d   1       0.059   6.469  -0.242  0.00  0.00    -0.323 OA
ATOM      7  C   UNL d   1      -0.683   3.079   0.947  0.00  0.00     0.033 A 
ATOM      8  C   UNL d   1       0.813   6.534  -1.471  0.00  0.00     0.352 A 
ATOM      9  C   UNL d   1      -0.693   4.481   0.945  0.00  0.00     0.042 A 
ENDROOT
BRANCH   1  10
ATOM     10  N   UNL d   1       0.003   0.911  -0.021  0.00  0.00    -0.245 N 
ATOM     11  C   UNL d   1      -0.916   0.132   0.630  0.00  0.00     0.255 A 
ATOM     12  C   UNL d   1      -0.566  -1.270   0.380  0.00  0.00     0.080 A 
ATOM     13  O   UNL d   1      -1.905   0.426   1.281  0.00  0.00    -0.268 OA
ATOM     14  C   UNL d   1       0.514  -1.289  -0.395  0.00  0.00     0.080 A 
ATOM     15  C   UNL d   1       0.898   0.101  -0.668  0.00  0.00     0.255 A 
ATOM     16  O   UNL d   1       1.883   0.361  -1.335  0.00  0.00    -0.268 OA
ENDBRANCH   1  10
TORSDOF 1
