REMARK  5 active torsions:
REMARK  status: ('A' for Active; 'I' for Inactive)
REMARK    1  A    between atoms: C_2  and  C_1 
REMARK       I    between atoms: N_5  and  C_1 
REMARK    2  A    between atoms: N_3  and  C_7 
REMARK    3  A    between atoms: C_11  and  N_5 
REMARK    4  A    between atoms: C_8  and  C_6 
REMARK    5  A    between atoms: O_14  and  C_10 
ROOT
ATOM      1  C   UNL d   1       0.151   0.527   1.168  0.00  0.00     0.059 A 
ATOM      2  C   UNL d   1       0.691   1.758   1.612  0.00  0.00     0.047 A 
ATOM      3  C   UNL d   1      -1.117   0.116   1.629  0.00  0.00     0.019 A 
ATOM      4  C   UNL d   1      -0.099   2.565   2.446  0.00  0.00     0.030 A 
ATOM      5  C   UNL d   1      -1.855   0.920   2.500  0.00  0.00     0.001 A 
ATOM      6  C   UNL d   1      -1.355   2.155   2.891  0.00  0.00     0.002 A 
ENDROOT
BRANCH   1   7
ATOM      7  C   UNL d   1       0.855  -0.302   0.139  0.00  0.00     0.258 C 
ATOM      8  N   UNL d   1       0.689  -1.679   0.240  0.00  0.00    -0.323 N 
ATOM      9  H   UNL d   1       0.062  -2.040   0.944  0.00  0.00     0.169 HD
ATOM     10  O   UNL d   1       1.498   0.259  -0.736  0.00  0.00    -0.267 OA
BRANCH   8  11
ATOM     11  C   UNL d   1       1.222  -2.642  -0.650  0.00  0.00     0.035 A 
ATOM     12  C   UNL d   1       2.282  -2.379  -1.526  0.00  0.00     0.032 A 
ATOM     13  C   UNL d   1       2.730  -3.359  -2.416  0.00  0.00     0.044 A 
ATOM     14  C   UNL d   1       2.113  -4.602  -2.432  0.00  0.00     0.116 A 
ATOM     15  C   UNL d   1       1.077  -4.893  -1.555  0.00  0.00     0.044 A 
ATOM     16  F   UNL d   1       2.521  -5.532  -3.305  0.00  0.00    -0.206 F 
ATOM     17  C   UNL d   1       0.644  -3.920  -0.651  0.00  0.00     0.032 A 
ENDBRANCH   8  11
ENDBRANCH   1   7
BRANCH   2  18
ATOM     18  N   UNL d   1       1.958   2.302   1.302  0.00  0.00    -0.364 N 
ATOM     19  C   UNL d   1       3.002   1.536   1.375  0.00  0.00     0.102 C 
ATOM     20  HN  UNL d   1       2.050   3.280   1.025  1.00  0.00     0.165 HD
BRANCH  19  21
ATOM     21  C   UNL d   1       4.364   2.053   1.137  0.00  0.00     0.012 A 
ATOM     22  C   UNL d   1       4.634   3.422   1.038  0.00  0.00     0.077 A 
ATOM     23  C   UNL d   1       5.946   3.869   0.902  0.00  0.00     0.037 A 
ATOM     24  C   UNL d   1       6.993   2.948   0.849  0.00  0.00     0.003 A 
ATOM     25  C   UNL d   1       6.728   1.579   0.927  0.00  0.00     0.001 A 
ATOM     26  C   UNL d   1       5.414   1.129   1.072  0.00  0.00     0.015 A 
BRANCH  22  27
ATOM     27  O   UNL d   1       3.655   4.376   1.088  0.00  0.00    -0.360 OA
ATOM     28  H   UNL d   1       2.795   3.895   1.095  0.00  0.00     0.217 HD
ENDBRANCH  22  27
ENDBRANCH  19  21
ENDBRANCH   2  18
TORSDOF 5
