REMARK  9 active torsions:
REMARK  status: ('A' for Active; 'I' for Inactive)
REMARK    1  A    between atoms: C_12  and  C_1 
REMARK    2  A    between atoms: C_11  and  C_2 
REMARK    3  A    between atoms: C_6  and  C_3 
REMARK    4  A    between atoms: C_14  and  C_8 
REMARK    5  A    between atoms: O_19  and  C_10 
REMARK    6  A    between atoms: O_20  and  C_11 
REMARK    7  A    between atoms: O_21  and  C_12 
REMARK    8  A    between atoms: O_22  and  C_13 
REMARK    9  A    between atoms: O_23  and  C_14 
ROOT
ATOM      1  C   UNL d   1       1.271  -0.969   0.108  0.00  0.00     0.052 C 
ATOM      2  C   UNL d   1      -1.298  -0.968   0.030  0.00  0.00     0.052 C 
ATOM      3  C   UNL d   1      -0.011  -1.806  -0.108  0.00  0.00     0.103 C 
ATOM      4  C   UNL d   1       1.218   0.386   0.074  0.00  0.00     0.018 C 
ATOM      5  C   UNL d   1      -1.240   0.385   0.022  0.00  0.00     0.018 C 
ATOM      6  N   UNL d   1      -0.010   1.017  -0.052  0.00  0.00    -0.362 N 
ATOM      7  C   UNL d   1      -2.434   1.307   0.082  0.00  0.00     0.069 C 
ATOM      8  C   UNL d   1       2.380   1.349   0.159  0.00  0.00     0.069 C 
ATOM      9  H   UNL d   1      -0.006   2.034  -0.027  0.00  0.00     0.165 HD
ENDROOT
BRANCH   3  10
ATOM     10  C   UNL d   1       0.037  -2.469  -1.503  0.00  0.00    -0.010 A 
ATOM     11  C   UNL d   1       0.006  -1.637  -2.645  0.00  0.00     0.031 A 
ATOM     12  C   UNL d   1       0.130  -2.135  -3.956  0.00  0.00     0.073 A 
ATOM     13  C   UNL d   1       0.255  -3.514  -4.141  0.00  0.00     0.087 A 
ATOM     14  C   UNL d   1       0.262  -4.348  -3.011  0.00  0.00     0.075 A 
ATOM     15  C   UNL d   1       0.182  -3.849  -1.701  0.00  0.00     0.078 A 
BRANCH  12  16
ATOM     16  C   UNL d   1       0.268  -1.134  -5.046  0.00  0.00     0.295 C 
ATOM     17  O   UNL d   1       0.991  -1.260  -6.012  0.00  0.00    -0.259 OA
BRANCH  16  18
ATOM     18  O   UNL d   1      -0.505  -0.052  -4.776  0.00  0.00    -0.322 OA
ATOM     19  C   UNL d   1      -0.377   1.013  -5.722  0.00  0.00     0.213 C 
ENDBRANCH  16  18
ENDBRANCH  12  16
BRANCH  13  20
ATOM     20  O   UNL d   1       0.484  -4.209  -5.295  0.00  0.00    -0.355 OA
ATOM     21  C   UNL d   1      -0.261  -3.859  -6.452  0.00  0.00     0.210 C 
ENDBRANCH  13  20
BRANCH  15  22
ATOM     22  O   UNL d   1       0.251  -4.650  -0.591  0.00  0.00    -0.355 OA
ATOM     23  C   UNL d   1       0.811  -5.949  -0.790  0.00  0.00     0.210 C 
ENDBRANCH  15  22
ENDBRANCH   3  10
BRANCH   2  24
ATOM     24  C   UNL d   1      -2.595  -1.687   0.118  0.00  0.00     0.291 C 
ATOM     25  O   UNL d   1      -3.677  -1.226  -0.218  0.00  0.00    -0.260 OA
BRANCH  24  26
ATOM     26  O   UNL d   1      -2.412  -2.929   0.632  0.00  0.00    -0.323 OA
ATOM     27  C   UNL d   1      -3.600  -3.718   0.702  0.00  0.00     0.213 C 
ENDBRANCH  24  26
ENDBRANCH   2  24
BRANCH   1  28
ATOM     28  C   UNL d   1       2.549  -1.702   0.310  0.00  0.00     0.291 C 
ATOM     29  O   UNL d   1       3.650  -1.304  -0.038  0.00  0.00    -0.260 OA
BRANCH  28  30
ATOM     30  O   UNL d   1       2.328  -2.866   0.973  0.00  0.00    -0.323 OA
ATOM     31  C   UNL d   1       3.518  -3.607   1.247  0.00  0.00     0.213 C 
ENDBRANCH  28  30
ENDBRANCH   1  28
TORSDOF 9
