REMARK  4 active torsions:
REMARK  status: ('A' for Active; 'I' for Inactive)
REMARK    1  A    between atoms: C_2  and  S_1 
REMARK    2  A    between atoms: N_6  and  S_1 
REMARK    3  A    between atoms: N_3  and  C_4 
REMARK    4  A    between atoms: C_5  and  N_6 
ROOT
ATOM      1  S   UNL d   1      -0.120   0.334   0.505  0.00  0.00     0.265 S 
ATOM      2  O   UNL d   1      -1.005   0.926   1.488  0.00  0.00    -0.200 OA
ATOM      3  O   UNL d   1      -0.637  -0.585  -0.480  0.00  0.00    -0.200 OA
ENDROOT
BRANCH   1   4
ATOM      4  C   UNL d   1       1.209  -0.452   1.387  0.00  0.00     0.103 A 
ATOM      5  C   UNL d   1       1.341  -0.158   2.755  0.00  0.00     0.052 A 
ATOM      6  C   UNL d   1       2.374  -0.727   3.504  0.00  0.00     0.057 A 
ATOM      7 CL   UNL d   1       2.491  -0.289   5.170  0.00  0.00    -0.083 Cl
ATOM      8  C   UNL d   1       3.268  -1.612   2.895  0.00  0.00     0.057 A 
ATOM      9  C   UNL d   1       3.125  -1.917   1.538  0.00  0.00     0.051 A 
ATOM     10 CL   UNL d   1       4.569  -2.352   3.756  0.00  0.00    -0.082 Cl
ATOM     11  C   UNL d   1       2.104  -1.333   0.775  0.00  0.00     0.059 A 
ATOM     12 CL   UNL d   1       2.084  -1.730  -0.903  0.00  0.00    -0.083 Cl
ENDBRANCH   1   4
BRANCH   1  13
ATOM     13  N   UNL d   1       0.669   1.570  -0.312  0.00  0.00    -0.278 N 
ATOM     14  H   UNL d   1       0.570   1.561  -1.330  0.00  0.00     0.179 HD
BRANCH  13  15
ATOM     15  C   UNL d   1       1.038   2.772   0.359  0.00  0.00     0.076 A 
ATOM     16  C   UNL d   1       2.360   3.070   0.705  0.00  0.00     0.130 A 
ATOM     17  C   UNL d   1       2.703   4.244   1.386  0.00  0.00     0.039 A 
ATOM     18  C   UNL d   1       1.704   5.172   1.679  0.00  0.00     0.009 A 
ATOM     19  C   UNL d   1       0.380   4.930   1.289  0.00  0.00    -0.060 A 
ATOM     20  C   UNL d   1       0.053   3.723   0.644  0.00  0.00     0.039 A 
ATOM     21  C   UNL d   1      -0.688   5.959   1.537  0.00  0.00     0.048 C 
BRANCH  16  22
ATOM     22  N   UNL d   1       3.426   2.175   0.325  0.00  0.00    -0.113 N 
ATOM     23  O   UNL d   1       3.614   1.997  -0.885  0.00  0.00    -0.532 OA
ATOM     24  O   UNL d   1       4.076   1.657   1.242  0.00  0.00    -0.532 OA
ENDBRANCH  16  22
ENDBRANCH  13  15
ENDBRANCH   1  13
TORSDOF 4
