REMARK  5 active torsions:
REMARK  status: ('A' for Active; 'I' for Inactive)
REMARK    1  A    between atoms: C_6  and  N_1 
REMARK    2  A    between atoms: C_2  and  C_12 
REMARK       I    between atoms: N_7  and  C_2 
REMARK    3  A    between atoms: C_12  and  N_4 
REMARK    4  A    between atoms: C_14  and  N_7 
REMARK    5  A    between atoms: C_9  and  C_8 
ROOT
ATOM      1  N   UNL d   1       7.248   4.480  -4.668  0.00  0.00    -0.191 NA
ATOM      2  C   UNL d   1       6.900   3.974  -3.681  0.00  0.00     0.099 C 
ATOM      3  C   UNL d   1       4.859   2.032  -1.205  0.00  0.00     0.036 A 
ATOM      4  C   UNL d   1       6.489   3.355  -2.452  0.00  0.00     0.046 A 
ATOM      5  C   UNL d   1       5.275   2.654  -2.390  0.00  0.00     0.052 A 
ATOM      6  C   UNL d   1       6.894   2.841  -0.130  0.00  0.00     0.004 A 
ATOM      7  C   UNL d   1       5.680   2.143  -0.074  0.00  0.00     0.029 A 
ATOM      8  C   UNL d   1       7.300   3.444  -1.319  0.00  0.00     0.023 A 
ENDROOT
BRANCH   3   9
ATOM      9  N   UNL d   1       3.668   1.280  -1.088  0.00  0.00    -0.326 N 
ATOM     10  C   UNL d   1       2.732   1.042  -2.081  0.00  0.00     0.250 C 
ATOM     11  O   UNL d   1       2.767   1.490  -3.224  0.00  0.00    -0.271 OA
ATOM     12  H   UNL d   1       3.445   0.864  -0.187  0.00  0.00     0.169 HD
BRANCH  10  13
ATOM     13  C   UNL d   1       1.629   0.046  -1.699  0.00  0.00     0.375 C 
BRANCH  13  14
ATOM     14  N   UNL d   1       1.201   0.123  -0.281  0.00  0.00     0.100 N 
ATOM     15  C   UNL d   1       0.492   1.397   0.035  0.00  0.00     0.292 C 
ATOM     16  C   UNL d   1      -0.955   1.576  -0.509  0.00  0.00     0.153 C 
ATOM     17  N   UNL d   1      -1.780   0.386  -0.229  0.00  0.00    -0.378 N 
ATOM     18  C   UNL d   1      -1.146  -0.879  -0.620  0.00  0.00     0.153 C 
ATOM     19  C   UNL d   1       0.264  -1.004   0.008  0.00  0.00     0.292 C 
BRANCH  17  20
ATOM     20  C   UNL d   1      -2.785   0.441   0.724  0.00  0.00     0.030 A 
ATOM     21  C   UNL d   1      -2.985  -0.565   1.681  0.00  0.00     0.030 A 
ATOM     22  C   UNL d   1      -4.043  -0.523   2.608  0.00  0.00     0.017 A 
ATOM     23  C   UNL d   1      -4.944   0.539   2.605  0.00  0.00     0.009 A 
ATOM     24  C   UNL d   1      -4.766   1.552   1.656  0.00  0.00     0.017 A 
ATOM     25  C   UNL d   1      -3.705   1.500   0.739  0.00  0.00     0.030 A 
BRANCH  23  26
ATOM     26  C   UNL d   1      -6.102   0.653   3.548  0.00  0.00     0.155 C 
ATOM     27  O   UNL d   1      -6.895   1.586   3.417  0.00  0.00    -0.293 OA
ATOM     28  C   UNL d   1      -6.319  -0.363   4.642  0.00  0.00     0.096 C 
ENDBRANCH  23  26
ENDBRANCH  17  20
ENDBRANCH  13  14
ENDBRANCH  10  13
ENDBRANCH   3   9
TORSDOF 5
