REMARK  19 active torsions:
REMARK  status: ('A' for Active; 'I' for Inactive)
REMARK    1  A    between atoms: C_2  and  C_1 
REMARK    2  A    between atoms: C_5  and  C_1 
REMARK    3  A    between atoms: C_6  and  C_2 
REMARK    4  A    between atoms: N_4  and  C_5 
REMARK    5  A    between atoms: C_9  and  C_6 
REMARK    6  A    between atoms: C_14  and  C_9 
REMARK    7  A    between atoms: C_10  and  C_11 
REMARK    8  A    between atoms: C_11  and  C_21 
REMARK    9  A    between atoms: C_12  and  C_22 
REMARK   10  A    between atoms: C_15  and  C_12 
REMARK   11  A    between atoms: C_13  and  C_23 
REMARK   12  A    between atoms: C_22  and  C_13 
REMARK   13  A    between atoms: C_23  and  C_14 
REMARK   14  A    between atoms: C_16  and  C_15 
REMARK   15  A    between atoms: C_17  and  C_16 
REMARK   16  A    between atoms: C_18  and  C_17 
REMARK   17  A    between atoms: C_19  and  C_18 
REMARK   18  A    between atoms: C_20  and  C_19 
REMARK   19  A    between atoms: C_21  and  C_20 
ROOT
ATOM      1  C   UNL d   1      -4.400   5.326   0.139  0.00  0.00     0.000 C 
ENDROOT
BRANCH   1   2
ATOM      2  C   UNL d   1      -2.912   5.038   0.129  0.00  0.00     0.000 C 
BRANCH   2   3
ATOM      3  C   UNL d   1      -2.675   3.537   0.076  0.00  0.00     0.000 C 
BRANCH   3   4
ATOM      4  C   UNL d   1      -1.186   3.257   0.070  0.00  0.00     0.007 C 
BRANCH   4   5
ATOM      5  C   UNL d   1      -0.905   1.767   0.012  0.00  0.00     0.078 C 
BRANCH   5   6
ATOM      6  C   UNL d   1       0.589   1.533   0.010  0.00  0.00     0.128 C 
ATOM      7  O   UNL d   1       1.404   2.449   0.029  0.00  0.00    -0.298 OA
BRANCH   6   8
ATOM      8  C   UNL d   1       1.040   0.101  -0.041  0.00  0.00     0.108 C 
BRANCH   8   9
ATOM      9  C   UNL d   1       1.904  -0.215   1.174  0.00  0.00     0.279 C 
BRANCH   9  10
ATOM     10  N   UNL d   1       2.378  -1.611   1.177  0.00  0.00     0.080 N 
ATOM     11  C   UNL d   1       3.189  -1.897  -0.011  0.00  0.00     0.309 C 
ATOM     12  C   UNL d   1       3.187  -1.848   2.378  0.00  0.00     0.309 C 
ENDBRANCH   9  10
ENDBRANCH   8   9
ENDBRANCH   6   8
ENDBRANCH   5   6
ENDBRANCH   4   5
ENDBRANCH   3   4
ENDBRANCH   2   3
ENDBRANCH   1   2
BRANCH   1  13
ATOM     13  C   UNL d   1      -4.638   6.824   0.193  0.00  0.00     0.000 C 
BRANCH  13  14
ATOM     14  C   UNL d   1      -6.129   7.107   0.204  0.00  0.00     0.000 C 
BRANCH  14  15
ATOM     15  C   UNL d   1      -6.371   8.603   0.257  0.00  0.00     0.000 C 
BRANCH  15  16
ATOM     16  C   UNL d   1      -7.862   8.883   0.267  0.00  0.00     0.000 C 
BRANCH  16  17
ATOM     17  C   UNL d   1      -8.104  10.380   0.322  0.00  0.00     0.000 C 
BRANCH  17  18
ATOM     18  C   UNL d   1      -9.595  10.663   0.332  0.00  0.00     0.000 C 
BRANCH  18  19
ATOM     19  C   UNL d   1      -9.835  12.160   0.387  0.00  0.00     0.000 C 
BRANCH  19  20
ATOM     20  C   UNL d   1     -11.326  12.447   0.398  0.00  0.00     0.000 C 
BRANCH  20  21
ATOM     21  C   UNL d   1     -11.567  13.946   0.453  0.00  0.00     0.000 C 
BRANCH  21  22
ATOM     22  C   UNL d   1     -13.060  14.231   0.463  0.00  0.00    -0.000 C 
BRANCH  22  23
ATOM     23  C   UNL d   1     -13.315  15.731   0.516  0.00  0.00    -0.005 C 
ATOM     24  C   UNL d   1     -14.804  16.012   0.525  0.00  0.00     0.005 C 
ENDBRANCH  22  23
ENDBRANCH  21  22
ENDBRANCH  20  21
ENDBRANCH  19  20
ENDBRANCH  18  19
ENDBRANCH  17  18
ENDBRANCH  16  17
ENDBRANCH  15  16
ENDBRANCH  14  15
ENDBRANCH  13  14
ENDBRANCH   1  13
TORSDOF 19
