REMARK  1 active torsions:
REMARK  status: ('A' for Active; 'I' for Inactive)
REMARK    1  A    between atoms: C_3  and  C_1 
ROOT
ATOM      1  C   UNL d   1      -0.434  -1.180  -0.007  0.00  0.00     0.109 C 
ATOM      2  C   UNL d   1       0.501  -0.203   0.037  0.00  0.00     0.148 C 
ATOM      3  C   UNL d   1      -1.827  -0.851  -0.017  0.00  0.00     0.104 C 
ATOM      4  C   UNL d   1       0.121   1.171   0.070  0.00  0.00     0.112 C 
ATOM      5  C   UNL d   1       1.903  -0.458   0.006  0.00  0.00     0.112 C 
ATOM      6  N   UNL d   1      -2.958  -0.594  -0.034  0.00  0.00    -0.191 NA
ATOM      7  N   UNL d   1      -0.196   2.287   0.087  0.00  0.00    -0.191 NA
ATOM      8  N   UNL d   1       3.050  -0.631  -0.031  0.00  0.00    -0.191 NA
ENDROOT
BRANCH   1   9
ATOM      9  C   UNL d   1      -0.078  -2.569  -0.054  0.00  0.00     0.098 A 
ATOM     10  O   UNL d   1       1.069  -3.086   0.511  0.00  0.00    -0.321 OA
ATOM     11  C   UNL d   1       1.104  -4.421   0.291  0.00  0.00     0.142 A 
ATOM     12  C   UNL d   1      -0.009  -4.818  -0.401  0.00  0.00     0.027 A 
ATOM     13  C   UNL d   1      -0.769  -3.643  -0.615  0.00  0.00     0.041 A 
ENDBRANCH   1   9
TORSDOF 1
