REMARK  4 active torsions:
REMARK  status: ('A' for Active; 'I' for Inactive)
REMARK    1  A    between atoms: N_2  and  C_1 
REMARK    2  A    between atoms: N_5  and  C_1 
REMARK    3  A    between atoms: C_3  and  N_2 
REMARK    4  A    between atoms: N_11  and  N_5 
ROOT
ATOM      1  N   UNL d   1       0.373   0.727  -0.145  0.00  0.00    -0.361 N 
ATOM      2  H   UNL d   1      -0.059   0.248   0.644  0.00  0.00     0.162 HD
ENDROOT
BRANCH   1   3
ATOM      3  C   UNL d   1      -0.379   0.452  -1.258  0.00  0.00     0.182 C 
ATOM      4  S   UNL d   1      -0.267   1.106  -2.783  0.00  0.00    -0.040 SA
BRANCH   3   5
ATOM      5  N   UNL d   1      -1.330  -0.528  -1.042  0.00  0.00    -0.296 N 
ATOM      6  H   UNL d   1      -1.911  -0.740  -1.849  0.00  0.00     0.183 HD
BRANCH   5   7
ATOM      7  N   UNL d   1      -1.893  -0.695   0.255  0.00  0.00    -0.238 NA
ATOM      8  C   UNL d   1      -3.122   0.099   0.358  0.00  0.00     0.135 C 
ATOM      9  C   UNL d   1      -2.191  -2.109   0.499  0.00  0.00     0.135 C 
ENDBRANCH   5   7
ENDBRANCH   3   5
ENDBRANCH   1   3
BRANCH   1  10
ATOM     10  C   UNL d   1       1.170   1.895   0.200  0.00  0.00     0.088 C 
ATOM     11  C   UNL d   1       2.118   1.594   1.395  0.00  0.00     0.009 C 
ATOM     12  C   UNL d   1       3.080   2.781   1.333  0.00  0.00     0.011 C 
ATOM     13  C   UNL d   1       3.067   0.426   1.049  0.00  0.00     0.007 C 
ATOM     14  C   UNL d   1       3.498   2.485  -0.104  0.00  0.00    -0.012 C 
ATOM     15  C   UNL d   1       2.149   2.470  -0.846  0.00  0.00     0.030 C 
ATOM     16  C   UNL d   1       3.996   1.034  -0.011  0.00  0.00     0.005 C 
ENDBRANCH   1  10
TORSDOF 4
