REMARK  3 active torsions:
REMARK  status: ('A' for Active; 'I' for Inactive)
REMARK    1  A    between atoms: C_15  and  N_3 
REMARK    2  A    between atoms: N_8  and  C_6 
REMARK    3  A    between atoms: C_20  and  N_11 
ROOT
ATOM      1  C   UNL d   1      -0.231   0.764   0.531  0.00  0.00     0.071 A 
ATOM      2  C   UNL d   1      -0.165  -0.622   0.500  0.00  0.00     0.143 A 
ATOM      3  N   UNL d   1      -1.341  -1.090   1.088  0.00  0.00    -0.239 N 
ATOM      4  N   UNL d   1      -2.158  -0.054   1.453  0.00  0.00    -0.302 N 
ATOM      5  HN  UNL d   1      -3.076  -0.107   1.895  1.00  0.00     0.186 HD
ATOM      6  C   UNL d   1       0.849   1.495   0.004  0.00  0.00     0.119 A 
ATOM      7  C   UNL d   1      -1.485   1.039   1.102  0.00  0.00     0.127 A 
ATOM      8  N   UNL d   1       0.855  -1.340  -0.014  0.00  0.00    -0.336 N 
ATOM      9  HN  UNL d   1       0.890  -2.359  -0.012  1.00  0.00     0.168 HD
ATOM     10  N   UNL d   1       1.859   0.780  -0.556  0.00  0.00    -0.338 N 
ATOM     11  HN  UNL d   1       2.645   1.259  -0.996  1.00  0.00     0.168 HD
ATOM     12  C   UNL d   1       1.814  -0.561  -0.527  0.00  0.00     0.183 A 
ENDROOT
BRANCH   6  13
ATOM     13  N   UNL d   1       0.966   2.862   0.033  0.00  0.00    -0.363 N 
ATOM     14  C   UNL d   1       1.631   3.564  -1.077  0.00  0.00     0.144 C 
ATOM     15  C   UNL d   1       2.595   4.650  -0.549  0.00  0.00     0.143 C 
ATOM     16  N   UNL d   1       1.901   5.509   0.431  0.00  0.00    -0.378 N 
ATOM     17  C   UNL d   1       1.346   4.771   1.573  0.00  0.00     0.143 C 
ATOM     18  C   UNL d   1       0.351   3.702   1.065  0.00  0.00     0.144 C 
BRANCH  16  19
ATOM     19  C   UNL d   1       2.082   6.875   0.453  0.00  0.00     0.030 A 
ATOM     20  C   UNL d   1       2.218   7.598   1.647  0.00  0.00     0.029 A 
ATOM     21  C   UNL d   1       2.329   8.992   1.656  0.00  0.00     0.002 A 
ATOM     22  C   UNL d   1       2.305   9.700   0.460  0.00  0.00     0.000 A 
ATOM     23  C   UNL d   1       2.176   9.011  -0.740  0.00  0.00     0.002 A 
ATOM     24  C   UNL d   1       2.069   7.617  -0.738  0.00  0.00     0.029 A 
ENDBRANCH  16  19
ENDBRANCH   6  13
BRANCH   3  25
ATOM     25  C   UNL d   1      -1.767  -2.433   1.326  0.00  0.00     0.058 A 
ATOM     26  C   UNL d   1      -0.962  -3.533   1.011  0.00  0.00     0.031 A 
ATOM     27  C   UNL d   1      -1.417  -4.833   1.254  0.00  0.00     0.002 A 
ATOM     28  C   UNL d   1      -2.676  -5.042   1.812  0.00  0.00     0.000 A 
ATOM     29  C   UNL d   1      -3.483  -3.958   2.132  0.00  0.00     0.002 A 
ATOM     30  C   UNL d   1      -3.033  -2.656   1.893  0.00  0.00     0.031 A 
ENDBRANCH   3  25
TORSDOF 3
