REMARK  7 active torsions:
REMARK  status: ('A' for Active; 'I' for Inactive)
REMARK    1  A    between atoms: C_10  and  N_1 
REMARK    2  A    between atoms: C_3  and  C_4 
REMARK    3  A    between atoms: C_8  and  C_3 
REMARK    4  A    between atoms: N_9  and  C_6 
REMARK    5  A    between atoms: O_17  and  C_8 
REMARK    6  A    between atoms: C_16  and  N_9 
REMARK    7  A    between atoms: C_29  and  O_17 
ROOT
ATOM      1  C   UNL d   1      -1.333  -2.126  -1.244  0.00  0.00     0.048 C 
ATOM      2  C   UNL d   1      -0.732  -2.555  -2.390  0.00  0.00    -0.001 C 
ATOM      3  C   UNL d   1       0.779  -2.709  -2.497  0.00  0.00     0.062 C 
ENDROOT
BRANCH   1   4
ATOM      4  C   UNL d   1      -0.679  -1.350  -0.100  0.00  0.00     0.128 A 
ATOM      5  C   UNL d   1       0.515  -0.497  -0.470  0.00  0.00     0.240 A 
ATOM      6  N   UNL d   1       1.554  -0.781   0.393  0.00  0.00    -0.252 N 
ATOM      7  O   UNL d   1       0.496   0.279  -1.418  0.00  0.00    -0.272 OA
ATOM      8  C   UNL d   1       1.199  -1.731   1.323  0.00  0.00     0.232 A 
ATOM      9  C   UNL d   1      -0.207  -2.201   1.059  0.00  0.00     0.123 A 
ATOM     10  O   UNL d   1       1.844  -2.166   2.266  0.00  0.00    -0.273 OA
BRANCH   6  11
ATOM     11  C   UNL d   1       2.856  -0.192   0.300  0.00  0.00     0.045 A 
ATOM     12  C   UNL d   1       3.060   1.029  -0.368  0.00  0.00     0.033 A 
ATOM     13  C   UNL d   1       4.338   1.584  -0.500  0.00  0.00     0.044 A 
ATOM     14  C   UNL d   1       5.432   0.921   0.032  0.00  0.00     0.116 A 
ATOM     15  C   UNL d   1       5.268  -0.278   0.707  0.00  0.00     0.044 A 
ATOM     16  F   UNL d   1       6.657   1.442  -0.109  0.00  0.00    -0.206 F 
ATOM     17  C   UNL d   1       3.986  -0.826   0.847  0.00  0.00     0.033 A 
ENDBRANCH   6  11
ENDBRANCH   1   4
BRANCH   1  18
ATOM     18  C   UNL d   1      -2.798  -2.343  -0.961  0.00  0.00     0.291 C 
ATOM     19  O   UNL d   1      -3.367  -1.815  -0.015  0.00  0.00    -0.260 OA
BRANCH  18  20
ATOM     20  O   UNL d   1      -3.336  -3.328  -1.731  0.00  0.00    -0.318 OA
BRANCH  20  21
ATOM     21  C   UNL d   1      -4.535  -3.931  -1.212  0.00  0.00     0.174 C 
ATOM     22  C   UNL d   1      -5.784  -3.156  -1.588  0.00  0.00     0.034 C 
ENDBRANCH  20  21
ENDBRANCH  18  20
ENDBRANCH   1  18
BRANCH   2  23
ATOM     23  N   UNL d   1      -1.409  -3.042  -3.511  0.00  0.00    -0.263 NA
ATOM     24  H   UNL d   1      -2.352  -3.364  -3.273  0.00  0.00     0.133 HD
BRANCH  23  25
ATOM     25  C   UNL d   1      -1.494  -2.341  -4.753  0.00  0.00     0.012 A 
ATOM     26  C   UNL d   1      -0.719  -1.217  -5.076  0.00  0.00     0.027 A 
ATOM     27  C   UNL d   1      -0.819  -0.607  -6.333  0.00  0.00     0.044 A 
ATOM     28  C   UNL d   1      -1.693  -1.123  -7.279  0.00  0.00     0.116 A 
ATOM     29  C   UNL d   1      -2.461  -2.243  -6.996  0.00  0.00     0.044 A 
ATOM     30  F   UNL d   1      -1.794  -0.535  -8.479  0.00  0.00    -0.206 F 
ATOM     31  C   UNL d   1      -2.350  -2.856  -5.743  0.00  0.00     0.027 A 
ENDBRANCH  23  25
ENDBRANCH   2  23
TORSDOF 7
