REMARK  8 active torsions:
REMARK  status: ('A' for Active; 'I' for Inactive)
REMARK    1  A    between atoms: C_2  and  S_1 
REMARK    2  A    between atoms: N_7  and  S_1 
REMARK       I    between atoms: C_5  and  N_6 
REMARK    3  A    between atoms: N_6  and  C_8 
REMARK    4  A    between atoms: C_21  and  N_7 
REMARK    5  A    between atoms: C_14  and  O_19 
REMARK    6  A    between atoms: C_18  and  C_21 
REMARK    7  A    between atoms: C_24  and  C_18 
REMARK    8  A    between atoms: O_19  and  C_24 
ROOT
ATOM      1  C   UNL d   1       4.878  -0.554   1.232  0.00  0.00     0.047 C 
ENDROOT
BRANCH   1   2
ATOM      2  C   UNL d   1       5.399  -1.287  -0.005  0.00  0.00     0.134 C 
BRANCH   2   3
ATOM      3  N   UNL d   1       5.050  -2.712   0.044  0.00  0.00    -0.315 N 
ATOM      4  H   UNL d   1       5.185  -3.224   0.914  0.00  0.00     0.172 HD
BRANCH   3   5
ATOM      5  S   UNL d   1       5.384  -3.684  -1.287  0.00  0.00     0.258 S 
ATOM      6  O   UNL d   1       5.183  -5.052  -0.858  0.00  0.00    -0.201 OA
ATOM      7  O   UNL d   1       4.697  -3.123  -2.424  0.00  0.00    -0.201 OA
BRANCH   5   8
ATOM      8  C   UNL d   1       7.133  -3.466  -1.530  0.00  0.00     0.079 A 
ATOM      9  C   UNL d   1       8.021  -3.781  -0.494  0.00  0.00     0.027 A 
ATOM     10  C   UNL d   1       9.395  -3.633  -0.701  0.00  0.00     0.025 A 
ATOM     11  C   UNL d   1       9.868  -3.182  -1.935  0.00  0.00     0.034 A 
ATOM     12  C   UNL d   1       8.980  -2.864  -2.963  0.00  0.00     0.025 A 
ATOM     13 CL   UNL d   1      11.562  -3.029  -2.195  0.00  0.00    -0.084 Cl
ATOM     14  C   UNL d   1       7.605  -3.003  -2.762  0.00  0.00     0.027 A 
ENDBRANCH   5   8
ENDBRANCH   3   5
ENDBRANCH   2   3
ENDBRANCH   1   2
BRANCH   1  15
ATOM     15  C   UNL d   1       5.396  -1.138   2.541  0.00  0.00     0.177 C 
BRANCH  15  16
ATOM     16  O   UNL d   1       6.829  -1.248   2.507  0.00  0.00    -0.351 OA
BRANCH  16  17
ATOM     17  C   UNL d   1       7.362  -1.859   3.613  0.00  0.00     0.070 C 
ATOM     18  C   UNL d   1       6.733  -2.911   4.272  0.00  0.00     0.066 C 
ATOM     19  C   UNL d   1       7.232  -3.431   5.463  0.00  0.00     0.037 C 
ATOM     20  C   UNL d   1       8.474  -2.986   5.919  0.00  0.00     0.029 C 
ATOM     21  C   UNL d   1       9.160  -1.985   5.218  0.00  0.00     0.005 C 
ATOM     22  C   UNL d   1       8.596  -1.412   4.073  0.00  0.00     0.037 C 
BRANCH  19  23
ATOM     23  N   UNL d   1       6.504  -4.376   6.219  0.00  0.00    -0.327 N 
ATOM     24  C   UNL d   1       5.147  -4.637   6.074  0.00  0.00     0.218 C 
ATOM     25  O   UNL d   1       4.372  -4.084   5.297  0.00  0.00    -0.274 OA
ATOM     26  C   UNL d   1       4.624  -5.698   7.003  0.00  0.00     0.117 C 
ATOM     27  H   UNL d   1       6.971  -4.767   7.026  0.00  0.00     0.169 HD
ENDBRANCH  19  23
ENDBRANCH  16  17
ENDBRANCH  15  16
ENDBRANCH   1  15
TORSDOF 8
