REMARK  3 active torsions:
REMARK  status: ('A' for Active; 'I' for Inactive)
REMARK    1  A    between atoms: C_6  and  C_3 
REMARK       I    between atoms: N_8  and  C_6 
REMARK    2  A    between atoms: C_16  and  N_8 
REMARK    3  A    between atoms: C_17  and  N_8 
ROOT
ATOM      1  C   UNL d   1      -0.634   0.633  -0.135  0.00  0.00     0.005 A 
ATOM      2  C   UNL d   1      -1.145  -0.673   0.032  0.00  0.00     0.027 A 
ATOM      3  C   UNL d   1      -1.559   1.674  -0.158  0.00  0.00     0.044 A 
ATOM      4  C   UNL d   1      -0.013  -1.611   0.126  0.00  0.00     0.194 A 
ATOM      5  C   UNL d   1       0.820   0.533  -0.240  0.00  0.00    -0.010 A 
ATOM      6  C   UNL d   1       1.207  -0.811  -0.064  0.00  0.00     0.026 A 
ATOM      7  O   UNL d   1      -0.079  -2.808   0.318  0.00  0.00    -0.287 OA
ATOM      8  C   UNL d   1      -2.490  -0.998   0.087  0.00  0.00     0.016 A 
ATOM      9  C   UNL d   1      -2.940   1.361  -0.171  0.00  0.00     0.018 A 
ATOM     10  C   UNL d   1       1.811   1.452  -0.546  0.00  0.00     0.013 A 
ATOM     11  C   UNL d   1       2.509  -1.271  -0.135  0.00  0.00     0.016 A 
ATOM     12  C   UNL d   1      -3.400   0.041  -0.045  0.00  0.00     0.002 A 
ATOM     13  C   UNL d   1       3.144   1.011  -0.649  0.00  0.00     0.001 A 
ATOM     14  C   UNL d   1       3.493  -0.334  -0.433  0.00  0.00     0.001 A 
ENDROOT
BRANCH   3  15
ATOM     15  C   UNL d   1      -1.205   3.112  -0.196  0.00  0.00     0.254 C 
ATOM     16  N   UNL d   1      -1.749   3.972   0.777  0.00  0.00    -0.349 N 
ATOM     17  O   UNL d   1      -0.513   3.503  -1.134  0.00  0.00    -0.267 OA
BRANCH  16  18
ATOM     18  C   UNL d   1      -1.596   5.418   0.573  0.00  0.00     0.121 C 
ATOM     19  C   UNL d   1      -0.691   6.083   1.597  0.00  0.00     0.026 C 
ENDBRANCH  16  18
BRANCH  16  20
ATOM     20  C   UNL d   1      -2.335   3.521   2.054  0.00  0.00     0.121 C 
ATOM     21  C   UNL d   1      -3.753   4.029   2.285  0.00  0.00     0.026 C 
ENDBRANCH  16  20
ENDBRANCH   3  15
TORSDOF 3
