REMARK  4 active torsions:
REMARK  status: ('A' for Active; 'I' for Inactive)
REMARK    1  A    between atoms: S_7  and  C_1 
REMARK    2  A    between atoms: C_5  and  N_6 
REMARK       I    between atoms: N_6  and  C_8 
REMARK    3  A    between atoms: C_14  and  S_7 
REMARK    4  A    between atoms: C_8  and  C_14 
ROOT
ATOM      1  N   UNL d   1       1.863   5.183   0.268  0.00  0.00    -0.326 N 
ATOM      2  C   UNL d   1       2.596   4.324  -0.536  0.00  0.00     0.231 C 
ATOM      3  O   UNL d   1       3.496   4.664  -1.306  0.00  0.00    -0.272 OA
ATOM      4  H   UNL d   1       1.274   4.748   0.964  0.00  0.00     0.169 HD
ENDROOT
BRANCH   2   5
ATOM      5  C   UNL d   1       2.288   2.854  -0.319  0.00  0.00     0.185 C 
BRANCH   5   6
ATOM      6  S   UNL d   1       0.568   2.478  -0.771  0.00  0.00    -0.084 SA
BRANCH   6   7
ATOM      7  C   UNL d   1       0.604   0.754  -0.597  0.00  0.00     0.146 A 
ATOM      8  N   UNL d   1      -0.398  -0.076  -1.023  0.00  0.00    -0.341 N 
ATOM      9  C   UNL d   1      -0.025  -1.357  -0.702  0.00  0.00     0.109 A 
ATOM     10  C   UNL d   1      -1.630   0.272  -1.686  0.00  0.00     0.158 C 
ATOM     11  C   UNL d   1       1.207  -1.234  -0.104  0.00  0.00     0.107 A 
ATOM     12  N   UNL d   1       1.583   0.082  -0.037  0.00  0.00    -0.345 N 
ATOM     13  HN  UNL d   1       2.443   0.459   0.363  1.00  0.00     0.167 HD
ENDBRANCH   6   7
ENDBRANCH   5   6
ENDBRANCH   2   5
BRANCH   1  14
ATOM     14  C   UNL d   1       1.929   6.597   0.257  0.00  0.00     0.043 A 
ATOM     15  C   UNL d   1       2.394   7.288  -0.870  0.00  0.00     0.072 A 
ATOM     16  C   UNL d   1       2.422   8.680  -0.888  0.00  0.00     0.118 A 
ATOM     17  F   UNL d   1       2.860   9.316  -1.981  0.00  0.00    -0.206 F 
ATOM     18  C   UNL d   1       1.992   9.415   0.202  0.00  0.00     0.043 A 
ATOM     19  C   UNL d   1       1.528   8.747   1.332  0.00  0.00     0.012 A 
ATOM     20  C   UNL d   1       1.492   7.337   1.379  0.00  0.00    -0.035 A 
ATOM     21  C   UNL d   1       1.030   6.722   2.674  0.00  0.00     0.050 C 
ENDBRANCH   1  14
TORSDOF 4
