REMARK  8 active torsions:
REMARK  status: ('A' for Active; 'I' for Inactive)
REMARK    1  A    between atoms: C_14  and  C_6 
REMARK    2  A    between atoms: N_7  and  C_9 
REMARK    3  A    between atoms: N_8  and  C_13 
REMARK    4  A    between atoms: O_25  and  C_14 
REMARK    5  A    between atoms: N_24  and  N_16 
REMARK    6  A    between atoms: C_26  and  O_25 
REMARK    7  A    between atoms: C_27  and  C_26 
REMARK    8  A    between atoms: C_28  and  C_27 
ROOT
ATOM      1  C   UNL d   1       0.605  -0.543  -0.059  0.00  0.00     0.004 A 
ATOM      2  C   UNL d   1       1.068   0.791  -0.077  0.00  0.00     0.007 A 
ATOM      3  C   UNL d   1      -1.300   0.841  -0.081  0.00  0.00     0.006 A 
ATOM      4  C   UNL d   1      -0.856  -0.504  -0.071  0.00  0.00    -0.011 A 
ATOM      5  C   UNL d   1      -0.096   1.702  -0.092  0.00  0.00     0.065 A 
ATOM      6  C   UNL d   1       1.563  -1.559  -0.025  0.00  0.00     0.053 A 
ATOM      7  C   UNL d   1       3.343   0.148  -0.050  0.00  0.00     0.104 A 
ATOM      8  C   UNL d   1       2.403   1.170  -0.062  0.00  0.00     0.050 A 
ATOM      9  C   UNL d   1       2.935  -1.199  -0.034  0.00  0.00     0.054 A 
ATOM     10  C   UNL d   1      -2.645   1.189  -0.086  0.00  0.00     0.050 A 
ATOM     11  C   UNL d   1      -3.581   0.151  -0.069  0.00  0.00     0.103 A 
ATOM     12  C   UNL d   1      -1.804  -1.521  -0.094  0.00  0.00     0.016 A 
ATOM     13  N   UNL d   1       0.082   2.986  -0.124  0.00  0.00    -0.322 N 
ATOM     14  HN  UNL d   1       1.022   3.383  -0.122  1.00  0.00     0.180 HD
ATOM     15  C   UNL d   1      -3.170  -1.193  -0.079  0.00  0.00     0.037 A 
ENDROOT
BRANCH   6  16
ATOM     16  C   UNL d   1       1.246  -2.993   0.211  0.00  0.00     0.294 C 
ATOM     17  O   UNL d   1       0.352  -3.385   0.939  0.00  0.00    -0.259 OA
BRANCH  16  18
ATOM     18  O   UNL d   1       2.228  -3.766  -0.321  0.00  0.00    -0.317 OA
BRANCH  18  19
ATOM     19  C   UNL d   1       2.695  -4.799   0.558  0.00  0.00     0.179 C 
BRANCH  19  20
ATOM     20  C   UNL d   1       2.324  -6.194   0.078  0.00  0.00     0.026 C 
BRANCH  20  21
ATOM     21  C   UNL d   1       2.861  -7.223   1.075  0.00  0.00    -0.002 C 
ATOM     22  C   UNL d   1       2.551  -8.653   0.674  0.00  0.00     0.005 C 
ENDBRANCH  20  21
ENDBRANCH  19  20
ENDBRANCH  18  19
ENDBRANCH  16  18
ENDBRANCH   6  16
BRANCH   7  23
ATOM     23  N   UNL d   1       4.776   0.467  -0.013  0.00  0.00    -0.116 N 
ATOM     24  O   UNL d   1       5.099   1.663  -0.002  0.00  0.00    -0.532 OA
ATOM     25  O   UNL d   1       5.574  -0.480   0.009  0.00  0.00    -0.532 OA
ENDBRANCH   7  23
BRANCH  13  26
ATOM     26  N   UNL d   1      -1.002   3.784  -0.158  0.00  0.00    -0.249 NA
ATOM     27  H   UNL d   1      -0.693   4.759  -0.202  0.00  0.00     0.143 HD
ATOM     28  H   UNL d   1      -1.538   3.723   0.714  0.00  0.00     0.143 HD
ENDBRANCH  13  26
BRANCH  11  29
ATOM     29  N   UNL d   1      -5.016   0.473  -0.030  0.00  0.00    -0.116 N 
ATOM     30  O   UNL d   1      -5.332   1.668   0.030  0.00  0.00    -0.532 OA
ATOM     31  O   UNL d   1      -5.816  -0.473  -0.060  0.00  0.00    -0.532 OA
ENDBRANCH  11  29
TORSDOF 8
