REMARK  2 active torsions:
REMARK  status: ('A' for Active; 'I' for Inactive)
REMARK    1  A    between atoms: C_6  and  C_1 
REMARK    2  A    between atoms: C_9  and  C_3 
REMARK       I    between atoms: N_8  and  C_6 
ROOT
ATOM      1  C   UNL d   1       0.141  -1.116  -0.166  0.00  0.00     0.097 C 
ATOM      2  S   UNL d   1       0.718  -0.440  -1.631  0.00  0.00    -0.063 SA
ATOM      3  C   UNL d   1       0.608   1.142  -0.984  0.00  0.00     0.103 C 
ATOM      4  N   UNL d   1       0.318   1.180   0.303  0.00  0.00    -0.351 N 
ATOM      5  HN  UNL d   1       0.262   2.032   0.862  1.00  0.00     0.166 HD
ATOM      6  C   UNL d   1       0.100  -0.107   0.789  0.00  0.00     0.029 C 
ATOM      7  C   UNL d   1      -0.146  -0.267   2.250  0.00  0.00     0.070 C 
ENDROOT
BRANCH   1   8
ATOM      8  C   UNL d   1      -0.017  -2.552   0.031  0.00  0.00     0.262 C 
ATOM      9  N   UNL d   1      -0.560  -3.375  -0.980  0.00  0.00    -0.344 N 
ATOM     10  C   UNL d   1      -1.126  -2.890  -2.247  0.00  0.00     0.156 C 
ATOM     11  C   UNL d   1      -0.149  -4.784  -0.944  0.00  0.00     0.156 C 
ATOM     12  C   UNL d   1      -1.986  -3.923  -2.997  0.00  0.00     0.291 C 
ATOM     13  N   UNL d   1      -1.355  -5.247  -3.140  0.00  0.00     0.087 N 
ATOM     14  C   UNL d   1      -1.011  -5.738  -1.793  0.00  0.00     0.291 C 
ATOM     15  C   UNL d   1      -0.187  -5.207  -4.020  0.00  0.00     0.310 C 
ATOM     16  O   UNL d   1       0.333  -3.067   1.096  0.00  0.00    -0.267 OA
ENDBRANCH   1   8
BRANCH   3  17
ATOM     17  C   UNL d   1       0.861   2.307  -1.842  0.00  0.00     0.081 A 
ATOM     18  N   UNL d   1       0.951   2.092  -3.186  0.00  0.00    -0.361 N 
ATOM     19  C   UNL d   1       1.175   3.183  -3.950  0.00  0.00     0.105 A 
ATOM     20  HN  UNL d   1       0.854   1.161  -3.591  1.00  0.00     0.165 HD
ATOM     21  C   UNL d   1       1.306   4.451  -3.408  0.00  0.00     0.104 A 
ATOM     22  N   UNL d   1       1.215   4.683  -2.079  0.00  0.00    -0.372 N 
ATOM     23  C   UNL d   1       0.987   3.584  -1.311  0.00  0.00     0.120 A 
ATOM     24  HN  UNL d   1       1.311   5.617  -1.680  1.00  0.00     0.164 HD
ENDBRANCH   3  17
TORSDOF 2
