REMARK  5 active torsions:
REMARK  status: ('A' for Active; 'I' for Inactive)
REMARK    1  A    between atoms: C_15  and  C_1 
REMARK    2  A    between atoms: C_3  and  C_6 
REMARK    3  A    between atoms: C_6  and  C_18 
REMARK    4  A    between atoms: S_14  and  C_15 
REMARK    5  A    between atoms: C_18  and  S_14 
ROOT
ATOM      1  C   UNL d   1      -2.535   5.759   0.082  0.00  0.00     0.168 C 
ATOM      2  O   UNL d   1      -2.524   6.990   0.098  0.00  0.00    -0.292 OA
ENDROOT
BRANCH   1   3
ATOM      3  C   UNL d   1      -3.849   5.040   0.110  0.00  0.00     0.013 A 
ATOM      4  C   UNL d   1      -3.953   3.645   0.129  0.00  0.00     0.054 A 
ATOM      5  C   UNL d   1      -5.212   3.039   0.110  0.00  0.00     0.103 A 
ATOM      6  O   UNL d   1      -5.229   1.667   0.097  0.00  0.00    -0.346 OA
ATOM      7  C   UNL d   1      -6.375   3.815   0.102  0.00  0.00     0.102 A 
ATOM      8  C   UNL d   1      -6.500   1.173  -0.343  0.00  0.00     0.202 C 
ATOM      9  C   UNL d   1      -7.631   1.883   0.383  0.00  0.00     0.202 C 
ATOM     10  O   UNL d   1      -7.638   3.283   0.085  0.00  0.00    -0.346 OA
ATOM     11  C   UNL d   1      -6.280   5.202   0.090  0.00  0.00     0.040 A 
ATOM     12  C   UNL d   1      -5.023   5.813   0.096  0.00  0.00     0.018 A 
ENDBRANCH   1   3
BRANCH   1  13
ATOM     13  C   UNL d   1      -1.235   4.983   0.007  0.00  0.00     0.158 C 
BRANCH  13  14
ATOM     14  S   UNL d   1      -0.819   4.541  -1.709  0.00  0.00    -0.157 SA
BRANCH  14  15
ATOM     15  C   UNL d   1      -0.606   6.218  -2.396  0.00  0.00     0.117 C 
BRANCH  15  16
ATOM     16  C   UNL d   1      -0.086   6.196  -3.811  0.00  0.00     0.011 A 
ATOM     17  C   UNL d   1      -1.000   6.216  -4.871  0.00  0.00     0.125 A 
ATOM     18  F   UNL d   1      -2.317   6.229  -4.616  0.00  0.00    -0.205 F 
ATOM     19  C   UNL d   1      -0.589   6.243  -6.203  0.00  0.00     0.043 A 
ATOM     20  C   UNL d   1       0.768   6.244  -6.505  0.00  0.00     0.005 A 
ATOM     21  C   UNL d   1       1.702   6.203  -5.471  0.00  0.00     0.024 A 
ATOM     22  C   UNL d   1       1.279   6.173  -4.133  0.00  0.00     0.044 A 
ATOM     23 CL   UNL d   1       2.506   6.123  -2.916  0.00  0.00    -0.084 Cl
ENDBRANCH  15  16
ENDBRANCH  14  15
ENDBRANCH  13  14
ENDBRANCH   1  13
TORSDOF 5
