REMARK  10 active torsions:
REMARK  status: ('A' for Active; 'I' for Inactive)
REMARK    1  A    between atoms: C_8  and  C_1 
REMARK    2  A    between atoms: C_5  and  C_2 
REMARK    3  A    between atoms: O_12  and  C_5 
REMARK    4  A    between atoms: N_6  and  C_7 
REMARK    5  A    between atoms: C_11  and  O_12 
REMARK    6  A    between atoms: C_19  and  C_23 
REMARK    7  A    between atoms: O_27  and  C_19 
REMARK    8  A    between atoms: C_28  and  C_22 
REMARK    9  A    between atoms: C_23  and  C_28 
REMARK   10  A    between atoms: C_33  and  O_27 
ROOT
ATOM      1  C   UNL d   1       0.369  -4.003   0.726  0.00  0.00     0.303 C 
ATOM      2  O   UNL d   1       0.208  -5.014   1.391  0.00  0.00    -0.259 OA
ENDROOT
BRANCH   1   3
ATOM      3  C   UNL d   1       1.564  -3.169   0.762  0.00  0.00     0.100 A 
ATOM      4  C   UNL d   1       2.964  -3.507   0.915  0.00  0.00     0.087 A 
ATOM      5  N   UNL d   1       3.699  -2.381   0.898  0.00  0.00    -0.259 N 
ATOM      6  O   UNL d   1       2.841  -1.332   0.768  0.00  0.00    -0.241 OA
ATOM      7  HN  UNL d   1       4.715  -2.324   0.969  1.00  0.00     0.195 HD
ATOM      8  C   UNL d   1       1.574  -1.787   0.648  0.00  0.00     0.091 A 
ATOM      9  C   UNL d   1       0.580  -0.714   0.440  0.00  0.00     0.080 C 
BRANCH   4  10
ATOM     10  C   UNL d   1       3.682  -4.797   0.987  0.00  0.00     0.037 A 
ATOM     11  C   UNL d   1       3.369  -5.867   0.125  0.00  0.00     0.048 A 
ATOM     12 CL   UNL d   1       2.206  -5.757  -1.156  0.00  0.00    -0.083 Cl
ATOM     13  C   UNL d   1       4.077  -7.081   0.179  0.00  0.00     0.025 A 
ATOM     14  C   UNL d   1       5.164  -7.235   1.031  0.00  0.00     0.003 A 
ATOM     15  C   UNL d   1       5.542  -6.174   1.842  0.00  0.00     0.025 A 
ATOM     16  C   UNL d   1       4.804  -4.976   1.840  0.00  0.00     0.048 A 
ATOM     17 CL   UNL d   1       5.386  -3.773   2.951  0.00  0.00    -0.083 Cl
ENDBRANCH   4  10
ENDBRANCH   1   3
BRANCH   1  18
ATOM     18  O   UNL d   1      -0.598  -3.477  -0.160  0.00  0.00    -0.272 OA
BRANCH  18  19
ATOM     19  C   UNL d   1      -2.002  -3.689  -0.345  0.00  0.00     0.112 A 
ATOM     20  C   UNL d   1      -2.610  -2.988  -1.394  0.00  0.00     0.137 A 
ATOM     21  C   UNL d   1      -4.005  -2.843  -1.466  0.00  0.00     0.046 A 
ATOM     22  C   UNL d   1      -4.812  -3.441  -0.490  0.00  0.00    -0.055 A 
ATOM     23  C   UNL d   1      -4.199  -4.263   0.475  0.00  0.00     0.010 A 
ATOM     24  C   UNL d   1      -2.796  -4.375   0.565  0.00  0.00     0.040 A 
BRANCH  20  25
ATOM     25  N   UNL d   1      -1.795  -2.388  -2.425  0.00  0.00    -0.113 N 
ATOM     26  O   UNL d   1      -0.978  -3.120  -3.001  0.00  0.00    -0.532 OA
ATOM     27  O   UNL d   1      -1.980  -1.189  -2.672  0.00  0.00    -0.532 OA
ENDBRANCH  20  25
BRANCH  22  28
ATOM     28  C   UNL d   1      -6.304  -3.164  -0.479  0.00  0.00     0.048 C 
BRANCH  28  29
ATOM     29  C   UNL d   1      -6.831  -2.514   0.807  0.00  0.00     0.116 C 
BRANCH  29  30
ATOM     30  C   UNL d   1      -6.284  -1.125   1.060  0.00  0.00     0.259 C 
ATOM     31  O   UNL d   1      -5.575  -0.490   0.298  0.00  0.00    -0.265 OA
BRANCH  30  32
ATOM     32  O   UNL d   1      -6.720  -0.690   2.277  0.00  0.00    -0.322 OA
BRANCH  32  33
ATOM     33  C   UNL d   1      -6.253   0.604   2.695  0.00  0.00     0.174 C 
ATOM     34  C   UNL d   1      -4.912   0.465   3.393  0.00  0.00     0.034 C 
ENDBRANCH  32  33
ENDBRANCH  30  32
ENDBRANCH  29  30
ENDBRANCH  28  29
ENDBRANCH  22  28
ENDBRANCH  18  19
ENDBRANCH   1  18
TORSDOF 10
