REMARK  8 active torsions:
REMARK  status: ('A' for Active; 'I' for Inactive)
REMARK    1  A    between atoms: S_9  and  C_2 
REMARK    2  A    between atoms: C_12  and  C_3 
REMARK       I    between atoms: C_8  and  N_11 
REMARK    3  A    between atoms: O_14  and  C_8 
REMARK    4  A    between atoms: C_18  and  S_9 
REMARK    5  A    between atoms: C_10  and  C_18 
REMARK       I    between atoms: N_13  and  C_10 
REMARK    6  A    between atoms: N_11  and  C_12 
REMARK    7  A    between atoms: C_20  and  N_13 
REMARK    8  A    between atoms: C_17  and  O_14 
ROOT
ATOM      1  N   UNL d   1       1.028   0.093  -0.107  0.00  0.00    -0.318 N 
ATOM      2  C   UNL d   1       0.275   1.172  -0.468  0.00  0.00     0.162 C 
ATOM      3  C   UNL d   1       0.121  -0.927   0.076  0.00  0.00     0.117 C 
ATOM      4  N   UNL d   1      -0.995   0.914  -0.272  0.00  0.00    -0.278 N 
ATOM      5  HN  UNL d   1      -1.767   1.574  -0.366  1.00  0.00     0.189 HD
ATOM      6  N   UNL d   1      -1.093  -0.409   0.083  0.00  0.00    -0.285 N 
ATOM      7  HN  UNL d   1      -1.955  -0.905   0.312  1.00  0.00     0.188 HD
ATOM      8  C   UNL d   1       2.459   0.005   0.029  0.00  0.00     0.160 C 
ENDROOT
BRANCH   2   9
ATOM      9  S   UNL d   1       0.856   2.582  -1.277  0.00  0.00    -0.083 SA
BRANCH   9  10
ATOM     10  C   UNL d   1       1.533   1.871  -2.804  0.00  0.00     0.185 C 
BRANCH  10  11
ATOM     11  C   UNL d   1       0.605   0.985  -3.629  0.00  0.00     0.231 C 
ATOM     12  N   UNL d   1      -0.748   1.182  -3.454  0.00  0.00    -0.327 N 
ATOM     13  H   UNL d   1      -1.020   1.821  -2.712  0.00  0.00     0.169 HD
ATOM     14  O   UNL d   1       1.114   0.204  -4.434  0.00  0.00    -0.272 OA
BRANCH  12  15
ATOM     15  C   UNL d   1      -1.812   0.541  -4.123  0.00  0.00     0.034 A 
ATOM     16  C   UNL d   1      -1.648  -0.454  -5.089  0.00  0.00     0.029 A 
ATOM     17  C   UNL d   1      -2.760  -1.014  -5.730  0.00  0.00     0.002 A 
ATOM     18  C   UNL d   1      -4.044  -0.581  -5.413  0.00  0.00     0.000 A 
ATOM     19  C   UNL d   1      -4.221   0.400  -4.441  0.00  0.00     0.002 A 
ATOM     20  C   UNL d   1      -3.111   0.951  -3.794  0.00  0.00     0.029 A 
ENDBRANCH  12  15
ENDBRANCH  10  11
ENDBRANCH   9  10
ENDBRANCH   2   9
BRANCH   3  21
ATOM     21  C   UNL d   1       0.450  -2.377   0.057  0.00  0.00     0.203 C 
BRANCH  21  22
ATOM     22  N   UNL d   1       0.711  -2.885   1.372  0.00  0.00    -0.330 N 
ATOM     23  C   UNL d   1       1.959  -3.243   1.777  0.00  0.00     0.361 C 
ATOM     24  O   UNL d   1       2.985  -2.944   1.185  0.00  0.00    -0.238 OA
ATOM     25  H   UNL d   1      -0.060  -3.178   1.958  0.00  0.00     0.165 HD
BRANCH  23  26
ATOM     26  O   UNL d   1       1.871  -3.961   2.913  0.00  0.00    -0.294 OA
BRANCH  26  27
ATOM     27  C   UNL d   1       3.068  -4.367   3.629  0.00  0.00     0.061 C 
ATOM     28  C   UNL d   1       3.749  -3.131   4.222  0.00  0.00     0.046 C 
ATOM     29  C   UNL d   1       2.563  -5.263   4.770  0.00  0.00     0.046 C 
ATOM     30  C   UNL d   1       4.030  -5.191   2.764  0.00  0.00     0.046 C 
ENDBRANCH  26  27
ENDBRANCH  23  26
ENDBRANCH  21  22
ENDBRANCH   3  21
TORSDOF 8
