REMARK  2 active torsions:
REMARK  status: ('A' for Active; 'I' for Inactive)
REMARK    1  A    between atoms: C_3  and  C_1 
REMARK    2  A    between atoms: C_2  and  N_7 
REMARK       I    between atoms: N_7  and  C_3 
ROOT
ATOM      1  C   UNL d   1       1.587   2.470  -0.251  0.00  0.00     0.259 C 
ATOM      2  N   UNL d   1       0.936   3.669  -0.023  0.00  0.00    -0.308 N 
ATOM      3  O   UNL d   1       2.787   2.372  -0.492  0.00  0.00    -0.267 OA
ATOM      4  H   UNL d   1       0.111   3.636   0.564  0.00  0.00     0.170 HD
ENDROOT
BRANCH   2   5
ATOM      5  C   UNL d   1       1.523   4.910  -0.209  0.00  0.00     0.126 A 
ATOM      6  N   UNL d   1       2.424   5.289  -1.183  0.00  0.00    -0.281 N 
ATOM      7  N   UNL d   1       2.750   6.603  -1.110  0.00  0.00    -0.302 N 
ATOM      8  C   UNL d   1       2.869   4.586  -2.364  0.00  0.00     0.179 C 
ATOM      9  C   UNL d   1       2.030   7.072  -0.089  0.00  0.00     0.025 A 
ATOM     10  HN  UNL d   1       3.400   7.118  -1.704  1.00  0.00     0.186 HD
ATOM     11  C   UNL d   1       1.251   6.059   0.505  0.00  0.00     0.076 A 
ATOM     12  C   UNL d   1       2.091   8.511   0.263  0.00  0.00     0.070 C 
ENDBRANCH   2   5
BRANCH   1  13
ATOM     13  C   UNL d   1       0.723   1.298  -0.143  0.00  0.00     0.064 A 
ATOM     14  C   UNL d   1       1.153  -0.019  -0.097  0.00  0.00     0.065 A 
ATOM     15  O   UNL d   1       0.091  -0.869  -0.005  0.00  0.00    -0.319 OA
ATOM     16  C   UNL d   1       2.475  -0.684  -0.130  0.00  0.00     0.077 C 
ATOM     17  C   UNL d   1      -1.037  -0.115  -0.009  0.00  0.00     0.050 A 
ATOM     18  C   UNL d   1      -0.710   1.219  -0.106  0.00  0.00     0.051 A 
ATOM     19  C   UNL d   1      -2.311  -0.856   0.074  0.00  0.00     0.076 C 
ENDBRANCH   1  13
TORSDOF 2
