REMARK  4 active torsions:
REMARK  status: ('A' for Active; 'I' for Inactive)
REMARK    1  A    between atoms: C_2  and  C_1 
REMARK       I    between atoms: N_6  and  C_2 
REMARK    2  A    between atoms: C_3  and  O_5 
REMARK       I    between atoms: N_7  and  C_3 
REMARK    3  A    between atoms: O_5  and  C_4 
REMARK    4  A    between atoms: C_12  and  N_6 
ROOT
ATOM      1  C   UNL d   1       2.369  -1.180  -0.631  0.00  0.00     0.067 C 
ATOM      2  C   UNL d   1       2.668  -0.417   0.512  0.00  0.00     0.096 C 
ATOM      3  C   UNL d   1       1.130  -0.986  -1.247  0.00  0.00     0.039 C 
ATOM      4  C   UNL d   1       1.897   0.683   0.884  0.00  0.00     0.040 C 
ATOM      5  C   UNL d   1       0.285   0.028  -0.779  0.00  0.00     0.012 C 
ATOM      6  C   UNL d   1       0.693   0.908   0.229  0.00  0.00     0.022 C 
ATOM      7 BR   UNL d   1      -1.460   0.200  -1.490  0.00  0.00    -0.051 Br
ENDROOT
BRANCH   1   8
ATOM      8  C   UNL d   1       3.407  -2.115  -1.155  0.00  0.00     0.259 C 
ATOM      9  N   UNL d   1       2.965  -3.268  -1.781  0.00  0.00    -0.323 N 
ATOM     10  H   UNL d   1       1.986  -3.501  -1.689  0.00  0.00     0.169 HD
ATOM     11  O   UNL d   1       4.576  -1.782  -1.009  0.00  0.00    -0.267 OA
BRANCH   9  12
ATOM     12  C   UNL d   1       3.784  -4.230  -2.423  0.00  0.00     0.035 A 
ATOM     13  C   UNL d   1       5.161  -4.070  -2.632  0.00  0.00     0.032 A 
ATOM     14  C   UNL d   1       5.917  -5.067  -3.260  0.00  0.00     0.044 A 
ATOM     15  C   UNL d   1       5.290  -6.229  -3.688  0.00  0.00     0.116 A 
ATOM     16  C   UNL d   1       3.924  -6.405  -3.509  0.00  0.00     0.044 A 
ATOM     17  F   UNL d   1       6.011  -7.189  -4.282  0.00  0.00    -0.206 F 
ATOM     18  C   UNL d   1       3.172  -5.405  -2.881  0.00  0.00     0.032 A 
ENDBRANCH   9  12
ENDBRANCH   1   8
BRANCH   2  19
ATOM     19  O   UNL d   1       3.605  -0.850   1.460  0.00  0.00    -0.260 OA
BRANCH  19  20
ATOM     20  C   UNL d   1       3.091  -1.965   2.134  0.00  0.00     0.367 C 
ATOM     21  N   UNL d   1       3.779  -2.284   3.292  0.00  0.00    -0.336 N 
ATOM     22  C   UNL d   1       3.379  -3.460   4.043  0.00  0.00     0.154 C 
ATOM     23  C   UNL d   1       4.921  -1.540   3.784  0.00  0.00     0.154 C 
ATOM     24  O   UNL d   1       2.103  -2.602   1.765  0.00  0.00    -0.238 OA
ENDBRANCH  19  20
ENDBRANCH   2  19
TORSDOF 4
