REMARK  6 active torsions:
REMARK  status: ('A' for Active; 'I' for Inactive)
REMARK    1  A    between atoms: C_7  and  S_1 
REMARK    2  A    between atoms: N_9  and  S_1 
REMARK    3  A    between atoms: S_2  and  C_8 
REMARK    4  A    between atoms: N_10  and  S_2 
REMARK    5  A    between atoms: C_22  and  N_9 
REMARK    6  A    between atoms: C_23  and  N_10 
ROOT
ATOM      1  C   UNL d   1      -0.049   2.199  -3.297  0.00  0.00    -0.041 A 
ATOM      2  C   UNL d   1      -0.625   3.241  -5.331  0.00  0.00    -0.041 A 
ATOM      3  C   UNL d   1      -0.544   1.217  -4.185  0.00  0.00    -0.019 A 
ATOM      4  C   UNL d   1      -0.896   1.857  -5.436  0.00  0.00    -0.019 A 
ATOM      5  C   UNL d   1       0.319   0.522  -1.643  0.00  0.00     0.080 A 
ATOM      6  C   UNL d   1      -1.348   3.559  -7.577  0.00  0.00     0.080 A 
ATOM      7  C   UNL d   1      -0.067   3.564  -3.959  0.00  0.00     0.078 A 
ATOM      8  C   UNL d   1       0.391   1.868  -2.025  0.00  0.00     0.033 A 
ATOM      9  C   UNL d   1      -0.858   4.108  -6.386  0.00  0.00     0.033 A 
ATOM     10  C   UNL d   1      -1.407   1.324  -6.609  0.00  0.00     0.014 A 
ATOM     11  C   UNL d   1      -0.607  -0.114  -3.803  0.00  0.00     0.014 A 
ATOM     12  C   UNL d   1      -0.168  -0.464  -2.522  0.00  0.00     0.026 A 
ATOM     13  C   UNL d   1      -1.637   2.184  -7.687  0.00  0.00     0.026 A 
ENDROOT
BRANCH   5  14
ATOM     14  S   UNL d   1       0.948   0.033  -0.049  0.00  0.00     0.263 S 
ATOM     15  O   UNL d   1       1.945   1.012   0.334  0.00  0.00    -0.200 OA
ATOM     16  O   UNL d   1       1.268  -1.377  -0.094  0.00  0.00    -0.200 OA
BRANCH  14  17
ATOM     17  N   UNL d   1      -0.356   0.285   0.957  0.00  0.00    -0.281 N 
ATOM     18  H   UNL d   1      -0.270   1.020   1.655  0.00  0.00     0.179 HD
BRANCH  17  19
ATOM     19  C   UNL d   1      -1.500  -0.544   0.941  0.00  0.00     0.042 A 
ATOM     20  C   UNL d   1      -1.501  -1.762   1.615  0.00  0.00     0.030 A 
ATOM     21  C   UNL d   1      -2.691  -2.487   1.739  0.00  0.00     0.009 A 
ATOM     22  C   UNL d   1      -3.883  -1.994   1.191  0.00  0.00    -0.062 A 
ATOM     23  C   UNL d   1      -3.860  -0.781   0.492  0.00  0.00     0.009 A 
ATOM     24  C   UNL d   1      -5.170  -2.738   1.395  0.00  0.00     0.048 C 
ATOM     25  C   UNL d   1      -2.673  -0.054   0.375  0.00  0.00     0.030 A 
ENDBRANCH  17  19
ENDBRANCH  14  17
ENDBRANCH   5  14
BRANCH   6  26
ATOM     26  S   UNL d   1      -1.666   4.623  -8.964  0.00  0.00     0.263 S 
ATOM     27  O   UNL d   1      -2.672   3.976  -9.784  0.00  0.00    -0.200 OA
ATOM     28  O   UNL d   1      -1.860   5.971  -8.479  0.00  0.00    -0.200 OA
BRANCH  26  29
ATOM     29  N   UNL d   1      -0.225   4.514  -9.841  0.00  0.00    -0.281 N 
ATOM     30  H   UNL d   1      -0.423   4.337 -10.825  0.00  0.00     0.179 HD
BRANCH  29  31
ATOM     31  C   UNL d   1       0.804   5.454  -9.557  0.00  0.00     0.042 A 
ATOM     32  C   UNL d   1       1.770   5.161  -8.598  0.00  0.00     0.030 A 
ATOM     33  C   UNL d   1       2.774   6.092  -8.316  0.00  0.00     0.009 A 
ATOM     34  C   UNL d   1       2.811   7.322  -8.987  0.00  0.00    -0.062 A 
ATOM     35  C   UNL d   1       1.824   7.611  -9.936  0.00  0.00     0.009 A 
ATOM     36  C   UNL d   1       3.898   8.311  -8.681  0.00  0.00     0.048 C 
ATOM     37  C   UNL d   1       0.822   6.681 -10.219  0.00  0.00     0.030 A 
ENDBRANCH  29  31
ENDBRANCH  26  29
ENDBRANCH   6  26
TORSDOF 6
