REMARK  6 active torsions:
REMARK  status: ('A' for Active; 'I' for Inactive)
REMARK    1  A    between atoms: S_2  and  C_1 
REMARK    2  A    between atoms: N_7  and  S_2 
REMARK    3  A    between atoms: C_5  and  C_11 
REMARK    4  A    between atoms: C_11  and  N_7 
REMARK    5  A    between atoms: O_14  and  C_10 
REMARK    6  A    between atoms: C_16  and  O_14 
ROOT
ATOM      1  C   UNL d   1      -2.734  -2.963  -3.795  0.00  0.00     0.011 C 
ATOM      2  C   UNL d   1      -3.392  -2.551  -4.971  0.00  0.00     0.085 C 
ATOM      3  C   UNL d   1      -2.084  -4.212  -3.822  0.00  0.00     0.044 C 
ATOM      4 CL   UNL d   1      -1.086  -4.772  -2.523  0.00  0.00    -0.084 Cl
ATOM      5  C   UNL d   1      -3.549  -3.439  -6.050  0.00  0.00     0.038 C 
ATOM      6  C   UNL d   1      -2.934  -4.684  -6.038  0.00  0.00     0.004 C 
ATOM      7  C   UNL d   1      -2.176  -5.056  -4.935  0.00  0.00     0.024 C 
ENDROOT
BRANCH   1   8
ATOM      8  C   UNL d   1      -2.744  -2.091  -2.562  0.00  0.00     0.147 C 
BRANCH   8   9
ATOM      9  N   UNL d   1      -4.052  -1.825  -1.932  0.00  0.00    -0.210 NA
ATOM     10  H   UNL d   1      -3.992  -1.202  -1.127  0.00  0.00     0.140 HD
BRANCH   9  11
ATOM     11  S   UNL d   1      -5.071  -3.106  -1.531  0.00  0.00     0.258 S 
ATOM     12  O   UNL d   1      -5.442  -3.829  -2.731  0.00  0.00    -0.204 OA
ATOM     13  O   UNL d   1      -6.069  -2.575  -0.630  0.00  0.00    -0.204 OA
BRANCH  11  14
ATOM     14  C   UNL d   1      -4.190  -4.266  -0.567  0.00  0.00     0.160 A 
ATOM     15  N   UNL d   1      -3.437  -3.918   0.547  0.00  0.00    -0.341 N 
ATOM     16  C   UNL d   1      -2.912  -5.049   0.968  0.00  0.00     0.183 A 
ATOM     17  HN  UNL d   1      -3.316  -2.989   0.950  1.00  0.00     0.167 HD
ATOM     18  N   UNL d   1      -3.244  -6.093   0.150  0.00  0.00    -0.354 N 
ATOM     19  C   UNL d   1      -4.076  -5.619  -0.821  0.00  0.00     0.134 A 
ATOM     20  C   UNL d   1      -2.751  -7.442   0.269  0.00  0.00     0.156 C 
ENDBRANCH  11  14
ENDBRANCH   9  11
ENDBRANCH   8   9
ENDBRANCH   1   8
BRANCH   2  21
ATOM     21  O   UNL d   1      -3.877  -1.253  -5.035  0.00  0.00    -0.310 OA
BRANCH  21  22
ATOM     22  C   UNL d   1      -3.846  -0.630  -6.268  0.00  0.00     0.076 A 
ATOM     23  C   UNL d   1      -5.001   0.036  -6.677  0.00  0.00     0.037 A 
ATOM     24  C   UNL d   1      -5.066   0.592  -7.957  0.00  0.00     0.003 A 
ATOM     25  C   UNL d   1      -3.973   0.491  -8.820  0.00  0.00     0.000 A 
ATOM     26  C   UNL d   1      -2.798  -0.125  -8.391  0.00  0.00     0.003 A 
ATOM     27  C   UNL d   1      -2.724  -0.663  -7.106  0.00  0.00     0.037 A 
ENDBRANCH  21  22
ENDBRANCH   2  21
TORSDOF 6
