REMARK  1 active torsions:
REMARK  status: ('A' for Active; 'I' for Inactive)
REMARK    1  A    between atoms: C_2  and  C_7 
REMARK       I    between atoms: N_6  and  C_2 
ROOT
ATOM      1  N   UNL d   1      -2.053  -3.228  -3.606  0.00  0.00    -0.061 NA
ATOM      2  N   UNL d   1      -1.986  -2.704  -2.394  0.00  0.00    -0.292 N 
ATOM      3  HN  UNL d   1      -1.412  -3.081  -1.641  1.00  0.00     0.183 HD
ATOM      4  C   UNL d   1      -2.791  -1.577  -2.269  0.00  0.00     0.064 A 
ATOM      5  C   UNL d   1      -3.788   0.343  -1.155  0.00  0.00     0.034 A 
ATOM      6  S   UNL d   1      -3.079  -2.391  -4.623  0.00  0.00     0.002 SA
ATOM      7  C   UNL d   1      -3.510  -1.236  -3.418  0.00  0.00     0.047 A 
ATOM      8  C   UNL d   1      -2.937  -0.773  -1.120  0.00  0.00     0.049 A 
ATOM      9  C   UNL d   1      -4.543   0.615  -2.299  0.00  0.00     0.018 A 
ATOM     10  C   UNL d   1      -4.393  -0.149  -3.463  0.00  0.00     0.023 A 
ENDROOT
BRANCH   5  11
ATOM     11  C   UNL d   1      -3.922   1.152   0.085  0.00  0.00     0.253 C 
ATOM     12  N   UNL d   1      -4.035   2.545   0.022  0.00  0.00    -0.348 N 
ATOM     13  C   UNL d   1      -4.163   3.256   1.296  0.00  0.00     0.126 C 
ATOM     14  C   UNL d   1      -3.538   3.370  -1.082  0.00  0.00     0.126 C 
ATOM     15  C   UNL d   1      -4.997   4.528   1.160  0.00  0.00     0.020 C 
ATOM     16  C   UNL d   1      -4.521   5.405   0.004  0.00  0.00     0.003 C 
ATOM     17  C   UNL d   1      -4.430   4.591  -1.284  0.00  0.00     0.020 C 
ATOM     18  O   UNL d   1      -3.937   0.531   1.149  0.00  0.00    -0.267 OA
ENDBRANCH   5  11
TORSDOF 1
