REMARK  6 active torsions:
REMARK  status: ('A' for Active; 'I' for Inactive)
REMARK    1  A    between atoms: O_3  and  S_1 
REMARK    2  A    between atoms: C_4  and  S_1 
REMARK    3  A    between atoms: C_2  and  C_5 
REMARK    4  A    between atoms: C_8  and  C_2 
REMARK    5  A    between atoms: O_12  and  C_2 
REMARK    6  A    between atoms: C_5  and  O_3 
ROOT
ATOM      1  S   UNL d   1       1.166   0.071  -0.031  0.00  0.00     0.298 S 
ATOM      2  O   UNL d   1       0.574   1.277  -0.568  0.00  0.00    -0.193 OA
ATOM      3  O   UNL d   1       2.603  -0.074   0.087  0.00  0.00    -0.193 OA
ENDROOT
BRANCH   1   4
ATOM      4  O   UNL d   1       0.622  -1.184  -0.924  0.00  0.00    -0.268 OA
BRANCH   4   5
ATOM      5  C   UNL d   1       1.021  -1.184  -2.296  0.00  0.00     0.235 C 
BRANCH   5   6
ATOM      6  C   UNL d   1       0.473  -2.413  -3.032  0.00  0.00     0.136 C 
ATOM      7  C   UNL d   1       0.879  -2.381  -4.505  0.00  0.00     0.056 C 
BRANCH   6   8
ATOM      8  C   UNL d   1       0.954  -3.719  -2.370  0.00  0.00     0.159 C 
ATOM      9  O   UNL d   1       0.144  -4.515  -1.881  0.00  0.00    -0.295 OA
ATOM     10  C   UNL d   1       2.432  -4.010  -2.304  0.00  0.00     0.094 C 
ENDBRANCH   6   8
BRANCH   6  11
ATOM     11  O   UNL d   1      -0.960  -2.358  -3.005  0.00  0.00    -0.380 OA
ATOM     12  H   UNL d   1      -1.236  -2.788  -2.171  0.00  0.00     0.211 HD
ENDBRANCH   6  11
ENDBRANCH   5   6
ENDBRANCH   4   5
ENDBRANCH   1   4
BRANCH   1  13
ATOM     13  C   UNL d   1       0.494  -0.178   1.591  0.00  0.00     0.086 A 
ATOM     14  C   UNL d   1       0.263  -1.471   2.062  0.00  0.00     0.026 A 
ATOM     15  C   UNL d   1      -0.271  -1.645   3.340  0.00  0.00     0.008 A 
ATOM     16  C   UNL d   1      -0.581  -0.537   4.143  0.00  0.00    -0.062 A 
ATOM     17  C   UNL d   1      -0.344   0.754   3.654  0.00  0.00     0.008 A 
ATOM     18  C   UNL d   1      -1.162  -0.747   5.511  0.00  0.00     0.048 C 
ATOM     19  C   UNL d   1       0.190   0.936   2.377  0.00  0.00     0.026 A 
ENDBRANCH   1  13
TORSDOF 6
