REMARK  8 active torsions:
REMARK  status: ('A' for Active; 'I' for Inactive)
REMARK    1  A    between atoms: N_8  and  S_1 
REMARK    2  A    between atoms: C_2  and  C_7 
REMARK    3  A    between atoms: O_9  and  N_3 
REMARK    4  A    between atoms: C_5  and  C_14 
REMARK    5  A    between atoms: N_21  and  C_5 
REMARK    6  A    between atoms: C_6  and  O_9 
REMARK    7  A    between atoms: C_10  and  C_6 
REMARK    8  A    between atoms: C_22  and  N_8 
ROOT
ATOM      1  N   UNL d   1       0.921  -3.499  -7.054  0.00  0.00    -0.246 N 
ATOM      2  HN  UNL d   1       1.198  -3.774  -7.996  1.00  0.00     0.196 HD
ATOM      3  C   UNL d   1       1.729  -2.947  -6.196  0.00  0.00     0.109 C 
ENDROOT
BRANCH   3   4
ATOM      4  C   UNL d   1       3.175  -2.758  -6.597  0.00  0.00     0.004 A 
ATOM      5  C   UNL d   1       3.617  -3.189  -7.858  0.00  0.00     0.016 A 
ATOM      6  C   UNL d   1       4.962  -3.054  -8.230  0.00  0.00     0.025 A 
ATOM      7  C   UNL d   1       5.875  -2.489  -7.342  0.00  0.00     0.022 A 
ATOM      8  C   UNL d   1       5.452  -2.054  -6.089  0.00  0.00     0.025 A 
ATOM      9  C   UNL d   1       4.105  -2.173  -5.723  0.00  0.00     0.016 A 
BRANCH   7  10
ATOM     10  N   UNL d   1       7.253  -2.368  -7.690  0.00  0.00    -0.186 NA
ATOM     11  H   UNL d   1       7.422  -1.990  -8.626  0.00  0.00     0.145 HD
BRANCH  10  12
ATOM     12  S   UNL d   1       8.236  -3.736  -7.491  0.00  0.00     0.210 S 
ATOM     13  O   UNL d   1       9.225  -3.643  -8.543  0.00  0.00    -0.211 OA
ATOM     14  O   UNL d   1       7.427  -4.921  -7.317  0.00  0.00    -0.211 OA
ATOM     15  C   UNL d   1       9.052  -3.363  -5.953  0.00  0.00     0.180 C 
ENDBRANCH  10  12
ENDBRANCH   7  10
ENDBRANCH   3   4
BRANCH   3  16
ATOM     16  N   UNL d   1       1.316  -2.553  -4.943  0.00  0.00    -0.286 NA
ATOM     17  H   UNL d   1       0.398  -2.916  -4.716  0.00  0.00     0.125 HD
ATOM     18  H   UNL d   1       1.974  -2.699  -4.188  0.00  0.00     0.125 HD
ENDBRANCH   3  16
BRANCH   1  19
ATOM     19  O   UNL d   1      -0.386  -3.678  -6.537  0.00  0.00    -0.193 OA
BRANCH  19  20
ATOM     20  C   UNL d   1      -1.175  -4.258  -7.495  0.00  0.00     0.315 C 
ATOM     21  O   UNL d   1      -0.863  -4.524  -8.648  0.00  0.00    -0.257 OA
BRANCH  20  22
ATOM     22  C   UNL d   1      -2.536  -4.580  -6.963  0.00  0.00     0.042 A 
ATOM     23  C   UNL d   1      -2.937  -4.339  -5.639  0.00  0.00     0.034 A 
ATOM     24  C   UNL d   1      -4.229  -4.705  -5.203  0.00  0.00     0.048 A 
ATOM     25  C   UNL d   1      -5.118  -5.301  -6.112  0.00  0.00     0.016 A 
ATOM     26  C   UNL d   1      -4.728  -5.538  -7.428  0.00  0.00     0.002 A 
ATOM     27  C   UNL d   1      -3.447  -5.182  -7.847  0.00  0.00     0.018 A 
BRANCH  24  28
ATOM     28  C   UNL d   1      -4.675  -4.485  -3.775  0.00  0.00     0.417 C 
ATOM     29  F   UNL d   1      -3.718  -3.916  -2.990  0.00  0.00    -0.166 F 
ATOM     30  F   UNL d   1      -5.764  -3.674  -3.687  0.00  0.00    -0.166 F 
ATOM     31  F   UNL d   1      -5.022  -5.648  -3.157  0.00  0.00    -0.166 F 
ENDBRANCH  24  28
ENDBRANCH  20  22
ENDBRANCH  19  20
ENDBRANCH   1  19
TORSDOF 8
