REMARK  2 active torsions:
REMARK  status: ('A' for Active; 'I' for Inactive)
REMARK    1  A    between atoms: N_14  and  C_4 
REMARK    2  A    between atoms: C_13  and  C_6 
ROOT
ATOM      1  C   UNL d   1      -0.262  -0.595   0.041  0.00  0.00     0.173 A 
ATOM      2  C   UNL d   1      -0.312   0.774   0.086  0.00  0.00     0.032 A 
ATOM      3  C   UNL d   1       2.197   0.646  -0.129  0.00  0.00     0.080 A 
ATOM      4  C   UNL d   1       2.050  -0.718  -0.190  0.00  0.00     0.140 A 
ATOM      5  O   UNL d   1       0.808  -1.374  -0.040  0.00  0.00    -0.279 OA
ATOM      6  C   UNL d   1       0.962   1.563   0.084  0.00  0.00     0.105 A 
ATOM      7  N   UNL d   1      -1.543  -1.042   0.053  0.00  0.00    -0.279 N 
ATOM      8  N   UNL d   1      -2.443  -0.041   0.102  0.00  0.00    -0.303 N 
ATOM      9  HN  UNL d   1      -3.460  -0.115   0.127  1.00  0.00     0.186 HD
ATOM     10  C   UNL d   1      -1.698   1.078   0.110  0.00  0.00     0.033 A 
ATOM     11  C   UNL d   1       3.502   1.290  -0.374  0.00  0.00     0.100 C 
ATOM     12  N   UNL d   1       4.532   1.787  -0.571  0.00  0.00    -0.191 NA
ATOM     13  C   UNL d   1      -2.374   2.399   0.104  0.00  0.00     0.070 C 
ATOM     14  H   UNL d   1      -1.876  -1.999   0.012  0.00  0.00     0.189 HD
ENDROOT
BRANCH   4  15
ATOM     15  N   UNL d   1       3.078  -1.595  -0.446  0.00  0.00    -0.282 NA
ATOM     16  H   UNL d   1       4.016  -1.257  -0.248  0.00  0.00     0.126 HD
ATOM     17  H   UNL d   1       2.898  -2.536  -0.110  0.00  0.00     0.126 HD
ENDBRANCH   4  15
BRANCH   6  18
ATOM     18  C   UNL d   1       0.825   2.601  -1.017  0.00  0.00    -0.044 A 
ATOM     19  C   UNL d   1       0.925   3.965  -0.696  0.00  0.00     0.008 A 
ATOM     20  C   UNL d   1       0.829   4.939  -1.691  0.00  0.00     0.001 A 
ATOM     21  C   UNL d   1       0.643   4.564  -3.019  0.00  0.00     0.000 A 
ATOM     22  C   UNL d   1       0.555   3.216  -3.357  0.00  0.00     0.001 A 
ATOM     23  C   UNL d   1       0.648   2.240  -2.365  0.00  0.00     0.008 A 
ENDBRANCH   6  18
TORSDOF 2
