REMARK  3 active torsions:
REMARK  status: ('A' for Active; 'I' for Inactive)
REMARK    1  A    between atoms: C_2  and  C_1 
REMARK    2  A    between atoms: N_6  and  C_1 
REMARK    3  A    between atoms: O_7  and  N_3 
ROOT
ATOM      1  C   UNL d   1       2.479   0.001   0.069  0.00  0.00     0.108 C 
ATOM      2  N   UNL d   1       3.090  -1.050   0.539  0.00  0.00    -0.258 N 
ATOM      3  HN  UNL d   1       4.039  -1.047   0.913  1.00  0.00     0.195 HD
ENDROOT
BRANCH   1   4
ATOM      4  C   UNL d   1       3.207   1.306   0.054  0.00  0.00     0.004 A 
ATOM      5  C   UNL d   1       2.498   2.514   0.093  0.00  0.00     0.021 A 
ATOM      6  C   UNL d   1       3.183   3.737   0.091  0.00  0.00    -0.061 A 
ATOM      7  C   UNL d   1       2.442   5.040   0.162  0.00  0.00     0.048 C 
ATOM      8  C   UNL d   1       4.583   3.736   0.042  0.00  0.00     0.007 A 
ATOM      9  C   UNL d   1       5.291   2.534   0.003  0.00  0.00     0.002 A 
ATOM     10  C   UNL d   1       4.604   1.320   0.013  0.00  0.00     0.015 A 
ENDBRANCH   1   4
BRANCH   1  11
ATOM     11  N   UNL d   1       1.195  -0.057  -0.424  0.00  0.00    -0.287 NA
ATOM     12  H   UNL d   1       1.045   0.474  -1.273  0.00  0.00     0.125 HD
ATOM     13  H   UNL d   1       0.926  -1.032  -0.531  0.00  0.00     0.125 HD
ENDBRANCH   1  11
BRANCH   2  14
ATOM     14  O   UNL d   1       2.268  -2.186   0.463  0.00  0.00    -0.289 OA
ATOM     15  H   UNL d   1       2.792  -2.844   0.956  0.00  0.00     0.244 HD
ENDBRANCH   2  14
TORSDOF 3
