REMARK  3 active torsions:
REMARK  status: ('A' for Active; 'I' for Inactive)
REMARK    1  A    between atoms: C_7  and  C_3 
REMARK    2  A    between atoms: C_9  and  N_4 
REMARK       I    between atoms: N_8  and  C_7 
REMARK    3  A    between atoms: C_13  and  N_8 
ROOT
ATOM      1  N   UNL d   1       0.917  -0.583  -0.055  0.00  0.00    -0.292 N 
ATOM      2  HN  UNL d   1       1.768  -1.144  -0.092  1.00  0.00     0.187 HD
ATOM      3  C   UNL d   1      -0.353  -1.022  -0.001  0.00  0.00     0.118 A 
ATOM      4  N   UNL d   1       0.818   0.785  -0.049  0.00  0.00    -0.287 N 
ATOM      5  C   UNL d   1      -1.255   0.062   0.067  0.00  0.00     0.063 A 
ATOM      6  C   UNL d   1      -0.497   1.209   0.028  0.00  0.00     0.028 A 
ATOM      7  C   UNL d   1      -1.019   2.598   0.058  0.00  0.00     0.070 C 
ENDROOT
BRANCH   3   8
ATOM      8  C   UNL d   1      -0.771  -2.437  -0.027  0.00  0.00     0.274 C 
ATOM      9  N   UNL d   1       0.248  -3.366  -0.073  0.00  0.00    -0.320 N 
ATOM     10  H   UNL d   1       1.185  -2.993   0.038  0.00  0.00     0.169 HD
ATOM     11  O   UNL d   1      -1.970  -2.715   0.005  0.00  0.00    -0.266 OA
BRANCH   9  12
ATOM     12  C   UNL d   1       0.067  -4.765  -0.232  0.00  0.00     0.050 A 
ATOM     13  C   UNL d   1      -1.143  -5.367  -0.589  0.00  0.00     0.117 A 
ATOM     14  N   UNL d   1      -1.320  -6.701  -0.778  0.00  0.00    -0.373 N 
ATOM     15  C   UNL d   1      -0.243  -7.486  -0.595  0.00  0.00     0.088 A 
ATOM     16  HN  UNL d   1      -2.225  -7.089  -1.046  1.00  0.00     0.164 HD
ATOM     17  C   UNL d   1       1.001  -6.997  -0.232  0.00  0.00     0.019 A 
ATOM     18  C   UNL d   1       1.157  -5.618  -0.057  0.00  0.00     0.032 A 
ENDBRANCH   9  12
ENDBRANCH   3   8
BRANCH   4  19
ATOM     19  C   UNL d   1       2.055   1.600  -0.064  0.00  0.00     0.043 C 
ATOM     20  C   UNL d   1       3.319   0.712  -0.205  0.00  0.00     0.039 C 
ATOM     21  C   UNL d   1       2.080   2.579  -1.258  0.00  0.00     0.039 C 
ATOM     22  C   UNL d   1       2.198   2.372   1.264  0.00  0.00     0.039 C 
ENDBRANCH   4  19
TORSDOF 3
