REMARK  5 active torsions:
REMARK  status: ('A' for Active; 'I' for Inactive)
REMARK    1  A    between atoms: C_16  and  C_1 
REMARK    2  A    between atoms: C_8  and  C_19 
REMARK       I    between atoms: N_9  and  C_8 
REMARK    3  A    between atoms: C_10  and  N_9 
REMARK    4  A    between atoms: S_14  and  C_16 
REMARK    5  A    between atoms: C_19  and  S_14 
ROOT
ATOM      1  C   UNL d   1      -1.680  -6.194   0.423  0.00  0.00     0.231 C 
ATOM      2  N   UNL d   1      -2.873  -5.495   0.476  0.00  0.00    -0.326 N 
ATOM      3  O   UNL d   1      -1.588  -7.420   0.365  0.00  0.00    -0.272 OA
ATOM      4  H   UNL d   1      -2.801  -4.485   0.403  0.00  0.00     0.169 HD
ENDROOT
BRANCH   1   5
ATOM      5  C   UNL d   1      -0.417  -5.363   0.287  0.00  0.00     0.177 C 
BRANCH   5   6
ATOM      6  S   UNL d   1      -0.421  -3.760   1.152  0.00  0.00    -0.155 SA
BRANCH   6   7
ATOM      7  C   UNL d   1       1.316  -3.344   0.814  0.00  0.00     0.114 C 
BRANCH   7   8
ATOM      8  C   UNL d   1       1.850  -2.169   1.575  0.00  0.00    -0.031 A 
ATOM      9  C   UNL d   1       2.445  -2.278   2.821  0.00  0.00     0.059 A 
ATOM     10  S   UNL d   1       3.207  -0.840   3.322  0.00  0.00    -0.101 SA
ATOM     11  C   UNL d   1       2.735  -0.006   1.895  0.00  0.00     0.015 A 
ATOM     12  C   UNL d   1       1.941  -0.811   1.070  0.00  0.00    -0.011 A 
ATOM     13  C   UNL d   1       3.076   1.316   1.542  0.00  0.00     0.019 A 
ATOM     14  C   UNL d   1       1.423  -0.222  -0.113  0.00  0.00     0.013 A 
ATOM     15  C   UNL d   1       1.732   1.101  -0.451  0.00  0.00     0.001 A 
ATOM     16  C   UNL d   1       2.569   1.854   0.359  0.00  0.00     0.001 A 
ENDBRANCH   7   8
ENDBRANCH   6   7
ENDBRANCH   5   6
ENDBRANCH   1   5
BRANCH   2  17
ATOM     17  C   UNL d   1      -4.168  -6.048   0.596  0.00  0.00     0.036 A 
ATOM     18  C   UNL d   1      -4.408  -7.394   0.906  0.00  0.00     0.056 A 
ATOM     19  C   UNL d   1      -5.717  -7.873   1.030  0.00  0.00     0.074 A 
ATOM     20 CL   UNL d   1      -5.981  -9.525   1.440  0.00  0.00    -0.081 Cl
ATOM     21  C   UNL d   1      -6.792  -7.013   0.834  0.00  0.00     0.138 A 
ATOM     22  C   UNL d   1      -6.572  -5.676   0.522  0.00  0.00     0.046 A 
ATOM     23  F   UNL d   1      -8.054  -7.453   0.947  0.00  0.00    -0.204 F 
ATOM     24  C   UNL d   1      -5.263  -5.193   0.411  0.00  0.00     0.032 A 
ENDBRANCH   2  17
TORSDOF 5
