REMARK  4 active torsions:
REMARK  status: ('A' for Active; 'I' for Inactive)
REMARK    1  A    between atoms: C_5  and  C_1 
REMARK    2  A    between atoms: C_3  and  C_2 
REMARK       I    between atoms: N_14  and  C_5 
REMARK    3  A    between atoms: C_10  and  N_6 
REMARK    4  A    between atoms: C_15  and  C_10 
ROOT
ATOM      1  C   UNL d   1       0.589  -1.355   0.062  0.00  0.00     0.037 C 
ATOM      2  C   UNL d   1       1.508  -0.155   0.213  0.00  0.00     0.135 C 
ATOM      3  C   UNL d   1      -0.729  -1.188  -0.134  0.00  0.00     0.099 C 
ATOM      4  N   UNL d   1      -1.352   0.051  -0.137  0.00  0.00    -0.385 N 
ATOM      5  C   UNL d   1       0.811   1.151  -0.236  0.00  0.00     0.038 C 
ATOM      6  C   UNL d   1      -0.615   1.235   0.316  0.00  0.00     0.123 C 
ENDROOT
BRANCH   4   7
ATOM      7  C   UNL d   1      -2.756   0.240  -0.520  0.00  0.00     0.160 C 
BRANCH   7   8
ATOM      8  C   UNL d   1      -3.688   0.140   0.664  0.00  0.00    -0.040 A 
ATOM      9  C   UNL d   1      -4.050   1.286   1.387  0.00  0.00     0.009 A 
ATOM     10  C   UNL d   1      -4.929   1.194   2.468  0.00  0.00     0.001 A 
ATOM     11  C   UNL d   1      -5.452  -0.042   2.840  0.00  0.00     0.000 A 
ATOM     12  C   UNL d   1      -5.095  -1.190   2.134  0.00  0.00     0.001 A 
ATOM     13  C   UNL d   1      -4.216  -1.100   1.054  0.00  0.00     0.009 A 
ENDBRANCH   7   8
ENDBRANCH   4   7
BRANCH   1  14
ATOM     14  C   UNL d   1       1.256  -2.685   0.058  0.00  0.00     0.247 C 
ATOM     15  O   UNL d   1       2.466  -2.790  -0.105  0.00  0.00    -0.268 OA
ATOM     16  N   UNL d   1       0.483  -3.772   0.305  0.00  0.00    -0.366 N 
ATOM     17  H   UNL d   1      -0.470  -3.713   0.632  0.00  0.00     0.159 HD
ATOM     18  H   UNL d   1       0.961  -4.659   0.395  0.00  0.00     0.159 HD
ENDBRANCH   1  14
BRANCH   2  19
ATOM     19  C   UNL d   1       2.091  -0.033   1.625  0.00  0.00     0.395 C 
ATOM     20  F   UNL d   1       1.730  -1.046   2.447  0.00  0.00    -0.170 F 
ATOM     21  F   UNL d   1       3.444  -0.013   1.583  0.00  0.00    -0.170 F 
ATOM     22  F   UNL d   1       1.709   1.116   2.234  0.00  0.00    -0.170 F 
ENDBRANCH   2  19
TORSDOF 4
