REMARK  6 active torsions:
REMARK  status: ('A' for Active; 'I' for Inactive)
REMARK    1  A    between atoms: N_8  and  C_1 
REMARK    2  A    between atoms: C_6  and  C_3 
REMARK    3  A    between atoms: C_18  and  N_11 
REMARK    4  A    between atoms: C_13  and  C_12 
REMARK    5  A    between atoms: O_25  and  C_13 
REMARK    6  A    between atoms: C_28  and  O_25 
ROOT
ATOM      1  C   UNL d   1      -1.136  -1.504  -0.071  0.00  0.00     0.045 A 
ATOM      2  C   UNL d   1       0.086  -0.777  -0.107  0.00  0.00     0.018 A 
ATOM      3  C   UNL d   1      -2.291   0.627  -0.142  0.00  0.00     0.119 A 
ATOM      4  N   UNL d   1      -1.122   1.317  -0.186  0.00  0.00    -0.352 N 
ATOM      5  HN  UNL d   1      -1.121   2.336  -0.231  1.00  0.00     0.166 HD
ATOM      6  C   UNL d   1      -2.323  -0.764  -0.108  0.00  0.00     0.064 A 
ATOM      7  C   UNL d   1       0.028   0.634  -0.170  0.00  0.00     0.045 A 
ATOM      8  C   UNL d   1       1.361  -1.380  -0.012  0.00  0.00     0.033 A 
ATOM      9  C   UNL d   1       2.543  -0.636  -0.046  0.00  0.00     0.040 A 
ATOM     10  C   UNL d   1       1.210   1.365  -0.175  0.00  0.00     0.031 A 
ATOM     11  C   UNL d   1       2.465   0.750  -0.125  0.00  0.00     0.020 A 
ENDROOT
BRANCH   1  12
ATOM     12  N   UNL d   1      -1.169  -2.883   0.110  0.00  0.00    -0.377 N 
ATOM     13  C   UNL d   1      -2.282  -3.506   0.857  0.00  0.00     0.143 C 
ATOM     14  C   UNL d   1      -1.751  -4.739   1.615  0.00  0.00     0.143 C 
ATOM     15  N   UNL d   1      -1.127  -5.679   0.665  0.00  0.00    -0.378 N 
ATOM     16  C   UNL d   1      -0.040  -5.091  -0.144  0.00  0.00     0.143 C 
ATOM     17  C   UNL d   1      -0.557  -3.813  -0.874  0.00  0.00     0.143 C 
BRANCH  15  18
ATOM     18  C   UNL d   1      -1.431  -7.022   0.674  0.00  0.00     0.030 A 
ATOM     19  C   UNL d   1      -0.475  -8.010   0.386  0.00  0.00     0.029 A 
ATOM     20  C   UNL d   1      -0.805  -9.369   0.379  0.00  0.00     0.002 A 
ATOM     21  C   UNL d   1      -2.105  -9.780   0.656  0.00  0.00     0.000 A 
ATOM     22  C   UNL d   1      -3.074  -8.824   0.940  0.00  0.00     0.002 A 
ATOM     23  C   UNL d   1      -2.732  -7.469   0.945  0.00  0.00     0.029 A 
ENDBRANCH  15  18
ENDBRANCH   1  12
BRANCH   3  24
ATOM     24  C   UNL d   1      -3.610   1.384  -0.086  0.00  0.00     0.432 C 
ATOM     25  F   UNL d   1      -3.483   2.738  -0.006  0.00  0.00    -0.165 F 
ATOM     26  F   UNL d   1      -4.396   1.145  -1.176  0.00  0.00    -0.165 F 
ATOM     27  F   UNL d   1      -4.369   1.021   0.992  0.00  0.00    -0.165 F 
ENDBRANCH   3  24
BRANCH   9  28
ATOM     28  C   UNL d   1       3.821  -1.381   0.072  0.00  0.00     0.293 C 
ATOM     29  O   UNL d   1       3.886  -2.600   0.079  0.00  0.00    -0.259 OA
BRANCH  28  30
ATOM     30  O   UNL d   1       4.845  -0.520   0.279  0.00  0.00    -0.318 OA
BRANCH  30  31
ATOM     31  C   UNL d   1       6.024  -1.111   0.840  0.00  0.00     0.174 C 
ATOM     32  C   UNL d   1       5.892  -1.060   2.352  0.00  0.00     0.034 C 
ENDBRANCH  30  31
ENDBRANCH  28  30
ENDBRANCH   9  28
TORSDOF 6
