REMARK  5 active torsions:
REMARK  status: ('A' for Active; 'I' for Inactive)
REMARK    1  A    between atoms: C_2  and  C_1 
REMARK    2  A    between atoms: C_3  and  C_1 
REMARK    3  A    between atoms: O_9  and  C_1 
REMARK    4  A    between atoms: C_4  and  C_2 
REMARK    5  A    between atoms: O_10  and  C_2 
REMARK       I    between atoms: N_5  and  C_3 
REMARK       I    between atoms: N_6  and  C_4 
ROOT
ATOM      1  C   UNL d   1       0.859   0.016   0.062  0.00  0.00     0.247 C 
ENDROOT
BRANCH   1   2
ATOM      2  C   UNL d   1       0.448   1.494  -0.098  0.00  0.00     0.247 C 
BRANCH   2   3
ATOM      3  C   UNL d   1      -1.087   1.625   0.029  0.00  0.00     0.251 C 
ATOM      4  N   UNL d   1      -1.834   1.534  -1.133  0.00  0.00    -0.350 N 
ATOM      5  C   UNL d   1      -3.282   1.585  -1.116  0.00  0.00     0.126 C 
ATOM      6  C   UNL d   1      -1.341   1.768  -2.479  0.00  0.00     0.126 C 
ATOM      7  C   UNL d   1      -3.656   1.053  -2.489  0.00  0.00     0.021 C 
ATOM      8  C   UNL d   1      -2.551   1.593  -3.393  0.00  0.00     0.021 C 
ATOM      9  O   UNL d   1      -1.613   1.786   1.127  0.00  0.00    -0.270 OA
ENDBRANCH   2   3
BRANCH   2  10
ATOM     10  O   UNL d   1       1.075   2.312   0.897  0.00  0.00    -0.383 OA
ATOM     11  H   UNL d   1       0.633   2.098   1.741  0.00  0.00     0.210 HD
ENDBRANCH   2  10
ENDBRANCH   1   2
BRANCH   1  12
ATOM     12  C   UNL d   1       2.378  -0.127  -0.181  0.00  0.00     0.251 C 
ATOM     13  N   UNL d   1       2.803  -0.417  -1.462  0.00  0.00    -0.350 N 
ATOM     14  C   UNL d   1       4.217  -0.496  -1.788  0.00  0.00     0.126 C 
ATOM     15  C   UNL d   1       2.017  -1.079  -2.481  0.00  0.00     0.126 C 
ATOM     16  C   UNL d   1       4.216  -0.491  -3.308  0.00  0.00     0.021 C 
ATOM     17  C   UNL d   1       2.959  -1.280  -3.664  0.00  0.00     0.021 C 
ATOM     18  O   UNL d   1       3.175   0.033   0.748  0.00  0.00    -0.270 OA
ENDBRANCH   1  12
BRANCH   1  19
ATOM     19  O   UNL d   1       0.542  -0.467   1.372  0.00  0.00    -0.383 OA
ATOM     20  H   UNL d   1       1.185  -0.048   1.976  0.00  0.00     0.210 HD
ENDBRANCH   1  19
TORSDOF 5
