REMARK  11 active torsions:
REMARK  status: ('A' for Active; 'I' for Inactive)
REMARK    1  A    between atoms: S_16  and  C_1 
REMARK    2  A    between atoms: C_2  and  S_15 
REMARK    3  A    between atoms: C_24  and  N_3 
REMARK    4  A    between atoms: C_25  and  N_4 
REMARK    5  A    between atoms: O_41  and  C_9 
REMARK    6  A    between atoms: O_40  and  C_10 
REMARK    7  A    between atoms: S_15  and  C_21 
REMARK    8  A    between atoms: C_22  and  S_16 
REMARK    9  A    between atoms: S_33  and  C_23 
REMARK   10  A    between atoms: C_26  and  C_30 
REMARK   11  A    between atoms: C_27  and  C_29 
ROOT
ATOM      1  N   UNL d   1       3.257  -5.298   0.317  0.00  0.00    -0.331 N 
ATOM      2  HN  UNL d   1       4.123  -5.828   0.415  1.00  0.00     0.168 HD
ATOM      3  N   UNL d   1       1.249  -4.866  -0.886  0.00  0.00    -0.331 N 
ATOM      4  HN  UNL d   1       0.633  -5.084  -1.670  1.00  0.00     0.168 HD
ATOM      5  C   UNL d   1       2.909  -4.337   1.191  0.00  0.00     0.082 A 
ATOM      6  C   UNL d   1       0.947  -3.905   0.007  0.00  0.00     0.082 A 
ATOM      7  C   UNL d   1       2.401  -5.521  -0.690  0.00  0.00     0.145 A 
ATOM      8  C   UNL d   1       1.747  -3.604   1.084  0.00  0.00     0.074 A 
ENDROOT
BRANCH   5   9
ATOM      9  S   UNL d   1       3.998  -4.089   2.579  0.00  0.00    -0.034 SA
BRANCH   9  10
ATOM     10  C   UNL d   1       5.127  -2.991   1.841  0.00  0.00     0.175 A 
ATOM     11  N   UNL d   1       6.483  -2.918   2.142  0.00  0.00    -0.255 N 
ATOM     12  C   UNL d   1       6.877  -1.729   1.537  0.00  0.00     0.245 A 
ATOM     13  N   UNL d   1       5.863  -1.163   0.927  0.00  0.00    -0.263 N 
ATOM     14  N   UNL d   1       4.764  -1.960   1.109  0.00  0.00    -0.276 N 
ATOM     15  HN  UNL d   1       5.888  -0.285   0.410  1.00  0.00     0.190 HD
ATOM     16  HN  UNL d   1       3.829  -1.786   0.741  1.00  0.00     0.189 HD
BRANCH  11  17
ATOM     17  C   UNL d   1       7.299  -3.815   2.888  0.00  0.00     0.046 A 
ATOM     18  C   UNL d   1       7.062  -5.197   2.843  0.00  0.00     0.046 A 
ATOM     19  C   UNL d   1       7.841  -6.087   3.601  0.00  0.00     0.050 A 
ATOM     20  C   UNL d   1       8.886  -5.579   4.384  0.00  0.00     0.016 A 
ATOM     21  C   UNL d   1       9.143  -4.210   4.417  0.00  0.00     0.003 A 
ATOM     22  C   UNL d   1       8.353  -3.327   3.678  0.00  0.00     0.030 A 
BRANCH  19  23
ATOM     23  C   UNL d   1       7.556  -7.572   3.590  0.00  0.00     0.417 C 
ATOM     24  F   UNL d   1       6.531  -7.920   2.765  0.00  0.00    -0.166 F 
ATOM     25  F   UNL d   1       8.629  -8.303   3.183  0.00  0.00    -0.166 F 
ATOM     26  F   UNL d   1       7.223  -8.043   4.822  0.00  0.00    -0.166 F 
ENDBRANCH  19  23
ENDBRANCH  11  17
BRANCH  12  27
ATOM     27  O   UNL d   1       8.107  -1.235   1.465  0.00  0.00    -0.331 OA
ATOM     28  H   UNL d   1       8.743  -1.959   1.577  0.00  0.00     0.221 HD
ENDBRANCH  12  27
ENDBRANCH   9  10
ENDBRANCH   5   9
BRANCH   7  29
ATOM     29  S   UNL d   1       2.792  -6.815  -1.839  0.00  0.00    -0.098 SA
ATOM     30  C   UNL d   1       4.423  -6.239  -2.366  0.00  0.00     0.099 C 
ENDBRANCH   7  29
BRANCH   6  31
ATOM     31  S   UNL d   1      -0.501  -2.926  -0.345  0.00  0.00    -0.034 SA
BRANCH  31  32
ATOM     32  C   UNL d   1      -1.681  -3.888   0.489  0.00  0.00     0.175 A 
ATOM     33  N   UNL d   1      -2.888  -4.324  -0.044  0.00  0.00    -0.255 N 
ATOM     34  C   UNL d   1      -3.578  -4.779   1.076  0.00  0.00     0.245 A 
ATOM     35  N   UNL d   1      -2.863  -4.612   2.162  0.00  0.00    -0.263 N 
ATOM     36  N   UNL d   1      -1.663  -4.064   1.793  0.00  0.00    -0.276 N 
ATOM     37  HN  UNL d   1      -3.149  -4.847   3.112  1.00  0.00     0.190 HD
ATOM     38  HN  UNL d   1      -0.891  -3.834   2.418  1.00  0.00     0.189 HD
BRANCH  33  39
ATOM     39  C   UNL d   1      -3.356  -4.325  -1.393  0.00  0.00     0.046 A 
ATOM     40  C   UNL d   1      -2.466  -4.498  -2.462  0.00  0.00     0.046 A 
ATOM     41  C   UNL d   1      -2.926  -4.498  -3.791  0.00  0.00     0.050 A 
ATOM     42  C   UNL d   1      -4.299  -4.354  -4.037  0.00  0.00     0.016 A 
ATOM     43  C   UNL d   1      -5.192  -4.192  -2.980  0.00  0.00     0.003 A 
ATOM     44  C   UNL d   1      -4.725  -4.167  -1.664  0.00  0.00     0.030 A 
BRANCH  41  45
ATOM     45  C   UNL d   1      -1.968  -4.646  -4.951  0.00  0.00     0.417 C 
ATOM     46  F   UNL d   1      -0.665  -4.754  -4.574  0.00  0.00    -0.166 F 
ATOM     47  F   UNL d   1      -2.235  -5.749  -5.704  0.00  0.00    -0.166 F 
ATOM     48  F   UNL d   1      -2.024  -3.587  -5.805  0.00  0.00    -0.166 F 
ENDBRANCH  41  45
ENDBRANCH  33  39
BRANCH  34  49
ATOM     49  O   UNL d   1      -4.753  -5.398   1.094  0.00  0.00    -0.331 OA
ATOM     50  H   UNL d   1      -4.883  -5.838   0.239  0.00  0.00     0.221 HD
ENDBRANCH  34  49
ENDBRANCH  31  32
ENDBRANCH   6  31
TORSDOF 11
