REMARK  8 active torsions:
REMARK  status: ('A' for Active; 'I' for Inactive)
REMARK       I    between atoms: N_2  and  C_1 
REMARK    1  A    between atoms: C_4  and  C_1 
REMARK    2  A    between atoms: C_6  and  N_2 
REMARK    3  A    between atoms: O_5  and  C_9 
REMARK    4  A    between atoms: C_8  and  O_5 
REMARK    5  A    between atoms: C_7  and  C_6 
REMARK    6  A    between atoms: C_9  and  C_7 
REMARK    7  A    between atoms: O_15  and  C_7 
REMARK    8  A    between atoms: O_16  and  C_10 
ROOT
ATOM      1  C   UNL d   1      -0.086  -3.657  -0.113  0.00  0.00     0.160 C 
ENDROOT
BRANCH   1   2
ATOM      2  C   UNL d   1       0.913  -2.494  -0.034  0.00  0.00     0.156 C 
BRANCH   2   3
ATOM      3  N   UNL d   1       1.749  -2.568   1.151  0.00  0.00    -0.354 N 
ATOM      4  C   UNL d   1       2.748  -1.646   1.377  0.00  0.00     0.251 C 
ATOM      5  O   UNL d   1       2.942  -0.680   0.647  0.00  0.00    -0.268 OA
ATOM      6  H   UNL d   1       1.567  -3.312   1.812  0.00  0.00     0.162 HD
BRANCH   4   7
ATOM      7  C   UNL d   1       3.599  -1.866   2.580  0.00  0.00     0.032 A 
ATOM      8  C   UNL d   1       3.850  -3.147   3.087  0.00  0.00     0.017 A 
ATOM      9  C   UNL d   1       4.672  -3.308   4.206  0.00  0.00     0.001 A 
ATOM     10  C   UNL d   1       5.249  -2.195   4.817  0.00  0.00     0.000 A 
ATOM     11  C   UNL d   1       5.013  -0.918   4.309  0.00  0.00     0.001 A 
ATOM     12  C   UNL d   1       4.194  -0.753   3.189  0.00  0.00     0.017 A 
ENDBRANCH   4   7
ENDBRANCH   2   3
ENDBRANCH   1   2
BRANCH   1  13
ATOM     13  C   UNL d   1      -0.909  -3.566  -1.408  0.00  0.00     0.209 C 
BRANCH  13  14
ATOM     14  O   UNL d   1      -1.924  -4.577  -1.402  0.00  0.00    -0.349 OA
BRANCH  14  15
ATOM     15  C   UNL d   1      -2.716  -4.650  -2.516  0.00  0.00     0.069 A 
ATOM     16  C   UNL d   1      -2.392  -4.150  -3.777  0.00  0.00     0.039 A 
ATOM     17  C   UNL d   1      -3.275  -4.307  -4.856  0.00  0.00     0.039 A 
ATOM     18  C   UNL d   1      -4.495  -4.958  -4.679  0.00  0.00     0.068 A 
ATOM     19  C   UNL d   1      -4.816  -5.464  -3.419  0.00  0.00     0.039 A 
ATOM     20  C   UNL d   1      -3.929  -5.319  -2.346  0.00  0.00     0.039 A 
BRANCH  18  21
ATOM     21  O   UNL d   1      -5.443  -5.158  -5.644  0.00  0.00    -0.356 OA
ATOM     22  C   UNL d   1      -5.138  -4.684  -6.951  0.00  0.00     0.210 C 
ENDBRANCH  18  21
ENDBRANCH  14  15
ENDBRANCH  13  14
ENDBRANCH   1  13
BRANCH   1  23
ATOM     23  O   UNL d   1       0.643  -4.897  -0.055  0.00  0.00    -0.392 OA
ATOM     24  H   UNL d   1       1.133  -4.998  -0.888  0.00  0.00     0.210 HD
ENDBRANCH   1  23
TORSDOF 8
