REMARK  5 active torsions:
REMARK  status: ('A' for Active; 'I' for Inactive)
REMARK    1  A    between atoms: N_2  and  S_1 
REMARK    2  A    between atoms: C_3  and  S_1 
REMARK    3  A    between atoms: C_7  and  N_2 
REMARK    4  A    between atoms: C_8  and  N_2 
REMARK    5  A    between atoms: C_14  and  C_8 
ROOT
ATOM      1  N   UNL d   1       0.542  -1.472   0.628  0.00  0.00    -0.268 N 
ENDROOT
BRANCH   1   2
ATOM      2  S   UNL d   1       1.062   0.056   0.090  0.00  0.00     0.265 S 
ATOM      3  O   UNL d   1       2.321  -0.109  -0.610  0.00  0.00    -0.200 OA
ATOM      4  O   UNL d   1       0.951   1.008   1.176  0.00  0.00    -0.200 OA
BRANCH   2   5
ATOM      5  C   UNL d   1      -0.134   0.529  -1.150  0.00  0.00     0.080 A 
ATOM      6  C   UNL d   1      -1.225   1.332  -0.803  0.00  0.00     0.028 A 
ATOM      7  C   UNL d   1      -2.102   1.761  -1.804  0.00  0.00     0.044 A 
ATOM      8  C   UNL d   1      -1.872   1.401  -3.127  0.00  0.00     0.116 A 
ATOM      9  C   UNL d   1      -0.770   0.628  -3.483  0.00  0.00     0.044 A 
ATOM     10  F   UNL d   1      -2.714   1.817  -4.082  0.00  0.00    -0.206 F 
ATOM     11  C   UNL d   1       0.113   0.201  -2.491  0.00  0.00     0.028 A 
ENDBRANCH   2   5
ENDBRANCH   1   2
BRANCH   1  12
ATOM     12  C   UNL d   1      -0.442  -1.512   1.665  0.00  0.00     0.045 A 
ATOM     13  C   UNL d   1      -1.812  -1.495   1.390  0.00  0.00     0.033 A 
ATOM     14  C   UNL d   1      -2.728  -1.549   2.444  0.00  0.00     0.044 A 
ATOM     15  C   UNL d   1      -2.268  -1.621   3.756  0.00  0.00     0.116 A 
ATOM     16  C   UNL d   1      -0.908  -1.633   4.037  0.00  0.00     0.044 A 
ATOM     17  F   UNL d   1      -3.150  -1.682   4.761  0.00  0.00    -0.206 F 
ATOM     18  C   UNL d   1       0.009  -1.575   2.988  0.00  0.00     0.033 A 
ENDBRANCH   1  12
BRANCH   1  19
ATOM     19  C   UNL d   1       0.603  -2.619  -0.305  0.00  0.00     0.180 C 
BRANCH  19  20
ATOM     20  C   UNL d   1       1.915  -3.377  -0.345  0.00  0.00    -0.036 A 
ATOM     21  C   UNL d   1       2.042  -4.446  -1.253  0.00  0.00     0.048 A 
ATOM     22  C   UNL d   1       3.257  -5.094  -1.342  0.00  0.00     0.105 A 
ATOM     23  O   UNL d   1       3.549  -6.121  -2.183  0.00  0.00    -0.323 OA
ATOM     24  C   UNL d   1       4.330  -4.730  -0.566  0.00  0.00     0.105 A 
ATOM     25  C   UNL d   1       4.938  -6.345  -1.863  0.00  0.00     0.352 A 
ATOM     26  O   UNL d   1       5.437  -5.474  -0.828  0.00  0.00    -0.323 OA
ATOM     27  C   UNL d   1       4.242  -3.712   0.354  0.00  0.00     0.040 A 
ATOM     28  C   UNL d   1       3.021  -3.038   0.469  0.00  0.00     0.012 A 
ENDBRANCH  19  20
ENDBRANCH   1  19
TORSDOF 5
