REMARK  4 active torsions:
REMARK  status: ('A' for Active; 'I' for Inactive)
REMARK    1  A    between atoms: C_6  and  C_1 
REMARK    2  A    between atoms: C_8  and  C_6 
REMARK       I    between atoms: C_7  and  N_9 
REMARK       I    between atoms: N_10  and  C_7 
REMARK       I    between atoms: N_11  and  C_8 
REMARK    3  A    between atoms: N_9  and  N_11 
REMARK    4  A    between atoms: C_20  and  N_10 
ROOT
ATOM      1  C   UNL d   1       4.181   1.675  -0.112  0.00  0.00     0.240 C 
ATOM      2  N   UNL d   1       3.343   2.579   0.509  0.00  0.00    -0.266 N 
ATOM      3  O   UNL d   1       5.208   2.039  -0.690  0.00  0.00    -0.271 OA
ATOM      4  H   UNL d   1       2.586   2.303   1.133  0.00  0.00     0.190 HD
ENDROOT
BRANCH   1   5
ATOM      5  C   UNL d   1       3.820   0.219   0.056  0.00  0.00     0.151 C 
BRANCH   5   6
ATOM      6  C   UNL d   1       2.613  -0.201  -0.738  0.00  0.00    -0.001 A 
ATOM      7  S   UNL d   1       1.250  -0.785   0.116  0.00  0.00    -0.093 SA
ATOM      8  C   UNL d   1       0.477  -1.341  -1.310  0.00  0.00     0.016 A 
ATOM      9  C   UNL d   1      -0.728  -2.070  -1.389  0.00  0.00     0.021 A 
ATOM     10  C   UNL d   1       1.203  -0.991  -2.449  0.00  0.00    -0.011 A 
ATOM     11  C   UNL d   1      -1.199  -2.468  -2.642  0.00  0.00     0.025 A 
ATOM     12  C   UNL d   1      -0.502  -2.123  -3.789  0.00  0.00     0.035 A 
ATOM     13  C   UNL d   1       0.680  -1.382  -3.711  0.00  0.00     0.037 A 
ATOM     14 CL   UNL d   1      -1.085  -2.633  -5.327  0.00  0.00    -0.084 Cl
ATOM     15  C   UNL d   1       2.434  -0.293  -2.112  0.00  0.00    -0.037 A 
ATOM     16  C   UNL d   1       3.403   0.178  -3.153  0.00  0.00     0.050 C 
ENDBRANCH   5   6
ENDBRANCH   1   5
BRANCH   2  17
ATOM     17  N   UNL d   1       3.802   3.904   0.634  0.00  0.00    -0.249 N 
ATOM     18  C   UNL d   1       3.342   4.646   1.702  0.00  0.00     0.335 C 
ATOM     19  N   UNL d   1       3.938   5.880   1.775  0.00  0.00    -0.338 N 
ATOM     20  O   UNL d   1       2.453   4.256   2.451  0.00  0.00    -0.246 OA
ATOM     21  H   UNL d   1       4.787   6.028   1.250  0.00  0.00     0.164 HD
ATOM     22  H   UNL d   1       4.734   4.066   0.263  0.00  0.00     0.192 HD
BRANCH  19  23
ATOM     23  C   UNL d   1       3.560   6.874   2.769  0.00  0.00     0.078 C 
ATOM     24  C   UNL d   1       4.381   6.716   4.047  0.00  0.00     0.032 C 
ATOM     25  C   UNL d   1       3.730   8.275   2.190  0.00  0.00     0.032 C 
ENDBRANCH  19  23
ENDBRANCH   2  17
TORSDOF 4
