REMARK  3 active torsions:
REMARK  status: ('A' for Active; 'I' for Inactive)
REMARK       I    between atoms: N_2  and  C_1 
REMARK    1  A    between atoms: C_6  and  C_1 
REMARK    2  A    between atoms: C_5  and  N_2 
REMARK    3  A    between atoms: C_3  and  C_5 
ROOT
ATOM      1  C   UNL d   1       1.055   2.199  -0.927  0.00  0.00     0.114 C 
ATOM      2  C   UNL d   1      -0.017   3.299  -1.017  0.00  0.00     0.037 C 
ENDROOT
BRANCH   1   3
ATOM      3  C   UNL d   1       1.780   1.934  -2.244  0.00  0.00    -0.030 A 
ATOM      4  C   UNL d   1       3.146   1.565  -2.271  0.00  0.00    -0.053 A 
ATOM      5  C   UNL d   1       3.816   1.462  -3.506  0.00  0.00     0.014 A 
ATOM      6  C   UNL d   1       3.956   1.354  -1.019  0.00  0.00     0.049 C 
ATOM      7  C   UNL d   1       3.150   1.666  -4.719  0.00  0.00    -0.061 A 
ATOM      8  C   UNL d   1       1.788   1.955  -4.694  0.00  0.00     0.007 A 
ATOM      9  C   UNL d   1       3.909   1.611  -6.012  0.00  0.00     0.048 C 
ATOM     10  C   UNL d   1       1.112   2.076  -3.476  0.00  0.00     0.010 A 
ENDBRANCH   1   3
BRANCH   1  11
ATOM     11  N   UNL d   1       0.483   0.974  -0.387  0.00  0.00    -0.352 N 
ATOM     12  C   UNL d   1       0.218   0.846   0.960  0.00  0.00     0.225 C 
ATOM     13  O   UNL d   1       0.499   1.739   1.760  0.00  0.00    -0.273 OA
ATOM     14  H   UNL d   1       0.195   0.256  -1.038  0.00  0.00     0.163 HD
BRANCH  12  15
ATOM     15  C   UNL d   1      -0.456  -0.467   1.403  0.00  0.00     0.030 C 
ATOM     16  C   UNL d   1       0.405  -1.669   0.994  0.00  0.00     0.024 C 
ATOM     17  C   UNL d   1      -0.601  -0.465   2.938  0.00  0.00     0.024 C 
ATOM     18  C   UNL d   1      -1.854  -0.580   0.781  0.00  0.00     0.024 C 
ENDBRANCH  12  15
ENDBRANCH   1  11
TORSDOF 3
