REMARK  4 active torsions:
REMARK  status: ('A' for Active; 'I' for Inactive)
REMARK    1  A    between atoms: C_3  and  C_1 
REMARK    2  A    between atoms: C_9  and  C_2 
REMARK    3  A    between atoms: C_10  and  C_6 
REMARK    4  A    between atoms: C_11  and  C_14 
ROOT
ATOM      1  C   UNL d   1       0.453  -2.668  -0.148  0.00  0.00     0.054 A 
ATOM      2  N   UNL d   1      -0.377  -3.583  -0.774  0.00  0.00    -0.349 N 
ATOM      3  HN  UNL d   1      -1.326  -3.387  -1.095  1.00  0.00     0.166 HD
ATOM      4  C   UNL d   1       0.234  -4.745  -0.897  0.00  0.00     0.087 A 
ATOM      5  S   UNL d   1       1.833  -4.792  -0.237  0.00  0.00    -0.081 SA
ATOM      6  C   UNL d   1       1.674  -3.168   0.254  0.00  0.00     0.082 A 
ENDROOT
BRANCH   1   7
ATOM      7  C   UNL d   1      -0.005  -1.299   0.082  0.00  0.00     0.052 A 
ATOM      8  C   UNL d   1      -1.343  -0.831   0.267  0.00  0.00     0.083 A 
ATOM      9  N   UNL d   1      -1.326   0.487   0.541  0.00  0.00    -0.259 N 
ATOM     10  O   UNL d   1      -0.017   0.896   0.457  0.00  0.00    -0.241 OA
ATOM     11  HN  UNL d   1      -2.131   1.071   0.768  1.00  0.00     0.195 HD
ATOM     12  C   UNL d   1       0.776  -0.167   0.178  0.00  0.00     0.087 A 
ATOM     13  C   UNL d   1       2.217   0.125   0.043  0.00  0.00     0.080 C 
BRANCH   8  14
ATOM     14  C   UNL d   1      -2.625  -1.540   0.229  0.00  0.00     0.037 A 
ATOM     15  C   UNL d   1      -2.890  -2.643   1.062  0.00  0.00     0.048 A 
ATOM     16 CL   UNL d   1      -1.779  -3.215   2.266  0.00  0.00    -0.083 Cl
ATOM     17  C   UNL d   1      -4.124  -3.308   1.006  0.00  0.00     0.025 A 
ATOM     18  C   UNL d   1      -5.136  -2.855   0.165  0.00  0.00     0.003 A 
ATOM     19  C   UNL d   1      -4.910  -1.741  -0.635  0.00  0.00     0.025 A 
ATOM     20  C   UNL d   1      -3.664  -1.098  -0.621  0.00  0.00     0.048 A 
ATOM     21 CL   UNL d   1      -3.498   0.241  -1.713  0.00  0.00    -0.083 Cl
ENDBRANCH   8  14
ENDBRANCH   1   7
BRANCH   4  22
ATOM     22  C   UNL d   1      -0.326  -5.940  -1.544  0.00  0.00     0.028 A 
ATOM     23  C   UNL d   1      -1.105  -5.907  -2.708  0.00  0.00     0.063 A 
ATOM     24  C   UNL d   1      -1.594  -7.126  -3.231  0.00  0.00     0.034 A 
ATOM     25  C   UNL d   1      -1.285  -8.316  -2.603  0.00  0.00     0.088 A 
ATOM     26  N   UNL d   1      -0.541  -8.380  -1.487  0.00  0.00    -0.374 N 
ATOM     27  C   UNL d   1      -0.093  -7.205  -0.985  0.00  0.00     0.102 A 
ATOM     28  HN  UNL d   1      -0.324  -9.271  -1.039  1.00  0.00     0.164 HD
BRANCH  23  29
ATOM     29  C   UNL d   1      -1.487  -4.651  -3.463  0.00  0.00     0.418 C 
ATOM     30  F   UNL d   1      -0.696  -3.566  -3.272  0.00  0.00    -0.166 F 
ATOM     31  F   UNL d   1      -1.455  -4.860  -4.813  0.00  0.00    -0.166 F 
ATOM     32  F   UNL d   1      -2.764  -4.265  -3.192  0.00  0.00    -0.166 F 
ENDBRANCH  23  29
ENDBRANCH   4  22
TORSDOF 4
