REMARK  1 active torsions:
REMARK  status: ('A' for Active; 'I' for Inactive)
REMARK    1  A    between atoms: C_8  and  C_5 
ROOT
ATOM      1  C   UNL d   1       1.916   0.343   0.106  0.00  0.00     0.075 A 
ATOM      2  C   UNL d   1       1.611  -1.129   0.172  0.00  0.00     0.263 A 
ATOM      3  S   UNL d   1       0.637   1.524   0.107  0.00  0.00    -0.083 SA
ATOM      4  N   UNL d   1       0.324  -1.574   0.158  0.00  0.00    -0.321 N 
ATOM      5  C   UNL d   1       3.172   0.835   0.047  0.00  0.00     0.043 C 
ATOM      6  C   UNL d   1      -0.851  -0.830   0.091  0.00  0.00     0.052 A 
ATOM      7  C   UNL d   1      -0.842   0.560   0.046  0.00  0.00     0.032 A 
ATOM      8  O   UNL d   1       2.486  -1.994   0.250  0.00  0.00    -0.267 OA
ATOM      9  C   UNL d   1      -2.064  -1.531   0.074  0.00  0.00     0.031 A 
ATOM     10  C   UNL d   1      -2.066   1.243  -0.032  0.00  0.00     0.021 A 
ATOM     11  C   UNL d   1      -3.275  -0.843   0.004  0.00  0.00     0.002 A 
ATOM     12  C   UNL d   1      -3.276   0.546  -0.053  0.00  0.00     0.002 A 
ATOM     13  H   UNL d   1       0.261  -2.584   0.195  0.00  0.00     0.169 HD
ENDROOT
BRANCH   5  14
ATOM     14  C   UNL d   1       4.367   0.069   0.010  0.00  0.00     0.006 A 
ATOM     15  S   UNL d   1       5.119  -0.268  -1.499  0.00  0.00    -0.102 SA
ATOM     16  C   UNL d   1       6.409  -1.103  -0.751  0.00  0.00     0.050 A 
ATOM     17  C   UNL d   1       6.293  -1.111   0.620  0.00  0.00     0.008 A 
ATOM     18  C   UNL d   1       5.118  -0.432   1.059  0.00  0.00     0.019 A 
ENDBRANCH   5  14
TORSDOF 1
