REMARK  2 active torsions:
REMARK  status: ('A' for Active; 'I' for Inactive)
REMARK    1  A    between atoms: O_2  and  C_1 
REMARK    2  A    between atoms: C_6  and  O_2 
REMARK       I    between atoms: N_11  and  C_6 
ROOT
ATOM      1  C   UNL d   1       1.258   0.995  -0.361  0.00  0.00     0.186 A 
ATOM      2  C   UNL d   1      -0.044   0.422  -0.309  0.00  0.00     0.053 A 
ATOM      3  N   UNL d   1       2.218   0.066  -0.270  0.00  0.00    -0.237 N 
ATOM      4  HN  UNL d   1       3.226   0.222  -0.285  1.00  0.00     0.197 HD
ATOM      5  C   UNL d   1       0.236  -0.936  -0.169  0.00  0.00     0.115 A 
ATOM      6  O   UNL d   1       1.571  -1.139  -0.153  0.00  0.00    -0.235 OA
ATOM      7  C   UNL d   1      -1.405   0.793  -0.346  0.00  0.00     0.020 A 
ATOM      8  C   UNL d   1      -0.712  -1.952  -0.054  0.00  0.00     0.064 A 
ATOM      9  C   UNL d   1      -2.044  -1.552  -0.089  0.00  0.00     0.036 A 
ATOM     10  C   UNL d   1      -2.392  -0.208  -0.236  0.00  0.00     0.025 A 
ATOM     11 CL   UNL d   1      -3.276  -2.747   0.054  0.00  0.00    -0.084 Cl
ENDROOT
BRANCH   1  12
ATOM     12  O   UNL d   1       1.791   2.222  -0.451  0.00  0.00    -0.241 OA
BRANCH  12  13
ATOM     13  C   UNL d   1       1.113   3.385  -0.552  0.00  0.00     0.368 C 
ATOM     14  N   UNL d   1       2.003   4.465  -0.544  0.00  0.00    -0.336 N 
ATOM     15  C   UNL d   1       1.500   5.823  -0.477  0.00  0.00     0.154 C 
ATOM     16  C   UNL d   1       3.405   4.267  -0.202  0.00  0.00     0.154 C 
ATOM     17  O   UNL d   1      -0.104   3.507  -0.634  0.00  0.00    -0.238 OA
ENDBRANCH  12  13
ENDBRANCH   1  12
TORSDOF 2
