REMARK  5 active torsions:
REMARK  status: ('A' for Active; 'I' for Inactive)
REMARK    1  A    between atoms: N_2  and  S_1 
REMARK    2  A    between atoms: C_4  and  S_1 
REMARK    3  A    between atoms: C_3  and  N_2 
REMARK    4  A    between atoms: N_7  and  C_3 
REMARK    5  A    between atoms: C_11  and  N_7 
ROOT
ATOM      1  N   UNL d   1       0.720   0.270  -1.462  0.00  0.00    -0.256 N 
ATOM      2  H   UNL d   1      -0.090   0.861  -1.539  0.00  0.00     0.181 HD
ENDROOT
BRANCH   1   3
ATOM      3  S   UNL d   1       0.774  -0.275   0.126  0.00  0.00     0.264 S 
ATOM      4  O   UNL d   1      -0.168   0.557   0.847  0.00  0.00    -0.200 OA
ATOM      5  O   UNL d   1       2.144  -0.407   0.555  0.00  0.00    -0.200 OA
BRANCH   3   6
ATOM      6  C   UNL d   1       0.032  -1.878  -0.016  0.00  0.00     0.080 A 
ATOM      7  C   UNL d   1       0.716  -3.011   0.422  0.00  0.00     0.026 A 
ATOM      8  C   UNL d   1       0.173  -4.272   0.171  0.00  0.00     0.008 A 
ATOM      9  C   UNL d   1      -1.041  -4.402  -0.521  0.00  0.00    -0.062 A 
ATOM     10  C   UNL d   1      -1.746  -3.253  -0.897  0.00  0.00     0.008 A 
ATOM     11  C   UNL d   1      -1.556  -5.767  -0.874  0.00  0.00     0.048 C 
ATOM     12  C   UNL d   1      -1.216  -1.990  -0.641  0.00  0.00     0.026 A 
ENDBRANCH   3   6
ENDBRANCH   1   3
BRANCH   1  13
ATOM     13  C   UNL d   1       1.254  -0.325  -2.611  0.00  0.00     0.186 C 
ATOM     14  S   UNL d   1       2.649  -1.254  -2.654  0.00  0.00    -0.040 SA
BRANCH  13  15
ATOM     15  N   UNL d   1       0.592  -0.215  -3.813  0.00  0.00    -0.333 N 
ATOM     16  H   UNL d   1       1.006  -0.837  -4.502  0.00  0.00     0.168 HD
BRANCH  15  17
ATOM     17  C   UNL d   1      -0.683   0.285  -4.145  0.00  0.00     0.034 A 
ATOM     18  C   UNL d   1      -1.309   1.363  -3.520  0.00  0.00     0.029 A 
ATOM     19  C   UNL d   1      -2.632   1.693  -3.834  0.00  0.00     0.002 A 
ATOM     20  C   UNL d   1      -3.319   0.984  -4.816  0.00  0.00     0.000 A 
ATOM     21  C   UNL d   1      -2.670  -0.028  -5.515  0.00  0.00     0.002 A 
ATOM     22  C   UNL d   1      -1.355  -0.366  -5.189  0.00  0.00     0.029 A 
ENDBRANCH  15  17
ENDBRANCH  13  15
ENDBRANCH   1  13
TORSDOF 5
