REMARK  2 active torsions:
REMARK  status: ('A' for Active; 'I' for Inactive)
REMARK    1  A    between atoms: C_12  and  C_3 
REMARK    2  A    between atoms: O_14  and  C_12 
ROOT
ATOM      1  C   UNL d   1      -0.199  -0.757  -0.000  0.00  0.00     0.068 A 
ATOM      2  S   UNL d   1       2.097  -0.013   0.037  0.00  0.00     0.068 SA
ATOM      3  C   UNL d   1      -2.600  -0.712  -0.042  0.00  0.00     0.041 A 
ATOM      4  C   UNL d   1      -0.192   0.749   0.017  0.00  0.00     0.067 A 
ATOM      5  C   UNL d   1      -1.414  -1.479  -0.028  0.00  0.00     0.050 A 
ATOM      6  N   UNL d   1       1.032  -1.289   0.011  0.00  0.00    -0.310 N 
ATOM      7  HN  UNL d   1       1.269  -2.281   0.005  1.00  0.00     0.176 HD
ATOM      8  N   UNL d   1       1.043   1.272   0.039  0.00  0.00    -0.310 N 
ATOM      9  HN  UNL d   1       1.287   2.263   0.054  1.00  0.00     0.176 HD
ATOM     10  C   UNL d   1      -2.586   0.713  -0.022  0.00  0.00     0.020 A 
ATOM     11  C   UNL d   1      -1.403   1.479   0.008  0.00  0.00     0.033 A 
ENDROOT
BRANCH   3  12
ATOM     12  C   UNL d   1      -3.881  -1.475  -0.085  0.00  0.00     0.293 C 
ATOM     13  O   UNL d   1      -3.935  -2.695  -0.099  0.00  0.00    -0.259 OA
BRANCH  12  14
ATOM     14  O   UNL d   1      -4.946  -0.636  -0.115  0.00  0.00    -0.323 OA
ATOM     15  C   UNL d   1      -6.207  -1.304  -0.175  0.00  0.00     0.213 C 
ENDBRANCH  12  14
ENDBRANCH   3  12
TORSDOF 2
