REMARK  4 active torsions:
REMARK  status: ('A' for Active; 'I' for Inactive)
REMARK    1  A    between atoms: C_7  and  C_1 
REMARK    2  A    between atoms: N_6  and  C_7 
REMARK    3  A    between atoms: C_8  and  C_9 
REMARK    4  A    between atoms: O_16  and  C_10 
ROOT
ATOM      1  N   UNL d   1       4.496   1.536   0.046  0.00  0.00     0.093 N 
ATOM      2  C   UNL d   1       3.819   4.450  -0.246  0.00  0.00     0.025 C 
ATOM      3  C   UNL d   1       4.439   3.591  -1.356  0.00  0.00     0.040 C 
ATOM      4  C   UNL d   1       4.209   3.828   1.108  0.00  0.00     0.040 C 
ATOM      5  C   UNL d   1       4.041   2.301   1.216  0.00  0.00     0.273 C 
ATOM      6  C   UNL d   1       4.061   2.125  -1.226  0.00  0.00     0.273 C 
ENDROOT
BRANCH   1   7
ATOM      7  C   UNL d   1       3.987   0.142   0.081  0.00  0.00     0.319 C 
BRANCH   7   8
ATOM      8  C   UNL d   1       4.468  -0.689   1.239  0.00  0.00     0.018 A 
ATOM      9  S   UNL d   1       3.312  -1.608   2.104  0.00  0.00    -0.092 SA
ATOM     10  C   UNL d   1       4.498  -2.319   3.116  0.00  0.00     0.016 A 
ATOM     11  C   UNL d   1       4.279  -3.272   4.128  0.00  0.00     0.019 A 
ATOM     12  C   UNL d   1       5.774  -1.834   2.821  0.00  0.00    -0.012 A 
ATOM     13  C   UNL d   1       5.366  -3.736   4.872  0.00  0.00     0.001 A 
ATOM     14  C   UNL d   1       6.642  -3.255   4.617  0.00  0.00     0.001 A 
ATOM     15  C   UNL d   1       6.855  -2.315   3.604  0.00  0.00     0.013 A 
ATOM     16  C   UNL d   1       5.755  -0.907   1.706  0.00  0.00    -0.035 A 
ATOM     17  C   UNL d   1       6.990  -0.279   1.139  0.00  0.00     0.050 C 
ENDBRANCH   7   8
ENDBRANCH   1   7
BRANCH   2  18
ATOM     18  C   UNL d   1       2.338   4.742  -0.492  0.00  0.00    -0.021 A 
ATOM     19  C   UNL d   1       1.929   5.809  -1.316  0.00  0.00     0.074 A 
ATOM     20  C   UNL d   1       0.569   6.060  -1.563  0.00  0.00     0.037 A 
ATOM     21  C   UNL d   1      -0.410   5.257  -0.991  0.00  0.00     0.003 A 
ATOM     22  C   UNL d   1      -0.035   4.217  -0.159  0.00  0.00     0.001 A 
ATOM     23  C   UNL d   1       1.319   3.961   0.084  0.00  0.00     0.010 A 
BRANCH  19  24
ATOM     24  O   UNL d   1       2.809   6.759  -1.767  0.00  0.00    -0.355 OA
ATOM     25  C   UNL d   1       3.462   6.387  -2.977  0.00  0.00     0.210 C 
ENDBRANCH  19  24
ENDBRANCH   2  18
TORSDOF 4
