REMARK  5 active torsions:
REMARK  status: ('A' for Active; 'I' for Inactive)
REMARK    1  A    between atoms: C_2  and  C_1 
REMARK       I    between atoms: N_3  and  C_1 
REMARK    2  A    between atoms: N_5  and  C_2 
REMARK    3  A    between atoms: C_9  and  N_3 
REMARK    4  A    between atoms: C_15  and  N_5 
REMARK    5  A    between atoms: C_17  and  C_15 
ROOT
ATOM      1  C   UNL d   1       0.598   0.127   0.003  0.00  0.00     0.283 C 
ATOM      2  N   UNL d   1       1.871   0.111  -0.539  0.00  0.00    -0.321 N 
ATOM      3  O   UNL d   1      -0.171   1.074   0.090  0.00  0.00    -0.265 OA
ATOM      4  H   UNL d   1       2.294  -0.803  -0.658  0.00  0.00     0.169 HD
ENDROOT
BRANCH   1   5
ATOM      5  C   UNL d   1       0.141  -1.222   0.553  0.00  0.00     0.165 C 
ATOM      6  S   UNL d   1       1.154  -2.014   1.617  0.00  0.00    -0.055 SA
BRANCH   5   7
ATOM      7  N   UNL d   1      -1.076  -1.752   0.220  0.00  0.00    -0.372 N 
ATOM      8  H   UNL d   1      -1.364  -2.546   0.780  0.00  0.00     0.161 HD
BRANCH   7   9
ATOM      9  C   UNL d   1      -2.076  -1.171  -0.660  0.00  0.00     0.159 C 
BRANCH   9  10
ATOM     10  C   UNL d   1      -3.170  -2.175  -0.944  0.00  0.00    -0.041 A 
ATOM     11  C   UNL d   1      -4.520  -1.796  -0.889  0.00  0.00     0.009 A 
ATOM     12  C   UNL d   1      -5.530  -2.736  -1.115  0.00  0.00     0.001 A 
ATOM     13  C   UNL d   1      -5.205  -4.061  -1.403  0.00  0.00     0.000 A 
ATOM     14  C   UNL d   1      -3.869  -4.445  -1.485  0.00  0.00     0.001 A 
ATOM     15  C   UNL d   1      -2.860  -3.505  -1.272  0.00  0.00     0.009 A 
ENDBRANCH   9  10
ENDBRANCH   7   9
ENDBRANCH   5   7
ENDBRANCH   1   5
BRANCH   2  16
ATOM     16  C   UNL d   1       2.733   1.219  -0.679  0.00  0.00     0.037 A 
ATOM     17  C   UNL d   1       2.425   2.492  -0.192  0.00  0.00     0.069 A 
ATOM     18  C   UNL d   1       3.412   3.458  -0.231  0.00  0.00     0.107 A 
ATOM     19  O   UNL d   1       3.307   4.719   0.273  0.00  0.00    -0.323 OA
ATOM     20  C   UNL d   1       4.653   3.212  -0.765  0.00  0.00     0.105 A 
ATOM     21  C   UNL d   1       4.655   5.196   0.085  0.00  0.00     0.352 A 
ATOM     22  O   UNL d   1       5.482   4.286  -0.670  0.00  0.00    -0.323 OA
ATOM     23  C   UNL d   1       4.977   1.985  -1.298  0.00  0.00     0.042 A 
ATOM     24  C   UNL d   1       4.008   0.978  -1.243  0.00  0.00     0.032 A 
ENDBRANCH   2  16
TORSDOF 5
