REMARK  9 active torsions:
REMARK  status: ('A' for Active; 'I' for Inactive)
REMARK    1  A    between atoms: N_2  and  S_1 
REMARK    2  A    between atoms: C_5  and  S_1 
REMARK    3  A    between atoms: C_6  and  N_2 
REMARK    4  A    between atoms: C_15  and  N_2 
REMARK       I    between atoms: C_3  and  N_7 
REMARK    5  A    between atoms: C_4  and  C_3 
REMARK    6  A    between atoms: C_9  and  C_6 
REMARK    7  A    between atoms: N_7  and  N_14 
REMARK    8  A    between atoms: C_8  and  C_13 
REMARK       I    between atoms: N_14  and  C_8 
REMARK    9  A    between atoms: C_13  and  C_15 
ROOT
ATOM      1  N   UNL d   1       0.259  -1.021  -1.003  0.00  0.00    -0.200 NA
ENDROOT
BRANCH   1   2
ATOM      2  S   UNL d   1       0.977   0.094   0.102  0.00  0.00     0.244 S 
ATOM      3  O   UNL d   1       0.727   1.417  -0.432  0.00  0.00    -0.206 OA
ATOM      4  O   UNL d   1       2.327  -0.363   0.355  0.00  0.00    -0.206 OA
BRANCH   2   5
ATOM      5  C   UNL d   1       0.092  -0.052   1.631  0.00  0.00     0.074 A 
ATOM      6  C   UNL d   1       0.100  -1.262   2.329  0.00  0.00     0.026 A 
ATOM      7  C   UNL d   1      -0.576  -1.352   3.549  0.00  0.00     0.025 A 
ATOM      8  C   UNL d   1      -1.237  -0.234   4.066  0.00  0.00     0.034 A 
ATOM      9  C   UNL d   1      -1.225   0.979   3.378  0.00  0.00     0.025 A 
ATOM     10 CL   UNL d   1      -2.070  -0.350   5.567  0.00  0.00    -0.084 Cl
ATOM     11  C   UNL d   1      -0.558   1.073   2.156  0.00  0.00     0.026 A 
ENDBRANCH   2   5
ENDBRANCH   1   2
BRANCH   1  12
ATOM     12  C   UNL d   1      -1.244  -0.921  -1.027  0.00  0.00     0.172 C 
BRANCH  12  13
ATOM     13  C   UNL d   1      -1.858  -1.971  -1.897  0.00  0.00     0.066 A 
ATOM     14  O   UNL d   1      -2.623  -1.517  -2.935  0.00  0.00    -0.326 OA
ATOM     15  C   UNL d   1      -3.087  -2.607  -3.597  0.00  0.00     0.142 A 
ATOM     16  C   UNL d   1      -2.632  -3.760  -3.002  0.00  0.00     0.027 A 
ATOM     17  C   UNL d   1      -1.838  -3.351  -1.901  0.00  0.00     0.036 A 
ENDBRANCH  12  13
ENDBRANCH   1  12
BRANCH   1  18
ATOM     18  C   UNL d   1       0.807  -0.869  -2.416  0.00  0.00     0.117 C 
BRANCH  18  19
ATOM     19  C   UNL d   1       2.319  -0.950  -2.574  0.00  0.00     0.120 C 
BRANCH  19  20
ATOM     20  C   UNL d   1       2.854  -2.343  -2.362  0.00  0.00     0.237 C 
ATOM     21  N   UNL d   1       3.339  -2.599  -1.101  0.00  0.00    -0.267 N 
ATOM     22  H   UNL d   1       3.244  -1.946  -0.314  0.00  0.00     0.190 HD
ATOM     23  O   UNL d   1       2.880  -3.178  -3.268  0.00  0.00    -0.272 OA
BRANCH  21  24
ATOM     24  N   UNL d   1       3.938  -3.840  -0.867  0.00  0.00    -0.263 N 
ATOM     25  C   UNL d   1       4.255  -4.242   0.418  0.00  0.00     0.277 C 
ATOM     26  O   UNL d   1       4.052  -3.508   1.385  0.00  0.00    -0.265 OA
ATOM     27  H   UNL d   1       4.102  -4.434  -1.678  0.00  0.00     0.190 HD
BRANCH  25  28
ATOM     28  C   UNL d   1       4.838  -5.574   0.543  0.00  0.00     0.074 A 
ATOM     29  S   UNL d   1       4.913  -6.674  -0.773  0.00  0.00    -0.097 SA
ATOM     30  C   UNL d   1       5.626  -7.893   0.191  0.00  0.00     0.050 A 
ATOM     31  C   UNL d   1       5.825  -7.475   1.486  0.00  0.00     0.009 A 
ATOM     32  C   UNL d   1       5.371  -6.139   1.688  0.00  0.00     0.025 A 
ENDBRANCH  25  28
ENDBRANCH  21  24
ENDBRANCH  19  20
ENDBRANCH  18  19
ENDBRANCH   1  18
TORSDOF 9
