REMARK  2 active torsions:
REMARK  status: ('A' for Active; 'I' for Inactive)
REMARK    1  A    between atoms: C_5  and  C_1 
REMARK    2  A    between atoms: C_8  and  C_2 
REMARK       I    between atoms: N_11  and  C_8 
ROOT
ATOM      1  C   UNL d   1      -1.311  -0.824  -0.001  0.00  0.00     0.085 A 
ATOM      2  C   UNL d   1       0.037  -1.331  -0.103  0.00  0.00     0.092 A 
ATOM      3  N   UNL d   1      -1.283   0.510   0.141  0.00  0.00    -0.259 N 
ATOM      4  HN  UNL d   1      -2.089   1.124   0.260  1.00  0.00     0.195 HD
ATOM      5  O   UNL d   1       0.028   0.893   0.094  0.00  0.00    -0.241 OA
ATOM      6  C   UNL d   1       0.826  -0.196  -0.024  0.00  0.00     0.090 A 
ATOM      7  C   UNL d   1       2.265   0.129  -0.056  0.00  0.00     0.080 C 
ENDROOT
BRANCH   1   8
ATOM      8  C   UNL d   1      -2.591  -1.549   0.075  0.00  0.00     0.015 A 
ATOM      9  C   UNL d   1      -3.794  -1.059  -0.470  0.00  0.00     0.046 A 
ATOM     10 CL   UNL d   1      -3.908   0.396  -1.406  0.00  0.00    -0.083 Cl
ATOM     11  C   UNL d   1      -4.993  -1.770  -0.306  0.00  0.00     0.025 A 
ATOM     12  C   UNL d   1      -5.011  -2.987   0.373  0.00  0.00     0.002 A 
ATOM     13  C   UNL d   1      -3.833  -3.492   0.904  0.00  0.00     0.001 A 
ATOM     14  C   UNL d   1      -2.643  -2.771   0.774  0.00  0.00     0.015 A 
ENDBRANCH   1   8
BRANCH   2  15
ATOM     15  C   UNL d   1       0.455  -2.709  -0.277  0.00  0.00     0.254 C 
ATOM     16  O   UNL d   1      -0.218  -3.554  -0.846  0.00  0.00    -0.268 OA
ATOM     17  N   UNL d   1       1.639  -3.077   0.298  0.00  0.00    -0.366 N 
ATOM     18  H   UNL d   1       2.143  -2.497   0.950  0.00  0.00     0.159 HD
ATOM     19  H   UNL d   1       1.842  -4.067   0.286  0.00  0.00     0.159 HD
ENDBRANCH   2  15
TORSDOF 2
