REMARK  3 active torsions:
REMARK  status: ('A' for Active; 'I' for Inactive)
REMARK    1  A    between atoms: C_2  and  C_1 
REMARK    2  A    between atoms: C_15  and  N_3 
REMARK    3  A    between atoms: C_14  and  C_15 
ROOT
ATOM      1  N   UNL d   1      -3.045   2.175   2.532  0.00  0.00    -0.197 NA
ATOM      2  C   UNL d   1      -3.229   1.188   1.952  0.00  0.00     0.060 C 
ATOM      3  C   UNL d   1      -3.461  -0.048   1.193  0.00  0.00     0.144 C 
ENDROOT
BRANCH   3   4
ATOM      4  C   UNL d   1      -2.768  -0.008  -0.170  0.00  0.00     0.146 C 
BRANCH   4   5
ATOM      5  N   UNL d   1      -1.303  -0.025  -0.094  0.00  0.00    -0.323 N 
ATOM      6  C   UNL d   1      -0.607   1.175  -0.132  0.00  0.00     0.110 A 
ATOM      7  C   UNL d   1       0.735   1.222  -0.080  0.00  0.00     0.063 A 
ATOM      8  C   UNL d   1       1.470  -0.027   0.009  0.00  0.00     0.023 A 
ATOM      9  C   UNL d   1       0.830  -1.204   0.058  0.00  0.00     0.075 A 
ATOM     10  C   UNL d   1      -0.656  -1.255   0.026  0.00  0.00     0.247 A 
ATOM     11  O   UNL d   1      -1.232  -2.336   0.104  0.00  0.00    -0.268 OA
BRANCH   7  12
ATOM     12  C   UNL d   1       1.478   2.528  -0.139  0.00  0.00     0.418 C 
ATOM     13  F   UNL d   1       2.826   2.369  -0.208  0.00  0.00    -0.166 F 
ATOM     14  F   UNL d   1       1.116   3.256  -1.226  0.00  0.00    -0.166 F 
ATOM     15  F   UNL d   1       1.229   3.297   0.950  0.00  0.00    -0.166 F 
ENDBRANCH   7  12
ENDBRANCH   4   5
ENDBRANCH   3   4
TORSDOF 3
