REMARK  4 active torsions:
REMARK  status: ('A' for Active; 'I' for Inactive)
REMARK    1  A    between atoms: C_1  and  C_4 
REMARK    2  A    between atoms: C_2  and  C_5 
REMARK       I    between atoms: N_9  and  C_4 
REMARK       I    between atoms: N_8  and  C_5 
REMARK    3  A    between atoms: N_11  and  N_8 
REMARK    4  A    between atoms: N_10  and  N_9 
ROOT
ATOM      1  C   UNL d   1       0.018   0.912  -0.061  0.00  0.00     0.093 A 
ATOM      2  C   UNL d   1       0.840  -0.362   0.039  0.00  0.00     0.093 A 
ATOM      3  C   UNL d   1      -0.665  -0.431  -0.033  0.00  0.00     0.030 A 
ENDROOT
BRANCH   1   4
ATOM      4  C   UNL d   1       0.094   1.716  -1.306  0.00  0.00     0.236 C 
ATOM      5  O   UNL d   1       0.607   1.272  -2.327  0.00  0.00    -0.272 OA
ATOM      6  N   UNL d   1      -0.459   2.982  -1.203  0.00  0.00    -0.294 N 
ATOM      7  H   UNL d   1      -0.965   3.259  -0.365  0.00  0.00     0.183 HD
BRANCH   6   8
ATOM      8  N   UNL d   1      -0.469   3.836  -2.326  0.00  0.00    -0.247 NA
ATOM      9  H   UNL d   1      -0.249   3.254  -3.147  0.00  0.00     0.143 HD
ATOM     10  H   UNL d   1       0.337   4.462  -2.249  0.00  0.00     0.143 HD
ENDBRANCH   6   8
ENDBRANCH   1   4
BRANCH   2  11
ATOM     11  C   UNL d   1       1.569  -0.647   1.300  0.00  0.00     0.236 C 
ATOM     12  O   UNL d   1       1.344  -0.019   2.329  0.00  0.00    -0.272 OA
ATOM     13  N   UNL d   1       2.500  -1.669   1.204  0.00  0.00    -0.294 N 
ATOM     14  H   UNL d   1       2.571  -2.227   0.356  0.00  0.00     0.183 HD
BRANCH  13  15
ATOM     15  N   UNL d   1       3.245  -2.047   2.340  0.00  0.00    -0.247 NA
ATOM     16  H   UNL d   1       2.781  -1.625   3.157  0.00  0.00     0.143 HD
ATOM     17  H   UNL d   1       4.147  -1.564   2.297  0.00  0.00     0.143 HD
ENDBRANCH  13  15
ENDBRANCH   2  11
TORSDOF 4
