REMARK  3 active torsions:
REMARK  status: ('A' for Active; 'I' for Inactive)
REMARK       I    between atoms: N_2  and  C_4 
REMARK       I    between atoms: C_6  and  N_2 
REMARK    1  A    between atoms: C_4  and  C_3 
REMARK    2  A    between atoms: C_9  and  C_5 
REMARK       I    between atoms: N_10  and  C_6 
REMARK    3  A    between atoms: C_15  and  N_10 
ROOT
ATOM      1  N   UNL d   1      -1.627   2.917   0.751  0.00  0.00    -0.274 N 
ATOM      2  C   UNL d   1      -0.458   2.462   0.155  0.00  0.00     0.266 C 
ATOM      3  C   UNL d   1      -2.896   2.364   0.750  0.00  0.00     0.327 C 
ATOM      4  N   UNL d   1      -3.748   3.056   1.591  0.00  0.00    -0.307 N 
ATOM      5  O   UNL d   1      -3.231   1.371   0.119  0.00  0.00    -0.247 OA
ATOM      6  O   UNL d   1       0.250   3.354  -0.335  0.00  0.00    -0.267 OA
ATOM      7  H   UNL d   1      -1.627   3.922   0.758  0.00  0.00     0.173 HD
ATOM      8  H   UNL d   1      -3.752   4.063   1.531  0.00  0.00     0.170 HD
ENDROOT
BRANCH   2   9
ATOM      9  C   UNL d   1      -0.040   1.062   0.140  0.00  0.00     0.073 C 
ATOM     10  S   UNL d   1      -0.904  -0.255   0.801  0.00  0.00    -0.088 SA
ATOM     11  C   UNL d   1       0.151  -1.431   0.121  0.00  0.00    -0.009 C 
ATOM     12  C   UNL d   1       1.301  -0.805  -0.327  0.00  0.00     0.017 C 
ATOM     13  C   UNL d   1       1.177   0.613  -0.343  0.00  0.00     0.025 C 
BRANCH  11  14
ATOM     14  C   UNL d   1      -0.187  -2.929   0.120  0.00  0.00    -0.018 C 
ATOM     15  C   UNL d   1      -1.685  -3.189  -0.147  0.00  0.00     0.020 C 
ATOM     16  C   UNL d   1       0.594  -3.649  -1.006  0.00  0.00     0.020 C 
ATOM     17  C   UNL d   1       0.203  -3.559   1.467  0.00  0.00     0.020 C 
ENDBRANCH  11  14
ENDBRANCH   2   9
BRANCH   4  18
ATOM     18  C   UNL d   1      -4.812   2.432   2.274  0.00  0.00     0.051 A 
ATOM     19  C   UNL d   1      -4.786   1.084   2.631  0.00  0.00     0.117 A 
ATOM     20  N   UNL d   1      -5.752   0.471   3.357  0.00  0.00    -0.373 N 
ATOM     21  C   UNL d   1      -6.804   1.230   3.722  0.00  0.00     0.088 A 
ATOM     22  HN  UNL d   1      -5.686  -0.514   3.614  1.00  0.00     0.164 HD
ATOM     23  C   UNL d   1      -6.926   2.576   3.413  0.00  0.00     0.019 A 
ATOM     24  C   UNL d   1      -5.901   3.191   2.693  0.00  0.00     0.032 A 
ENDBRANCH   4  18
TORSDOF 3
