REMARK  7 active torsions:
REMARK  status: ('A' for Active; 'I' for Inactive)
REMARK    1  A    between atoms: C_9  and  N_1 
REMARK    2  A    between atoms: C_12  and  C_7 
REMARK    3  A    between atoms: C_8  and  C_11 
REMARK    4  A    between atoms: O_22  and  C_8 
REMARK    5  A    between atoms: N_10  and  C_13 
REMARK    6  A    between atoms: C_16  and  C_15 
REMARK    7  A    between atoms: C_27  and  O_22 
ROOT
ATOM      1  N   UNL d   1      -0.134  -1.053   0.123  0.00  0.00    -0.179 N 
ATOM      2  N   UNL d   1       1.077  -0.604   0.536  0.00  0.00     0.003 NA
ATOM      3  N   UNL d   1      -1.001  -0.063  -0.227  0.00  0.00    -0.264 N 
ATOM      4  HN  UNL d   1      -1.958  -0.126  -0.573  1.00  0.00     0.190 HD
ATOM      5  N   UNL d   1       1.012   0.713   0.460  0.00  0.00    -0.267 N 
ATOM      6  HN  UNL d   1       1.754   1.374   0.690  1.00  0.00     0.186 HD
ATOM      7  C   UNL d   1      -0.244   1.018   0.011  0.00  0.00     0.134 A 
ENDROOT
BRANCH   1   8
ATOM      8  C   UNL d   1      -0.440  -2.435   0.058  0.00  0.00     0.073 A 
ATOM      9  C   UNL d   1       0.508  -3.377   0.490  0.00  0.00     0.034 A 
ATOM     10  C   UNL d   1       0.235  -4.743   0.396  0.00  0.00     0.020 A 
ATOM     11  C   UNL d   1      -0.982  -5.186  -0.137  0.00  0.00     0.039 A 
ATOM     12  C   UNL d   1      -1.939  -4.244  -0.547  0.00  0.00     0.020 A 
ATOM     13  C   UNL d   1      -1.672  -2.871  -0.448  0.00  0.00     0.034 A 
BRANCH  11  14
ATOM     14  C   UNL d   1      -1.169  -6.652  -0.313  0.00  0.00     0.293 C 
ATOM     15  O   UNL d   1      -0.327  -7.479   0.004  0.00  0.00    -0.259 OA
BRANCH  14  16
ATOM     16  O   UNL d   1      -2.341  -6.903  -0.942  0.00  0.00    -0.318 OA
BRANCH  16  17
ATOM     17  C   UNL d   1      -2.501  -8.237  -1.449  0.00  0.00     0.174 C 
ATOM     18  C   UNL d   1      -1.969  -8.278  -2.870  0.00  0.00     0.034 C 
ENDBRANCH  16  17
ENDBRANCH  14  16
ENDBRANCH  11  14
ENDBRANCH   1   8
BRANCH   7  19
ATOM     19  C   UNL d   1      -0.574   2.397  -0.119  0.00  0.00     0.051 C 
ATOM     20  C   UNL d   1      -1.765   2.918  -0.454  0.00  0.00     0.005 C 
BRANCH  20  21
ATOM     21  C   UNL d   1      -1.972   4.352  -0.521  0.00  0.00     0.017 C 
ATOM     22  C   UNL d   1      -3.130   4.929  -0.869  0.00  0.00     0.085 C 
BRANCH  22  23
ATOM     23  N   UNL d   1      -3.436   6.279  -0.980  0.00  0.00    -0.386 N 
ATOM     24  C   UNL d   1      -4.805   6.726  -1.328  0.00  0.00     0.148 C 
ATOM     25  C   UNL d   1      -4.747   8.024  -2.148  0.00  0.00     0.187 C 
ATOM     26  O   UNL d   1      -4.042   9.059  -1.445  0.00  0.00    -0.388 OA
ATOM     27  C   UNL d   1      -2.695   8.637  -1.178  0.00  0.00     0.187 C 
ATOM     28  C   UNL d   1      -2.658   7.356  -0.328  0.00  0.00     0.148 C 
ENDBRANCH  22  23
ENDBRANCH  20  21
ENDBRANCH   7  19
TORSDOF 7
