REMARK  6 active torsions:
REMARK  status: ('A' for Active; 'I' for Inactive)
REMARK    1  A    between atoms: C_2  and  S_1 
REMARK    2  A    between atoms: N_3  and  S_1 
REMARK    3  A    between atoms: C_14  and  N_6 
REMARK    4  A    between atoms: C_17  and  C_14 
REMARK    5  A    between atoms: O_15  and  C_17 
REMARK    6  A    between atoms: C_16  and  O_15 
ROOT
ATOM      1  N   UNL d   1       0.328  -0.969  -1.105  0.00  0.00    -0.203 NA
ATOM      2  N   UNL d   1      -0.989  -3.210   0.397  0.00  0.00     0.092 N 
ATOM      3  C   UNL d   1      -1.163  -1.002  -0.905  0.00  0.00     0.138 C 
ATOM      4  C   UNL d   1       0.878  -2.364  -1.085  0.00  0.00     0.138 C 
ATOM      5  C   UNL d   1      -1.586  -1.855   0.320  0.00  0.00     0.288 C 
ATOM      6  C   UNL d   1       0.474  -3.096   0.207  0.00  0.00     0.288 C 
ENDROOT
BRANCH   1   7
ATOM      7  S   UNL d   1       1.205   0.133  -0.118  0.00  0.00     0.245 S 
ATOM      8  O   UNL d   1       0.490   0.262   1.131  0.00  0.00    -0.206 OA
ATOM      9  O   UNL d   1       2.596  -0.275  -0.168  0.00  0.00    -0.206 OA
BRANCH   7  10
ATOM     10  C   UNL d   1       1.132   1.706  -0.926  0.00  0.00     0.096 A 
ATOM     11  C   UNL d   1       1.781   2.796  -0.333  0.00  0.00     0.056 A 
ATOM     12 CL   UNL d   1       2.643   2.712   1.163  0.00  0.00    -0.083 Cl
ATOM     13  C   UNL d   1       1.764   4.042  -0.970  0.00  0.00     0.025 A 
ATOM     14  C   UNL d   1       1.103   4.203  -2.187  0.00  0.00     0.002 A 
ATOM     15  C   UNL d   1       0.464   3.115  -2.780  0.00  0.00     0.002 A 
ATOM     16  C   UNL d   1       0.482   1.863  -2.157  0.00  0.00     0.026 A 
ENDBRANCH   7  10
ENDBRANCH   1   7
BRANCH   2  17
ATOM     17  C   UNL d   1      -1.644  -4.146  -0.536  0.00  0.00     0.299 C 
BRANCH  17  18
ATOM     18  C   UNL d   1      -1.167  -5.598  -0.376  0.00  0.00     0.206 C 
BRANCH  18  19
ATOM     19  O   UNL d   1      -1.881  -6.441  -1.285  0.00  0.00    -0.349 OA
BRANCH  19  20
ATOM     20  C   UNL d   1      -1.497  -7.757  -1.297  0.00  0.00     0.068 A 
ATOM     21  C   UNL d   1      -0.510  -8.328  -0.488  0.00  0.00     0.037 A 
ATOM     22  C   UNL d   1      -0.210  -9.689  -0.593  0.00  0.00     0.003 A 
ATOM     23  C   UNL d   1      -0.896 -10.487  -1.504  0.00  0.00     0.000 A 
ATOM     24  C   UNL d   1      -1.880  -9.925  -2.315  0.00  0.00     0.003 A 
ATOM     25  C   UNL d   1      -2.178  -8.564  -2.211  0.00  0.00     0.037 A 
ENDBRANCH  19  20
ENDBRANCH  18  19
ENDBRANCH  17  18
ENDBRANCH   2  17
TORSDOF 6
