REMARK  3 active torsions:
REMARK  status: ('A' for Active; 'I' for Inactive)
REMARK    1  A    between atoms: O_5  and  C_1 
REMARK    2  A    between atoms: C_6  and  O_5 
REMARK       I    between atoms: N_9  and  C_6 
REMARK    3  A    between atoms: C_15  and  N_9 
ROOT
ATOM      1  C   UNL d   1       1.463  -1.263  -0.514  0.00  0.00     0.186 A 
ATOM      2  C   UNL d   1       0.092  -0.943  -0.337  0.00  0.00     0.053 A 
ATOM      3  N   UNL d   1       2.204  -0.198  -0.832  0.00  0.00    -0.237 N 
ATOM      4  HN  UNL d   1       3.195  -0.179  -1.074  1.00  0.00     0.197 HD
ATOM      5  O   UNL d   1       1.328   0.881  -0.759  0.00  0.00    -0.235 OA
ATOM      6  C   UNL d   1       0.075   0.437  -0.457  0.00  0.00     0.113 A 
ATOM      7  C   UNL d   1      -1.127  -1.605  -0.086  0.00  0.00     0.025 A 
ATOM      8  C   UNL d   1      -1.058   1.229  -0.297  0.00  0.00     0.041 A 
ATOM      9  C   UNL d   1      -2.307  -0.847   0.048  0.00  0.00    -0.061 A 
ATOM     10  C   UNL d   1      -2.257   0.554  -0.033  0.00  0.00     0.009 A 
ATOM     11  C   UNL d   1      -3.631  -1.528   0.254  0.00  0.00     0.048 C 
ENDROOT
BRANCH   1  12
ATOM     12  O   UNL d   1       2.122  -2.445  -0.454  0.00  0.00    -0.241 OA
BRANCH  12  13
ATOM     13  C   UNL d   1       1.862  -3.232   0.619  0.00  0.00     0.367 C 
ATOM     14  N   UNL d   1       2.560  -4.407   0.672  0.00  0.00    -0.333 N 
ATOM     15  H   UNL d   1       2.352  -4.913   1.524  0.00  0.00     0.165 HD
ATOM     16  O   UNL d   1       1.080  -2.980   1.533  0.00  0.00    -0.238 OA
BRANCH  14  17
ATOM     17  C   UNL d   1       3.647  -4.925  -0.147  0.00  0.00     0.078 C 
ATOM     18  C   UNL d   1       3.258  -5.153  -1.602  0.00  0.00     0.032 C 
ATOM     19  C   UNL d   1       4.925  -4.101  -0.017  0.00  0.00     0.032 C 
ENDBRANCH  14  17
ENDBRANCH  12  13
ENDBRANCH   1  12
TORSDOF 3
