REMARK  5 active torsions:
REMARK  status: ('A' for Active; 'I' for Inactive)
REMARK    1  A    between atoms: O_14  and  C_3 
REMARK    2  A    between atoms: C_12  and  C_10 
REMARK    3  A    between atoms: C_16  and  C_11 
REMARK    4  A    between atoms: C_13  and  C_15 
REMARK    5  A    between atoms: C_18  and  O_14 
ROOT
ATOM      1  N   UNL d   1       0.283   0.605   0.000  0.00  0.00    -0.217 N 
ATOM      2  C   UNL d   1       0.155  -0.788  -0.016  0.00  0.00     0.132 A 
ATOM      3  C   UNL d   1      -0.862   1.421  -0.044  0.00  0.00     0.173 C 
ATOM      4  N   UNL d   1       1.591   0.977   0.041  0.00  0.00    -0.294 N 
ATOM      5  HN  UNL d   1       1.962   1.926   0.088  1.00  0.00     0.187 HD
ATOM      6  N   UNL d   1      -1.055  -1.421  -0.011  0.00  0.00    -0.337 N 
ATOM      7  HN  UNL d   1      -1.125  -2.438   0.033  1.00  0.00     0.167 HD
ATOM      8  C   UNL d   1       1.433  -1.289  -0.017  0.00  0.00     0.077 A 
ATOM      9  C   UNL d   1      -2.067   0.831  -0.173  0.00  0.00     0.092 C 
ATOM     10  C   UNL d   1      -2.120  -0.665  -0.066  0.00  0.00     0.122 C 
ATOM     11  C   UNL d   1       2.290  -0.165   0.006  0.00  0.00     0.037 A 
ENDROOT
BRANCH   3  12
ATOM     12  O   UNL d   1      -0.670   2.804   0.003  0.00  0.00    -0.292 OA
BRANCH  12  13
ATOM     13  C   UNL d   1      -1.647   3.609   0.550  0.00  0.00     0.078 A 
ATOM     14  C   UNL d   1      -2.418   3.232   1.654  0.00  0.00     0.053 A 
ATOM     15  C   UNL d   1      -3.495   4.024   2.077  0.00  0.00     0.050 A 
ATOM     16  C   UNL d   1      -3.708   5.263   1.456  0.00  0.00     0.016 A 
ATOM     17  C   UNL d   1      -2.876   5.685   0.416  0.00  0.00     0.004 A 
ATOM     18  C   UNL d   1      -1.853   4.854  -0.044  0.00  0.00     0.037 A 
BRANCH  15  19
ATOM     19  C   UNL d   1      -4.439   3.525   3.143  0.00  0.00     0.417 C 
ATOM     20  F   UNL d   1      -4.159   2.257   3.558  0.00  0.00    -0.166 F 
ATOM     21  F   UNL d   1      -4.435   4.299   4.261  0.00  0.00    -0.166 F 
ATOM     22  F   UNL d   1      -5.730   3.491   2.709  0.00  0.00    -0.166 F 
ENDBRANCH  15  19
ENDBRANCH  12  13
ENDBRANCH   3  12
BRANCH  10  23
ATOM     23  C   UNL d   1      -3.512  -1.292   0.036  0.00  0.00     0.432 C 
ATOM     24  F   UNL d   1      -4.509  -0.361   0.029  0.00  0.00    -0.165 F 
ATOM     25  F   UNL d   1      -3.776  -2.139  -0.995  0.00  0.00    -0.165 F 
ATOM     26  F   UNL d   1      -3.673  -2.003   1.185  0.00  0.00    -0.165 F 
ENDBRANCH  10  23
BRANCH  11  27
ATOM     27  C   UNL d   1       3.811  -0.176  -0.002  0.00  0.00    -0.007 C 
ATOM     28  C   UNL d   1       4.409   1.246   0.034  0.00  0.00     0.021 C 
ATOM     29  C   UNL d   1       4.337  -0.945   1.227  0.00  0.00     0.021 C 
ATOM     30  C   UNL d   1       4.321  -0.873  -1.281  0.00  0.00     0.021 C 
ENDBRANCH  11  27
TORSDOF 5
