REMARK  2 active torsions:
REMARK  status: ('A' for Active; 'I' for Inactive)
REMARK    1  A    between atoms: C_7  and  C_2 
REMARK    2  A    between atoms: O_8  and  C_6 
ROOT
ATOM      1  N   UNL d   1      -1.074  -0.979  -0.618  0.00  0.00     0.102 N 
ATOM      2  C   UNL d   1      -2.298  -0.188  -0.863  0.00  0.00     0.256 C 
ATOM      3  C   UNL d   1       0.081  -0.288  -0.008  0.00  0.00     0.161 C 
ATOM      4  C   UNL d   1      -2.729   0.504   0.437  0.00  0.00     0.072 C 
ATOM      5  C   UNL d   1      -0.368   0.481   1.257  0.00  0.00     0.073 C 
ATOM      6  C   UNL d   1      -1.604   1.338   1.036  0.00  0.00     0.123 C 
ATOM      7  C   UNL d   1       1.083  -1.393   0.434  0.00  0.00     0.041 C 
ATOM      8  C   UNL d   1       0.805   0.595  -1.054  0.00  0.00     0.041 C 
ATOM      9  C   UNL d   1       2.392  -0.818   0.987  0.00  0.00     0.002 C 
ATOM     10  C   UNL d   1       2.135   1.171  -0.569  0.00  0.00     0.002 C 
ATOM     11  C   UNL d   1       3.073   0.104  -0.019  0.00  0.00     0.000 C 
ATOM     12  H   UNL d   1      -0.790  -1.449  -1.475  0.00  0.00     0.317 HD
ENDROOT
BRANCH   2  13
ATOM     13  C   UNL d   1      -2.254   0.684  -2.120  0.00  0.00    -0.025 A 
ATOM     14  C   UNL d   1      -1.969   0.093  -3.365  0.00  0.00     0.009 A 
ATOM     15  C   UNL d   1      -1.905   0.861  -4.533  0.00  0.00     0.001 A 
ATOM     16  C   UNL d   1      -2.136   2.231  -4.486  0.00  0.00     0.000 A 
ATOM     17  C   UNL d   1      -2.451   2.833  -3.273  0.00  0.00     0.001 A 
ATOM     18  C   UNL d   1      -2.527   2.064  -2.109  0.00  0.00     0.009 A 
ENDBRANCH   2  13
BRANCH   6  19
ATOM     19  O   UNL d   1      -2.034   1.892   2.280  0.00  0.00    -0.395 OA
ATOM     20  H   UNL d   1      -2.245   1.153   2.877  0.00  0.00     0.210 HD
ENDBRANCH   6  19
TORSDOF 2
