REMARK  5 active torsions:
REMARK  status: ('A' for Active; 'I' for Inactive)
REMARK    1  A    between atoms: C_13  and  C_1 
REMARK    2  A    between atoms: O_21  and  C_3 
REMARK       I    between atoms: C_4  and  N_12 
REMARK    3  A    between atoms: C_9  and  C_4 
REMARK    4  A    between atoms: N_12  and  N_6 
REMARK    5  A    between atoms: N_14  and  C_11 
ROOT
ATOM      1  N   UNL d   1      -0.364   7.850  -1.267  0.00  0.00    -0.308 N 
ATOM      2  HN  UNL d   1       0.266   7.908  -0.467  1.00  0.00     0.186 HD
ATOM      3  C   UNL d   1      -0.031   8.317  -2.429  0.00  0.00     0.121 C 
ENDROOT
BRANCH   1   4
ATOM      4  N   UNL d   1      -1.597   7.277  -1.169  0.00  0.00    -0.266 N 
ATOM      5  C   UNL d   1      -1.996   6.726   0.043  0.00  0.00     0.270 C 
ATOM      6  O   UNL d   1      -1.302   6.654   1.052  0.00  0.00    -0.266 OA
ATOM      7  H   UNL d   1      -2.172   7.194  -1.998  0.00  0.00     0.190 HD
BRANCH   5   8
ATOM      8  C   UNL d   1      -3.374   6.161   0.075  0.00  0.00     0.033 A 
ATOM      9  C   UNL d   1      -3.643   5.093   0.933  0.00  0.00     0.019 A 
ATOM     10  C   UNL d   1      -4.933   4.540   1.001  0.00  0.00     0.030 A 
ATOM     11  C   UNL d   1      -6.003   5.036   0.238  0.00  0.00     0.029 A 
ATOM     12  C   UNL d   1      -5.704   6.136  -0.588  0.00  0.00     0.030 A 
ATOM     13  C   UNL d   1      -4.418   6.692  -0.679  0.00  0.00     0.019 A 
BRANCH  11  14
ATOM     14  N   UNL d   1      -7.292   4.528   0.329  0.00  0.00    -0.390 N 
ATOM     15  C   UNL d   1      -8.201   4.557  -0.817  0.00  0.00     0.149 C 
ATOM     16  C   UNL d   1      -7.702   3.612   1.392  0.00  0.00     0.149 C 
ENDBRANCH  11  14
ENDBRANCH   5   8
ENDBRANCH   1   4
BRANCH   3  17
ATOM     17  C   UNL d   1       1.280   8.969  -2.635  0.00  0.00     0.017 A 
ATOM     18  C   UNL d   1       1.629   9.490  -3.885  0.00  0.00     0.094 A 
ATOM     19  C   UNL d   1       2.873  10.116  -4.050  0.00  0.00     0.046 A 
ATOM     20 BR   UNL d   1       3.378  10.836  -5.732  0.00  0.00    -0.048 Br
ATOM     21  C   UNL d   1       3.762  10.224  -2.985  0.00  0.00     0.041 A 
ATOM     22  C   UNL d   1       3.406   9.702  -1.741  0.00  0.00     0.013 A 
ATOM     23  C   UNL d   1       2.174   9.076  -1.560  0.00  0.00     0.034 A 
ATOM     24 BR   UNL d   1       4.606   9.848  -0.287  0.00  0.00    -0.051 Br
BRANCH  18  25
ATOM     25  O   UNL d   1       0.750   9.386  -4.931  0.00  0.00    -0.358 OA
ATOM     26  H   UNL d   1       1.169   9.797  -5.713  0.00  0.00     0.217 HD
ENDBRANCH  18  25
ENDBRANCH   3  17
TORSDOF 5
