REMARK  6 active torsions:
REMARK  status: ('A' for Active; 'I' for Inactive)
REMARK    1  A    between atoms: N_5  and  C_1 
REMARK    2  A    between atoms: N_6  and  C_1 
REMARK    3  A    between atoms: N_2  and  N_6 
REMARK    4  A    between atoms: C_12  and  N_5 
REMARK    5  A    between atoms: C_11  and  C_10 
REMARK    6  A    between atoms: C_13  and  C_12 
ROOT
ATOM      1  N   UNL d   1       2.191  -0.566  -0.015  0.00  0.00    -0.277 N 
ATOM      2  H   UNL d   1       2.746  -0.851  -0.815  0.00  0.00     0.189 HD
ENDROOT
BRANCH   1   3
ATOM      3  N   UNL d   1       2.635  -0.767   1.258  0.00  0.00    -0.309 N 
ATOM      4  C   UNL d   1       3.736  -1.429   1.379  0.00  0.00     0.120 C 
ATOM      5  HN  UNL d   1       2.127  -0.414   2.069  1.00  0.00     0.186 HD
BRANCH   4   6
ATOM      6  C   UNL d   1       4.304  -1.687   2.713  0.00  0.00    -0.004 A 
ATOM      7  C   UNL d   1       5.484  -2.399   2.845  0.00  0.00     0.100 A 
ATOM      8  N   UNL d   1       6.074  -2.648   4.040  0.00  0.00    -0.374 N 
ATOM      9  C   UNL d   1       5.449  -2.166   5.138  0.00  0.00     0.087 A 
ATOM     10  HN  UNL d   1       6.945  -3.174   4.107  1.00  0.00     0.164 HD
ATOM     11  C   UNL d   1       4.259  -1.458   5.106  0.00  0.00     0.018 A 
ATOM     12  C   UNL d   1       3.673  -1.218   3.864  0.00  0.00     0.015 A 
ENDBRANCH   4   6
ENDBRANCH   1   3
BRANCH   1  13
ATOM     13  C   UNL d   1       0.908  -0.113  -0.240  0.00  0.00     0.186 C 
ATOM     14  S   UNL d   1       0.338   0.023  -1.800  0.00  0.00    -0.040 SA
BRANCH  13  15
ATOM     15  N   UNL d   1       0.205   0.122   0.910  0.00  0.00    -0.364 N 
ATOM     16  H   UNL d   1       0.802   0.202   1.731  0.00  0.00     0.162 HD
BRANCH  15  17
ATOM     17  C   UNL d   1      -1.207   0.428   1.051  0.00  0.00     0.154 C 
BRANCH  17  18
ATOM     18  C   UNL d   1      -1.716   0.094   2.456  0.00  0.00     0.139 C 
ATOM     19  O   UNL d   1      -1.169   1.010   3.429  0.00  0.00    -0.384 OA
ATOM     20  C   UNL d   1      -2.239   1.485   4.259  0.00  0.00     0.168 C 
ATOM     21  C   UNL d   1      -3.426   0.584   4.005  0.00  0.00     0.029 C 
ATOM     22  C   UNL d   1      -3.229   0.203   2.561  0.00  0.00     0.035 C 
ENDBRANCH  17  18
ENDBRANCH  15  17
ENDBRANCH  13  15
ENDBRANCH   1  13
TORSDOF 6
