REMARK  3 active torsions:
REMARK  status: ('A' for Active; 'I' for Inactive)
REMARK    1  A    between atoms: C_11  and  C_1 
REMARK    2  A    between atoms: C_5  and  S_14 
REMARK    3  A    between atoms: S_14  and  C_11 
ROOT
ATOM      1  C   UNL d   1       0.183  -3.275  -0.006  0.00  0.00     0.127 C 
ENDROOT
BRANCH   1   2
ATOM      2  C   UNL d   1       0.137  -1.778  -0.124  0.00  0.00     0.035 A 
ATOM      3  C   UNL d   1       0.034  -1.157  -1.374  0.00  0.00     0.168 A 
ATOM      4  C   UNL d   1       0.010   0.231  -1.489  0.00  0.00     0.197 A 
ATOM      5  F   UNL d   1      -0.046  -1.907  -2.482  0.00  0.00    -0.202 F 
ATOM      6  F   UNL d   1      -0.094   0.800  -2.698  0.00  0.00    -0.199 F 
ATOM      7  C   UNL d   1       0.092   1.023  -0.353  0.00  0.00     0.199 A 
ATOM      8  C   UNL d   1       0.201   0.428   0.896  0.00  0.00     0.197 A 
ATOM      9  F   UNL d   1       0.066   2.358  -0.462  0.00  0.00    -0.199 F 
ATOM     10  C   UNL d   1       0.225  -0.960   1.007  0.00  0.00     0.168 A 
ATOM     11  F   UNL d   1       0.281   1.189   1.996  0.00  0.00    -0.199 F 
ATOM     12  F   UNL d   1       0.332  -1.518   2.221  0.00  0.00    -0.202 F 
ENDBRANCH   1   2
BRANCH   1  13
ATOM     13  S   UNL d   1       1.889  -3.894  -0.127  0.00  0.00    -0.089 SA
BRANCH  13  14
ATOM     14  C   UNL d   1       1.608  -5.588   0.013  0.00  0.00     0.145 A 
ATOM     15  N   UNL d   1       0.458  -6.202   0.139  0.00  0.00    -0.335 N 
ATOM     16  C   UNL d   1       0.782  -7.537   0.215  0.00  0.00     0.061 A 
ATOM     17  HN  UNL d   1      -0.472  -5.783   0.173  1.00  0.00     0.168 HD
ATOM     18  C   UNL d   1      -0.050  -8.657   0.358  0.00  0.00     0.032 A 
ATOM     19  C   UNL d   1       2.160  -7.723   0.132  0.00  0.00     0.061 A 
ATOM     20  C   UNL d   1       0.537  -9.929   0.415  0.00  0.00     0.002 A 
ATOM     21  C   UNL d   1       1.924 -10.082   0.331  0.00  0.00     0.002 A 
ATOM     22  C   UNL d   1       2.771  -8.978   0.185  0.00  0.00     0.032 A 
ATOM     23  N   UNL d   1       2.661  -6.454  -0.001  0.00  0.00    -0.335 N 
ATOM     24  H   UNL d   1       3.631  -6.192  -0.090  0.00  0.00     0.168 HD
ENDBRANCH  13  14
ENDBRANCH   1  13
TORSDOF 3
