REMARK  4 active torsions:
REMARK  status: ('A' for Active; 'I' for Inactive)
REMARK    1  A    between atoms: C_6  and  C_1 
REMARK    2  A    between atoms: S_13  and  C_9 
REMARK    3  A    between atoms: C_18  and  S_13 
REMARK    4  A    between atoms: C_22  and  C_18 
ROOT
ATOM      1  C   UNL d   1       4.014   0.016   0.054  0.00  0.00     0.053 A 
ATOM      2  N   UNL d   1       4.657   0.459   1.157  0.00  0.00    -0.336 N 
ATOM      3  HN  UNL d   1       4.156   0.682   2.016  1.00  0.00     0.168 HD
ATOM      4  C   UNL d   1       5.991   0.588   1.062  0.00  0.00     0.144 A 
ATOM      5  N   UNL d   1       6.717   0.287  -0.027  0.00  0.00    -0.347 N 
ATOM      6  HN  UNL d   1       7.732   0.393  -0.040  1.00  0.00     0.167 HD
ATOM      7  C   UNL d   1       4.680  -0.305  -1.115  0.00  0.00     0.048 A 
ATOM      8  C   UNL d   1       6.043  -0.159  -1.095  0.00  0.00     0.092 A 
ENDROOT
BRANCH   1   9
ATOM      9  C   UNL d   1       2.543  -0.082   0.173  0.00  0.00     0.039 A 
ATOM     10  S   UNL d   1       1.737  -1.348  -0.666  0.00  0.00    -0.087 SA
ATOM     11  C   UNL d   1       0.188  -0.873  -0.127  0.00  0.00     0.016 A 
ATOM     12  C   UNL d   1      -1.039  -1.488  -0.448  0.00  0.00     0.021 A 
ATOM     13  C   UNL d   1       0.263   0.237   0.713  0.00  0.00    -0.010 A 
ATOM     14  C   UNL d   1      -2.217  -0.979   0.100  0.00  0.00     0.025 A 
ATOM     15  C   UNL d   1      -2.171   0.121   0.942  0.00  0.00     0.035 A 
ATOM     16  C   UNL d   1      -0.954   0.736   1.250  0.00  0.00     0.037 A 
ATOM     17 CL   UNL d   1      -3.630   0.736   1.619  0.00  0.00    -0.084 Cl
ATOM     18  C   UNL d   1       1.634   0.697   0.886  0.00  0.00    -0.031 A 
ATOM     19  C   UNL d   1       1.965   1.889   1.735  0.00  0.00     0.050 C 
ENDBRANCH   1   9
BRANCH   4  20
ATOM     20  S   UNL d   1       6.893   1.331   2.390  0.00  0.00    -0.089 SA
BRANCH  20  21
ATOM     21  C   UNL d   1       5.944   0.734   3.821  0.00  0.00     0.121 C 
BRANCH  21  22
ATOM     22  C   UNL d   1       6.623   1.174   5.100  0.00  0.00    -0.049 A 
ATOM     23  C   UNL d   1       6.311   2.412   5.682  0.00  0.00     0.008 A 
ATOM     24  C   UNL d   1       7.001   2.860   6.810  0.00  0.00     0.001 A 
ATOM     25  C   UNL d   1       8.012   2.079   7.367  0.00  0.00     0.000 A 
ATOM     26  C   UNL d   1       8.328   0.845   6.803  0.00  0.00     0.001 A 
ATOM     27  C   UNL d   1       7.638   0.393   5.676  0.00  0.00     0.008 A 
ENDBRANCH  21  22
ENDBRANCH  20  21
ENDBRANCH   4  20
TORSDOF 4
