REMARK  5 active torsions:
REMARK  status: ('A' for Active; 'I' for Inactive)
REMARK    1  A    between atoms: C_5  and  C_1 
REMARK    2  A    between atoms: C_12  and  C_3 
REMARK    3  A    between atoms: C_6  and  C_5 
REMARK    4  A    between atoms: N_11  and  C_8 
REMARK    5  A    between atoms: C_14  and  N_11 
ROOT
ATOM      1  C   UNL d   1      -0.881  -3.668   0.009  0.00  0.00     0.110 C 
ATOM      2  C   UNL d   1      -0.534  -4.901  -0.443  0.00  0.00     0.115 C 
ATOM      3  C   UNL d   1       0.123  -2.781   0.565  0.00  0.00     0.105 C 
ATOM      4  N   UNL d   1       0.953  -2.054   0.966  0.00  0.00    -0.191 NA
ENDROOT
BRANCH   1   5
ATOM      5  C   UNL d   1      -2.346  -3.287  -0.025  0.00  0.00     0.206 C 
ATOM      6  O   UNL d   1      -3.247  -4.133  -0.042  0.00  0.00    -0.286 OA
BRANCH   5   7
ATOM      7  C   UNL d   1      -2.649  -1.851  -0.032  0.00  0.00     0.048 A 
ATOM      8  C   UNL d   1      -1.889  -0.760  -0.561  0.00  0.00     0.056 A 
ATOM      9  C   UNL d   1      -2.583   0.405  -0.305  0.00  0.00     0.086 A 
ATOM     10  O   UNL d   1      -3.760   0.100   0.305  0.00  0.00    -0.314 OA
ATOM     11  C   UNL d   1      -3.800  -1.256   0.474  0.00  0.00     0.064 A 
ATOM     12  C   UNL d   1      -5.014  -1.749   1.165  0.00  0.00     0.077 C 
BRANCH   9  13
ATOM     13  C   UNL d   1      -2.285   1.820  -0.505  0.00  0.00    -0.002 A 
ATOM     14  C   UNL d   1      -3.289   2.770  -0.749  0.00  0.00     0.016 A 
ATOM     15  C   UNL d   1      -2.966   4.124  -0.923  0.00  0.00     0.024 A 
ATOM     16  C   UNL d   1      -1.637   4.538  -0.845  0.00  0.00     0.034 A 
ATOM     17  C   UNL d   1      -0.628   3.610  -0.611  0.00  0.00     0.024 A 
ATOM     18 CL   UNL d   1      -1.239   6.202  -1.029  0.00  0.00    -0.084 Cl
ATOM     19  C   UNL d   1      -0.952   2.259  -0.446  0.00  0.00     0.016 A 
ENDBRANCH   9  13
ENDBRANCH   5   7
ENDBRANCH   1   5
BRANCH   2  20
ATOM     20  N   UNL d   1       0.764  -5.393  -0.441  0.00  0.00    -0.364 N 
ATOM     21  H   UNL d   1       1.079  -5.728  -1.351  0.00  0.00     0.165 HD
BRANCH  20  22
ATOM     22  C   UNL d   1       1.292  -6.223   0.589  0.00  0.00     0.037 A 
ATOM     23  C   UNL d   1       2.620  -6.700   0.515  0.00  0.00    -0.035 A 
ATOM     24  C   UNL d   1       3.547  -6.419  -0.637  0.00  0.00     0.050 C 
ATOM     25  C   UNL d   1       3.132  -7.495   1.560  0.00  0.00     0.009 A 
ATOM     26  C   UNL d   1       2.373  -7.769   2.695  0.00  0.00     0.001 A 
ATOM     27  C   UNL d   1       1.091  -7.250   2.803  0.00  0.00     0.002 A 
ATOM     28  C   UNL d   1       0.561  -6.481   1.764  0.00  0.00     0.030 A 
ENDBRANCH  20  22
ENDBRANCH   2  20
TORSDOF 5
