REMARK  6 active torsions:
REMARK  status: ('A' for Active; 'I' for Inactive)
REMARK    1  A    between atoms: C_9  and  C_1 
REMARK    2  A    between atoms: C_8  and  C_2 
REMARK    3  A    between atoms: C_7  and  C_3 
REMARK       I    between atoms: N_14  and  C_8 
REMARK    4  A    between atoms: O_21  and  C_9 
REMARK    5  A    between atoms: N_10  and  N_14 
REMARK    6  A    between atoms: C_20  and  C_16 
ROOT
ATOM      1  C   UNL d   1      -1.449  -0.259   0.090  0.00  0.00     0.110 A 
ATOM      2  C   UNL d   1      -0.913   1.016  -0.056  0.00  0.00     0.186 A 
ATOM      3  C   UNL d   1      -0.343  -1.156  -0.131  0.00  0.00     0.087 A 
ATOM      4  N   UNL d   1       0.755  -0.445  -0.419  0.00  0.00    -0.259 N 
ATOM      5  HN  UNL d   1       1.673  -0.820  -0.657  1.00  0.00     0.195 HD
ATOM      6  O   UNL d   1       0.415   0.878  -0.334  0.00  0.00    -0.231 OA
ENDROOT
BRANCH   2   7
ATOM      7  C   UNL d   1      -1.383   2.390   0.036  0.00  0.00     0.296 C 
ATOM      8  N   UNL d   1      -2.759   2.553   0.155  0.00  0.00    -0.264 N 
ATOM      9  H   UNL d   1      -3.376   1.757   0.056  0.00  0.00     0.190 HD
ATOM     10  O   UNL d   1      -0.613   3.349   0.005  0.00  0.00    -0.264 OA
BRANCH   8  11
ATOM     11  N   UNL d   1      -3.323   3.797   0.223  0.00  0.00    -0.307 N 
ATOM     12  C   UNL d   1      -4.622   3.799   0.287  0.00  0.00     0.136 C 
ATOM     13  HN  UNL d   1      -2.770   4.654   0.223  1.00  0.00     0.186 HD
BRANCH  12  14
ATOM     14  C   UNL d   1      -5.404   5.045   0.364  0.00  0.00     0.049 A 
ATOM     15  N   UNL d   1      -6.743   4.864   0.488  0.00  0.00    -0.365 N 
ATOM     16  C   UNL d   1      -7.486   5.987   0.590  0.00  0.00     0.088 A 
ATOM     17  HN  UNL d   1      -7.163   3.935   0.502  1.00  0.00     0.165 HD
ATOM     18  C   UNL d   1      -6.956   7.269   0.571  0.00  0.00     0.017 A 
ATOM     19  C   UNL d   1      -5.579   7.417   0.434  0.00  0.00     0.004 A 
ATOM     20  C   UNL d   1      -4.781   6.284   0.326  0.00  0.00     0.031 A 
ENDBRANCH  12  14
ENDBRANCH   8  11
ENDBRANCH   2   7
BRANCH   1  21
ATOM     21  C   UNL d   1      -2.814  -0.613   0.381  0.00  0.00     0.298 C 
ATOM     22  O   UNL d   1      -3.135  -1.544   1.113  0.00  0.00    -0.259 OA
BRANCH  21  23
ATOM     23  O   UNL d   1      -3.699   0.152  -0.324  0.00  0.00    -0.322 OA
ATOM     24  C   UNL d   1      -5.064  -0.282  -0.297  0.00  0.00     0.213 C 
ENDBRANCH  21  23
ENDBRANCH   1  21
BRANCH   3  25
ATOM     25  C   UNL d   1      -0.286  -2.631  -0.142  0.00  0.00     0.037 A 
ATOM     26  C   UNL d   1      -1.236  -3.412  -0.835  0.00  0.00     0.048 A 
ATOM     27 CL   UNL d   1      -2.459  -2.744  -1.869  0.00  0.00    -0.083 Cl
ATOM     28  C   UNL d   1      -1.187  -4.816  -0.810  0.00  0.00     0.025 A 
ATOM     29  C   UNL d   1      -0.143  -5.475  -0.176  0.00  0.00     0.003 A 
ATOM     30  C   UNL d   1       0.844  -4.731   0.456  0.00  0.00     0.025 A 
ATOM     31  C   UNL d   1       0.765  -3.329   0.500  0.00  0.00     0.048 A 
ATOM     32 CL   UNL d   1       2.026  -2.550   1.404  0.00  0.00    -0.083 Cl
ENDBRANCH   3  25
TORSDOF 6
