REMARK  5 active torsions:
REMARK  status: ('A' for Active; 'I' for Inactive)
REMARK       I    between atoms: N_2  and  C_1 
REMARK    1  A    between atoms: C_3  and  C_1 
REMARK    2  A    between atoms: C_4  and  N_2 
REMARK    3  A    between atoms: N_6  and  C_3 
REMARK    4  A    between atoms: C_16  and  N_6 
REMARK    5  A    between atoms: C_8  and  C_16 
ROOT
ATOM      1  C   UNL d   1       0.992  -0.170   0.265  0.00  0.00     0.283 C 
ATOM      2  N   UNL d   1       0.896   1.205   0.196  0.00  0.00    -0.318 N 
ATOM      3  O   UNL d   1       1.686  -0.841   1.014  0.00  0.00    -0.265 OA
ATOM      4  H   UNL d   1       0.398   1.601  -0.596  0.00  0.00     0.169 HD
ENDROOT
BRANCH   1   5
ATOM      5  C   UNL d   1       0.172  -0.890  -0.788  0.00  0.00     0.165 C 
ATOM      6  S   UNL d   1      -1.468  -1.001  -0.534  0.00  0.00    -0.055 SA
BRANCH   5   7
ATOM      7  N   UNL d   1       0.786  -1.422  -1.893  0.00  0.00    -0.370 N 
ATOM      8  H   UNL d   1       0.208  -2.034  -2.459  0.00  0.00     0.161 HD
BRANCH   7   9
ATOM      9  C   UNL d   1       2.221  -1.501  -2.093  0.00  0.00     0.185 C 
BRANCH   9  10
ATOM     10  C   UNL d   1       2.465  -2.182  -3.386  0.00  0.00     0.070 A 
ATOM     11  O   UNL d   1       2.349  -3.543  -3.382  0.00  0.00    -0.325 OA
ATOM     12  C   UNL d   1       2.575  -3.968  -4.651  0.00  0.00     0.142 A 
ATOM     13  C   UNL d   1       2.828  -2.899  -5.477  0.00  0.00     0.027 A 
ATOM     14  C   UNL d   1       2.759  -1.742  -4.661  0.00  0.00     0.036 A 
ENDBRANCH   9  10
ENDBRANCH   7   9
ENDBRANCH   5   7
ENDBRANCH   1   5
BRANCH   2  15
ATOM     15  C   UNL d   1       1.424   2.128   1.122  0.00  0.00     0.074 A 
ATOM     16  C   UNL d   1       1.407   3.487   0.772  0.00  0.00     0.146 A 
ATOM     17  C   UNL d   1       1.900   4.467   1.625  0.00  0.00     0.086 A 
ATOM     18  F   UNL d   1       0.919   3.853  -0.425  0.00  0.00    -0.204 F 
ATOM     19  C   UNL d   1       2.397   4.085   2.862  0.00  0.00     0.119 A 
ATOM     20  C   UNL d   1       2.408   2.749   3.248  0.00  0.00     0.044 A 
ATOM     21  F   UNL d   1       2.871   5.016   3.700  0.00  0.00    -0.206 F 
ATOM     22  C   UNL d   1       1.924   1.767   2.376  0.00  0.00     0.036 A 
ENDBRANCH   2  15
TORSDOF 5
