REMARK  4 active torsions:
REMARK  status: ('A' for Active; 'I' for Inactive)
REMARK    1  A    between atoms: C_2  and  S_1 
REMARK    2  A    between atoms: N_11  and  S_1 
REMARK    3  A    between atoms: N_4  and  C_18 
REMARK    4  A    between atoms: C_19  and  C_13 
ROOT
ATOM      1  C   UNL d   1       0.610  -0.540   1.428  0.00  0.00     0.074 A 
ATOM      2  C   UNL d   1       1.336  -1.627   1.920  0.00  0.00     0.027 A 
ATOM      3  C   UNL d   1      -0.347   0.090   2.221  0.00  0.00     0.027 A 
ATOM      4  C   UNL d   1       0.084  -1.521   4.005  0.00  0.00     0.032 A 
ATOM      5  C   UNL d   1       1.077  -2.106   3.210  0.00  0.00     0.031 A 
ATOM      6  C   UNL d   1      -0.603  -0.407   3.500  0.00  0.00     0.031 A 
ENDROOT
BRANCH   4   7
ATOM      7  N   UNL d   1      -0.358  -1.995   5.251  0.00  0.00    -0.365 N 
ATOM      8  C   UNL d   1      -0.093  -3.188   5.662  0.00  0.00     0.100 C 
ATOM      9  HN  UNL d   1      -0.905  -1.376   5.850  1.00  0.00     0.165 HD
BRANCH   8  10
ATOM     10  C   UNL d   1      -0.798  -3.755   6.830  0.00  0.00    -0.018 A 
ATOM     11  C   UNL d   1      -0.637  -5.119   7.085  0.00  0.00     0.052 A 
ATOM     12  C   UNL d   1      -1.544  -5.702   7.939  0.00  0.00     0.105 A 
ATOM     13  O   UNL d   1      -1.649  -7.035   8.190  0.00  0.00    -0.323 OA
ATOM     14  C   UNL d   1      -2.531  -4.974   8.569  0.00  0.00     0.105 A 
ATOM     15  C   UNL d   1      -2.938  -7.070   8.837  0.00  0.00     0.352 C 
ATOM     16  O   UNL d   1      -3.378  -5.769   9.279  0.00  0.00    -0.323 OA
ATOM     17  C   UNL d   1      -2.647  -3.610   8.411  0.00  0.00     0.040 A 
ATOM     18  C   UNL d   1      -1.772  -2.993   7.513  0.00  0.00     0.016 A 
ENDBRANCH   8  10
ENDBRANCH   4   7
BRANCH   1  19
ATOM     19  S   UNL d   1       0.890   0.040  -0.219  0.00  0.00     0.239 S 
ATOM     20  O   UNL d   1       1.805  -0.850  -0.891  0.00  0.00    -0.206 OA
ATOM     21  O   UNL d   1       1.069   1.473  -0.180  0.00  0.00    -0.206 OA
BRANCH  19  22
ATOM     22  N   UNL d   1      -0.603  -0.227  -0.945  0.00  0.00    -0.225 NA
ATOM     23  H   UNL d   1      -0.514  -0.938  -1.671  0.00  0.00     0.136 HD
ATOM     24  H   UNL d   1      -0.988   0.658  -1.278  0.00  0.00     0.136 HD
ENDBRANCH  19  22
ENDBRANCH   1  19
TORSDOF 4
