REMARK  2 active torsions:
REMARK  status: ('A' for Active; 'I' for Inactive)
REMARK    1  A    between atoms: C_2  and  C_1 
REMARK    2  A    between atoms: N_3  and  C_4 
ROOT
ATOM      1  C   UNL d   1       0.162  -2.501   0.131  0.00  0.00     0.079 A 
ATOM      2  C   UNL d   1       1.099  -3.300   0.775  0.00  0.00     0.130 A 
ATOM      3  N   UNL d   1      -0.886  -3.085  -0.521  0.00  0.00    -0.363 N 
ATOM      4  HN  UNL d   1      -1.582  -2.510  -0.996  1.00  0.00     0.165 HD
ATOM      5  C   UNL d   1       0.996  -4.702   0.732  0.00  0.00     0.040 A 
ATOM      6  C   UNL d   1      -0.991  -4.434  -0.532  0.00  0.00     0.088 A 
ATOM      7  C   UNL d   1      -0.079  -5.277   0.068  0.00  0.00     0.020 A 
ENDROOT
BRANCH   1   8
ATOM      8  C   UNL d   1       0.122  -1.040   0.076  0.00  0.00     0.040 A 
ATOM      9  C   UNL d   1       1.175  -0.146  -0.094  0.00  0.00     0.036 A 
ATOM     10  N   UNL d   1       0.606   1.101  -0.092  0.00  0.00    -0.304 N 
ATOM     11  C   UNL d   1       2.640  -0.266  -0.292  0.00  0.00     0.070 C 
ATOM     12  N   UNL d   1      -0.727   1.097  -0.038  0.00  0.00    -0.304 N 
ATOM     13  H   UNL d   1       1.073   1.998  -0.169  0.00  0.00     0.186 HD
ATOM     14  C   UNL d   1      -1.042  -0.201   0.035  0.00  0.00     0.036 A 
ATOM     15  HN  UNL d   1      -1.359   1.898  -0.050  1.00  0.00     0.186 HD
ATOM     16  C   UNL d   1      -2.476  -0.593   0.048  0.00  0.00     0.070 C 
ENDBRANCH   1   8
BRANCH   2  17
ATOM     17  N   UNL d   1       2.158  -2.757   1.572  0.00  0.00    -0.113 N 
ATOM     18  O   UNL d   1       1.837  -2.066   2.550  0.00  0.00    -0.532 OA
ATOM     19  O   UNL d   1       3.315  -3.079   1.262  0.00  0.00    -0.532 OA
ENDBRANCH   2  17
TORSDOF 2
