REMARK  5 active torsions:
REMARK  status: ('A' for Active; 'I' for Inactive)
REMARK    1  A    between atoms: C_7  and  C_3 
REMARK    2  A    between atoms: C_11  and  C_4 
REMARK    3  A    between atoms: O_8  and  C_11 
REMARK    4  A    between atoms: C_9  and  O_8 
REMARK    5  A    between atoms: O_18  and  C_10 
ROOT
ATOM      1  N   UNL d   1       1.046  -0.379   1.137  0.00  0.00    -0.351 N 
ATOM      2  HN  UNL d   1       1.389  -0.724   2.034  1.00  0.00     0.166 HD
ATOM      3  C   UNL d   1       1.127   0.940   0.709  0.00  0.00     0.049 A 
ATOM      4  C   UNL d   1       0.461  -1.123   0.216  0.00  0.00     0.075 A 
ATOM      5  S   UNL d   1      -0.024  -0.282  -1.203  0.00  0.00    -0.084 SA
ATOM      6  C   UNL d   1       0.595   1.170  -0.542  0.00  0.00     0.082 A 
ENDROOT
BRANCH   4   7
ATOM      7  C   UNL d   1       0.195  -2.596   0.340  0.00  0.00     0.240 C 
BRANCH   7   8
ATOM      8  O   UNL d   1       1.364  -3.272  -0.139  0.00  0.00    -0.342 OA
BRANCH   8   9
ATOM      9  C   UNL d   1       1.675  -4.459   0.467  0.00  0.00     0.102 A 
ATOM     10  C   UNL d   1       2.106  -5.554  -0.302  0.00  0.00     0.101 A 
ATOM     11  C   UNL d   1       2.458  -6.748   0.349  0.00  0.00     0.039 A 
ATOM     12  C   UNL d   1       2.412  -6.859   1.737  0.00  0.00     0.003 A 
ATOM     13  C   UNL d   1       2.024  -5.764   2.498  0.00  0.00     0.003 A 
ATOM     14  C   UNL d   1       1.676  -4.568   1.867  0.00  0.00     0.039 A 
BRANCH  10  15
ATOM     15  O   UNL d   1       2.233  -5.653  -1.661  0.00  0.00    -0.353 OA
ATOM     16  C   UNL d   1       2.131  -4.478  -2.447  0.00  0.00     0.210 C 
ENDBRANCH  10  15
ENDBRANCH   8   9
ENDBRANCH   7   8
ENDBRANCH   4   7
BRANCH   3  17
ATOM     17  C   UNL d   1       1.769   1.972   1.523  0.00  0.00    -0.009 A 
ATOM     18  C   UNL d   1       2.775   1.615   2.434  0.00  0.00     0.015 A 
ATOM     19  C   UNL d   1       3.432   2.589   3.193  0.00  0.00     0.024 A 
ATOM     20  C   UNL d   1       3.080   3.929   3.054  0.00  0.00     0.034 A 
ATOM     21  C   UNL d   1       2.069   4.302   2.171  0.00  0.00     0.024 A 
ATOM     22 CL   UNL d   1       3.897   5.133   3.975  0.00  0.00    -0.084 Cl
ATOM     23  C   UNL d   1       1.416   3.328   1.411  0.00  0.00     0.015 A 
ENDBRANCH   3  17
TORSDOF 5
