REMARK  4 active torsions:
REMARK  status: ('A' for Active; 'I' for Inactive)
REMARK    1  A    between atoms: C_13  and  C_5 
REMARK    2  A    between atoms: O_10  and  N_7 
REMARK    3  A    between atoms: C_9  and  O_10 
REMARK    4  A    between atoms: C_12  and  C_9 
ROOT
ATOM      1  S   UNL d   1       1.247  -1.659  -0.301  0.00  0.00    -0.042 SA
ATOM      2  C   UNL d   1       1.672  -0.064   0.314  0.00  0.00     0.099 C 
ATOM      3  C   UNL d   1       0.362  -1.353  -1.777  0.00  0.00     0.156 C 
ATOM      4  N   UNL d   1       0.607   1.038  -1.600  0.00  0.00    -0.222 NA
ATOM      5  C   UNL d   1       0.865   1.152  -0.150  0.00  0.00     0.168 C 
ATOM      6  N   UNL d   1      -0.205  -0.080  -1.932  0.00  0.00    -0.300 N 
ATOM      7  N   UNL d   1       2.597  -0.165   1.222  0.00  0.00    -0.253 N 
ATOM      8  HN  UNL d   1       3.062  -1.051   1.419  1.00  0.00     0.195 HD
ATOM      9  S   UNL d   1       0.136  -2.646  -2.837  0.00  0.00    -0.051 SA
ATOM     10  C   UNL d   1      -1.223   0.164  -2.963  0.00  0.00     0.173 C 
ATOM     11  H   UNL d   1       0.147   1.900  -1.904  0.00  0.00     0.148 HD
ENDROOT
BRANCH   5  12
ATOM     12  C   UNL d   1       1.495   2.521   0.093  0.00  0.00    -0.033 A 
ATOM     13  C   UNL d   1       2.742   2.857  -0.465  0.00  0.00     0.009 A 
ATOM     14  C   UNL d   1       3.312   4.110  -0.239  0.00  0.00     0.001 A 
ATOM     15  C   UNL d   1       2.635   5.057   0.525  0.00  0.00     0.000 A 
ATOM     16  C   UNL d   1       1.385   4.753   1.060  0.00  0.00     0.001 A 
ATOM     17  C   UNL d   1       0.816   3.495   0.845  0.00  0.00     0.009 A 
ENDBRANCH   5  12
BRANCH   7  18
ATOM     18  O   UNL d   1       2.922   1.006   1.913  0.00  0.00    -0.194 OA
BRANCH  18  19
ATOM     19  C   UNL d   1       4.286   1.079   2.009  0.00  0.00     0.315 C 
ATOM     20  O   UNL d   1       5.094   0.687   1.175  0.00  0.00    -0.257 OA
BRANCH  19  21
ATOM     21  C   UNL d   1       4.700   1.659   3.312  0.00  0.00     0.041 A 
ATOM     22  C   UNL d   1       6.077   1.772   3.573  0.00  0.00     0.019 A 
ATOM     23  C   UNL d   1       6.528   2.227   4.814  0.00  0.00     0.025 A 
ATOM     24  C   UNL d   1       5.606   2.569   5.800  0.00  0.00     0.034 A 
ATOM     25  C   UNL d   1       4.237   2.471   5.552  0.00  0.00     0.025 A 
ATOM     26 CL   UNL d   1       6.159   3.101   7.339  0.00  0.00    -0.084 Cl
ATOM     27  C   UNL d   1       3.782   2.019   4.308  0.00  0.00     0.019 A 
ENDBRANCH  19  21
ENDBRANCH  18  19
ENDBRANCH   7  18
TORSDOF 4
