REMARK  6 active torsions:
REMARK  status: ('A' for Active; 'I' for Inactive)
REMARK    1  A    between atoms: C_7  and  C_1 
REMARK    2  A    between atoms: C_2  and  C_10 
REMARK       I    between atoms: N_13  and  C_7 
REMARK    3  A    between atoms: C_10  and  O_16 
REMARK    4  A    between atoms: C_18  and  N_13 
REMARK    5  A    between atoms: O_16  and  C_21 
REMARK    6  A    between atoms: C_21  and  C_22 
ROOT
ATOM      1  C   UNL d   1      -3.992   0.483  -0.060  0.00  0.00     0.035 A 
ATOM      2  C   UNL d   1      -3.291   1.234  -1.008  0.00  0.00     0.038 A 
ATOM      3  C   UNL d   1      -3.416   2.627  -1.090  0.00  0.00    -0.032 A 
ATOM      4  C   UNL d   1      -5.088   2.523   0.657  0.00  0.00     0.003 A 
ATOM      5  C   UNL d   1      -4.923   1.133   0.750  0.00  0.00     0.029 A 
ATOM      6  C   UNL d   1      -4.326   3.269  -0.248  0.00  0.00     0.009 A 
ENDROOT
BRANCH   1   7
ATOM      7  N   UNL d   1      -3.767  -0.900   0.124  0.00  0.00    -0.322 N 
ATOM      8  C   UNL d   1      -2.667  -1.598  -0.354  0.00  0.00     0.274 C 
ATOM      9  O   UNL d   1      -1.733  -1.117  -0.993  0.00  0.00    -0.266 OA
ATOM     10  H   UNL d   1      -4.376  -1.411   0.756  0.00  0.00     0.169 HD
BRANCH   8  11
ATOM     11  C   UNL d   1      -2.636  -3.022  -0.026  0.00  0.00     0.125 A 
ATOM     12  N   UNL d   1      -3.603  -3.661   0.655  0.00  0.00    -0.256 N 
ATOM     13  O   UNL d   1      -3.190  -4.989   0.727  0.00  0.00    -0.242 OA
ATOM     14  HN  UNL d   1      -4.458  -3.258   1.039  1.00  0.00     0.195 HD
ATOM     15  C   UNL d   1      -1.991  -5.129   0.097  0.00  0.00     0.075 A 
ATOM     16  C   UNL d   1      -1.594  -3.914  -0.386  0.00  0.00     0.071 A 
ATOM     17  C   UNL d   1      -1.392  -6.474   0.058  0.00  0.00     0.079 C 
ENDBRANCH   8  11
ENDBRANCH   1   7
BRANCH   3  18
ATOM     18  C   UNL d   1      -2.542   3.382  -2.062  0.00  0.00     0.217 C 
BRANCH  18  19
ATOM     19  O   UNL d   1      -1.170   3.185  -1.684  0.00  0.00    -0.312 OA
BRANCH  19  20
ATOM     20  C   UNL d   1      -0.341   2.621  -2.611  0.00  0.00     0.312 C 
ATOM     21  O   UNL d   1      -0.676   2.341  -3.758  0.00  0.00    -0.258 OA
BRANCH  20  22
ATOM     22  C   UNL d   1       1.014   2.382  -2.108  0.00  0.00     0.132 A 
ATOM     23  N   UNL d   1       1.402   2.721  -0.866  0.00  0.00    -0.255 N 
ATOM     24  O   UNL d   1       2.721   2.325  -0.750  0.00  0.00    -0.242 OA
ATOM     25  HN  UNL d   1       0.836   3.179  -0.152  1.00  0.00     0.195 HD
ATOM     26  C   UNL d   1       3.132   1.759  -1.914  0.00  0.00     0.075 A 
ATOM     27  C   UNL d   1       2.095   1.784  -2.814  0.00  0.00     0.072 A 
ATOM     28  C   UNL d   1       4.519   1.263  -1.946  0.00  0.00     0.079 C 
ENDBRANCH  20  22
ENDBRANCH  19  20
ENDBRANCH  18  19
ENDBRANCH   3  18
TORSDOF 6
