REMARK  9 active torsions:
REMARK  status: ('A' for Active; 'I' for Inactive)
REMARK    1  A    between atoms: C_9  and  C_1 
REMARK    2  A    between atoms: O_8  and  C_2 
REMARK    3  A    between atoms: C_12  and  C_9 
REMARK    4  A    between atoms: C_17  and  C_12 
REMARK    5  A    between atoms: C_13  and  C_14 
REMARK    6  A    between atoms: C_14  and  C_16 
REMARK    7  A    between atoms: C_15  and  C_18 
REMARK    8  A    between atoms: C_16  and  C_15 
REMARK    9  A    between atoms: C_18  and  C_17 
ROOT
ATOM      1  C   UNL d   1      -1.783  -0.850  -0.042  0.00  0.00     0.044 A 
ATOM      2  C   UNL d   1      -1.221  -0.438  -1.195  0.00  0.00     0.089 A 
ATOM      3  C   UNL d   1      -1.202  -0.395   1.264  0.00  0.00     0.255 A 
ATOM      4  N   UNL d   1      -0.093   0.405   1.218  0.00  0.00    -0.322 N 
ATOM      5  C   UNL d   1      -0.039   0.440  -1.196  0.00  0.00     0.025 A 
ATOM      6  C   UNL d   1       0.506   0.836   0.031  0.00  0.00     0.048 A 
ATOM      7  O   UNL d   1      -1.694  -0.722   2.339  0.00  0.00    -0.268 OA
ATOM      8  C   UNL d   1       0.566   0.893  -2.375  0.00  0.00     0.016 A 
ATOM      9  C   UNL d   1       1.635   1.656   0.088  0.00  0.00     0.030 A 
ATOM     10  C   UNL d   1       1.694   1.716  -2.326  0.00  0.00     0.001 A 
ATOM     11  C   UNL d   1       2.229   2.094  -1.096  0.00  0.00     0.002 A 
ATOM     12  H   UNL d   1       0.281   0.690   2.111  0.00  0.00     0.169 HD
ENDROOT
BRANCH   1  13
ATOM     13  C   UNL d   1      -2.966  -1.780   0.059  0.00  0.00     0.047 C 
BRANCH  13  14
ATOM     14  C   UNL d   1      -4.287  -1.009   0.048  0.00  0.00     0.005 C 
BRANCH  14  15
ATOM     15  C   UNL d   1      -5.488  -1.956   0.059  0.00  0.00     0.000 C 
BRANCH  15  16
ATOM     16  C   UNL d   1      -6.796  -1.166   0.052  0.00  0.00     0.000 C 
BRANCH  16  17
ATOM     17  C   UNL d   1      -8.012  -2.091   0.066  0.00  0.00     0.000 C 
BRANCH  17  18
ATOM     18  C   UNL d   1      -9.309  -1.282   0.066  0.00  0.00     0.000 C 
BRANCH  18  19
ATOM     19  C   UNL d   1     -10.529  -2.199   0.083  0.00  0.00    -0.000 C 
BRANCH  19  20
ATOM     20  C   UNL d   1     -11.829  -1.396   0.083  0.00  0.00    -0.005 C 
ATOM     21  C   UNL d   1     -13.040  -2.314   0.101  0.00  0.00     0.005 C 
ENDBRANCH  19  20
ENDBRANCH  18  19
ENDBRANCH  17  18
ENDBRANCH  16  17
ENDBRANCH  15  16
ENDBRANCH  14  15
ENDBRANCH  13  14
ENDBRANCH   1  13
BRANCH   2  22
ATOM     22  O   UNL d   1      -1.687  -0.781  -2.449  0.00  0.00    -0.359 OA
ATOM     23  H   UNL d   1      -2.507  -1.293  -2.364  0.00  0.00     0.217 HD
ENDBRANCH   2  22
TORSDOF 9
