REMARK  5 active torsions:
REMARK  status: ('A' for Active; 'I' for Inactive)
REMARK       I    between atoms: N_2  and  C_1 
REMARK    1  A    between atoms: C_4  and  C_1 
REMARK    2  A    between atoms: C_5  and  N_2 
REMARK    3  A    between atoms: C_6  and  C_5 
REMARK    4  A    between atoms: C_7  and  C_6 
REMARK    5  A    between atoms: O_8  and  C_6 
ROOT
ATOM      1  C   UNL d   1      -0.451  -0.851   1.481  0.00  0.00     0.251 C 
ATOM      2  N   UNL d   1       0.264  -1.196   0.353  0.00  0.00    -0.354 N 
ATOM      3  O   UNL d   1      -0.715  -1.643   2.377  0.00  0.00    -0.268 OA
ATOM      4  H   UNL d   1       0.636  -0.462  -0.232  0.00  0.00     0.162 HD
ENDROOT
BRANCH   2   5
ATOM      5  C   UNL d   1       0.823  -2.523   0.184  0.00  0.00     0.159 C 
BRANCH   5   6
ATOM      6  C   UNL d   1      -0.198  -3.669   0.002  0.00  0.00     0.169 C 
BRANCH   6   7
ATOM      7  C   UNL d   1      -1.141  -3.501  -1.181  0.00  0.00    -0.028 A 
ATOM      8  C   UNL d   1      -0.672  -3.365  -2.497  0.00  0.00     0.010 A 
ATOM      9  C   UNL d   1      -1.565  -3.283  -3.566  0.00  0.00     0.001 A 
ATOM     10  C   UNL d   1      -2.939  -3.325  -3.338  0.00  0.00     0.000 A 
ATOM     11  C   UNL d   1      -3.422  -3.445  -2.036  0.00  0.00     0.001 A 
ATOM     12  C   UNL d   1      -2.530  -3.534  -0.966  0.00  0.00     0.010 A 
ENDBRANCH   6   7
BRANCH   6  13
ATOM     13  O   UNL d   1       0.551  -4.888  -0.152  0.00  0.00    -0.389 OA
ATOM     14  H   UNL d   1       0.453  -5.190  -1.069  0.00  0.00     0.210 HD
ENDBRANCH   6  13
ENDBRANCH   5   6
ENDBRANCH   2   5
BRANCH   1  15
ATOM     15  C   UNL d   1      -0.876   0.576   1.584  0.00  0.00     0.032 A 
ATOM     16  C   UNL d   1      -1.052   1.382   0.452  0.00  0.00     0.017 A 
ATOM     17  C   UNL d   1      -1.462   2.710   0.593  0.00  0.00     0.001 A 
ATOM     18  C   UNL d   1      -1.707   3.235   1.862  0.00  0.00     0.000 A 
ATOM     19  C   UNL d   1      -1.544   2.435   2.992  0.00  0.00     0.001 A 
ATOM     20  C   UNL d   1      -1.132   1.108   2.855  0.00  0.00     0.017 A 
ENDBRANCH   1  15
TORSDOF 5
