REMARK  6 active torsions:
REMARK  status: ('A' for Active; 'I' for Inactive)
REMARK    1  A    between atoms: C_6  and  C_3 
REMARK    2  A    between atoms: N_10  and  C_4 
REMARK    3  A    between atoms: C_9  and  C_5 
REMARK    4  A    between atoms: O_13  and  C_9 
REMARK    5  A    between atoms: C_12  and  C_23 
REMARK    6  A    between atoms: C_23  and  O_13 
ROOT
ATOM      1  N   UNL d   1       1.274   0.580   0.026  0.00  0.00    -0.185 N 
ATOM      2  HN  UNL d   1       2.192   1.023  -0.010  1.00  0.00     0.184 HD
ATOM      3  C   UNL d   1       1.172  -0.786   0.049  0.00  0.00     0.150 A 
ATOM      4  C   UNL d   1       0.167   1.333   0.052  0.00  0.00     0.680 A 
ATOM      5  C   UNL d   1      -0.060  -1.415   0.064  0.00  0.00     0.087 A 
ATOM      6  N   UNL d   1      -1.050   0.787   0.140  0.00  0.00    -0.201 N 
ATOM      7  HN  UNL d   1      -1.884   1.369   0.215  1.00  0.00     0.183 HD
ATOM      8  C   UNL d   1      -1.141  -0.562   0.125  0.00  0.00     0.126 A 
ENDROOT
BRANCH   5   9
ATOM      9  C   UNL d   1      -0.234  -2.881  -0.039  0.00  0.00     0.297 C 
ATOM     10  O   UNL d   1       0.685  -3.675  -0.090  0.00  0.00    -0.259 OA
BRANCH   9  11
ATOM     11  O   UNL d   1      -1.548  -3.182  -0.148  0.00  0.00    -0.311 OA
BRANCH  11  12
ATOM     12  C   UNL d   1      -1.861  -4.519  -0.576  0.00  0.00     0.244 C 
BRANCH  12  13
ATOM     13  C   UNL d   1      -2.190  -4.420  -2.019  0.00  0.00     0.076 A 
ATOM     14  O   UNL d   1      -3.478  -4.095  -2.333  0.00  0.00    -0.325 OA
ATOM     15  C   UNL d   1      -3.547  -4.009  -3.686  0.00  0.00     0.142 A 
ATOM     16  C   UNL d   1      -2.321  -4.275  -4.249  0.00  0.00     0.027 A 
ATOM     17  C   UNL d   1      -1.443  -4.549  -3.172  0.00  0.00     0.037 A 
ENDBRANCH  12  13
ENDBRANCH  11  12
ENDBRANCH   9  11
ENDBRANCH   5   9
BRANCH   3  18
ATOM     18  C   UNL d   1       2.477  -1.559   0.056  0.00  0.00     0.434 C 
ATOM     19  F   UNL d   1       3.575  -0.741   0.081  0.00  0.00    -0.165 F 
ATOM     20  F   UNL d   1       2.618  -2.356   1.153  0.00  0.00    -0.165 F 
ATOM     21  F   UNL d   1       2.657  -2.343  -1.042  0.00  0.00    -0.165 F 
ENDBRANCH   3  18
BRANCH   4  22
ATOM     22  N   UNL d   1       0.272   2.697  -0.123  0.00  0.00    -0.214 N 
ATOM     23  C   UNL d   1      -0.699   3.521   0.607  0.00  0.00     0.167 C 
ATOM     24  C   UNL d   1      -0.685   4.948   0.030  0.00  0.00     0.188 C 
ATOM     25  O   UNL d   1       0.637   5.514   0.032  0.00  0.00    -0.388 OA
ATOM     26  C   UNL d   1       1.530   4.695  -0.742  0.00  0.00     0.188 C 
ATOM     27  C   UNL d   1       1.621   3.272  -0.168  0.00  0.00     0.167 C 
ENDBRANCH   4  22
TORSDOF 6
