REMARK  5 active torsions:
REMARK  status: ('A' for Active; 'I' for Inactive)
REMARK    1  A    between atoms: C_2  and  C_1 
REMARK       I    between atoms: N_9  and  C_2 
REMARK    2  A    between atoms: C_4  and  C_7 
REMARK       I    between atoms: C_5  and  N_13 
REMARK       I    between atoms: N_11  and  C_5 
REMARK    3  A    between atoms: C_21  and  C_6 
REMARK    4  A    between atoms: N_13  and  N_9 
REMARK    5  A    between atoms: C_10  and  N_11 
ROOT
ATOM      1  C   UNL d   1      -0.631  -2.407   0.339  0.00  0.00     0.293 C 
ATOM      2  N   UNL d   1       0.403  -3.252   0.691  0.00  0.00    -0.260 N 
ATOM      3  O   UNL d   1      -1.772  -2.842   0.168  0.00  0.00    -0.264 OA
ATOM      4  H   UNL d   1       1.339  -2.911   0.910  0.00  0.00     0.190 HD
ENDROOT
BRANCH   2   5
ATOM      5  N   UNL d   1       0.105  -4.595   1.025  0.00  0.00    -0.248 N 
ATOM      6  C   UNL d   1       1.173  -5.419   1.344  0.00  0.00     0.339 C 
ATOM      7  N   UNL d   1       0.770  -6.713   1.620  0.00  0.00    -0.308 N 
ATOM      8  O   UNL d   1       2.317  -4.977   1.397  0.00  0.00    -0.245 OA
ATOM      9  H   UNL d   1      -0.226  -6.874   1.624  0.00  0.00     0.170 HD
ATOM     10  H   UNL d   1      -0.713  -4.973   0.555  0.00  0.00     0.192 HD
BRANCH   7  11
ATOM     11  C   UNL d   1       1.601  -7.816   1.931  0.00  0.00     0.039 A 
ATOM     12  C   UNL d   1       2.995  -7.740   1.992  0.00  0.00     0.053 A 
ATOM     13  C   UNL d   1       3.759  -8.886   2.228  0.00  0.00     0.037 A 
ATOM     14 CL   UNL d   1       5.477  -8.772   2.265  0.00  0.00    -0.084 Cl
ATOM     15  C   UNL d   1       3.151 -10.121   2.419  0.00  0.00     0.048 A 
ATOM     16  C   UNL d   1       1.762 -10.195   2.394  0.00  0.00     0.037 A 
ATOM     17  C   UNL d   1       0.987  -9.055   2.159  0.00  0.00     0.053 A 
ATOM     18 CL   UNL d   1       0.993 -11.716   2.639  0.00  0.00    -0.084 Cl
ENDBRANCH   7  11
ENDBRANCH   2   5
BRANCH   1  19
ATOM     19  C   UNL d   1      -0.286  -1.006   0.201  0.00  0.00     0.146 A 
ATOM     20  O   UNL d   1       1.018  -0.574   0.316  0.00  0.00    -0.296 OA
ATOM     21  C   UNL d   1       0.997   0.776   0.139  0.00  0.00     0.130 A 
ATOM     22  C   UNL d   1      -0.282   1.228  -0.081  0.00  0.00     0.050 A 
ATOM     23  C   UNL d   1      -1.107   0.081  -0.046  0.00  0.00     0.046 A 
BRANCH  21  24
ATOM     24  C   UNL d   1       2.220   1.499   0.192  0.00  0.00    -0.036 C 
ATOM     25  C   UNL d   1       3.198   2.195   0.202  0.00  0.00    -0.059 C 
BRANCH  25  26
ATOM     26  C   UNL d   1       4.335   3.070   0.182  0.00  0.00     0.018 A 
ATOM     27  C   UNL d   1       4.159   4.458   0.208  0.00  0.00     0.020 A 
ATOM     28  C   UNL d   1       5.268   5.308   0.161  0.00  0.00     0.001 A 
ATOM     29  C   UNL d   1       6.553   4.773   0.090  0.00  0.00     0.000 A 
ATOM     30  C   UNL d   1       6.733   3.391   0.071  0.00  0.00     0.001 A 
ATOM     31  C   UNL d   1       5.625   2.540   0.118  0.00  0.00     0.020 A 
ENDBRANCH  25  26
ENDBRANCH  21  24
ENDBRANCH   1  19
TORSDOF 5
