REMARK  5 active torsions:
REMARK  status: ('A' for Active; 'I' for Inactive)
REMARK    1  A    between atoms: N_7  and  C_2 
REMARK    2  A    between atoms: C_19  and  C_3 
REMARK    3  A    between atoms: C_4  and  N_9 
REMARK    4  A    between atoms: C_27  and  C_24 
REMARK    5  A    between atoms: C_30  and  C_27 
ROOT
ATOM      1  C   UNL d   1       1.368   0.463   1.049  0.00  0.00     0.048 A 
ATOM      2  C   UNL d   1       1.559   1.431   0.014  0.00  0.00     0.097 A 
ATOM      3  C   UNL d   1       1.623   0.386   2.494  0.00  0.00    -0.003 A 
ATOM      4  C   UNL d   1       0.802  -0.736   0.616  0.00  0.00     0.089 A 
ATOM      5  C   UNL d   1       1.326  -0.876   2.988  0.00  0.00     0.065 A 
ATOM      6  S   UNL d   1       0.669  -1.922   1.826  0.00  0.00    -0.082 SA
ATOM      7  N   UNL d   1       1.124   1.115  -1.239  0.00  0.00    -0.342 N 
ATOM      8  HN  UNL d   1       1.224   1.794  -1.994  1.00  0.00     0.167 HD
ATOM      9  N   UNL d   1       0.382  -1.055  -0.618  0.00  0.00    -0.346 N 
ATOM     10  HN  UNL d   1      -0.034  -1.954  -0.860  1.00  0.00     0.167 HD
ATOM     11  C   UNL d   1       0.569  -0.071  -1.486  0.00  0.00     0.182 A 
ENDROOT
BRANCH   2  12
ATOM     12  N   UNL d   1       2.288   2.627   0.154  0.00  0.00    -0.265 NA
ATOM     13  C   UNL d   1       2.898   3.048  -1.144  0.00  0.00     0.117 C 
ATOM     14  C   UNL d   1       3.811   4.274  -0.950  0.00  0.00     0.156 C 
ATOM     15  N   UNL d   1       3.052   5.343  -0.304  0.00  0.00    -0.215 N 
ATOM     16  C   UNL d   1       2.386   4.983   0.950  0.00  0.00     0.156 C 
ATOM     17  C   UNL d   1       1.484   3.736   0.730  0.00  0.00     0.117 C 
BRANCH  15  18
ATOM     18  C   UNL d   1       3.251   6.649  -0.647  0.00  0.00     0.679 A 
ATOM     19  N   UNL d   1       2.741   7.613   0.135  0.00  0.00    -0.201 N 
ATOM     20  C   UNL d   1       2.821   8.882  -0.293  0.00  0.00     0.114 A 
ATOM     21  HN  UNL d   1       2.306   7.387   1.030  1.00  0.00     0.183 HD
ATOM     22  C   UNL d   1       3.391   9.253  -1.490  0.00  0.00    -0.026 A 
ATOM     23  C   UNL d   1       3.927   8.208  -2.199  0.00  0.00     0.114 A 
ATOM     24  N   UNL d   1       3.878   6.924  -1.803  0.00  0.00    -0.201 N 
ATOM     25  HN  UNL d   1       4.303   6.183  -2.362  1.00  0.00     0.183 HD
BRANCH  22  26
ATOM     26  C   UNL d   1       3.393  10.667  -1.977  0.00  0.00     0.041 C 
BRANCH  26  27
ATOM     27  C   UNL d   1       2.641  10.871  -3.299  0.00  0.00     0.000 C 
ATOM     28  C   UNL d   1       1.158  10.538  -3.208  0.00  0.00     0.005 C 
ENDBRANCH  26  27
ENDBRANCH  22  26
ENDBRANCH  15  18
ENDBRANCH   2  12
BRANCH   3  29
ATOM     29  C   UNL d   1       2.061   1.411   3.454  0.00  0.00    -0.024 A 
ATOM     30  C   UNL d   1       1.407   1.536   4.696  0.00  0.00     0.012 A 
ATOM     31  C   UNL d   1       1.744   2.551   5.595  0.00  0.00     0.001 A 
ATOM     32  C   UNL d   1       2.728   3.473   5.258  0.00  0.00     0.000 A 
ATOM     33  C   UNL d   1       3.416   3.336   4.055  0.00  0.00     0.001 A 
ATOM     34  C   UNL d   1       3.104   2.294   3.172  0.00  0.00     0.012 A 
ENDBRANCH   3  29
TORSDOF 5
