REMARK  5 active torsions:
REMARK  status: ('A' for Active; 'I' for Inactive)
REMARK    1  A    between atoms: C_3  and  C_1 
REMARK       I    between atoms: N_2  and  C_3 
REMARK       I    between atoms: C_4  and  N_2 
REMARK    2  A    between atoms: O_17  and  C_4 
REMARK    3  A    between atoms: N_8  and  C_5 
REMARK    4  A    between atoms: C_11  and  N_8 
REMARK    5  A    between atoms: C_20  and  O_17 
ROOT
ATOM      1  C   UNL d   1       1.000  -0.092   0.011  0.00  0.00     0.128 C 
ATOM      2  C   UNL d   1       0.270  -0.621  -0.994  0.00  0.00     0.116 C 
ATOM      3  C   UNL d   1       0.356   0.507   1.137  0.00  0.00     0.106 C 
ATOM      4  N   UNL d   1      -0.195   0.972   2.041  0.00  0.00    -0.191 NA
ENDROOT
BRANCH   1   5
ATOM      5  C   UNL d   1       2.493  -0.264  -0.105  0.00  0.00     0.271 C 
ATOM      6  N   UNL d   1       3.274   0.394   0.826  0.00  0.00    -0.268 N 
ATOM      7  C   UNL d   1       4.633   0.601   0.699  0.00  0.00     0.367 C 
ATOM      8  H   UNL d   1       2.851   1.118   1.387  0.00  0.00     0.174 HD
ATOM      9  O   UNL d   1       5.146   1.631   1.122  0.00  0.00    -0.238 OA
ATOM     10  O   UNL d   1       2.955  -0.965  -1.002  0.00  0.00    -0.266 OA
BRANCH   7  11
ATOM     11  O   UNL d   1       5.299  -0.382   0.043  0.00  0.00    -0.304 OA
BRANCH  11  12
ATOM     12  C   UNL d   1       6.611  -0.066  -0.455  0.00  0.00     0.176 C 
ATOM     13  C   UNL d   1       7.693  -0.198   0.602  0.00  0.00     0.034 C 
ENDBRANCH  11  12
ENDBRANCH   7  11
ENDBRANCH   1   5
BRANCH   2  14
ATOM     14  N   UNL d   1      -1.092  -0.597  -1.182  0.00  0.00    -0.362 N 
ATOM     15  H   UNL d   1      -1.641   0.067  -0.634  0.00  0.00     0.165 HD
BRANCH  14  16
ATOM     16  C   UNL d   1      -1.873  -1.424  -2.011  0.00  0.00     0.071 A 
ATOM     17  C   UNL d   1      -3.123  -0.952  -2.454  0.00  0.00     0.145 A 
ATOM     18  C   UNL d   1      -3.924  -1.683  -3.322  0.00  0.00     0.086 A 
ATOM     19  F   UNL d   1      -3.554   0.248  -2.032  0.00  0.00    -0.204 F 
ATOM     20  C   UNL d   1      -3.476  -2.920  -3.756  0.00  0.00     0.119 A 
ATOM     21  C   UNL d   1      -2.250  -3.427  -3.336  0.00  0.00     0.044 A 
ATOM     22  F   UNL d   1      -4.233  -3.638  -4.596  0.00  0.00    -0.206 F 
ATOM     23  C   UNL d   1      -1.443  -2.674  -2.475  0.00  0.00     0.036 A 
ENDBRANCH  14  16
ENDBRANCH   2  14
TORSDOF 5
