REMARK  5 active torsions:
REMARK  status: ('A' for Active; 'I' for Inactive)
REMARK    1  A    between atoms: C_2  and  S_1 
REMARK    2  A    between atoms: N_4  and  S_1 
REMARK    3  A    between atoms: C_10  and  C_13 
REMARK    4  A    between atoms: C_16  and  C_10 
REMARK    5  A    between atoms: C_17  and  C_10 
ROOT
ATOM      1  N   UNL d   1       0.629  -0.554  -1.412  0.00  0.00    -0.206 NA
ATOM      2  C   UNL d   1       0.995   0.381  -2.512  0.00  0.00     0.108 C 
ATOM      3  C   UNL d   1       1.026  -1.969  -1.668  0.00  0.00     0.108 C 
ATOM      4  C   UNL d   1       0.997  -1.535  -4.188  0.00  0.00     0.001 C 
ATOM      5  C   UNL d   1       0.465  -0.128  -3.846  0.00  0.00     0.021 C 
ATOM      6  C   UNL d   1       0.536  -2.450  -3.034  0.00  0.00     0.021 C 
ENDROOT
BRANCH   4   7
ATOM      7  C   UNL d   1       2.552  -1.609  -4.433  0.00  0.00     0.056 C 
BRANCH   7   8
ATOM      8  C   UNL d   1       3.005  -3.024  -4.800  0.00  0.00    -0.049 A 
ATOM      9  C   UNL d   1       2.519  -3.677  -5.942  0.00  0.00     0.008 A 
ATOM     10  C   UNL d   1       2.953  -4.963  -6.270  0.00  0.00     0.001 A 
ATOM     11  C   UNL d   1       3.880  -5.615  -5.462  0.00  0.00     0.000 A 
ATOM     12  C   UNL d   1       4.368  -4.986  -4.319  0.00  0.00     0.001 A 
ATOM     13  C   UNL d   1       3.935  -3.699  -3.989  0.00  0.00     0.008 A 
ENDBRANCH   7   8
BRANCH   7  14
ATOM     14  C   UNL d   1       3.119  -0.579  -5.416  0.00  0.00    -0.049 A 
ATOM     15  C   UNL d   1       4.414  -0.069  -5.202  0.00  0.00     0.008 A 
ATOM     16  C   UNL d   1       4.945   0.920  -6.033  0.00  0.00     0.001 A 
ATOM     17  C   UNL d   1       4.196   1.409  -7.099  0.00  0.00     0.000 A 
ATOM     18  C   UNL d   1       2.934   0.881  -7.357  0.00  0.00     0.001 A 
ATOM     19  C   UNL d   1       2.407  -0.117  -6.533  0.00  0.00     0.008 A 
ENDBRANCH   7  14
ENDBRANCH   4   7
BRANCH   1  20
ATOM     20  S   UNL d   1       1.157  -0.018   0.132  0.00  0.00     0.250 S 
ATOM     21  O   UNL d   1       0.764  -0.992   1.126  0.00  0.00    -0.205 OA
ATOM     22  O   UNL d   1       2.538   0.405   0.004  0.00  0.00    -0.205 OA
BRANCH  20  23
ATOM     23  C   UNL d   1       0.270   1.466   0.557  0.00  0.00     0.116 A 
ATOM     24  S   UNL d   1      -1.432   1.317   0.692  0.00  0.00    -0.065 SA
ATOM     25  C   UNL d   1      -1.587   2.945   1.127  0.00  0.00     0.075 A 
ATOM     26 CL   UNL d   1      -3.139   3.590   1.478  0.00  0.00    -0.076 Cl
ATOM     27  C   UNL d   1      -0.396   3.623   1.154  0.00  0.00     0.033 A 
ATOM     28  C   UNL d   1       0.689   2.759   0.819  0.00  0.00     0.034 A 
ENDBRANCH  20  23
ENDBRANCH   1  20
TORSDOF 5
