REMARK  1 active torsions:
REMARK  status: ('A' for Active; 'I' for Inactive)
REMARK    1  A    between atoms: C_2  and  C_1 
ROOT
ATOM      1  C   UNL d   1      -2.253  -0.039  -0.048  0.00  0.00     0.067 A 
ATOM      2  N   UNL d   1      -1.521   0.703  -0.944  0.00  0.00    -0.340 N 
ATOM      3  HN  UNL d   1      -1.882   1.306  -1.683  1.00  0.00     0.167 HD
ATOM      4  N   UNL d   1      -0.140  -0.414   0.407  0.00  0.00    -0.316 N 
ATOM      5  C   UNL d   1      -0.260   0.474  -0.652  0.00  0.00     0.111 A 
ATOM      6  C   UNL d   1      -1.414  -0.725   0.806  0.00  0.00     0.129 A 
ATOM      7  C   UNL d   1       1.081  -0.862   0.904  0.00  0.00     0.104 A 
ATOM      8  C   UNL d   1       0.944   0.964  -1.229  0.00  0.00     0.050 A 
ATOM      9  C   UNL d   1       2.225  -0.416   0.349  0.00  0.00    -0.046 A 
ATOM     10  C   UNL d   1       2.132   0.543  -0.753  0.00  0.00     0.012 A 
ATOM     11  C   UNL d   1       3.587  -0.849   0.790  0.00  0.00     0.049 C 
ENDROOT
BRANCH   1  12
ATOM     12  C   UNL d   1      -3.754  -0.079  -0.009  0.00  0.00     0.040 A 
ATOM     13  S   UNL d   1      -4.596  -0.887   1.240  0.00  0.00    -0.087 SA
ATOM     14  C   UNL d   1      -6.129  -0.442   0.626  0.00  0.00     0.016 A 
ATOM     15  C   UNL d   1      -7.384  -0.751   1.188  0.00  0.00     0.019 A 
ATOM     16  C   UNL d   1      -6.008   0.294  -0.551  0.00  0.00    -0.012 A 
ATOM     17  C   UNL d   1      -8.542  -0.313   0.543  0.00  0.00     0.001 A 
ATOM     18  C   UNL d   1      -8.456   0.413  -0.635  0.00  0.00     0.001 A 
ATOM     19  C   UNL d   1      -7.207   0.718  -1.184  0.00  0.00     0.013 A 
ATOM     20  C   UNL d   1      -4.616   0.502  -0.928  0.00  0.00    -0.031 A 
ATOM     21  C   UNL d   1      -4.253   1.254  -2.174  0.00  0.00     0.050 C 
ENDBRANCH   1  12
TORSDOF 1
