REMARK  5 active torsions:
REMARK  status: ('A' for Active; 'I' for Inactive)
REMARK       I    between atoms: C_2  and  N_1 
REMARK    1  A    between atoms: C_3  and  N_1 
REMARK    2  A    between atoms: C_7  and  N_1 
REMARK    3  A    between atoms: C_8  and  C_2 
REMARK    4  A    between atoms: C_4  and  C_3 
REMARK    5  A    between atoms: O_22  and  C_16 
ROOT
ATOM      1  N   UNL d   1       1.016   0.160  -0.271  0.00  0.00    -0.283 N 
ATOM      2  C   UNL d   1       0.292  -1.056  -0.076  0.00  0.00     0.262 C 
ATOM      3  O   UNL d   1       0.786  -2.084   0.400  0.00  0.00    -0.267 OA
ENDROOT
BRANCH   1   4
ATOM      4  C   UNL d   1       0.393   1.394  -0.009  0.00  0.00     0.015 C 
ATOM      5  C   UNL d   1      -0.005   1.655   1.252  0.00  0.00     0.039 C 
BRANCH   4   6
ATOM      6  C   UNL d   1       0.167   2.373  -1.107  0.00  0.00     0.035 A 
ATOM      7  C   UNL d   1       0.590   2.112  -2.531  0.00  0.00     0.011 A 
ATOM      8  C   UNL d   1       1.297   3.156  -1.722  0.00  0.00     0.011 A 
ENDBRANCH   4   6
ENDBRANCH   1   4
BRANCH   1   9
ATOM      9  C   UNL d   1       2.472   0.066  -0.249  0.00  0.00     0.042 A 
ATOM     10  C   UNL d   1       3.127  -1.071  -0.749  0.00  0.00     0.033 A 
ATOM     11  C   UNL d   1       4.525  -1.183  -0.739  0.00  0.00     0.039 A 
ATOM     12  C   UNL d   1       5.308  -0.145  -0.246  0.00  0.00     0.068 A 
ATOM     13  C   UNL d   1       4.677   0.997   0.246  0.00  0.00     0.039 A 
ATOM     14  C   UNL d   1       3.279   1.102   0.245  0.00  0.00     0.033 A 
BRANCH  12  15
ATOM     15  O   UNL d   1       6.673  -0.124  -0.190  0.00  0.00    -0.356 OA
ATOM     16  C   UNL d   1       7.352  -1.252  -0.731  0.00  0.00     0.210 C 
ENDBRANCH  12  15
ENDBRANCH   1   9
BRANCH   2  17
ATOM     17  C   UNL d   1      -1.147  -1.172  -0.484  0.00  0.00     0.033 A 
ATOM     18  C   UNL d   1      -1.711  -0.433  -1.534  0.00  0.00     0.020 A 
ATOM     19  C   UNL d   1      -3.031  -0.660  -1.940  0.00  0.00     0.043 A 
ATOM     20  C   UNL d   1      -3.779  -1.655  -1.329  0.00  0.00     0.116 A 
ATOM     21  C   UNL d   1      -3.232  -2.428  -0.312  0.00  0.00     0.043 A 
ATOM     22  F   UNL d   1      -5.029  -1.892  -1.743  0.00  0.00    -0.206 F 
ATOM     23  C   UNL d   1      -1.924  -2.184   0.110  0.00  0.00     0.020 A 
ENDBRANCH   2  17
TORSDOF 5
