REMARK  3 active torsions:
REMARK  status: ('A' for Active; 'I' for Inactive)
REMARK    1  A    between atoms: C_9  and  N_1 
REMARK    2  A    between atoms: C_16  and  C_9 
REMARK    3  A    between atoms: O_14  and  C_16 
ROOT
ATOM      1  N   UNL d   1      -1.321   1.385   0.081  0.00  0.00    -0.370 N 
ATOM      2  C   UNL d   1      -0.080   0.728   0.034  0.00  0.00     0.038 A 
ATOM      3  C   UNL d   1      -2.502   0.666  -0.459  0.00  0.00     0.026 C 
ATOM      4  C   UNL d   1       0.000  -0.681  -0.087  0.00  0.00    -0.028 A 
ATOM      5  C   UNL d   1      -1.239  -1.553  -0.135  0.00  0.00     0.019 C 
ATOM      6  C   UNL d   1      -2.508  -0.752   0.146  0.00  0.00     0.039 C 
ATOM      7  C   UNL d   1       1.253  -1.326  -0.119  0.00  0.00     0.010 A 
ATOM      8  C   UNL d   1       1.144   1.426   0.110  0.00  0.00     0.036 A 
ATOM      9  C   UNL d   1       2.393   0.783   0.057  0.00  0.00    -0.060 A 
ATOM     10  C   UNL d   1       2.438  -0.603  -0.054  0.00  0.00     0.007 A 
ATOM     11  C   UNL d   1      -2.450   0.672  -2.000  0.00  0.00     0.038 C 
ATOM     12  C   UNL d   1      -3.845   1.307  -0.046  0.00  0.00     0.038 C 
ATOM     13  C   UNL d   1      -1.348  -2.377  -1.425  0.00  0.00     0.015 C 
ATOM     14  C   UNL d   1       3.672   1.565   0.115  0.00  0.00     0.048 C 
ENDROOT
BRANCH   1  15
ATOM     15  C   UNL d   1      -1.403   2.805   0.464  0.00  0.00     0.150 C 
BRANCH  15  16
ATOM     16  C   UNL d   1      -1.287   3.762  -0.727  0.00  0.00     0.183 C 
BRANCH  16  17
ATOM     17  O   UNL d   1      -1.267   5.113  -0.266  0.00  0.00    -0.399 OA
ATOM     18  H   UNL d   1      -1.192   5.677  -1.055  0.00  0.00     0.209 HD
ENDBRANCH  16  17
ENDBRANCH  15  16
ENDBRANCH   1  15
TORSDOF 3
