REMARK  4 active torsions:
REMARK  status: ('A' for Active; 'I' for Inactive)
REMARK       I    between atoms: C_8  and  N_1 
REMARK    1  A    between atoms: C_15  and  N_6 
REMARK    2  A    between atoms: C_17  and  C_8 
REMARK    3  A    between atoms: C_11  and  O_16 
REMARK    4  A    between atoms: O_16  and  C_17 
ROOT
ATOM      1  N   UNL d   1       0.941   0.451   0.290  0.00  0.00    -0.282 N 
ATOM      2  C   UNL d   1       0.563  -0.894   0.330  0.00  0.00     0.155 C 
ATOM      3  S   UNL d   1      -1.184  -0.971   0.508  0.00  0.00    -0.057 SA
ATOM      4  C   UNL d   1      -0.021   1.226  -0.562  0.00  0.00     0.068 C 
ATOM      5  C   UNL d   1      -1.380   0.581  -0.241  0.00  0.00     0.005 C 
ATOM      6  N   UNL d   1       1.377  -1.882   0.136  0.00  0.00    -0.335 N 
ATOM      7  HN  UNL d   1       2.371  -1.683   0.028  1.00  0.00     0.168 HD
ATOM      8  C   UNL d   1       2.209   0.784   0.749  0.00  0.00     0.251 C 
ATOM      9  C   UNL d   1      -2.614   1.071  -0.435  0.00  0.00     0.029 C 
ATOM     10  O   UNL d   1       2.864   0.038   1.486  0.00  0.00    -0.271 OA
ATOM     11  C   UNL d   1      -0.113   2.745  -0.350  0.00  0.00     0.044 C 
ATOM     12  C   UNL d   1       0.313   0.961  -2.050  0.00  0.00     0.044 C 
ENDROOT
BRANCH   8  13
ATOM     13  C   UNL d   1       2.778   2.176   0.507  0.00  0.00     0.279 C 
BRANCH  13  14
ATOM     14  O   UNL d   1       2.111   3.055   1.405  0.00  0.00    -0.340 OA
BRANCH  14  15
ATOM     15  C   UNL d   1       2.624   4.282   1.714  0.00  0.00     0.092 A 
ATOM     16  C   UNL d   1       2.162   4.742   2.960  0.00  0.00     0.064 A 
ATOM     17  C   UNL d   1       2.517   6.003   3.451  0.00  0.00     0.058 A 
ATOM     18 CL   UNL d   1       1.887   6.480   4.986  0.00  0.00    -0.082 Cl
ATOM     19  C   UNL d   1       3.345   6.827   2.692  0.00  0.00     0.057 A 
ATOM     20  C   UNL d   1       3.804   6.385   1.448  0.00  0.00     0.052 A 
ATOM     21 CL   UNL d   1       3.817   8.405   3.211  0.00  0.00    -0.082 Cl
ATOM     22  C   UNL d   1       3.442   5.122   0.952  0.00  0.00     0.069 A 
ATOM     23 CL   UNL d   1       3.998   4.756  -0.640  0.00  0.00    -0.081 Cl
ENDBRANCH  14  15
ENDBRANCH  13  14
ENDBRANCH   8  13
BRANCH   6  24
ATOM     24  C   UNL d   1       0.941  -3.224   0.067  0.00  0.00     0.056 A 
ATOM     25  C   UNL d   1       1.516  -4.217   0.877  0.00  0.00     0.060 A 
ATOM     26 CL   UNL d   1       2.770  -3.842   2.007  0.00  0.00    -0.082 Cl
ATOM     27  C   UNL d   1       1.103  -5.553   0.782  0.00  0.00     0.026 A 
ATOM     28  C   UNL d   1       0.109  -5.919  -0.124  0.00  0.00     0.002 A 
ATOM     29  C   UNL d   1      -0.446  -4.958  -0.962  0.00  0.00     0.002 A 
ATOM     30  C   UNL d   1      -0.008  -3.632  -0.887  0.00  0.00     0.031 A 
ENDBRANCH   6  24
TORSDOF 4
