REMARK  4 active torsions:
REMARK  status: ('A' for Active; 'I' for Inactive)
REMARK       I    between atoms: C_2  and  N_1 
REMARK    1  A    between atoms: C_6  and  C_2 
REMARK    2  A    between atoms: C_3  and  C_9 
REMARK       I    between atoms: N_4  and  C_3 
REMARK    3  A    between atoms: C_8  and  N_4 
REMARK    4  A    between atoms: C_9  and  C_6 
ROOT
ATOM      1  C   UNL d   1      -5.926   0.224   1.149  0.00  0.00     0.222 C 
ATOM      2  N   UNL d   1      -5.849  -1.119   0.836  0.00  0.00    -0.327 N 
ATOM      3  O   UNL d   1      -6.958   0.815   1.472  0.00  0.00    -0.273 OA
ATOM      4  H   UNL d   1      -4.933  -1.535   0.753  0.00  0.00     0.169 HD
ENDROOT
BRANCH   1   5
ATOM      5  C   UNL d   1      -4.617   1.003   1.136  0.00  0.00     0.112 C 
BRANCH   5   6
ATOM      6  C   UNL d   1      -3.427   0.357   0.443  0.00  0.00     0.112 C 
BRANCH   6   7
ATOM      7  C   UNL d   1      -2.207   1.263   0.444  0.00  0.00     0.220 C 
ATOM      8  N   UNL d   1      -1.059   0.728  -0.096  0.00  0.00    -0.352 N 
ATOM      9  C   UNL d   1      -0.887  -0.560  -0.744  0.00  0.00     0.126 C 
ATOM     10  C   UNL d   1       0.215   1.420   0.026  0.00  0.00     0.126 C 
ATOM     11  C   UNL d   1       0.547  -0.923  -0.406  0.00  0.00     0.021 C 
ATOM     12  C   UNL d   1       1.260   0.424  -0.469  0.00  0.00     0.021 C 
ATOM     13  O   UNL d   1      -2.231   2.387   0.942  0.00  0.00    -0.273 OA
ENDBRANCH   6   7
ENDBRANCH   5   6
ENDBRANCH   1   5
BRANCH   2  14
ATOM     14  C   UNL d   1      -6.928  -2.015   0.661  0.00  0.00     0.034 A 
ATOM     15  C   UNL d   1      -8.273  -1.633   0.686  0.00  0.00     0.032 A 
ATOM     16  C   UNL d   1      -9.286  -2.574   0.476  0.00  0.00     0.044 A 
ATOM     17  C   UNL d   1      -8.953  -3.900   0.238  0.00  0.00     0.116 A 
ATOM     18  C   UNL d   1      -7.625  -4.304   0.208  0.00  0.00     0.044 A 
ATOM     19  F   UNL d   1      -9.923  -4.799   0.031  0.00  0.00    -0.206 F 
ATOM     20  C   UNL d   1      -6.613  -3.362   0.418  0.00  0.00     0.032 A 
ENDBRANCH   2  14
TORSDOF 4
