REMARK  3 active torsions:
REMARK  status: ('A' for Active; 'I' for Inactive)
REMARK    1  A    between atoms: C_6  and  C_2 
REMARK    2  A    between atoms: S_12  and  C_3 
REMARK    3  A    between atoms: C_13  and  C_11 
ROOT
ATOM      1  C   UNL d   1       2.208  -0.698  -0.036  0.00  0.00     0.088 A 
ATOM      2  C   UNL d   1       1.009  -1.442   0.007  0.00  0.00    -0.004 A 
ATOM      3  C   UNL d   1       2.137   0.710  -0.044  0.00  0.00     0.091 A 
ATOM      4  N   UNL d   1       0.961   1.388  -0.008  0.00  0.00    -0.352 N 
ATOM      5  HN  UNL d   1       0.930   2.408  -0.009  1.00  0.00     0.166 HD
ATOM      6  C   UNL d   1      -0.186  -0.736   0.037  0.00  0.00    -0.024 A 
ATOM      7  C   UNL d   1      -0.155   0.649   0.030  0.00  0.00     0.017 A 
ATOM      8  C   UNL d   1       3.473  -1.373  -0.070  0.00  0.00     0.103 C 
ATOM      9  N   UNL d   1       4.483  -1.943  -0.104  0.00  0.00    -0.191 NA
ATOM     10  C   UNL d   1      -1.594  -1.232   0.135  0.00  0.00     0.042 C 
ATOM     11  C   UNL d   1      -1.535   1.231   0.128  0.00  0.00     0.058 C 
ATOM     12  C   UNL d   1      -2.393   0.021  -0.255  0.00  0.00     0.011 C 
ENDROOT
BRANCH   2  13
ATOM     13  C   UNL d   1       0.977  -2.914   0.014  0.00  0.00     0.014 C 
ATOM     14  C   UNL d   1       0.918  -3.616   1.158  0.00  0.00     0.012 C 
BRANCH  14  15
ATOM     15  C   UNL d   1       0.852  -5.087   1.258  0.00  0.00    -0.036 A 
ATOM     16  C   UNL d   1       1.325  -5.949   0.259  0.00  0.00     0.011 A 
ATOM     17  C   UNL d   1       1.284  -7.338   0.431  0.00  0.00     0.001 A 
ATOM     18  C   UNL d   1       0.778  -7.884   1.608  0.00  0.00     0.000 A 
ATOM     19  C   UNL d   1       0.306  -7.042   2.611  0.00  0.00     0.001 A 
ATOM     20  C   UNL d   1       0.345  -5.655   2.437  0.00  0.00     0.011 A 
ENDBRANCH  14  15
ENDBRANCH   2  13
BRANCH   3  21
ATOM     21  S   UNL d   1       3.613   1.735  -0.091  0.00  0.00    -0.115 SA
ATOM     22  C   UNL d   1       2.884   3.398  -0.131  0.00  0.00     0.097 C 
ENDBRANCH   3  21
TORSDOF 3
