REMARK  5 active torsions:
REMARK  status: ('A' for Active; 'I' for Inactive)
REMARK    1  A    between atoms: C_15  and  N_9 
REMARK    2  A    between atoms: C_13  and  C_15 
REMARK    3  A    between atoms: C_14  and  C_13 
REMARK    4  A    between atoms: O_19  and  C_14 
REMARK    5  A    between atoms: C_20  and  O_19 
ROOT
ATOM      1  C   UNL d   1       0.257  -0.647   0.016  0.00  0.00     0.145 A 
ATOM      2  C   UNL d   1       0.243   0.717   0.027  0.00  0.00     0.149 A 
ATOM      3  N   UNL d   1      -0.903  -1.379   0.009  0.00  0.00    -0.287 N 
ATOM      4  N   UNL d   1      -2.110   0.686   0.014  0.00  0.00    -0.269 N 
ATOM      5  C   UNL d   1      -2.135  -0.720   0.004  0.00  0.00     0.332 A 
ATOM      6  C   UNL d   1      -0.958   1.476   0.036  0.00  0.00     0.282 A 
ATOM      7  N   UNL d   1       1.528  -1.140   0.017  0.00  0.00    -0.336 N 
ATOM      8  HN  UNL d   1       1.818  -2.118   0.020  1.00  0.00     0.168 HD
ATOM      9  N   UNL d   1       1.558   1.085   0.018  0.00  0.00    -0.335 N 
ATOM     10  C   UNL d   1       2.297  -0.069   0.013  0.00  0.00     0.185 A 
ATOM     11  O   UNL d   1      -3.195  -1.351  -0.004  0.00  0.00    -0.246 OA
ATOM     12  O   UNL d   1      -0.970   2.705   0.078  0.00  0.00    -0.265 OA
ATOM     13  C   UNL d   1      -0.892  -2.828  -0.001  0.00  0.00     0.163 C 
ATOM     14  C   UNL d   1      -3.373   1.399   0.015  0.00  0.00     0.164 C 
ENDROOT
BRANCH   9  15
ATOM     15  C   UNL d   1       2.099   2.428  -0.028  0.00  0.00     0.140 C 
BRANCH  15  16
ATOM     16  C   UNL d   1       2.294   3.021   1.359  0.00  0.00     0.131 C 
BRANCH  16  17
ATOM     17  C   UNL d   1       2.940   4.373   1.245  0.00  0.00     0.260 C 
ATOM     18  O   UNL d   1       3.260   4.911   0.194  0.00  0.00    -0.265 OA
BRANCH  17  19
ATOM     19  O   UNL d   1       3.218   4.847   2.491  0.00  0.00    -0.322 OA
BRANCH  19  20
ATOM     20  C   UNL d   1       4.206   5.889   2.541  0.00  0.00     0.174 C 
ATOM     21  C   UNL d   1       5.571   5.233   2.625  0.00  0.00     0.034 C 
ENDBRANCH  19  20
ENDBRANCH  17  19
ENDBRANCH  16  17
ENDBRANCH  15  16
ENDBRANCH   9  15
TORSDOF 5
