REMARK  1 active torsions:
REMARK  status: ('A' for Active; 'I' for Inactive)
REMARK    1  A    between atoms: C_2  and  N_1 
ROOT
ATOM      1  C   UNL d   1       0.261   0.768   1.002  0.00  0.00     0.105 A 
ATOM      2  C   UNL d   1      -0.782   0.284   1.807  0.00  0.00     0.075 A 
ATOM      3  C   UNL d   1      -1.357   1.131   2.758  0.00  0.00     0.104 A 
ATOM      4  C   UNL d   1      -0.893   2.459   2.890  0.00  0.00     0.102 A 
ATOM      5  O   UNL d   1      -2.360   0.777   3.618  0.00  0.00    -0.346 OA
ATOM      6  O   UNL d   1      -1.498   3.207   3.865  0.00  0.00    -0.346 OA
ATOM      7  C   UNL d   1       0.724   2.084   1.130  0.00  0.00     0.039 A 
ATOM      8  C   UNL d   1       0.143   2.926   2.077  0.00  0.00     0.042 A 
ATOM      9  O   UNL d   1      -5.833   3.401   5.575  0.00  0.00    -0.387 OA
ATOM     10  O   UNL d   1      -5.219   0.183   3.928  0.00  0.00    -0.387 OA
ATOM     11  O   UNL d   1      -3.675   5.089   4.063  0.00  0.00    -0.387 OA
ATOM     12  C   UNL d   1      -2.959  -0.514   3.501  0.00  0.00     0.201 C 
ATOM     13  C   UNL d   1      -1.334   4.626   3.810  0.00  0.00     0.201 C 
ATOM     14  C   UNL d   1      -4.780   5.530   4.850  0.00  0.00     0.193 C 
ATOM     15  C   UNL d   1      -2.405   5.250   4.701  0.00  0.00     0.194 C 
ATOM     16  C   UNL d   1      -4.129  -0.554   4.486  0.00  0.00     0.194 C 
ATOM     17  C   UNL d   1      -5.826   1.119   4.817  0.00  0.00     0.193 C 
ATOM     18  C   UNL d   1      -5.143   4.579   5.998  0.00  0.00     0.193 C 
ATOM     19  C   UNL d   1      -4.976   2.372   5.067  0.00  0.00     0.193 C 
ENDROOT
BRANCH   1  20
ATOM     20  N   UNL d   1       0.894  -0.117   0.018  0.00  0.00    -0.116 N 
ATOM     21  O   UNL d   1       0.478  -1.283  -0.060  0.00  0.00    -0.532 OA
ATOM     22  O   UNL d   1       1.811   0.348  -0.671  0.00  0.00    -0.532 OA
ENDBRANCH   1  20
TORSDOF 1
