REMARK  4 active torsions:
REMARK  status: ('A' for Active; 'I' for Inactive)
REMARK       I    between atoms: N_2  and  C_1 
REMARK       I    between atoms: N_14  and  C_1 
REMARK    1  A    between atoms: C_4  and  N_3 
REMARK    2  A    between atoms: C_20  and  N_14 
REMARK    3  A    between atoms: C_21  and  C_20 
REMARK    4  A    between atoms: C_22  and  C_21 
ROOT
ATOM      1  C   UNL d   1      -2.865   2.180   3.339  0.00  0.00     0.103 A 
ATOM      2  N   UNL d   1      -3.310   3.436   3.568  0.00  0.00    -0.351 N 
ATOM      3  HN  UNL d   1      -3.188   4.162   2.862  1.00  0.00     0.166 HD
ATOM      4  N   UNL d   1      -5.257   3.482   7.979  0.00  0.00    -0.191 NA
ATOM      5  C   UNL d   1      -4.734   3.179   6.986  0.00  0.00     0.101 C 
ATOM      6  C   UNL d   1      -4.092   2.807   5.767  0.00  0.00     0.060 A 
ATOM      7  C   UNL d   1      -3.002   1.212   4.337  0.00  0.00     0.050 A 
ATOM      8  C   UNL d   1      -3.921   3.722   4.746  0.00  0.00     0.112 A 
ATOM      9  C   UNL d   1      -3.609   1.525   5.559  0.00  0.00     0.028 A 
ENDROOT
BRANCH   1  10
ATOM     10  N   UNL d   1      -2.276   1.897   2.125  0.00  0.00    -0.366 N 
ATOM     11  C   UNL d   1      -2.288   0.555   1.531  0.00  0.00     0.144 C 
ATOM     12  C   UNL d   1      -0.939  -0.155   1.698  0.00  0.00     0.147 C 
ATOM     13  N   UNL d   1       0.208   0.587   1.152  0.00  0.00    -0.333 N 
ATOM     14  C   UNL d   1       0.926  -0.003   0.127  0.00  0.00     0.318 C 
ATOM     15  C   UNL d   1       0.511   1.858   1.815  0.00  0.00     0.129 C 
ATOM     16  O   UNL d   1       0.572  -1.058  -0.398  0.00  0.00    -0.247 OA
ATOM     17  N   UNL d   1       2.093   0.624  -0.237  0.00  0.00    -0.343 N 
ATOM     18  H   UNL d   1       2.093   1.628  -0.165  0.00  0.00     0.164 HD
ATOM     19  C   UNL d   1      -0.255   3.047   1.231  0.00  0.00     0.040 C 
ATOM     20  C   UNL d   1      -1.789   2.975   1.270  0.00  0.00     0.126 C 
BRANCH  17  21
ATOM     21  C   UNL d   1       2.898   0.057  -1.307  0.00  0.00     0.124 C 
BRANCH  21  22
ATOM     22  C   UNL d   1       4.382   0.404  -1.193  0.00  0.00     0.019 C 
BRANCH  22  23
ATOM     23  C   UNL d   1       5.152  -0.206  -2.370  0.00  0.00    -0.003 C 
ATOM     24  C   UNL d   1       6.646   0.065  -2.303  0.00  0.00     0.005 C 
ENDBRANCH  22  23
ENDBRANCH  21  22
ENDBRANCH  17  21
ENDBRANCH   1  10
TORSDOF 4
