REMARK  4 active torsions:
REMARK  status: ('A' for Active; 'I' for Inactive)
REMARK    1  A    between atoms: S_10  and  C_1 
REMARK    2  A    between atoms: C_8  and  C_18 
REMARK       I    between atoms: N_9  and  C_8 
REMARK    3  A    between atoms: C_11  and  N_9 
REMARK    4  A    between atoms: C_18  and  S_10 
ROOT
ATOM      1  C   UNL d   1       1.681  -5.387   0.066  0.00  0.00     0.231 C 
ATOM      2  N   UNL d   1       0.486  -6.083   0.177  0.00  0.00    -0.326 N 
ATOM      3  O   UNL d   1       2.783  -5.902  -0.117  0.00  0.00    -0.272 OA
ATOM      4  H   UNL d   1      -0.357  -5.519   0.229  0.00  0.00     0.169 HD
ENDROOT
BRANCH   1   5
ATOM      5  C   UNL d   1       1.550  -3.867   0.067  0.00  0.00     0.185 C 
BRANCH   5   6
ATOM      6  S   UNL d   1       0.305  -3.239   1.231  0.00  0.00    -0.085 SA
BRANCH   6   7
ATOM      7  C   UNL d   1       0.950  -4.014   2.690  0.00  0.00     0.145 A 
ATOM      8  N   UNL d   1       2.230  -3.775   3.011  0.00  0.00    -0.341 N 
ATOM      9  C   UNL d   1       2.748  -4.511   4.014  0.00  0.00     0.009 A 
ATOM     10  HN  UNL d   1       2.783  -3.073   2.520  1.00  0.00     0.167 HD
ATOM     11  C   UNL d   1       4.196  -4.304   4.341  0.00  0.00     0.068 C 
ATOM     12  C   UNL d   1       2.011  -5.473   4.677  0.00  0.00     0.049 A 
ATOM     13  C   UNL d   1       0.698  -5.635   4.279  0.00  0.00     0.009 A 
ATOM     14  N   UNL d   1       0.152  -4.914   3.282  0.00  0.00    -0.341 N 
ATOM     15  C   UNL d   1      -0.161  -6.692   4.903  0.00  0.00     0.068 C 
ATOM     16  HN  UNL d   1      -0.817  -5.046   2.992  1.00  0.00     0.167 HD
ENDBRANCH   6   7
ENDBRANCH   5   6
ENDBRANCH   1   5
BRANCH   2  17
ATOM     17  C   UNL d   1       0.322  -7.480   0.322  0.00  0.00     0.036 A 
ATOM     18  C   UNL d   1       1.391  -8.364   0.507  0.00  0.00     0.056 A 
ATOM     19  C   UNL d   1       1.156  -9.731   0.676  0.00  0.00     0.074 A 
ATOM     20 CL   UNL d   1       2.486 -10.793   0.940  0.00  0.00    -0.081 Cl
ATOM     21  C   UNL d   1      -0.146 -10.221   0.648  0.00  0.00     0.138 A 
ATOM     22  C   UNL d   1      -1.219  -9.357   0.458  0.00  0.00     0.046 A 
ATOM     23  F   UNL d   1      -0.392 -11.528   0.808  0.00  0.00    -0.204 F 
ATOM     24  C   UNL d   1      -0.984  -7.986   0.305  0.00  0.00     0.032 A 
ENDBRANCH   2  17
TORSDOF 4
