REMARK  4 active torsions:
REMARK  status: ('A' for Active; 'I' for Inactive)
REMARK    1  A    between atoms: N_2  and  C_1 
REMARK    2  A    between atoms: N_4  and  C_1 
REMARK    3  A    between atoms: C_3  and  N_2 
REMARK    4  A    between atoms: C_9  and  N_4 
ROOT
ATOM      1  C   UNL d   1       1.030  -2.133   1.347  0.00  0.00     0.045 A 
ATOM      2  C   UNL d   1       0.709  -3.525   1.311  0.00  0.00     0.001 A 
ATOM      3  C   UNL d   1       1.478  -4.409   2.114  0.00  0.00    -0.024 A 
ATOM      4  C   UNL d   1       2.113  -1.678   2.113  0.00  0.00     0.030 A 
ATOM      5  C   UNL d   1       2.850  -2.561   2.895  0.00  0.00     0.003 A 
ATOM      6  C   UNL d   1      -0.280  -4.121   0.485  0.00  0.00     0.014 A 
ATOM      7  C   UNL d   1       2.530  -3.914   2.897  0.00  0.00     0.012 A 
ATOM      8  C   UNL d   1       1.211  -5.790   2.110  0.00  0.00     0.012 A 
ATOM      9  C   UNL d   1      -0.544  -5.495   0.499  0.00  0.00     0.001 A 
ATOM     10  C   UNL d   1       0.201  -6.328   1.316  0.00  0.00     0.001 A 
ENDROOT
BRANCH   1  11
ATOM     11  N   UNL d   1       0.389  -1.150   0.549  0.00  0.00    -0.333 N 
ATOM     12  H   UNL d   1       0.897  -0.283   0.431  0.00  0.00     0.168 HD
BRANCH  11  13
ATOM     13  C   UNL d   1      -0.952  -0.995   0.320  0.00  0.00     0.172 C 
ATOM     14  S   UNL d   1      -2.193  -1.298   1.398  0.00  0.00    -0.041 SA
BRANCH  13  15
ATOM     15  N   UNL d   1      -1.275  -0.473  -0.903  0.00  0.00    -0.363 N 
ATOM     16  H   UNL d   1      -2.276  -0.429  -1.066  0.00  0.00     0.162 HD
BRANCH  15  17
ATOM     17  C   UNL d   1      -0.396  -0.297  -2.061  0.00  0.00     0.075 C 
ATOM     18  C   UNL d   1       0.047  -1.637  -2.648  0.00  0.00     0.032 C 
ATOM     19  C   UNL d   1      -1.109   0.530  -3.128  0.00  0.00     0.032 C 
ENDBRANCH  15  17
ENDBRANCH  13  15
ENDBRANCH  11  13
ENDBRANCH   1  11
TORSDOF 4
