REMARK  6 active torsions:
REMARK  status: ('A' for Active; 'I' for Inactive)
REMARK    1  A    between atoms: C_11  and  C_1 
REMARK    2  A    between atoms: N_6  and  C_2 
REMARK       I    between atoms: C_9  and  N_6 
REMARK    3  A    between atoms: N_7  and  C_12 
REMARK    4  A    between atoms: C_8  and  C_9 
REMARK    5  A    between atoms: O_25  and  C_11 
REMARK    6  A    between atoms: C_26  and  O_25 
ROOT
ATOM      1  C   UNL d   1       2.123  -0.824  -0.420  0.00  0.00     0.138 C 
ATOM      2  C   UNL d   1       1.035  -1.684  -0.274  0.00  0.00     0.081 C 
ATOM      3  N   UNL d   1       1.642   0.451  -0.144  0.00  0.00    -0.344 N 
ATOM      4  C   UNL d   1      -0.146  -0.881  -0.142  0.00  0.00     0.022 A 
ATOM      5  C   UNL d   1       0.259   0.448  -0.069  0.00  0.00     0.047 A 
ATOM      6  C   UNL d   1      -1.528  -1.174  -0.068  0.00  0.00     0.052 A 
ATOM      7  C   UNL d   1      -2.448  -0.115   0.029  0.00  0.00     0.103 A 
ATOM      8  C   UNL d   1      -0.655   1.511   0.054  0.00  0.00     0.033 A 
ATOM      9  C   UNL d   1      -2.019   1.212   0.090  0.00  0.00     0.038 A 
ATOM     10  C   UNL d   1       2.408   1.681  -0.078  0.00  0.00     0.157 C 
ENDROOT
BRANCH   2  11
ATOM     11  N   UNL d   1       0.978  -3.072  -0.319  0.00  0.00    -0.318 N 
ATOM     12  C   UNL d   1       2.004  -3.965  -0.073  0.00  0.00     0.282 C 
ATOM     13  O   UNL d   1       3.111  -3.658   0.362  0.00  0.00    -0.265 OA
ATOM     14  H   UNL d   1       0.055  -3.479  -0.418  0.00  0.00     0.169 HD
BRANCH  12  15
ATOM     15  C   UNL d   1       1.637  -5.341  -0.336  0.00  0.00     0.167 A 
ATOM     16  O   UNL d   1       0.354  -5.629  -0.706  0.00  0.00    -0.233 OA
ATOM     17  N   UNL d   1       0.226  -6.990  -0.923  0.00  0.00    -0.272 N 
ATOM     18  C   UNL d   1       1.436  -7.501  -0.684  0.00  0.00     0.117 A 
ATOM     19  HN  UNL d   1      -0.614  -7.495  -1.206  1.00  0.00     0.194 HD
ATOM     20  C   UNL d   1       2.359  -6.513  -0.302  0.00  0.00     0.064 A 
ENDBRANCH  12  15
ENDBRANCH   2  11
BRANCH   1  21
ATOM     21  C   UNL d   1       3.486  -1.089  -0.849  0.00  0.00     0.312 C 
ATOM     22  O   UNL d   1       4.481  -0.473  -0.488  0.00  0.00    -0.258 OA
BRANCH  21  23
ATOM     23  O   UNL d   1       3.477  -2.019  -1.850  0.00  0.00    -0.317 OA
BRANCH  23  24
ATOM     24  C   UNL d   1       4.731  -2.312  -2.485  0.00  0.00     0.175 C 
ATOM     25  C   UNL d   1       5.116  -3.755  -2.214  0.00  0.00     0.034 C 
ENDBRANCH  23  24
ENDBRANCH  21  23
ENDBRANCH   1  21
BRANCH   7  26
ATOM     26  N   UNL d   1      -3.887  -0.410   0.047  0.00  0.00    -0.116 N 
ATOM     27  O   UNL d   1      -4.230  -1.600  -0.006  0.00  0.00    -0.532 OA
ATOM     28  O   UNL d   1      -4.673   0.546   0.108  0.00  0.00    -0.532 OA
ENDBRANCH   7  26
TORSDOF 6
