REMARK  3 active torsions:
REMARK  status: ('A' for Active; 'I' for Inactive)
REMARK    1  A    between atoms: N_6  and  C_1 
REMARK    2  A    between atoms: C_11  and  N_4 
REMARK    3  A    between atoms: C_12  and  N_6 
ROOT
ATOM      1  N   UNL d   1      -3.747  -4.540  -3.011  0.00  0.00    -0.192 NA
ATOM      2  C   UNL d   1      -2.889  -3.944  -2.500  0.00  0.00     0.089 C 
ATOM      3  C   UNL d   1      -1.839  -3.207  -1.891  0.00  0.00     0.118 C 
ATOM      4  C   UNL d   1      -1.471  -3.326  -0.598  0.00  0.00     0.015 C 
ATOM      5  C   UNL d   1      -2.126  -4.277   0.375  0.00  0.00     0.069 C 
ENDROOT
BRANCH   4   6
ATOM      6  N   UNL d   1      -0.427  -2.593  -0.057  0.00  0.00    -0.353 N 
ATOM      7  H   UNL d   1       0.432  -3.127   0.108  0.00  0.00     0.166 HD
BRANCH   6   8
ATOM      8  C   UNL d   1      -0.223  -1.237  -0.038  0.00  0.00     0.127 C 
ATOM      9  C   UNL d   1       1.166  -0.675  -0.150  0.00  0.00     0.295 C 
ATOM     10  N   UNL d   1       1.058   0.708   0.003  0.00  0.00    -0.217 N 
ATOM     11  O   UNL d   1       2.146  -1.383  -0.337  0.00  0.00    -0.264 OA
ATOM     12  N   UNL d   1      -0.303   1.033   0.258  0.00  0.00    -0.289 N 
ATOM     13  C   UNL d   1      -1.022  -0.162   0.105  0.00  0.00     0.057 C 
ATOM     14  C   UNL d   1      -0.800   2.351  -0.121  0.00  0.00     0.178 C 
ATOM     15  C   UNL d   1      -2.514  -0.246   0.182  0.00  0.00     0.072 C 
BRANCH  10  16
ATOM     16  C   UNL d   1       2.131   1.625  -0.015  0.00  0.00     0.060 A 
ATOM     17  C   UNL d   1       3.223   1.399  -0.867  0.00  0.00     0.031 A 
ATOM     18  C   UNL d   1       4.288   2.303  -0.930  0.00  0.00     0.002 A 
ATOM     19  C   UNL d   1       4.288   3.434  -0.122  0.00  0.00     0.000 A 
ATOM     20  C   UNL d   1       3.227   3.659   0.752  0.00  0.00     0.002 A 
ATOM     21  C   UNL d   1       2.156   2.760   0.805  0.00  0.00     0.031 A 
ENDBRANCH  10  16
ENDBRANCH   6   8
ENDBRANCH   4   6
TORSDOF 3
