REMARK  1 active torsions:
REMARK  status: ('A' for Active; 'I' for Inactive)
REMARK    1  A    between atoms: C_8  and  C_4 
ROOT
ATOM      1  C   UNL d   1      -0.038   0.698   0.042  0.00  0.00     0.024 C 
ATOM      2  C   UNL d   1      -0.064  -0.648   0.113  0.00  0.00     0.021 C 
ATOM      3  C   UNL d   1      -2.592   0.677   0.058  0.00  0.00     0.057 C 
ATOM      4  C   UNL d   1      -1.315   1.507  -0.127  0.00  0.00     0.104 C 
ATOM      5  N   UNL d   1      -1.280  -1.309   0.144  0.00  0.00    -0.362 N 
ATOM      6  C   UNL d   1      -2.517  -0.673   0.145  0.00  0.00     0.023 C 
ATOM      7  C   UNL d   1       1.255   1.426   0.169  0.00  0.00     0.159 C 
ATOM      8  C   UNL d   1      -3.834   1.380   0.106  0.00  0.00     0.098 C 
ATOM      9  N   UNL d   1      -4.842   1.956   0.162  0.00  0.00    -0.192 NA
ATOM     10  C   UNL d   1       1.193  -1.492   0.120  0.00  0.00     0.067 C 
ATOM     11  C   UNL d   1       2.450  -0.732  -0.368  0.00  0.00    -0.036 C 
ATOM     12  C   UNL d   1       2.519   0.616   0.364  0.00  0.00     0.092 C 
ATOM     13  O   UNL d   1       1.284   2.655   0.207  0.00  0.00    -0.293 OA
ATOM     14  C   UNL d   1      -3.721  -1.583   0.185  0.00  0.00     0.069 C 
ATOM     15  C   UNL d   1       2.416  -0.509  -1.896  0.00  0.00     0.015 C 
ATOM     16  C   UNL d   1       3.710  -1.553  -0.044  0.00  0.00     0.015 C 
ATOM     17  H   UNL d   1      -1.271  -2.326   0.144  0.00  0.00     0.165 HD
ENDROOT
BRANCH   4  18
ATOM     18  C   UNL d   1      -1.329   2.272  -1.460  0.00  0.00    -0.022 A 
ATOM     19  C   UNL d   1      -1.397   1.672  -2.736  0.00  0.00     0.041 A 
ATOM     20 CL   UNL d   1      -1.502  -0.032  -2.997  0.00  0.00    -0.084 Cl
ATOM     21  C   UNL d   1      -1.380   2.456  -3.894  0.00  0.00     0.024 A 
ATOM     22  C   UNL d   1      -1.298   3.843  -3.811  0.00  0.00     0.002 A 
ATOM     23  C   UNL d   1      -1.235   4.454  -2.565  0.00  0.00     0.001 A 
ATOM     24  C   UNL d   1      -1.252   3.679  -1.404  0.00  0.00     0.010 A 
ENDBRANCH   4  18
TORSDOF 1
