REMARK  6 active torsions:
REMARK  status: ('A' for Active; 'I' for Inactive)
REMARK    1  A    between atoms: C_3  and  C_1 
REMARK       I    between atoms: N_10  and  C_3 
REMARK    2  A    between atoms: C_4  and  C_12 
REMARK    3  A    between atoms: C_7  and  O_15 
REMARK       I    between atoms: C_9  and  N_11 
REMARK    4  A    between atoms: C_13  and  C_9 
REMARK    5  A    between atoms: N_11  and  N_10 
REMARK    6  A    between atoms: O_15  and  C_18 
ROOT
ATOM      1  C   UNL d   1      -3.819  -0.211  -0.045  0.00  0.00     0.286 C 
ATOM      2  N   UNL d   1      -4.476  -1.427  -0.016  0.00  0.00    -0.262 N 
ATOM      3  O   UNL d   1      -4.438   0.853  -0.116  0.00  0.00    -0.264 OA
ATOM      4  H   UNL d   1      -4.015  -2.322   0.111  0.00  0.00     0.190 HD
ENDROOT
BRANCH   1   5
ATOM      5  C   UNL d   1      -2.376  -0.266   0.006  0.00  0.00     0.103 A 
ATOM      6  N   UNL d   1      -1.615   0.885   0.028  0.00  0.00    -0.351 N 
ATOM      7  C   UNL d   1      -0.271   0.594   0.032  0.00  0.00     0.043 A 
ATOM      8  H   UNL d   1      -2.010   1.817   0.025  0.00  0.00     0.166 HD
ATOM      9  C   UNL d   1       0.844   1.440   0.050  0.00  0.00     0.033 A 
ATOM     10  C   UNL d   1      -0.158  -0.792   0.018  0.00  0.00    -0.004 A 
ATOM     11  C   UNL d   1       2.115   0.846   0.041  0.00  0.00     0.039 A 
ATOM     12  C   UNL d   1       2.263  -0.538  -0.019  0.00  0.00     0.079 A 
ATOM     13  C   UNL d   1       1.129  -1.364  -0.000  0.00  0.00     0.051 A 
ATOM     14  C   UNL d   1      -1.481  -1.323   0.025  0.00  0.00     0.049 A 
BRANCH  12  15
ATOM     15  O   UNL d   1       3.453  -1.203   0.008  0.00  0.00    -0.255 OA
BRANCH  15  16
ATOM     16  C   UNL d   1       4.556  -0.694  -0.730  0.00  0.00     0.530 C 
ATOM     17  F   UNL d   1       4.332   0.488  -1.339  0.00  0.00    -0.144 F 
ATOM     18  F   UNL d   1       5.610  -0.552   0.104  0.00  0.00    -0.144 F 
ATOM     19  F   UNL d   1       4.895  -1.596  -1.680  0.00  0.00    -0.144 F 
ENDBRANCH  15  16
ENDBRANCH  12  15
ENDBRANCH   1   5
BRANCH   2  20
ATOM     20  N   UNL d   1      -5.876  -1.432  -0.040  0.00  0.00    -0.263 N 
ATOM     21  C   UNL d   1      -6.543  -2.641  -0.000  0.00  0.00     0.270 C 
ATOM     22  O   UNL d   1      -5.972  -3.725   0.062  0.00  0.00    -0.266 OA
ATOM     23  H   UNL d   1      -6.326  -0.550  -0.281  0.00  0.00     0.190 HD
BRANCH  21  24
ATOM     24  C   UNL d   1      -8.028  -2.558  -0.070  0.00  0.00     0.034 A 
ATOM     25  C   UNL d   1      -8.739  -3.572  -0.725  0.00  0.00     0.033 A 
ATOM     26  C   UNL d   1     -10.140  -3.512  -0.825  0.00  0.00     0.048 A 
ATOM     27  C   UNL d   1     -10.817  -2.435  -0.229  0.00  0.00     0.016 A 
ATOM     28  C   UNL d   1     -10.113  -1.437   0.446  0.00  0.00     0.002 A 
ATOM     29  C   UNL d   1      -8.721  -1.495   0.524  0.00  0.00     0.017 A 
BRANCH  26  30
ATOM     30  C   UNL d   1     -10.927  -4.567  -1.566  0.00  0.00     0.417 C 
ATOM     31  F   UNL d   1     -10.153  -5.548  -2.107  0.00  0.00    -0.166 F 
ATOM     32  F   UNL d   1     -11.832  -5.198  -0.770  0.00  0.00    -0.166 F 
ATOM     33  F   UNL d   1     -11.641  -4.042  -2.600  0.00  0.00    -0.166 F 
ENDBRANCH  26  30
ENDBRANCH  21  24
ENDBRANCH   2  20
TORSDOF 6
