REMARK  11 active torsions:
REMARK  status: ('A' for Active; 'I' for Inactive)
REMARK    1  A    between atoms: C_4  and  N_1 
REMARK    2  A    between atoms: N_2  and  C_3 
REMARK    3  A    between atoms: O_20  and  C_13 
REMARK    4  A    between atoms: C_14  and  O_19 
REMARK    5  A    between atoms: O_19  and  C_22 
REMARK    6  A    between atoms: C_21  and  O_20 
REMARK    7  A    between atoms: C_24  and  C_21 
REMARK    8  A    between atoms: C_22  and  C_23 
REMARK    9  A    between atoms: C_23  and  C_26 
REMARK   10  A    between atoms: C_25  and  C_24 
REMARK   11  A    between atoms: C_26  and  C_25 
ROOT
ATOM      1  C   UNL d   1      -1.174  -6.822  -5.147  0.00  0.00     0.002 C 
ENDROOT
BRANCH   1   2
ATOM      2  C   UNL d   1      -1.730  -5.409  -4.959  0.00  0.00     0.027 C 
BRANCH   2   3
ATOM      3  C   UNL d   1      -3.205  -5.419  -4.566  0.00  0.00     0.175 C 
BRANCH   3   4
ATOM      4  O   UNL d   1      -3.642  -4.083  -4.322  0.00  0.00    -0.351 OA
BRANCH   4   5
ATOM      5  C   UNL d   1      -4.956  -3.968  -3.951  0.00  0.00     0.068 A 
ATOM      6  C   UNL d   1      -5.259  -2.835  -3.192  0.00  0.00     0.039 A 
ATOM      7  C   UNL d   1      -6.566  -2.607  -2.749  0.00  0.00     0.039 A 
ATOM      8  C   UNL d   1      -7.575  -3.516  -3.087  0.00  0.00     0.103 A 
ATOM      9  C   UNL d   1      -7.286  -4.641  -3.867  0.00  0.00     0.039 A 
ATOM     10  C   UNL d   1      -5.974  -4.861  -4.298  0.00  0.00     0.039 A 
BRANCH   8  11
ATOM     11  N   UNL d   1      -8.949  -3.290  -2.623  0.00  0.00    -0.116 N 
ATOM     12  O   UNL d   1      -9.810  -4.116  -2.951  0.00  0.00    -0.532 OA
ATOM     13  O   UNL d   1      -9.166  -2.287  -1.928  0.00  0.00    -0.532 OA
ENDBRANCH   8  11
ENDBRANCH   4   5
ENDBRANCH   3   4
ENDBRANCH   2   3
ENDBRANCH   1   2
BRANCH   1  14
ATOM     14  C   UNL d   1      -1.902  -7.624  -6.234  0.00  0.00     0.002 C 
BRANCH  14  15
ATOM     15  C   UNL d   1      -1.351  -9.037  -6.423  0.00  0.00     0.027 C 
BRANCH  15  16
ATOM     16  C   UNL d   1      -1.460  -9.889  -5.161  0.00  0.00     0.175 C 
BRANCH  16  17
ATOM     17  O   UNL d   1      -0.999 -11.203  -5.469  0.00  0.00    -0.351 OA
BRANCH  17  18
ATOM     18  C   UNL d   1      -1.099 -12.116  -4.456  0.00  0.00     0.068 A 
ATOM     19  C   UNL d   1      -1.189 -13.446  -4.875  0.00  0.00     0.039 A 
ATOM     20  C   UNL d   1      -1.294 -14.479  -3.943  0.00  0.00     0.039 A 
ATOM     21  C   UNL d   1      -1.290 -14.174  -2.578  0.00  0.00     0.103 A 
ATOM     22  C   UNL d   1      -1.175 -12.846  -2.147  0.00  0.00     0.039 A 
ATOM     23  C   UNL d   1      -1.079 -11.819  -3.090  0.00  0.00     0.039 A 
BRANCH  21  24
ATOM     24  N   UNL d   1      -1.407 -15.253  -1.590  0.00  0.00    -0.116 N 
ATOM     25  O   UNL d   1      -1.530 -16.411  -2.012  0.00  0.00    -0.532 OA
ATOM     26  O   UNL d   1      -1.381 -14.941  -0.391  0.00  0.00    -0.532 OA
ENDBRANCH  21  24
ENDBRANCH  17  18
ENDBRANCH  16  17
ENDBRANCH  15  16
ENDBRANCH  14  15
ENDBRANCH   1  14
TORSDOF 11
