REMARK  6 active torsions:
REMARK  status: ('A' for Active; 'I' for Inactive)
REMARK    1  A    between atoms: C_15  and  N_1 
REMARK    2  A    between atoms: C_6  and  C_2 
REMARK    3  A    between atoms: C_20  and  N_5 
REMARK    4  A    between atoms: C_18  and  C_12 
REMARK    5  A    between atoms: C_14  and  C_17 
REMARK    6  A    between atoms: C_28  and  C_15 
ROOT
ATOM      1  N   UNL d   1      -0.697   1.182  -0.030  0.00  0.00    -0.261 N 
ATOM      2  C   UNL d   1       1.459   0.026   0.091  0.00  0.00     0.094 C 
ATOM      3  C   UNL d   1      -1.379  -0.018  -0.206  0.00  0.00     0.332 C 
ATOM      4  C   UNL d   1       0.681   1.297   0.113  0.00  0.00     0.267 C 
ATOM      5  N   UNL d   1      -0.617  -1.174  -0.025  0.00  0.00    -0.304 N 
ATOM      6  C   UNL d   1       0.758  -1.116   0.049  0.00  0.00     0.117 C 
ATOM      7  O   UNL d   1      -2.573  -0.068  -0.508  0.00  0.00    -0.246 OA
ATOM      8  O   UNL d   1       1.245   2.385   0.215  0.00  0.00    -0.267 OA
ENDROOT
BRANCH   2   9
ATOM      9  C   UNL d   1       2.889   0.047   0.101  0.00  0.00     0.145 A 
ATOM     10  N   UNL d   1       3.560  -1.010  -0.486  0.00  0.00    -0.318 N 
ATOM     11  C   UNL d   1       4.822  -0.703  -0.284  0.00  0.00     0.182 A 
ATOM     12  HN  UNL d   1       3.171  -1.826  -0.959  1.00  0.00     0.169 HD
ATOM     13  O   UNL d   1       4.979   0.470   0.396  0.00  0.00    -0.217 OA
ATOM     14  N   UNL d   1       3.701   0.957   0.656  0.00  0.00    -0.242 N 
ATOM     15  HN  UNL d   1       3.443   1.809   1.154  1.00  0.00     0.196 HD
BRANCH  11  16
ATOM     16  C   UNL d   1       6.026  -1.455  -0.616  0.00  0.00     0.017 A 
ATOM     17  C   UNL d   1       5.917  -2.649  -1.346  0.00  0.00     0.017 A 
ATOM     18  C   UNL d   1       7.041  -3.444  -1.593  0.00  0.00     0.017 A 
ATOM     19  C   UNL d   1       8.301  -3.062  -1.114  0.00  0.00     0.048 A 
ATOM     20  C   UNL d   1       8.421  -1.846  -0.427  0.00  0.00     0.017 A 
ATOM     21  C   UNL d   1       7.296  -1.050  -0.183  0.00  0.00     0.017 A 
BRANCH  19  22
ATOM     22  C   UNL d   1       9.512  -3.946  -1.298  0.00  0.00     0.417 C 
ATOM     23  F   UNL d   1       9.239  -5.119  -1.934  0.00  0.00    -0.166 F 
ATOM     24  F   UNL d   1      10.494  -3.345  -2.023  0.00  0.00    -0.166 F 
ATOM     25  F   UNL d   1      10.081  -4.291  -0.109  0.00  0.00    -0.166 F 
ENDBRANCH  19  22
ENDBRANCH  11  16
ENDBRANCH   2   9
BRANCH   1  26
ATOM     26  C   UNL d   1      -1.486   2.410  -0.023  0.00  0.00     0.175 C 
BRANCH  26  27
ATOM     27  C   UNL d   1      -2.146   2.641   1.323  0.00  0.00    -0.040 A 
ATOM     28  C   UNL d   1      -1.478   3.332   2.343  0.00  0.00     0.009 A 
ATOM     29  C   UNL d   1      -2.073   3.486   3.598  0.00  0.00     0.001 A 
ATOM     30  C   UNL d   1      -3.332   2.945   3.848  0.00  0.00     0.000 A 
ATOM     31  C   UNL d   1      -4.008   2.260   2.841  0.00  0.00     0.001 A 
ATOM     32  C   UNL d   1      -3.420   2.115   1.584  0.00  0.00     0.009 A 
ENDBRANCH  26  27
ENDBRANCH   1  26
BRANCH   5  33
ATOM     33  C   UNL d   1      -1.308  -2.482  -0.074  0.00  0.00     0.086 C 
ATOM     34  C   UNL d   1      -1.198  -3.120  -1.459  0.00  0.00     0.032 C 
ATOM     35  C   UNL d   1      -0.859  -3.455   1.024  0.00  0.00     0.032 C 
ENDBRANCH   5  33
TORSDOF 6
