REMARK  2 active torsions:
REMARK  status: ('A' for Active; 'I' for Inactive)
REMARK    1  A    between atoms: C_11  and  C_5 
REMARK    2  A    between atoms: N_6  and  C_10 
ROOT
ATOM      1  C   UNL d   1      -0.315   0.070  -0.715  0.00  0.00     0.688 A 
ATOM      2  N   UNL d   1      -1.576   0.112  -1.098  0.00  0.00    -0.189 N 
ATOM      3  HN  UNL d   1      -1.922   0.219  -2.052  1.00  0.00     0.184 HD
ATOM      4  N   UNL d   1      -0.241  -0.061   0.670  0.00  0.00    -0.166 N 
ATOM      5  C   UNL d   1      -2.330  -0.018   0.044  0.00  0.00     0.076 A 
ATOM      6  C   UNL d   1      -1.520  -0.112   1.154  0.00  0.00     0.145 A 
ATOM      7  N   UNL d   1       0.822   0.138  -1.469  0.00  0.00    -0.201 N 
ATOM      8  HN  UNL d   1       0.791   0.230  -2.484  1.00  0.00     0.183 HD
ATOM      9  C   UNL d   1       0.965  -0.121   1.352  0.00  0.00     0.116 A 
ATOM     10  C   UNL d   1       2.109  -0.056   0.659  0.00  0.00     0.036 A 
ATOM     11  C   UNL d   1       1.943   0.077  -0.818  0.00  0.00     0.107 A 
ENDROOT
BRANCH   5  12
ATOM     12  C   UNL d   1      -3.783  -0.036   0.047  0.00  0.00    -0.007 A 
ATOM     13  C   UNL d   1      -4.500  -0.679   1.066  0.00  0.00     0.016 A 
ATOM     14  C   UNL d   1      -5.898  -0.700   1.052  0.00  0.00     0.037 A 
ATOM     15  C   UNL d   1      -6.588  -0.069   0.010  0.00  0.00     0.102 A 
ATOM     16  C   UNL d   1      -5.888   0.579  -1.015  0.00  0.00     0.037 A 
ATOM     17  C   UNL d   1      -4.488   0.587  -0.994  0.00  0.00     0.016 A 
BRANCH  15  18
ATOM     18  N   UNL d   1      -8.055  -0.095  -0.008  0.00  0.00    -0.116 N 
ATOM     19  O   UNL d   1      -8.632  -0.689   0.915  0.00  0.00    -0.532 OA
ATOM     20  O   UNL d   1      -8.632   0.480  -0.942  0.00  0.00    -0.532 OA
ENDBRANCH  15  18
ENDBRANCH   5  12
TORSDOF 2
