REMARK  6 active torsions:
REMARK  status: ('A' for Active; 'I' for Inactive)
REMARK    1  A    between atoms: C_3  and  C_1 
REMARK    2  A    between atoms: C_2  and  C_4 
REMARK       I    between atoms: N_9  and  C_3 
REMARK    3  A    between atoms: C_4  and  O_14 
REMARK    4  A    between atoms: C_17  and  N_9 
REMARK    5  A    between atoms: O_14  and  C_21 
REMARK    6  A    between atoms: C_21  and  C_22 
ROOT
ATOM      1  C   UNL d   1       2.392   3.162  -0.091  0.00  0.00     0.035 A 
ATOM      2  C   UNL d   1       2.893   2.267  -1.041  0.00  0.00     0.038 A 
ATOM      3  C   UNL d   1       4.272   2.032  -1.167  0.00  0.00    -0.032 A 
ATOM      4  C   UNL d   1       4.669   3.671   0.571  0.00  0.00     0.003 A 
ATOM      5  C   UNL d   1       3.294   3.893   0.688  0.00  0.00     0.029 A 
ATOM      6  C   UNL d   1       5.155   2.733  -0.340  0.00  0.00     0.009 A 
ENDROOT
BRANCH   1   7
ATOM      7  N   UNL d   1       1.010   3.357   0.143  0.00  0.00    -0.322 N 
ATOM      8  C   UNL d   1      -0.021   2.519  -0.255  0.00  0.00     0.264 C 
ATOM      9  O   UNL d   1       0.178   1.459  -0.851  0.00  0.00    -0.267 OA
ATOM     10  H   UNL d   1       0.768   4.120   0.764  0.00  0.00     0.169 HD
BRANCH   8  11
ATOM     11  C   UNL d   1      -1.374   2.953   0.102  0.00  0.00     0.094 A 
ATOM     12  C   UNL d   1      -1.862   4.094   0.716  0.00  0.00     0.057 A 
ATOM     13  C   UNL d   1      -3.288   4.113   0.787  0.00  0.00     0.032 A 
ATOM     14 CL   UNL d   1      -0.954   5.412   1.333  0.00  0.00    -0.083 Cl
ATOM     15  C   UNL d   1      -3.855   2.975   0.262  0.00  0.00     0.052 A 
ATOM     16  S   UNL d   1      -2.675   1.887  -0.301  0.00  0.00    -0.095 SA
ENDBRANCH   8  11
ENDBRANCH   1   7
BRANCH   3  17
ATOM     17  C   UNL d   1       4.776   0.978  -2.122  0.00  0.00     0.217 C 
BRANCH  17  18
ATOM     18  O   UNL d   1       5.693   1.558  -3.056  0.00  0.00    -0.312 OA
BRANCH  18  19
ATOM     19  C   UNL d   1       6.947   1.037  -3.083  0.00  0.00     0.302 C 
ATOM     20  O   UNL d   1       7.338   0.165  -2.312  0.00  0.00    -0.259 OA
BRANCH  19  21
ATOM     21  C   UNL d   1       7.743   1.645  -4.136  0.00  0.00     0.101 A 
ATOM     22  C   UNL d   1       7.438   2.582  -5.109  0.00  0.00     0.057 A 
ATOM     23  C   UNL d   1       8.550   2.875  -5.956  0.00  0.00     0.032 A 
ATOM     24 CL   UNL d   1       5.936   3.365  -5.380  0.00  0.00    -0.083 Cl
ATOM     25  C   UNL d   1       9.675   2.166  -5.608  0.00  0.00     0.052 A 
ATOM     26  S   UNL d   1       9.392   1.148  -4.271  0.00  0.00    -0.094 SA
ENDBRANCH  19  21
ENDBRANCH  18  19
ENDBRANCH  17  18
ENDBRANCH   3  17
TORSDOF 6
