REMARK  5 active torsions:
REMARK  status: ('A' for Active; 'I' for Inactive)
REMARK    1  A    between atoms: N_7  and  C_1 
REMARK       I    between atoms: C_8  and  N_7 
REMARK    2  A    between atoms: C_21  and  C_8 
REMARK    3  A    between atoms: C_9  and  C_22 
REMARK    4  A    between atoms: S_20  and  C_21 
REMARK    5  A    between atoms: C_22  and  S_20 
ROOT
ATOM      1  N   UNL d   1       1.544  -3.293  -1.213  0.00  0.00    -0.321 N 
ATOM      2  C   UNL d   1       1.304  -3.894   0.009  0.00  0.00     0.231 C 
ATOM      3  O   UNL d   1       1.096  -3.327   1.075  0.00  0.00    -0.272 OA
ATOM      4  H   UNL d   1       1.623  -3.917  -2.015  0.00  0.00     0.169 HD
ENDROOT
BRANCH   1   5
ATOM      5  C   UNL d   1       1.683  -1.914  -1.513  0.00  0.00     0.119 A 
ATOM      6  C   UNL d   1       1.751  -0.857  -0.596  0.00  0.00     0.188 A 
ATOM      7  C   UNL d   1       1.899   0.461  -1.035  0.00  0.00     0.199 A 
ATOM      8  F   UNL d   1       1.721  -1.055   0.726  0.00  0.00    -0.200 F 
ATOM      9  F   UNL d   1       1.970   1.456  -0.139  0.00  0.00    -0.199 F 
ATOM     10  C   UNL d   1       1.987   0.750  -2.388  0.00  0.00     0.199 A 
ATOM     11  C   UNL d   1       1.929  -0.279  -3.312  0.00  0.00     0.199 A 
ATOM     12  F   UNL d   1       2.133   2.017  -2.798  0.00  0.00    -0.199 F 
ATOM     13  C   UNL d   1       1.783  -1.593  -2.877  0.00  0.00     0.188 A 
ATOM     14  F   UNL d   1       2.015  -0.012  -4.622  0.00  0.00    -0.199 F 
ATOM     15  F   UNL d   1       1.725  -2.581  -3.785  0.00  0.00    -0.200 F 
ENDBRANCH   1   5
BRANCH   2  16
ATOM     16  C   UNL d   1       1.302  -5.412  -0.058  0.00  0.00     0.177 C 
BRANCH  16  17
ATOM     17  S   UNL d   1       2.993  -6.066  -0.160  0.00  0.00    -0.153 SA
BRANCH  17  18
ATOM     18  C   UNL d   1       3.666  -5.402   1.409  0.00  0.00     0.139 C 
BRANCH  18  19
ATOM     19  C   UNL d   1       5.060  -5.881   1.597  0.00  0.00     0.061 A 
ATOM     20  O   UNL d   1       6.046  -5.122   1.036  0.00  0.00    -0.326 OA
ATOM     21  C   UNL d   1       7.224  -5.744   1.297  0.00  0.00     0.142 A 
ATOM     22  C   UNL d   1       7.013  -6.887   2.031  0.00  0.00     0.027 A 
ATOM     23  C   UNL d   1       5.614  -6.973   2.235  0.00  0.00     0.035 A 
ENDBRANCH  18  19
ENDBRANCH  17  18
ENDBRANCH  16  17
ENDBRANCH   2  16
TORSDOF 5
