REMARK  2 active torsions:
REMARK  status: ('A' for Active; 'I' for Inactive)
REMARK    1  A    between atoms: C_2  and  C_1 
REMARK       I    between atoms: N_3  and  C_1 
REMARK    2  A    between atoms: C_11  and  N_3 
ROOT
ATOM      1  N   UNL d   1      -6.616   0.626   2.040  0.00  0.00    -0.191 NA
ATOM      2  C   UNL d   1      -5.486   0.658   1.778  0.00  0.00     0.099 C 
ATOM      3  C   UNL d   1      -1.333   0.732   0.862  0.00  0.00     0.035 A 
ATOM      4  C   UNL d   1      -4.088   0.691   1.461  0.00  0.00     0.044 A 
ATOM      5  C   UNL d   1      -2.078  -0.443   0.722  0.00  0.00     0.031 A 
ATOM      6  C   UNL d   1      -1.984   1.890   1.306  0.00  0.00     0.031 A 
ATOM      7  C   UNL d   1      -3.445  -0.466   1.021  0.00  0.00     0.025 A 
ATOM      8  C   UNL d   1      -3.355   1.872   1.599  0.00  0.00     0.025 A 
ENDROOT
BRANCH   3   9
ATOM      9  N   UNL d   1       0.053   0.810   0.612  0.00  0.00    -0.323 N 
ATOM     10  C   UNL d   1       0.862  -0.167   0.050  0.00  0.00     0.263 C 
ATOM     11  O   UNL d   1       0.435  -1.212  -0.435  0.00  0.00    -0.267 OA
ATOM     12  H   UNL d   1       0.519   1.675   0.860  0.00  0.00     0.169 HD
BRANCH  10  13
ATOM     13  C   UNL d   1       2.295   0.120   0.048  0.00  0.00     0.072 A 
ATOM     14  S   UNL d   1       2.974   1.521   0.763  0.00  0.00    -0.097 SA
ATOM     15  C   UNL d   1       4.567   1.035   0.370  0.00  0.00     0.050 A 
ATOM     16  C   UNL d   1       4.590  -0.164  -0.305  0.00  0.00     0.009 A 
ATOM     17  C   UNL d   1       3.281  -0.687  -0.493  0.00  0.00     0.025 A 
ENDBRANCH  10  13
ENDBRANCH   3   9
TORSDOF 2
