REMARK  3 active torsions:
REMARK  status: ('A' for Active; 'I' for Inactive)
REMARK       I    between atoms: N_2  and  C_1 
REMARK    1  A    between atoms: O_3  and  C_1 
REMARK    2  A    between atoms: C_5  and  N_2 
REMARK    3  A    between atoms: C_6  and  O_3 
ROOT
ATOM      1  C   UNL d   1       1.181  -0.101  -0.036  0.00  0.00     0.366 C 
ATOM      2  N   UNL d   1       0.522  -0.460   1.112  0.00  0.00    -0.329 N 
ATOM      3  O   UNL d   1       2.365   0.204  -0.099  0.00  0.00    -0.238 OA
ATOM      4  H   UNL d   1      -0.413  -0.813   0.961  0.00  0.00     0.165 HD
ENDROOT
BRANCH   1   5
ATOM      5  O   UNL d   1       0.313  -0.191  -1.119  0.00  0.00    -0.262 OA
BRANCH   5   6
ATOM      6  C   UNL d   1       0.777   0.054  -2.430  0.00  0.00     0.081 A 
ATOM      7  C   UNL d   1       0.243  -0.756  -3.435  0.00  0.00     0.039 A 
ATOM      8  C   UNL d   1       0.611  -0.540  -4.766  0.00  0.00     0.026 A 
ATOM      9  C   UNL d   1       1.503   0.485  -5.081  0.00  0.00     0.034 A 
ATOM     10  C   UNL d   1       2.030   1.297  -4.076  0.00  0.00     0.026 A 
ATOM     11 CL   UNL d   1       1.944   0.761  -6.721  0.00  0.00    -0.084 Cl
ATOM     12  C   UNL d   1       1.658   1.089  -2.745  0.00  0.00     0.039 A 
ENDBRANCH   5   6
ENDBRANCH   1   5
BRANCH   2  13
ATOM     13  C   UNL d   1       1.188  -0.737   2.392  0.00  0.00     0.024 C 
ATOM     14  C   UNL d   1       1.917   0.504   2.933  0.00  0.00     0.037 C 
ATOM     15  C   UNL d   1       0.124  -1.147   3.428  0.00  0.00     0.037 C 
ATOM     16  C   UNL d   1       2.176  -1.903   2.228  0.00  0.00     0.037 C 
ENDBRANCH   2  13
TORSDOF 3
