REMARK  1 active torsions:
REMARK  status: ('A' for Active; 'I' for Inactive)
REMARK    1  A    between atoms: C_6  and  C_4 
ROOT
ATOM      1  C   UNL d   1      -0.464  -0.358  -0.006  0.00  0.00     0.112 A 
ATOM      2  N   UNL d   1       1.619   0.899   0.060  0.00  0.00    -0.320 N 
ATOM      3  C   UNL d   1       0.244   0.956   0.045  0.00  0.00     0.266 A 
ATOM      4  C   UNL d   1       2.353  -0.261   0.026  0.00  0.00     0.069 A 
ATOM      5  C   UNL d   1       0.270  -1.484  -0.036  0.00  0.00     0.030 A 
ATOM      6  C   UNL d   1       1.717  -1.442  -0.021  0.00  0.00     0.034 A 
ATOM      7  C   UNL d   1      -1.882  -0.395  -0.021  0.00  0.00     0.105 C 
ATOM      8  N   UNL d   1      -3.038  -0.503  -0.037  0.00  0.00    -0.191 NA
ATOM      9  O   UNL d   1      -0.356   2.024   0.072  0.00  0.00    -0.267 OA
ATOM     10  H   UNL d   1       2.112   1.785   0.097  0.00  0.00     0.169 HD
ENDROOT
BRANCH   4  11
ATOM     11  C   UNL d   1       3.777  -0.151   0.043  0.00  0.00     0.101 A 
ATOM     12  O   UNL d   1       4.421   1.070   0.130  0.00  0.00    -0.321 OA
ATOM     13  C   UNL d   1       5.759   0.857   0.124  0.00  0.00     0.142 A 
ATOM     14  C   UNL d   1       6.029  -0.482   0.032  0.00  0.00     0.027 A 
ATOM     15  C   UNL d   1       4.770  -1.126  -0.020  0.00  0.00     0.041 A 
ENDBRANCH   4  11
TORSDOF 1
