REMARK  5 active torsions:
REMARK  status: ('A' for Active; 'I' for Inactive)
REMARK    1  A    between atoms: N_4  and  C_1 
REMARK    2  A    between atoms: N_6  and  C_1 
REMARK    3  A    between atoms: C_7  and  N_4 
REMARK    4  A    between atoms: C_12  and  N_6 
REMARK    5  A    between atoms: C_14  and  C_12 
ROOT
ATOM      1  C   UNL d   1       0.997   0.079  -0.049  0.00  0.00     0.172 C 
ATOM      2  S   UNL d   1       0.220  -1.367  -0.369  0.00  0.00    -0.041 SA
ENDROOT
BRANCH   1   3
ATOM      3  N   UNL d   1       0.426   1.288   0.279  0.00  0.00    -0.333 N 
ATOM      4  H   UNL d   1       0.839   2.062  -0.232  0.00  0.00     0.168 HD
BRANCH   3   5
ATOM      5  C   UNL d   1      -0.877   1.483   0.782  0.00  0.00     0.035 A 
ATOM      6  C   UNL d   1      -1.383   0.684   1.813  0.00  0.00     0.055 A 
ATOM      7  C   UNL d   1      -2.676   0.893   2.303  0.00  0.00     0.058 A 
ATOM      8 CL   UNL d   1      -3.219  -0.119   3.594  0.00  0.00    -0.082 Cl
ATOM      9  C   UNL d   1      -3.471   1.903   1.755  0.00  0.00     0.055 A 
ATOM     10  C   UNL d   1      -2.954   2.723   0.747  0.00  0.00     0.028 A 
ATOM     11 CL   UNL d   1      -5.093   2.192   2.277  0.00  0.00    -0.083 Cl
ATOM     12  C   UNL d   1      -1.649   2.531   0.281  0.00  0.00     0.031 A 
ENDBRANCH   3   5
ENDBRANCH   1   3
BRANCH   1  13
ATOM     13  N   UNL d   1       2.359   0.100  -0.183  0.00  0.00    -0.363 N 
ATOM     14  H   UNL d   1       2.730  -0.801  -0.462  0.00  0.00     0.162 HD
BRANCH  13  15
ATOM     15  C   UNL d   1       3.247   0.896   0.644  0.00  0.00     0.160 C 
BRANCH  15  16
ATOM     16  C   UNL d   1       3.792   2.134  -0.020  0.00  0.00    -0.041 A 
ATOM     17  C   UNL d   1       4.190   3.212   0.786  0.00  0.00     0.009 A 
ATOM     18  C   UNL d   1       4.793   4.340   0.227  0.00  0.00     0.001 A 
ATOM     19  C   UNL d   1       5.010   4.401  -1.147  0.00  0.00     0.000 A 
ATOM     20  C   UNL d   1       4.625   3.337  -1.960  0.00  0.00     0.001 A 
ATOM     21  C   UNL d   1       4.025   2.205  -1.401  0.00  0.00     0.009 A 
ENDBRANCH  15  16
ENDBRANCH  13  15
ENDBRANCH   1  13
TORSDOF 5
