REMARK  4 active torsions:
REMARK  status: ('A' for Active; 'I' for Inactive)
REMARK    1  A    between atoms: N_10  and  C_2 
REMARK    2  A    between atoms: C_8  and  C_6 
REMARK    3  A    between atoms: O_26  and  C_7 
REMARK       I    between atoms: C_9  and  N_10 
REMARK       I    between atoms: N_13  and  C_9 
REMARK    4  A    between atoms: C_12  and  N_13 
ROOT
ATOM      1  C   UNL d   1      -0.111  -0.817  -0.041  0.00  0.00     0.051 A 
ATOM      2  C   UNL d   1       1.273  -1.162  -0.272  0.00  0.00     0.057 C 
ATOM      3  N   UNL d   1      -1.817   0.892  -0.360  0.00  0.00    -0.351 N 
ATOM      4  HN  UNL d   1      -2.062   1.827  -0.686  1.00  0.00     0.166 HD
ATOM      5  C   UNL d   1      -0.560   0.444  -0.490  0.00  0.00     0.048 A 
ATOM      6  C   UNL d   1      -2.765   0.102   0.206  0.00  0.00     0.119 A 
ATOM      7  C   UNL d   1      -1.143  -1.621   0.528  0.00  0.00     0.085 A 
ATOM      8  C   UNL d   1      -2.455  -1.165   0.666  0.00  0.00     0.072 A 
ATOM      9  C   UNL d   1       2.090  -0.334  -1.074  0.00  0.00    -0.034 C 
ATOM     10  C   UNL d   1       0.308   1.295  -1.144  0.00  0.00     0.031 C 
ATOM     11  C   UNL d   1       1.607   0.917  -1.458  0.00  0.00     0.011 C 
ATOM     12  C   UNL d   1       3.500  -0.686  -1.476  0.00  0.00     0.050 C 
ENDROOT
BRANCH   2  13
ATOM     13  N   UNL d   1       1.856  -2.367   0.181  0.00  0.00    -0.307 N 
ATOM     14  C   UNL d   1       2.004  -2.883   1.440  0.00  0.00     0.325 C 
ATOM     15  N   UNL d   1       1.481  -2.176   2.485  0.00  0.00    -0.309 N 
ATOM     16  O   UNL d   1       2.669  -3.915   1.529  0.00  0.00    -0.247 OA
ATOM     17  H   UNL d   1       0.859  -1.425   2.234  0.00  0.00     0.170 HD
ATOM     18  H   UNL d   1       2.560  -2.794  -0.410  0.00  0.00     0.170 HD
BRANCH  15  19
ATOM     19  C   UNL d   1       1.579  -2.483   3.860  0.00  0.00     0.039 A 
ATOM     20  C   UNL d   1       2.379  -3.506   4.378  0.00  0.00     0.053 A 
ATOM     21  C   UNL d   1       2.415  -3.748   5.753  0.00  0.00     0.037 A 
ATOM     22 CL   UNL d   1       3.402  -5.016   6.372  0.00  0.00    -0.084 Cl
ATOM     23  C   UNL d   1       1.663  -2.978   6.633  0.00  0.00     0.048 A 
ATOM     24  C   UNL d   1       0.874  -1.954   6.122  0.00  0.00     0.037 A 
ATOM     25  C   UNL d   1       0.829  -1.701   4.748  0.00  0.00     0.053 A 
ATOM     26 CL   UNL d   1      -0.063  -0.988   7.196  0.00  0.00    -0.084 Cl
ENDBRANCH  15  19
ENDBRANCH   2  13
BRANCH   7  27
ATOM     27  O   UNL d   1      -0.907  -2.875   1.028  0.00  0.00    -0.355 OA
ATOM     28  C   UNL d   1      -0.899  -3.870   0.001  0.00  0.00     0.210 C 
ENDBRANCH   7  27
BRANCH   6  29
ATOM     29  C   UNL d   1      -4.204   0.598   0.267  0.00  0.00     0.432 C 
ATOM     30  F   UNL d   1      -4.340   1.942   0.096  0.00  0.00    -0.165 F 
ATOM     31  F   UNL d   1      -4.992   0.017  -0.684  0.00  0.00    -0.165 F 
ATOM     32  F   UNL d   1      -4.807   0.317   1.461  0.00  0.00    -0.165 F 
ENDBRANCH   6  29
TORSDOF 4
