REMARK  9 active torsions:
REMARK  status: ('A' for Active; 'I' for Inactive)
REMARK    1  A    between atoms: S_2  and  C_1 
REMARK    2  A    between atoms: S_3  and  C_1 
REMARK    3  A    between atoms: C_4  and  C_1 
REMARK    4  A    between atoms: C_9  and  S_2 
REMARK    5  A    between atoms: C_10  and  S_3 
REMARK    6  A    between atoms: C_5  and  C_9 
REMARK    7  A    between atoms: O_14  and  C_5 
REMARK    8  A    between atoms: C_6  and  C_10 
REMARK    9  A    between atoms: O_13  and  C_6 
ROOT
ATOM      1  C   UNL d   1       2.501  -0.055  -0.016  0.00  0.00     0.080 C 
ATOM      2  C   UNL d   1       3.032   1.394   0.079  0.00  0.00     0.044 C 
ENDROOT
BRANCH   1   3
ATOM      3  S   UNL d   1       3.264  -1.064   1.361  0.00  0.00    -0.133 SA
BRANCH   3   4
ATOM      4  C   UNL d   1       5.059  -0.794   1.149  0.00  0.00     0.185 C 
BRANCH   4   5
ATOM      5  C   UNL d   1       5.861  -1.567   2.181  0.00  0.00     0.149 C 
ATOM      6  O   UNL d   1       7.085  -1.552   2.208  0.00  0.00    -0.649 OA
BRANCH   5   7
ATOM      7  O   UNL d   1       5.139  -2.268   3.083  0.00  0.00    -0.776 OA
ATOM      8  H   UNL d   1       4.176  -2.165   2.911  0.00  0.00     0.167 HD
ENDBRANCH   5   7
ENDBRANCH   4   5
ENDBRANCH   3   4
ENDBRANCH   1   3
BRANCH   1   9
ATOM      9  S   UNL d   1       3.100  -0.680  -1.659  0.00  0.00    -0.133 SA
BRANCH   9  10
ATOM     10  C   UNL d   1       2.483  -2.406  -1.669  0.00  0.00     0.185 C 
BRANCH  10  11
ATOM     11  C   UNL d   1       2.893  -3.126  -2.945  0.00  0.00     0.149 C 
ATOM     12  O   UNL d   1       2.624  -4.303  -3.159  0.00  0.00    -0.649 OA
BRANCH  11  13
ATOM     13  O   UNL d   1       3.585  -2.383  -3.839  0.00  0.00    -0.776 OA
ATOM     14  H   UNL d   1       3.714  -1.469  -3.500  0.00  0.00     0.167 HD
ENDBRANCH  11  13
ENDBRANCH  10  11
ENDBRANCH   9  10
ENDBRANCH   1   9
BRANCH   1  15
ATOM     15  C   UNL d   1       0.953  -0.031   0.060  0.00  0.00    -0.030 A 
ATOM     16  C   UNL d   1       0.214  -0.694   1.062  0.00  0.00     0.010 A 
ATOM     17  C   UNL d   1      -1.181  -0.589   1.149  0.00  0.00     0.007 A 
ATOM     18  C   UNL d   1      -1.895   0.184   0.236  0.00  0.00    -0.062 A 
ATOM     19  C   UNL d   1      -1.193   0.829  -0.782  0.00  0.00     0.007 A 
ATOM     20  C   UNL d   1      -3.385   0.304   0.362  0.00  0.00     0.048 C 
ATOM     21  C   UNL d   1       0.204   0.722  -0.868  0.00  0.00     0.010 A 
ENDBRANCH   1  15
TORSDOF 9
