REMARK  5 active torsions:
REMARK  status: ('A' for Active; 'I' for Inactive)
REMARK    1  A    between atoms: C_3  and  C_1 
REMARK    2  A    between atoms: C_2  and  C_9 
REMARK    3  A    between atoms: N_20  and  C_2 
REMARK    4  A    between atoms: N_10  and  N_4 
REMARK       I    between atoms: C_6  and  N_10 
REMARK       I    between atoms: N_11  and  C_6 
REMARK    5  A    between atoms: C_15  and  N_11 
ROOT
ATOM      1  C   UNL d   1      -0.611  -4.755  -2.695  0.00  0.00     0.119 C 
ATOM      2  N   UNL d   1      -1.402  -4.794  -3.729  0.00  0.00    -0.284 N 
ATOM      3  HN  UNL d   1      -1.590  -5.664  -4.227  1.00  0.00     0.188 HD
ENDROOT
BRANCH   1   4
ATOM      4  C   UNL d   1      -0.009  -6.062  -2.222  0.00  0.00     0.071 A 
ATOM      5  C   UNL d   1      -0.349  -7.258  -2.844  0.00  0.00     0.034 A 
ATOM      6  C   UNL d   1       0.239  -8.431  -2.383  0.00  0.00     0.020 A 
ATOM      7  C   UNL d   1       1.142  -8.385  -1.319  0.00  0.00     0.063 A 
ATOM      8  C   UNL d   1       1.422  -7.140  -0.763  0.00  0.00     0.104 A 
ATOM      9  N   UNL d   1       0.874  -5.971  -1.191  0.00  0.00    -0.362 N 
ATOM     10  HN  UNL d   1       1.112  -5.076  -0.763  1.00  0.00     0.165 HD
BRANCH   7  11
ATOM     11  C   UNL d   1       1.786  -9.637  -0.801  0.00  0.00     0.418 C 
ATOM     12  F   UNL d   1       2.638  -9.426   0.238  0.00  0.00    -0.166 F 
ATOM     13  F   UNL d   1       2.513 -10.276  -1.758  0.00  0.00    -0.166 F 
ATOM     14  F   UNL d   1       0.872 -10.544  -0.360  0.00  0.00    -0.166 F 
ENDBRANCH   7  11
ENDBRANCH   1   4
BRANCH   1  15
ATOM     15  N   UNL d   1      -0.254  -3.608  -2.004  0.00  0.00    -0.286 NA
ATOM     16  H   UNL d   1       0.525  -3.773  -1.366  0.00  0.00     0.125 HD
ATOM     17  H   UNL d   1      -0.096  -2.792  -2.578  0.00  0.00     0.125 HD
ENDBRANCH   1  15
BRANCH   2  18
ATOM     18  N   UNL d   1      -1.967  -3.611  -4.114  0.00  0.00    -0.250 N 
ATOM     19  C   UNL d   1      -2.875  -3.515  -5.147  0.00  0.00     0.335 C 
ATOM     20  N   UNL d   1      -3.183  -4.718  -5.719  0.00  0.00    -0.334 N 
ATOM     21  O   UNL d   1      -3.348  -2.432  -5.475  0.00  0.00    -0.246 OA
ATOM     22  H   UNL d   1      -2.576  -5.459  -5.382  0.00  0.00     0.165 HD
ATOM     23  H   UNL d   1      -1.817  -2.777  -3.562  0.00  0.00     0.192 HD
BRANCH  20  24
ATOM     24  C   UNL d   1      -4.058  -4.933  -6.875  0.00  0.00     0.023 C 
ATOM     25  C   UNL d   1      -3.465  -4.273  -8.130  0.00  0.00     0.037 C 
ATOM     26  C   UNL d   1      -4.184  -6.447  -7.120  0.00  0.00     0.037 C 
ATOM     27  C   UNL d   1      -5.469  -4.376  -6.618  0.00  0.00     0.037 C 
ENDBRANCH  20  24
ENDBRANCH   2  18
TORSDOF 5
