REMARK  6 active torsions:
REMARK  status: ('A' for Active; 'I' for Inactive)
REMARK    1  A    between atoms: C_1  and  N_7 
REMARK    2  A    between atoms: C_2  and  O_10 
REMARK    3  A    between atoms: O_12  and  C_3 
REMARK    4  A    between atoms: C_5  and  O_11 
REMARK    5  A    between atoms: C_6  and  C_13 
REMARK       I    between atoms: C_8  and  N_7 
REMARK    6  A    between atoms: O_14  and  C_13 
ROOT
ATOM      1  C   UNL d   1       0.680   1.216  -0.275  0.00  0.00     0.170 C 
ATOM      2  C   UNL d   1       1.426  -0.037   0.211  0.00  0.00     0.177 C 
ATOM      3  C   UNL d   1      -0.784   1.176   0.214  0.00  0.00     0.282 C 
ATOM      4  O   UNL d   1      -1.442  -0.016  -0.206  0.00  0.00    -0.349 OA
ATOM      5  C   UNL d   1       0.642  -1.311  -0.145  0.00  0.00     0.180 C 
ATOM      6  C   UNL d   1      -0.833  -1.227   0.288  0.00  0.00     0.179 C 
ENDROOT
BRANCH   1   7
ATOM      7  N   UNL d   1       0.735   1.357  -1.742  0.00  0.00    -0.349 N 
ATOM      8  C   UNL d   1       1.835   1.906  -2.358  0.00  0.00     0.214 C 
ATOM      9  O   UNL d   1       2.789   2.354  -1.734  0.00  0.00    -0.274 OA
ATOM     10  C   UNL d   1       1.774   1.915  -3.862  0.00  0.00     0.117 C 
ATOM     11  H   UNL d   1       0.091   0.799  -2.296  0.00  0.00     0.163 HD
ENDBRANCH   1   7
BRANCH   2  12
ATOM     12  O   UNL d   1       1.608  -0.006   1.636  0.00  0.00    -0.391 OA
ATOM     13  H   UNL d   1       2.117   0.800   1.852  0.00  0.00     0.210 HD
ENDBRANCH   2  12
BRANCH   3  14
ATOM     14  O   UNL d   1      -1.505   2.286  -0.308  0.00  0.00    -0.369 OA
ATOM     15  H   UNL d   1      -1.120   2.476  -1.181  0.00  0.00     0.212 HD
ENDBRANCH   3  14
BRANCH   5  16
ATOM     16  O   UNL d   1       1.290  -2.460   0.399  0.00  0.00    -0.390 OA
ATOM     17  H   UNL d   1       1.666  -2.185   1.256  0.00  0.00     0.210 HD
ENDBRANCH   5  16
BRANCH   6  18
ATOM     18  C   UNL d   1      -1.087  -1.411   1.796  0.00  0.00     0.198 C 
BRANCH  18  19
ATOM     19  O   UNL d   1      -2.493  -1.418   2.054  0.00  0.00    -0.398 OA
ATOM     20  H   UNL d   1      -2.878  -0.693   1.526  0.00  0.00     0.209 HD
ENDBRANCH  18  19
ENDBRANCH   6  18
TORSDOF 6
