REMARK  5 active torsions:
REMARK  status: ('A' for Active; 'I' for Inactive)
REMARK    1  A    between atoms: C_12  and  C_1 
REMARK       I    between atoms: C_5  and  N_10 
REMARK    2  A    between atoms: C_6  and  C_5 
REMARK    3  A    between atoms: O_11  and  C_7 
REMARK    4  A    between atoms: N_10  and  C_20 
REMARK    5  A    between atoms: C_21  and  O_11 
ROOT
ATOM      1  C   UNL d   1      -8.813  -2.466   0.164  0.00  0.00     0.260 C 
ATOM      2  N   UNL d   1      -8.060  -1.422  -0.350  0.00  0.00    -0.323 N 
ATOM      3  O   UNL d   1      -8.503  -3.188   1.111  0.00  0.00    -0.267 OA
ATOM      4  H   UNL d   1      -8.465  -0.882  -1.107  0.00  0.00     0.169 HD
ENDROOT
BRANCH   2   5
ATOM      5  C   UNL d   1      -6.698  -1.149  -0.060  0.00  0.00     0.035 A 
ATOM      6  C   UNL d   1      -5.953  -1.853   0.883  0.00  0.00     0.030 A 
ATOM      7  C   UNL d   1      -4.577  -1.629   1.028  0.00  0.00     0.016 A 
ATOM      8  C   UNL d   1      -3.898  -0.696   0.232  0.00  0.00    -0.002 A 
ATOM      9  C   UNL d   1      -4.663   0.060  -0.668  0.00  0.00     0.016 A 
ATOM     10  C   UNL d   1      -6.046  -0.164  -0.812  0.00  0.00     0.030 A 
BRANCH   8  11
ATOM     11  C   UNL d   1      -2.434  -0.509   0.316  0.00  0.00     0.085 A 
ATOM     12  N   UNL d   1      -1.788   0.594  -0.006  0.00  0.00    -0.349 N 
ATOM     13  C   UNL d   1      -0.425   0.439   0.220  0.00  0.00     0.050 A 
ATOM     14  HN  UNL d   1      -2.226   1.441  -0.369  1.00  0.00     0.166 HD
ATOM     15  C   UNL d   1       0.570   1.421   0.037  0.00  0.00     0.031 A 
ATOM     16  C   UNL d   1      -0.034  -0.818   0.675  0.00  0.00     0.034 A 
ATOM     17  C   UNL d   1       1.911   1.121   0.319  0.00  0.00     0.009 A 
ATOM     18  C   UNL d   1       2.284  -0.145   0.776  0.00  0.00    -0.061 A 
ATOM     19  C   UNL d   1       1.307  -1.134   0.956  0.00  0.00     0.028 A 
ATOM     20  C   UNL d   1       3.727  -0.446   1.065  0.00  0.00     0.048 C 
ATOM     21  S   UNL d   1      -1.419  -1.818   0.807  0.00  0.00    -0.070 SA
ENDBRANCH   8  11
ENDBRANCH   2   5
BRANCH   1  22
ATOM     22  C   UNL d   1     -10.039  -2.835  -0.586  0.00  0.00     0.083 A 
ATOM     23  C   UNL d   1     -10.919  -1.947  -1.192  0.00  0.00     0.163 A 
ATOM     24  N   UNL d   1     -11.939  -2.358  -1.996  0.00  0.00    -0.346 N 
ATOM     25  C   UNL d   1     -12.163  -3.683  -2.110  0.00  0.00     0.090 A 
ATOM     26  HN  UNL d   1     -12.517  -1.683  -2.498  1.00  0.00     0.167 HD
ATOM     27  C   UNL d   1     -11.399  -4.639  -1.474  0.00  0.00     0.018 A 
ATOM     28  C   UNL d   1     -10.316  -4.207  -0.714  0.00  0.00     0.023 A 
BRANCH  23  29
ATOM     29  O   UNL d   1     -10.783  -0.582  -0.964  0.00  0.00    -0.293 OA
BRANCH  29  30
ATOM     30  C   UNL d   1     -11.922   0.198  -1.065  0.00  0.00     0.077 A 
ATOM     31  C   UNL d   1     -13.186  -0.210  -0.617  0.00  0.00     0.039 A 
ATOM     32  C   UNL d   1     -14.303   0.609  -0.801  0.00  0.00     0.026 A 
ATOM     33  C   UNL d   1     -14.147   1.862  -1.384  0.00  0.00     0.034 A 
ATOM     34  C   UNL d   1     -12.884   2.308  -1.772  0.00  0.00     0.026 A 
ATOM     35 CL   UNL d   1     -15.525   2.867  -1.626  0.00  0.00    -0.084 Cl
ATOM     36  C   UNL d   1     -11.770   1.476  -1.609  0.00  0.00     0.039 A 
ENDBRANCH  29  30
ENDBRANCH  23  29
ENDBRANCH   1  22
TORSDOF 5
