REMARK  5 active torsions:
REMARK  status: ('A' for Active; 'I' for Inactive)
REMARK    1  A    between atoms: N_4  and  S_1 
REMARK    2  A    between atoms: C_5  and  S_1 
REMARK    3  A    between atoms: C_2  and  C_6 
REMARK    4  A    between atoms: C_3  and  C_7 
REMARK    5  A    between atoms: C_9  and  N_4 
ROOT
ATOM      1  C   UNL d   1       2.458  -2.297   3.359  0.00  0.00     0.050 A 
ATOM      2  C   UNL d   1       0.089  -2.524   3.926  0.00  0.00     0.050 A 
ATOM      3  C   UNL d   1       0.829  -0.746   2.448  0.00  0.00     0.024 A 
ATOM      4  C   UNL d   1       1.423  -2.949   4.048  0.00  0.00     0.032 A 
ATOM      5  C   UNL d   1       2.147  -1.185   2.565  0.00  0.00     0.040 A 
ATOM      6  C   UNL d   1      -0.200  -1.414   3.115  0.00  0.00     0.040 A 
ENDROOT
BRANCH   3   7
ATOM      7  N   UNL d   1       0.535   0.306   1.518  0.00  0.00    -0.181 NA
ATOM      8  H   UNL d   1      -0.276   0.849   1.827  0.00  0.00     0.146 HD
BRANCH   7   9
ATOM      9  S   UNL d   1       0.158  -0.267  -0.054  0.00  0.00     0.245 S 
ATOM     10  O   UNL d   1      -1.286  -0.350  -0.100  0.00  0.00    -0.206 OA
ATOM     11  O   UNL d   1       1.014  -1.379  -0.404  0.00  0.00    -0.206 OA
BRANCH   9  12
ATOM     12  C   UNL d   1       0.668   1.110  -1.050  0.00  0.00     0.076 A 
ATOM     13  C   UNL d   1       2.016   1.483  -1.047  0.00  0.00     0.050 A 
ATOM     14  C   UNL d   1       2.427   2.588  -1.798  0.00  0.00     0.057 A 
ATOM     15 CL   UNL d   1       4.097   3.023  -1.734  0.00  0.00    -0.083 Cl
ATOM     16  C   UNL d   1       1.492   3.306  -2.556  0.00  0.00     0.055 A 
ATOM     17  C   UNL d   1       0.151   2.905  -2.574  0.00  0.00     0.027 A 
ATOM     18 CL   UNL d   1       1.924   4.700  -3.480  0.00  0.00    -0.083 Cl
ATOM     19  C   UNL d   1      -0.266   1.804  -1.821  0.00  0.00     0.026 A 
ENDBRANCH   9  12
ENDBRANCH   7   9
ENDBRANCH   3   7
BRANCH   1  20
ATOM     20  C   UNL d   1       3.879  -2.802   3.424  0.00  0.00     0.417 C 
ATOM     21  F   UNL d   1       4.021  -3.920   4.188  0.00  0.00    -0.166 F 
ATOM     22  F   UNL d   1       4.372  -3.123   2.197  0.00  0.00    -0.166 F 
ATOM     23  F   UNL d   1       4.734  -1.881   3.945  0.00  0.00    -0.166 F 
ENDBRANCH   1  20
BRANCH   2  24
ATOM     24  C   UNL d   1      -1.027  -3.269   4.621  0.00  0.00     0.417 C 
ATOM     25  F   UNL d   1      -0.596  -4.351   5.326  0.00  0.00    -0.166 F 
ATOM     26  F   UNL d   1      -1.698  -2.486   5.508  0.00  0.00    -0.166 F 
ATOM     27  F   UNL d   1      -1.960  -3.737   3.748  0.00  0.00    -0.166 F 
ENDBRANCH   2  24
TORSDOF 5
