REMARK  4 active torsions:
REMARK  status: ('A' for Active; 'I' for Inactive)
REMARK    1  A    between atoms: S_2  and  C_1 
REMARK    2  A    between atoms: C_5  and  S_2 
REMARK       I    between atoms: C_3  and  N_4 
REMARK       I    between atoms: N_9  and  C_3 
REMARK    3  A    between atoms: N_4  and  C_8 
REMARK    4  A    between atoms: C_15  and  N_9 
ROOT
ATOM      1  C   UNL d   1      -1.492  -3.298  -1.533  0.00  0.00     0.032 A 
ATOM      2  C   UNL d   1      -2.703  -2.576  -1.606  0.00  0.00     0.053 A 
ATOM      3  C   UNL d   1      -1.520  -4.663  -1.199  0.00  0.00     0.021 A 
ATOM      4  C   UNL d   1      -3.911  -3.269  -1.480  0.00  0.00     0.031 A 
ATOM      5  C   UNL d   1      -2.730  -5.332  -1.037  0.00  0.00     0.002 A 
ATOM      6  C   UNL d   1      -3.926  -4.643  -1.205  0.00  0.00     0.002 A 
ENDROOT
BRANCH   2   7
ATOM      7  N   UNL d   1      -2.645  -1.163  -1.672  0.00  0.00    -0.312 N 
ATOM      8  C   UNL d   1      -3.710  -0.278  -1.633  0.00  0.00     0.303 C 
ATOM      9  N   UNL d   1      -3.293   0.922  -1.051  0.00  0.00    -0.210 NA
ATOM     10  O   UNL d   1      -4.860  -0.524  -1.972  0.00  0.00    -0.253 OA
ATOM     11  H   UNL d   1      -2.658   0.692  -0.297  0.00  0.00     0.138 HD
ATOM     12  H   UNL d   1      -1.722  -0.750  -1.663  0.00  0.00     0.170 HD
BRANCH   9  13
ATOM     13  C   UNL d   1      -4.288   1.843  -0.653  0.00  0.00     0.016 A 
ATOM     14  C   UNL d   1      -4.731   1.835   0.672  0.00  0.00     0.024 A 
ATOM     15  C   UNL d   1      -5.731   2.721   1.074  0.00  0.00     0.002 A 
ATOM     16  C   UNL d   1      -6.251   3.642   0.164  0.00  0.00     0.000 A 
ATOM     17  C   UNL d   1      -5.781   3.669  -1.151  0.00  0.00     0.002 A 
ATOM     18  C   UNL d   1      -4.807   2.759  -1.567  0.00  0.00     0.024 A 
ENDBRANCH   9  13
ENDBRANCH   2   7
BRANCH   1  19
ATOM     19  S   UNL d   1       0.127  -2.571  -1.764  0.00  0.00    -0.085 SA
BRANCH  19  20
ATOM     20  C   UNL d   1       0.187  -2.078  -3.502  0.00  0.00     0.051 A 
ATOM     21  C   UNL d   1      -0.185  -2.905  -4.579  0.00  0.00     0.068 A 
ATOM     22 CL   UNL d   1      -0.758  -4.525  -4.433  0.00  0.00    -0.081 Cl
ATOM     23  C   UNL d   1      -0.033  -2.426  -5.881  0.00  0.00     0.113 A 
ATOM     24  N   UNL d   1       0.486  -1.221  -6.198  0.00  0.00    -0.372 N 
ATOM     25  C   UNL d   1       0.869  -0.450  -5.160  0.00  0.00     0.113 A 
ATOM     26  HN  UNL d   1       0.583  -0.912  -7.166  1.00  0.00     0.164 HD
ATOM     27  C   UNL d   1       0.738  -0.819  -3.824  0.00  0.00     0.068 A 
ATOM     28 CL   UNL d   1       1.287   0.319  -2.639  0.00  0.00    -0.081 Cl
ENDBRANCH  19  20
ENDBRANCH   1  19
TORSDOF 4
