REMARK  2 active torsions:
REMARK  status: ('A' for Active; 'I' for Inactive)
REMARK    1  A    between atoms: C_6  and  C_1 
REMARK    2  A    between atoms: O_9  and  N_4 
ROOT
ATOM      1  C   UNL d   1       0.003   0.968   0.010  0.00  0.00     0.058 A 
ATOM      2  C   UNL d   1      -1.195   0.256  -0.002  0.00  0.00     0.131 A 
ATOM      3  C   UNL d   1       1.204   0.260   0.015  0.00  0.00     0.131 A 
ATOM      4  F   UNL d   1       2.378   0.906   0.026  0.00  0.00    -0.205 F 
ATOM      5  F   UNL d   1      -2.384   0.877  -0.008  0.00  0.00    -0.205 F 
ATOM      6  C   UNL d   1       0.012  -1.839  -0.002  0.00  0.00     0.006 A 
ATOM      7  C   UNL d   1      -1.195  -1.140  -0.008  0.00  0.00     0.043 A 
ATOM      8  C   UNL d   1       1.215  -1.135   0.009  0.00  0.00     0.043 A 
ENDROOT
BRANCH   1   9
ATOM      9  C   UNL d   1       0.054   2.436   0.018  0.00  0.00     0.131 C 
ATOM     10  N   UNL d   1      -1.014   3.170   0.016  0.00  0.00    -0.280 N 
ATOM     11  HN  UNL d   1      -1.971   2.819   0.010  1.00  0.00     0.193 HD
BRANCH  10  12
ATOM     12  O   UNL d   1      -0.646   4.519   0.025  0.00  0.00    -0.290 OA
ATOM     13  H   UNL d   1      -1.513   4.966   0.024  0.00  0.00     0.244 HD
ENDBRANCH  10  12
ENDBRANCH   1   9
TORSDOF 2
