REMARK  5 active torsions:
REMARK  status: ('A' for Active; 'I' for Inactive)
REMARK    1  A    between atoms: C_2  and  C_1 
REMARK    2  A    between atoms: C_3  and  C_14 
REMARK    3  A    between atoms: C_18  and  C_6 
REMARK    4  A    between atoms: N_12  and  O_20 
REMARK    5  A    between atoms: O_20  and  C_18 
ROOT
ATOM      1  C   UNL d   1      -0.213   3.663  -4.191  0.00  0.00     0.260 C 
ENDROOT
BRANCH   1   2
ATOM      2  C   UNL d   1       0.112   2.770  -3.018  0.00  0.00     0.057 A 
ATOM      3  N   UNL d   1       0.928   1.705  -3.275  0.00  0.00    -0.365 N 
ATOM      4  C   UNL d   1       1.282   0.909  -2.240  0.00  0.00     0.104 A 
ATOM      5  HN  UNL d   1       1.262   1.516  -4.220  1.00  0.00     0.165 HD
ATOM      6  C   UNL d   1       0.864   1.109  -0.934  0.00  0.00     0.064 A 
ATOM      7  C   UNL d   1       0.009   2.189  -0.688  0.00  0.00     0.043 A 
ATOM      8  C   UNL d   1      -0.377   3.027  -1.736  0.00  0.00     0.059 A 
ATOM      9 CL   UNL d   1      -1.446   4.332  -1.379  0.00  0.00    -0.082 Cl
BRANCH   6  10
ATOM     10  C   UNL d   1       1.331   0.185   0.145  0.00  0.00     0.418 C 
ATOM     11  F   UNL d   1       0.888   0.532   1.385  0.00  0.00    -0.166 F 
ATOM     12  F   UNL d   1       2.688   0.133   0.235  0.00  0.00    -0.166 F 
ATOM     13  F   UNL d   1       0.919  -1.096  -0.053  0.00  0.00    -0.166 F 
ENDBRANCH   6  10
ENDBRANCH   1   2
BRANCH   1  14
ATOM     14  O   UNL d   1       0.338   4.962  -3.956  0.00  0.00    -0.275 OA
BRANCH  14  15
ATOM     15  N   UNL d   1       0.029   5.796  -5.043  0.00  0.00    -0.277 N 
ATOM     16  C   UNL d   1       0.534   6.967  -4.814  0.00  0.00     0.128 C 
ATOM     17  HN  UNL d   1      -0.502   5.527  -5.870  1.00  0.00     0.193 HD
BRANCH  16  18
ATOM     18  C   UNL d   1       0.427   8.098  -5.759  0.00  0.00     0.025 A 
ATOM     19  C   UNL d   1       0.375   9.405  -5.243  0.00  0.00     0.047 A 
ATOM     20 CL   UNL d   1       0.356   9.746  -3.545  0.00  0.00    -0.083 Cl
ATOM     21  C   UNL d   1       0.309  10.509  -6.102  0.00  0.00     0.025 A 
ATOM     22  C   UNL d   1       0.295  10.325  -7.481  0.00  0.00     0.003 A 
ATOM     23  C   UNL d   1       0.347   9.035  -8.003  0.00  0.00     0.025 A 
ATOM     24  C   UNL d   1       0.416   7.921  -7.153  0.00  0.00     0.047 A 
ATOM     25 CL   UNL d   1       0.556   6.385  -7.935  0.00  0.00    -0.083 Cl
ENDBRANCH  16  18
ENDBRANCH  14  15
ENDBRANCH   1  14
TORSDOF 5
