REMARK  2 active torsions:
REMARK  status: ('A' for Active; 'I' for Inactive)
REMARK    1  A    between atoms: C_13  and  N_3 
REMARK    2  A    between atoms: C_14  and  C_4 
ROOT
ATOM      1  C   UNL d   1       0.273  -0.635   0.015  0.00  0.00     0.046 A 
ATOM      2  C   UNL d   1       0.246   0.733   0.046  0.00  0.00     0.143 A 
ATOM      3  N   UNL d   1       1.557   1.175   0.015  0.00  0.00    -0.239 N 
ATOM      4  C   UNL d   1      -0.947  -1.392   0.017  0.00  0.00     0.016 A 
ATOM      5  N   UNL d   1      -0.945   1.429   0.012  0.00  0.00    -0.306 N 
ATOM      6  C   UNL d   1      -2.141  -0.747   0.013  0.00  0.00     0.124 A 
ATOM      7  N   UNL d   1       2.411   0.131  -0.139  0.00  0.00    -0.296 N 
ATOM      8  HN  UNL d   1       3.420   0.174  -0.281  1.00  0.00     0.187 HD
ATOM      9  C   UNL d   1      -2.193   0.738  -0.002  0.00  0.00     0.268 A 
ATOM     10  C   UNL d   1       1.646  -0.971  -0.064  0.00  0.00     0.037 A 
ATOM     11  C   UNL d   1      -3.403  -1.405   0.009  0.00  0.00     0.106 C 
ATOM     12  N   UNL d   1      -4.426  -1.948   0.006  0.00  0.00    -0.191 NA
ATOM     13  O   UNL d   1      -3.195   1.427  -0.034  0.00  0.00    -0.266 OA
ATOM     14  C   UNL d   1       2.295  -2.310  -0.108  0.00  0.00     0.070 C 
ATOM     15  H   UNL d   1      -0.974   2.438  -0.067  0.00  0.00     0.170 HD
ENDROOT
BRANCH   4  16
ATOM     16  C   UNL d   1      -0.956  -2.872   0.012  0.00  0.00    -0.023 A 
ATOM     17  C   UNL d   1      -1.016  -3.578  -1.199  0.00  0.00     0.012 A 
ATOM     18  C   UNL d   1      -1.026  -4.973  -1.193  0.00  0.00     0.001 A 
ATOM     19  C   UNL d   1      -0.978  -5.665   0.016  0.00  0.00     0.000 A 
ATOM     20  C   UNL d   1      -0.917  -4.968   1.222  0.00  0.00     0.001 A 
ATOM     21  C   UNL d   1      -0.908  -3.574   1.223  0.00  0.00     0.012 A 
ENDBRANCH   4  16
BRANCH   3  22
ATOM     22  C   UNL d   1       2.010   2.516   0.038  0.00  0.00     0.058 A 
ATOM     23  C   UNL d   1       1.271   3.506   0.702  0.00  0.00     0.031 A 
ATOM     24  C   UNL d   1       1.654   4.843   0.607  0.00  0.00     0.002 A 
ATOM     25  C   UNL d   1       2.778   5.194  -0.138  0.00  0.00     0.000 A 
ATOM     26  C   UNL d   1       3.549   4.205  -0.750  0.00  0.00     0.002 A 
ATOM     27  C   UNL d   1       3.181   2.861  -0.647  0.00  0.00     0.031 A 
ENDBRANCH   3  22
TORSDOF 2
