REMARK  7 active torsions:
REMARK  status: ('A' for Active; 'I' for Inactive)
REMARK    1  A    between atoms: C_3  and  N_1 
REMARK    2  A    between atoms: N_2  and  C_4 
REMARK    3  A    between atoms: C_9  and  O_13 
REMARK    4  A    between atoms: O_14  and  C_10 
REMARK    5  A    between atoms: O_13  and  C_17 
REMARK    6  A    between atoms: C_18  and  O_14 
REMARK    7  A    between atoms: C_17  and  C_18 
ROOT
ATOM      1  C   UNL d   1       3.853   2.660  -0.525  0.00  0.00     0.202 C 
ENDROOT
BRANCH   1   2
ATOM      2  O   UNL d   1       5.051   1.906  -0.790  0.00  0.00    -0.346 OA
BRANCH   2   3
ATOM      3  C   UNL d   1       5.515   1.141   0.248  0.00  0.00     0.101 A 
ATOM      4  C   UNL d   1       5.939  -0.170  -0.000  0.00  0.00     0.136 A 
ATOM      5  C   UNL d   1       6.390  -1.009   1.028  0.00  0.00     0.039 A 
ATOM      6  C   UNL d   1       6.425  -0.523   2.333  0.00  0.00     0.003 A 
ATOM      7  C   UNL d   1       6.037   0.792   2.594  0.00  0.00     0.003 A 
ATOM      8  C   UNL d   1       5.599   1.625   1.558  0.00  0.00     0.039 A 
BRANCH   4   9
ATOM      9  N   UNL d   1       5.855  -0.724  -1.336  0.00  0.00    -0.113 N 
ATOM     10  O   UNL d   1       4.734  -0.756  -1.868  0.00  0.00    -0.532 OA
ATOM     11  O   UNL d   1       6.896  -1.183  -1.821  0.00  0.00    -0.532 OA
ENDBRANCH   4   9
ENDBRANCH   2   3
ENDBRANCH   1   2
BRANCH   1  12
ATOM     12  C   UNL d   1       2.674   1.766  -0.122  0.00  0.00     0.202 C 
BRANCH  12  13
ATOM     13  O   UNL d   1       1.550   2.563   0.261  0.00  0.00    -0.346 OA
BRANCH  13  14
ATOM     14  C   UNL d   1       0.494   1.885   0.820  0.00  0.00     0.101 A 
ATOM     15  C   UNL d   1      -0.791   2.432   0.705  0.00  0.00     0.136 A 
ATOM     16  C   UNL d   1      -1.926   1.791   1.226  0.00  0.00     0.039 A 
ATOM     17  C   UNL d   1      -1.773   0.585   1.905  0.00  0.00     0.003 A 
ATOM     18  C   UNL d   1      -0.500   0.042   2.066  0.00  0.00     0.003 A 
ATOM     19  C   UNL d   1       0.620   0.686   1.531  0.00  0.00     0.039 A 
BRANCH  15  20
ATOM     20  N   UNL d   1      -0.992   3.694   0.022  0.00  0.00    -0.113 N 
ATOM     21  O   UNL d   1      -0.452   4.699   0.504  0.00  0.00    -0.532 OA
ATOM     22  O   UNL d   1      -1.746   3.684  -0.961  0.00  0.00    -0.532 OA
ENDBRANCH  15  20
ENDBRANCH  13  14
ENDBRANCH  12  13
ENDBRANCH   1  12
TORSDOF 7
