REMARK  10 active torsions:
REMARK  status: ('A' for Active; 'I' for Inactive)
REMARK    1  A    between atoms: C_12  and  N_1 
REMARK    2  A    between atoms: N_2  and  C_11 
REMARK    3  A    between atoms: C_11  and  C_20 
REMARK    4  A    between atoms: C_19  and  C_12 
REMARK    5  A    between atoms: N_13  and  C_22 
REMARK    6  A    between atoms: C_21  and  N_14 
REMARK    7  A    between atoms: C_22  and  C_19 
REMARK    8  A    between atoms: O_34  and  C_19 
REMARK    9  A    between atoms: C_20  and  C_21 
REMARK   10  A    between atoms: O_33  and  C_20 
ROOT
ATOM      1  N   UNL d   1       1.617  -2.065   2.612  0.00  0.00     0.094 N 
ATOM      2  N   UNL d   1       1.083   0.940   2.228  0.00  0.00     0.094 N 
ATOM      3  C   UNL d   1       1.367  -1.406   1.306  0.00  0.00     0.302 C 
ATOM      4  C   UNL d   1       1.050   0.292   3.561  0.00  0.00     0.302 C 
ATOM      5  C   UNL d   1       1.822   0.068   1.297  0.00  0.00     0.302 C 
ATOM      6  C   UNL d   1       0.917  -1.270   3.654  0.00  0.00     0.302 C 
ENDROOT
BRANCH   1   7
ATOM      7  C   UNL d   1       1.116  -3.474   2.556  0.00  0.00     0.305 C 
BRANCH   7   8
ATOM      8  C   UNL d   1       2.157  -4.564   2.937  0.00  0.00     0.164 C 
BRANCH   8   9
ATOM      9  C   UNL d   1       2.096  -5.120   4.365  0.00  0.00     0.163 C 
BRANCH   9  10
ATOM     10  N   UNL d   1       0.863  -5.789   4.768  0.00  0.00    -0.343 N 
ATOM     11  C   UNL d   1       0.059  -5.355   5.813  0.00  0.00     0.046 A 
ATOM     12  C   UNL d   1      -0.893  -6.350   6.041  0.00  0.00     0.005 A 
ATOM     13  C   UNL d   1       0.112  -4.195   6.605  0.00  0.00     0.032 A 
ATOM     14  C   UNL d   1      -1.811  -6.202   7.109  0.00  0.00     0.038 A 
ATOM     15  C   UNL d   1      -0.680  -7.390   5.087  0.00  0.00     0.005 A 
ATOM     16  C   UNL d   1      -1.729  -5.068   7.915  0.00  0.00     0.035 A 
ATOM     17  C   UNL d   1      -0.791  -4.074   7.665  0.00  0.00     0.026 A 
ATOM     18 CL   UNL d   1      -2.794  -4.913   9.259  0.00  0.00    -0.084 Cl
ATOM     19  C   UNL d   1       0.442  -7.035   4.325  0.00  0.00     0.046 A 
ATOM     20  C   UNL d   1      -1.322  -8.620   4.845  0.00  0.00     0.038 A 
ATOM     21  C   UNL d   1       0.953  -7.902   3.343  0.00  0.00     0.032 A 
ATOM     22  C   UNL d   1       0.302  -9.125   3.123  0.00  0.00     0.026 A 
ATOM     23  C   UNL d   1      -0.824  -9.472   3.860  0.00  0.00     0.035 A 
ATOM     24 CL   UNL d   1      -1.599 -10.983   3.574  0.00  0.00    -0.084 Cl
ENDBRANCH   9  10
ENDBRANCH   8   9
BRANCH   8  25
ATOM     25  O   UNL d   1       3.486  -4.058   2.712  0.00  0.00    -0.392 OA
ATOM     26  H   UNL d   1       3.404  -3.083   2.778  0.00  0.00     0.210 HD
ENDBRANCH   8  25
ENDBRANCH   7   8
ENDBRANCH   1   7
BRANCH   2  27
ATOM     27  C   UNL d   1      -0.242   1.391   1.716  0.00  0.00     0.305 C 
BRANCH  27  28
ATOM     28  C   UNL d   1      -0.058   2.422   0.556  0.00  0.00     0.164 C 
BRANCH  28  29
ATOM     29  C   UNL d   1      -1.333   3.044  -0.050  0.00  0.00     0.163 C 
BRANCH  29  30
ATOM     30  N   UNL d   1      -2.317   2.173  -0.673  0.00  0.00    -0.343 N 
ATOM     31  C   UNL d   1      -3.679   2.449  -0.692  0.00  0.00     0.046 A 
ATOM     32  C   UNL d   1      -4.321   1.270  -1.072  0.00  0.00     0.003 A 
ATOM     33  C   UNL d   1      -4.400   3.623  -0.405  0.00  0.00     0.030 A 
ATOM     34  C   UNL d   1      -5.731   1.235  -1.094  0.00  0.00     0.014 A 
ATOM     35  C   UNL d   1      -3.309   0.339  -1.456  0.00  0.00     0.003 A 
ATOM     36  C   UNL d   1      -6.457   2.395  -0.803  0.00  0.00     0.001 A 
ATOM     37  C   UNL d   1      -5.796   3.577  -0.484  0.00  0.00     0.002 A 
ATOM     38  C   UNL d   1      -2.078   0.997  -1.360  0.00  0.00     0.046 A 
ATOM     39  C   UNL d   1      -3.345  -0.973  -1.972  0.00  0.00     0.014 A 
ATOM     40  C   UNL d   1      -0.910   0.435  -1.903  0.00  0.00     0.030 A 
ATOM     41  C   UNL d   1      -0.975  -0.856  -2.434  0.00  0.00     0.002 A 
ATOM     42  C   UNL d   1      -2.169  -1.566  -2.440  0.00  0.00     0.001 A 
ENDBRANCH  29  30
ENDBRANCH  28  29
BRANCH  28  43
ATOM     43  O   UNL d   1       0.763   3.500   1.052  0.00  0.00    -0.392 OA
ATOM     44  H   UNL d   1       1.444   3.058   1.599  0.00  0.00     0.210 HD
ENDBRANCH  28  43
ENDBRANCH  27  28
ENDBRANCH   2  27
TORSDOF 10
