REMARK  7 active torsions:
REMARK  status: ('A' for Active; 'I' for Inactive)
REMARK    1  A    between atoms: C_2  and  S_1 
REMARK    2  A    between atoms: N_6  and  S_1 
REMARK    3  A    between atoms: C_11  and  C_3 
REMARK    4  A    between atoms: N_4  and  C_5 
REMARK    5  A    between atoms: N_7  and  C_12 
REMARK    6  A    between atoms: C_8  and  N_10 
REMARK    7  A    between atoms: O_31  and  C_11 
ROOT
ATOM      1  N   UNL d   1       0.981   0.759   0.714  0.00  0.00    -0.304 N 
ATOM      2  N   UNL d   1       1.820   3.453   1.260  0.00  0.00    -0.376 N 
ATOM      3  C   UNL d   1       0.138   1.926   0.298  0.00  0.00     0.155 C 
ATOM      4  C   UNL d   1       1.990   1.059   1.764  0.00  0.00     0.155 C 
ATOM      5  C   UNL d   1       2.775   2.348   1.478  0.00  0.00     0.143 C 
ATOM      6  C   UNL d   1       0.965   3.215   0.079  0.00  0.00     0.143 C 
ENDROOT
BRANCH   2   7
ATOM      7  C   UNL d   1       2.175   4.761   1.575  0.00  0.00     0.058 A 
ATOM      8  C   UNL d   1       1.247   5.746   2.025  0.00  0.00     0.068 A 
ATOM      9  C   UNL d   1       1.694   7.040   2.365  0.00  0.00     0.068 A 
ATOM     10  C   UNL d   1       3.034   7.398   2.196  0.00  0.00     0.105 A 
ATOM     11  C   UNL d   1       3.957   6.462   1.740  0.00  0.00     0.038 A 
ATOM     12  C   UNL d   1       3.525   5.164   1.450  0.00  0.00     0.034 A 
BRANCH   8  13
ATOM     13  N   UNL d   1      -0.164   5.495   2.140  0.00  0.00    -0.318 N 
ATOM     14  C   UNL d   1      -1.190   6.339   1.685  0.00  0.00     0.013 C 
ATOM     15  C   UNL d   1      -2.377   5.631   1.734  0.00  0.00     0.027 C 
ATOM     16  C   UNL d   1      -1.043   7.733   1.170  0.00  0.00     0.068 C 
ATOM     17  C   UNL d   1      -2.122   4.401   2.351  0.00  0.00     0.027 C 
ATOM     18  C   UNL d   1      -0.788   4.385   2.712  0.00  0.00     0.013 C 
ATOM     19  C   UNL d   1      -0.141   3.404   3.628  0.00  0.00     0.068 C 
ENDBRANCH   8  13
BRANCH  10  20
ATOM     20  N   UNL d   1       3.459   8.775   2.471  0.00  0.00    -0.116 N 
ATOM     21  O   UNL d   1       2.587   9.596   2.781  0.00  0.00    -0.532 OA
ATOM     22  O   UNL d   1       4.669   9.040   2.363  0.00  0.00    -0.532 OA
ENDBRANCH  10  20
ENDBRANCH   2   7
BRANCH   1  23
ATOM     23  S   UNL d   1       1.358  -0.382  -0.455  0.00  0.00     0.262 S 
ATOM     24  O   UNL d   1       1.506   0.315  -1.715  0.00  0.00    -0.200 OA
ATOM     25  O   UNL d   1       2.369  -1.300   0.015  0.00  0.00    -0.200 OA
BRANCH  23  26
ATOM     26  C   UNL d   1      -0.065  -1.371  -0.652  0.00  0.00     0.103 A 
ATOM     27  C   UNL d   1      -0.583  -2.266   0.278  0.00  0.00     0.103 A 
ATOM     28  S   UNL d   1      -2.004  -3.029  -0.356  0.00  0.00    -0.094 SA
ATOM     29  C   UNL d   1      -1.928  -2.163  -1.817  0.00  0.00     0.052 A 
ATOM     30  C   UNL d   1      -0.852  -1.311  -1.851  0.00  0.00     0.034 A 
BRANCH  27  31
ATOM     31  C   UNL d   1      -0.182  -2.682   1.615  0.00  0.00     0.301 C 
ATOM     32  O   UNL d   1      -0.663  -3.622   2.242  0.00  0.00    -0.259 OA
BRANCH  31  33
ATOM     33  O   UNL d   1       0.786  -1.877   2.129  0.00  0.00    -0.322 OA
ATOM     34  C   UNL d   1       1.286  -2.297   3.402  0.00  0.00     0.213 C 
ENDBRANCH  31  33
ENDBRANCH  27  31
ENDBRANCH  23  26
ENDBRANCH   1  23
TORSDOF 7
