REMARK  4 active torsions:
REMARK  status: ('A' for Active; 'I' for Inactive)
REMARK       I    between atoms: C_2  and  N_1 
REMARK    1  A    between atoms: O_7  and  C_2 
REMARK    2  A    between atoms: C_3  and  C_6 
REMARK    3  A    between atoms: O_13  and  C_6 
REMARK    4  A    between atoms: C_12  and  O_7 
ROOT
ATOM      1  N   UNL d   1       2.386   0.606   0.122  0.00  0.00    -0.309 N 
ATOM      2  C   UNL d   1       3.144   1.546   0.816  0.00  0.00     0.364 C 
ATOM      3  C   UNL d   1       2.380  -0.834   0.513  0.00  0.00     0.192 C 
ATOM      4  C   UNL d   1       1.260   1.113  -0.664  0.00  0.00     0.168 C 
ATOM      5  C   UNL d   1       1.231  -1.647  -0.128  0.00  0.00     0.075 C 
ATOM      6  C   UNL d   1      -0.045   0.483  -0.250  0.00  0.00    -0.034 A 
ATOM      7  C   UNL d   1      -0.073  -0.904  -0.034  0.00  0.00    -0.048 A 
ATOM      8  O   UNL d   1       3.044   2.749   0.646  0.00  0.00    -0.238 OA
ATOM      9  C   UNL d   1      -1.285  -1.551   0.216  0.00  0.00     0.008 A 
ATOM     10  C   UNL d   1      -1.226   1.222  -0.147  0.00  0.00     0.009 A 
ATOM     11  C   UNL d   1      -2.462  -0.808   0.304  0.00  0.00     0.001 A 
ATOM     12  C   UNL d   1      -2.430   0.577   0.140  0.00  0.00     0.001 A 
ENDROOT
BRANCH   2  13
ATOM     13  O   UNL d   1       4.037   0.963   1.656  0.00  0.00    -0.294 OA
BRANCH  13  14
ATOM     14  C   UNL d   1       4.894   1.782   2.501  0.00  0.00     0.061 C 
ATOM     15  C   UNL d   1       4.062   2.673   3.432  0.00  0.00     0.046 C 
ATOM     16  C   UNL d   1       5.688   0.779   3.352  0.00  0.00     0.046 C 
ATOM     17  C   UNL d   1       5.887   2.603   1.668  0.00  0.00     0.046 C 
ENDBRANCH  13  14
ENDBRANCH   2  13
BRANCH   3  18
ATOM     18  C   UNL d   1       3.670  -1.555   0.105  0.00  0.00     0.164 C 
ATOM     19  O   UNL d   1       3.974  -2.677   0.488  0.00  0.00    -0.648 OA
BRANCH  18  20
ATOM     20  O   UNL d   1       4.396  -0.889  -0.825  0.00  0.00    -0.775 OA
ATOM     21  H   UNL d   1       3.985  -0.025  -1.024  0.00  0.00     0.167 HD
ENDBRANCH  18  20
ENDBRANCH   3  18
TORSDOF 4
