REMARK  3 active torsions:
REMARK  status: ('A' for Active; 'I' for Inactive)
REMARK    1  A    between atoms: C_2  and  S_1 
REMARK    2  A    between atoms: N_6  and  S_1 
REMARK    3  A    between atoms: C_13  and  N_6 
ROOT
ATOM      1  N   UNL d   1       1.802   6.863   3.771  0.00  0.00    -0.191 NA
ATOM      2  C   UNL d   1       1.607   5.935   3.106  0.00  0.00     0.099 C 
ATOM      3  C   UNL d   1       0.771   2.633   0.583  0.00  0.00     0.022 A 
ATOM      4  C   UNL d   1       1.343   4.794   2.274  0.00  0.00     0.044 A 
ATOM      5  C   UNL d   1       2.001   3.283   0.489  0.00  0.00     0.026 A 
ATOM      6  C   UNL d   1      -0.154   3.034   1.546  0.00  0.00     0.026 A 
ATOM      7  C   UNL d   1       0.132   4.106   2.396  0.00  0.00     0.024 A 
ATOM      8  C   UNL d   1       2.281   4.374   1.323  0.00  0.00     0.024 A 
ENDROOT
BRANCH   3   9
ATOM      9  N   UNL d   1       0.442   1.583  -0.325  0.00  0.00    -0.180 NA
ATOM     10  H   UNL d   1      -0.545   1.536  -0.573  0.00  0.00     0.146 HD
BRANCH   9  11
ATOM     11  S   UNL d   1       0.984   0.013   0.021  0.00  0.00     0.263 S 
ATOM     12  O   UNL d   1       0.460  -0.836  -1.031  0.00  0.00    -0.204 OA
ATOM     13  O   UNL d   1       2.393   0.030   0.354  0.00  0.00    -0.204 OA
BRANCH  11  14
ATOM     14  C   UNL d   1       0.197  -0.610   1.453  0.00  0.00     0.161 A 
ATOM     15  N   UNL d   1      -0.707   0.113   2.216  0.00  0.00    -0.341 N 
ATOM     16  C   UNL d   1      -1.063  -0.697   3.188  0.00  0.00     0.183 A 
ATOM     17  HN  UNL d   1      -1.027   1.069   2.058  1.00  0.00     0.167 HD
ATOM     18  N   UNL d   1      -0.474  -1.923   3.060  0.00  0.00    -0.354 N 
ATOM     19  C   UNL d   1       0.336  -1.889   1.962  0.00  0.00     0.134 A 
ATOM     20  C   UNL d   1      -0.699  -3.046   3.934  0.00  0.00     0.156 C 
ENDBRANCH  11  14
ENDBRANCH   9  11
ENDBRANCH   3   9
TORSDOF 3
