REMARK  7 active torsions:
REMARK  status: ('A' for Active; 'I' for Inactive)
REMARK    1  A    between atoms: N_12  and  C_1 
REMARK    2  A    between atoms: C_5  and  C_2 
REMARK    3  A    between atoms: C_9  and  O_22 
REMARK       I    between atoms: N_11  and  C_9 
REMARK    4  A    between atoms: C_10  and  N_11 
REMARK    5  A    between atoms: C_27  and  N_12 
REMARK    6  A    between atoms: O_22  and  C_26 
REMARK    7  A    between atoms: C_26  and  C_27 
ROOT
ATOM      1  N   UNL d   1      -1.401  -3.230   0.102  0.00  0.00    -0.382 N 
ATOM      2  C   UNL d   1      -0.244  -4.092  -0.129  0.00  0.00     0.150 C 
ENDROOT
BRANCH   1   3
ATOM      3  C   UNL d   1      -1.288  -1.824   0.138  0.00  0.00     0.044 A 
ATOM      4  C   UNL d   1      -2.453  -1.052  -0.062  0.00  0.00     0.064 A 
ATOM      5  C   UNL d   1      -2.389   0.331  -0.228  0.00  0.00     0.119 A 
ATOM      6  N   UNL d   1      -1.238   1.019  -0.106  0.00  0.00    -0.352 N 
ATOM      7  C   UNL d   1      -0.117   0.349   0.171  0.00  0.00     0.045 A 
ATOM      8  HN  UNL d   1      -1.223   2.032  -0.223  1.00  0.00     0.166 HD
ATOM      9  C   UNL d   1      -0.052  -1.062   0.320  0.00  0.00     0.017 A 
ATOM     10  C   UNL d   1       1.006   1.158   0.289  0.00  0.00     0.030 A 
ATOM     11  C   UNL d   1       1.255  -1.551   0.651  0.00  0.00     0.016 A 
ATOM     12  C   UNL d   1       2.392  -0.729   0.720  0.00  0.00     0.001 A 
ATOM     13  C   UNL d   1       2.268   0.633   0.538  0.00  0.00     0.002 A 
BRANCH   5  14
ATOM     14  C   UNL d   1      -3.631   1.091  -0.672  0.00  0.00     0.432 C 
ATOM     15  F   UNL d   1      -3.405   2.408  -0.953  0.00  0.00    -0.165 F 
ATOM     16  F   UNL d   1      -4.174   0.568  -1.812  0.00  0.00    -0.165 F 
ATOM     17  F   UNL d   1      -4.632   1.077   0.254  0.00  0.00    -0.165 F 
ENDBRANCH   5  14
ENDBRANCH   1   3
BRANCH   1  18
ATOM     18  C   UNL d   1      -2.709  -3.965   0.038  0.00  0.00     0.149 C 
BRANCH  18  19
ATOM     19  C   UNL d   1      -3.175  -4.251  -1.419  0.00  0.00     0.200 C 
BRANCH  19  20
ATOM     20  O   UNL d   1      -4.361  -5.089  -1.560  0.00  0.00    -0.302 OA
BRANCH  20  21
ATOM     21  C   UNL d   1      -5.533  -4.447  -1.290  0.00  0.00     0.365 C 
ATOM     22  N   UNL d   1      -6.711  -5.074  -1.583  0.00  0.00    -0.303 N 
ATOM     23  H   UNL d   1      -7.468  -4.500  -1.230  0.00  0.00     0.171 HD
ATOM     24  O   UNL d   1      -5.569  -3.338  -0.765  0.00  0.00    -0.238 OA
BRANCH  22  25
ATOM     25  C   UNL d   1      -7.110  -6.244  -2.252  0.00  0.00     0.040 A 
ATOM     26  C   UNL d   1      -6.275  -7.119  -2.944  0.00  0.00     0.053 A 
ATOM     27  C   UNL d   1      -6.824  -8.261  -3.562  0.00  0.00     0.037 A 
ATOM     28 CL   UNL d   1      -5.799  -9.337  -4.438  0.00  0.00    -0.084 Cl
ATOM     29  C   UNL d   1      -8.187  -8.548  -3.491  0.00  0.00     0.048 A 
ATOM     30  C   UNL d   1      -9.021  -7.664  -2.827  0.00  0.00     0.037 A 
ATOM     31  C   UNL d   1      -8.493  -6.518  -2.226  0.00  0.00     0.053 A 
ATOM     32 CL   UNL d   1     -10.710  -7.976  -2.737  0.00  0.00    -0.084 Cl
ENDBRANCH  22  25
ENDBRANCH  20  21
ENDBRANCH  19  20
ENDBRANCH  18  19
ENDBRANCH   1  18
TORSDOF 7
