REMARK  4 active torsions:
REMARK  status: ('A' for Active; 'I' for Inactive)
REMARK    1  A    between atoms: C_3  and  C_1 
REMARK    2  A    between atoms: C_7  and  C_2 
REMARK       I    between atoms: N_6  and  C_3 
REMARK    3  A    between atoms: C_12  and  N_6 
REMARK    4  A    between atoms: C_13  and  N_6 
ROOT
ATOM      1  C   UNL d   1       0.019  -2.530   0.479  0.00  0.00     0.259 C 
ATOM      2  N   UNL d   1      -0.773  -3.643   0.068  0.00  0.00    -0.338 N 
ATOM      3  O   UNL d   1       0.929  -2.719   1.300  0.00  0.00    -0.267 OA
ENDROOT
BRANCH   1   4
ATOM      4  C   UNL d   1      -0.097  -1.195  -0.088  0.00  0.00     0.092 C 
ATOM      5  C   UNL d   1       0.144   0.081   0.553  0.00  0.00     0.085 C 
ATOM      6  N   UNL d   1      -0.007   1.077  -0.336  0.00  0.00    -0.259 N 
ATOM      7  O   UNL d   1      -0.250   0.498  -1.545  0.00  0.00    -0.241 OA
ATOM      8  HN  UNL d   1       0.049   2.077  -0.142  1.00  0.00     0.195 HD
ATOM      9  C   UNL d   1      -0.236  -0.851  -1.425  0.00  0.00     0.090 C 
ATOM     10  C   UNL d   1      -0.347  -1.561  -2.713  0.00  0.00     0.080 C 
BRANCH   5  11
ATOM     11  C   UNL d   1       0.612   0.446   1.900  0.00  0.00     0.015 A 
ATOM     12  C   UNL d   1       0.018   1.482   2.646  0.00  0.00     0.046 A 
ATOM     13 CL   UNL d   1      -1.500   2.200   2.221  0.00  0.00    -0.083 Cl
ATOM     14  C   UNL d   1       0.645   1.984   3.800  0.00  0.00     0.025 A 
ATOM     15  C   UNL d   1       1.847   1.438   4.246  0.00  0.00     0.002 A 
ATOM     16  C   UNL d   1       2.418   0.378   3.550  0.00  0.00     0.001 A 
ATOM     17  C   UNL d   1       1.815  -0.102   2.383  0.00  0.00     0.015 A 
ENDBRANCH   5  11
ENDBRANCH   1   4
BRANCH   2  18
ATOM     18  C   UNL d   1      -0.017  -4.934   0.196  0.00  0.00     0.088 C 
ATOM     19  C   UNL d   1      -0.095  -5.544   1.608  0.00  0.00     0.025 C 
ATOM     20  C   UNL d   1       0.975  -6.623   1.778  0.00  0.00     0.002 C 
ATOM     21  C   UNL d   1       0.841  -7.717   0.722  0.00  0.00     0.000 C 
ATOM     22  C   UNL d   1       0.811  -7.156  -0.702  0.00  0.00     0.002 C 
ATOM     23  C   UNL d   1      -0.219  -6.029  -0.876  0.00  0.00     0.025 C 
ENDBRANCH   2  18
BRANCH   2  24
ATOM     24  C   UNL d   1      -2.162  -3.627  -0.513  0.00  0.00     0.088 C 
ATOM     25  C   UNL d   1      -2.983  -2.315  -0.425  0.00  0.00     0.025 C 
ATOM     26  C   UNL d   1      -3.483  -2.000   0.981  0.00  0.00     0.002 C 
ATOM     27  C   UNL d   1      -4.398  -3.108   1.475  0.00  0.00     0.000 C 
ATOM     28  C   UNL d   1      -3.685  -4.448   1.419  0.00  0.00     0.002 C 
ATOM     29  C   UNL d   1      -3.113  -4.732   0.032  0.00  0.00     0.025 C 
ENDBRANCH   2  24
TORSDOF 4
