REMARK  3 active torsions:
REMARK  status: ('A' for Active; 'I' for Inactive)
REMARK    1  A    between atoms: N_7  and  C_1 
REMARK    2  A    between atoms: C_5  and  C_2 
REMARK    3  A    between atoms: N_9  and  C_11 
ROOT
ATOM      1  C   UNL d   1      -1.104  -1.450   0.078  0.00  0.00     0.025 A 
ATOM      2  C   UNL d   1       0.183   0.498  -0.592  0.00  0.00     0.118 A 
ATOM      3  N   UNL d   1      -0.175   1.181   0.526  0.00  0.00    -0.352 N 
ATOM      4  HN  UNL d   1       0.169   2.127   0.691  1.00  0.00     0.166 HD
ATOM      5  C   UNL d   1      -0.250  -0.801  -0.825  0.00  0.00     0.059 A 
ATOM      6  C   UNL d   1      -1.506  -0.721   1.238  0.00  0.00     0.012 A 
ATOM      7  C   UNL d   1      -0.991   0.588   1.407  0.00  0.00     0.044 A 
ATOM      8  C   UNL d   1      -2.403  -1.207   2.222  0.00  0.00     0.015 A 
ATOM      9  C   UNL d   1      -1.341   1.319   2.534  0.00  0.00     0.030 A 
ATOM     10  C   UNL d   1      -2.728  -0.459   3.357  0.00  0.00     0.001 A 
ATOM     11  C   UNL d   1      -2.190   0.809   3.515  0.00  0.00     0.002 A 
ENDROOT
BRANCH   1  12
ATOM     12  N   UNL d   1      -1.562  -2.779  -0.173  0.00  0.00    -0.282 NA
ATOM     13  C   UNL d   1      -1.536  -3.193  -1.592  0.00  0.00     0.098 C 
ATOM     14  C   UNL d   1      -2.277  -4.505  -1.785  0.00  0.00     0.040 C 
ATOM     15  C   UNL d   1      -1.753  -5.605  -0.861  0.00  0.00     0.091 C 
ATOM     16  C   UNL d   1      -1.648  -5.124   0.591  0.00  0.00     0.040 C 
ATOM     17  C   UNL d   1      -0.959  -3.767   0.747  0.00  0.00     0.098 C 
BRANCH  15  18
ATOM     18  N   UNL d   1      -0.547  -6.261  -1.373  0.00  0.00    -0.362 N 
ATOM     19  C   UNL d   1       0.728  -5.763  -1.428  0.00  0.00     0.091 A 
ATOM     20  C   UNL d   1       1.548  -6.714  -1.995  0.00  0.00     0.019 A 
ATOM     21  C   UNL d   1       0.744  -7.830  -2.306  0.00  0.00     0.019 A 
ATOM     22  C   UNL d   1      -0.542  -7.527  -1.916  0.00  0.00     0.091 A 
ENDBRANCH  15  18
ENDBRANCH   1  12
BRANCH   2  23
ATOM     23  C   UNL d   1       1.078   1.156  -1.630  0.00  0.00     0.432 C 
ATOM     24  F   UNL d   1       1.484   2.419  -1.322  0.00  0.00    -0.165 F 
ATOM     25  F   UNL d   1       2.222   0.442  -1.855  0.00  0.00    -0.165 F 
ATOM     26  F   UNL d   1       0.469   1.248  -2.850  0.00  0.00    -0.165 F 
ENDBRANCH   2  23
TORSDOF 3
