REMARK  2 active torsions:
REMARK  status: ('A' for Active; 'I' for Inactive)
REMARK    1  A    between atoms: C_11  and  C_1 
REMARK    2  A    between atoms: C_12  and  C_9 
ROOT
ATOM      1  C   UNL d   1      -1.633  -0.916  -0.040  0.00  0.00     0.177 A 
ATOM      2  C   UNL d   1       0.264   0.554  -0.007  0.00  0.00     0.172 A 
ATOM      3  S   UNL d   1      -1.417   0.863  -0.007  0.00  0.00    -0.028 SA
ATOM      4  N   UNL d   1       0.488  -0.782  -0.019  0.00  0.00    -0.242 N 
ATOM      5  N   UNL d   1      -0.545  -1.652  -0.039  0.00  0.00    -0.282 N 
ATOM      6  HN  UNL d   1      -0.492  -2.671  -0.051  1.00  0.00     0.188 HD
ATOM      7  N   UNL d   1       1.349   1.273  -0.019  0.00  0.00    -0.333 N 
ATOM      8  HN  UNL d   1       1.438   2.289  -0.028  1.00  0.00     0.168 HD
ATOM      9  C   UNL d   1       2.358   0.315  -0.016  0.00  0.00     0.062 A 
ATOM     10  C   UNL d   1       1.832  -0.970  -0.024  0.00  0.00     0.149 A 
ENDROOT
BRANCH   9  11
ATOM     11  C   UNL d   1       3.772   0.650  -0.037  0.00  0.00    -0.008 A 
ATOM     12  C   UNL d   1       4.187   1.871  -0.588  0.00  0.00     0.017 A 
ATOM     13  C   UNL d   1       5.543   2.206  -0.629  0.00  0.00     0.043 A 
ATOM     14  C   UNL d   1       6.481   1.325  -0.108  0.00  0.00     0.116 A 
ATOM     15  C   UNL d   1       6.092   0.116   0.454  0.00  0.00     0.043 A 
ATOM     16  F   UNL d   1       7.782   1.646  -0.145  0.00  0.00    -0.206 F 
ATOM     17  C   UNL d   1       4.737  -0.224   0.489  0.00  0.00     0.017 A 
ENDBRANCH   9  11
BRANCH   1  18
ATOM     18  C   UNL d   1      -3.045  -1.461  -0.076  0.00  0.00     0.440 C 
ATOM     19  F   UNL d   1      -4.010  -0.501  -0.042  0.00  0.00    -0.164 F 
ATOM     20  F   UNL d   1      -3.277  -2.190  -1.204  0.00  0.00    -0.164 F 
ATOM     21  F   UNL d   1      -3.299  -2.291   0.974  0.00  0.00    -0.164 F 
ENDBRANCH   1  18
TORSDOF 2
