REMARK  4 active torsions:
REMARK  status: ('A' for Active; 'I' for Inactive)
REMARK    1  A    between atoms: C_4  and  C_1 
REMARK       I    between atoms: N_5  and  C_1 
REMARK    2  A    between atoms: C_7  and  N_5 
REMARK    3  A    between atoms: C_15  and  C_6 
REMARK    4  A    between atoms: C_8  and  C_9 
ROOT
ATOM      1  C   UNL d   1       2.894  -0.165   1.089  0.00  0.00     0.245 C 
ATOM      2  N   UNL d   1       4.025  -0.939   1.260  0.00  0.00    -0.324 N 
ATOM      3  O   UNL d   1       2.474   0.283   0.030  0.00  0.00    -0.268 OA
ATOM      4  H   UNL d   1       4.163  -1.375   2.163  0.00  0.00     0.169 HD
ENDROOT
BRANCH   1   5
ATOM      5  C   UNL d   1       2.174   0.093   2.368  0.00  0.00     0.075 C 
ATOM      6  C   UNL d   1       1.082   0.869   2.348  0.00  0.00     0.017 C 
BRANCH   6   7
ATOM      7  C   UNL d   1       0.346   1.217   3.560  0.00  0.00    -0.036 A 
ATOM      8  C   UNL d   1       0.683   2.355   4.291  0.00  0.00     0.012 A 
ATOM      9  C   UNL d   1      -0.044   2.700   5.437  0.00  0.00     0.009 A 
ATOM     10  C   UNL d   1      -1.127   1.919   5.885  0.00  0.00    -0.051 A 
ATOM     11  C   UNL d   1      -1.442   0.772   5.136  0.00  0.00     0.009 A 
ATOM     12  C   UNL d   1      -0.717   0.424   3.989  0.00  0.00     0.012 A 
BRANCH  10  13
ATOM     13  C   UNL d   1      -1.917   2.333   7.140  0.00  0.00    -0.024 C 
ATOM     14  C   UNL d   1      -3.090   1.383   7.474  0.00  0.00     0.019 C 
ATOM     15  C   UNL d   1      -0.978   2.352   8.365  0.00  0.00     0.019 C 
ATOM     16  C   UNL d   1      -2.518   3.742   6.946  0.00  0.00     0.019 C 
ENDBRANCH  10  13
ENDBRANCH   6   7
ENDBRANCH   1   5
BRANCH   2  17
ATOM     17  C   UNL d   1       5.012  -1.199   0.282  0.00  0.00     0.036 A 
ATOM     18  C   UNL d   1       5.080  -0.520  -0.941  0.00  0.00     0.056 A 
ATOM     19  C   UNL d   1       6.111  -0.789  -1.844  0.00  0.00     0.074 A 
ATOM     20 CL   UNL d   1       6.190   0.086  -3.325  0.00  0.00    -0.081 Cl
ATOM     21  C   UNL d   1       7.075  -1.742  -1.534  0.00  0.00     0.138 A 
ATOM     22  C   UNL d   1       7.019  -2.431  -0.327  0.00  0.00     0.046 A 
ATOM     23  F   UNL d   1       8.075  -2.013  -2.386  0.00  0.00    -0.204 F 
ATOM     24  C   UNL d   1       5.994  -2.153   0.584  0.00  0.00     0.032 A 
ENDBRANCH   2  17
TORSDOF 4
