REMARK  3 active torsions:
REMARK  status: ('A' for Active; 'I' for Inactive)
REMARK    1  A    between atoms: C_2  and  N_1 
REMARK    2  A    between atoms: N_7  and  C_2 
REMARK    3  A    between atoms: C_11  and  C_2 
REMARK       I    between atoms: C_10  and  N_7 
ROOT
ATOM      1  C   UNL d   1      -0.708   2.374  -0.117  0.00  0.00     0.242 C 
ENDROOT
BRANCH   1   2
ATOM      2  N   UNL d   1      -0.355   0.944  -0.142  0.00  0.00    -0.259 N 
ATOM      3  N   UNL d   1      -0.985   0.033  -0.925  0.00  0.00    -0.291 N 
ATOM      4  C   UNL d   1      -0.362  -1.094  -0.571  0.00  0.00     0.198 A 
ATOM      5  HN  UNL d   1      -1.734   0.171  -1.603  1.00  0.00     0.188 HD
ATOM      6  N   UNL d   1       0.680  -0.938   0.295  0.00  0.00    -0.346 N 
ATOM      7  C   UNL d   1       0.684   0.357   0.521  0.00  0.00     0.204 A 
ATOM      8  HN  UNL d   1       1.303  -1.650   0.675  1.00  0.00     0.167 HD
ENDBRANCH   1   2
BRANCH   1   9
ATOM      9  N   UNL d   1      -0.165   3.139  -1.230  0.00  0.00    -0.335 N 
ATOM     10  C   UNL d   1       1.095   3.667  -1.153  0.00  0.00     0.215 C 
ATOM     11  O   UNL d   1       1.798   3.576  -0.155  0.00  0.00    -0.274 OA
ATOM     12  C   UNL d   1       1.556   4.377  -2.399  0.00  0.00     0.117 C 
ATOM     13  H   UNL d   1      -0.602   3.009  -2.130  0.00  0.00     0.164 HD
ENDBRANCH   1   9
BRANCH   1  14
ATOM     14  C   UNL d   1      -2.210   2.619   0.010  0.00  0.00    -0.015 A 
ATOM     15  C   UNL d   1      -2.709   3.329   1.116  0.00  0.00     0.011 A 
ATOM     16  C   UNL d   1      -4.079   3.557   1.264  0.00  0.00     0.001 A 
ATOM     17  C   UNL d   1      -4.973   3.081   0.307  0.00  0.00     0.000 A 
ATOM     18  C   UNL d   1      -4.497   2.397  -0.808  0.00  0.00     0.001 A 
ATOM     19  C   UNL d   1      -3.127   2.179  -0.963  0.00  0.00     0.011 A 
ENDBRANCH   1  14
TORSDOF 3
