REMARK  4 active torsions:
REMARK  status: ('A' for Active; 'I' for Inactive)
REMARK       I    between atoms: N_2  and  C_1 
REMARK    1  A    between atoms: C_3  and  C_1 
REMARK    2  A    between atoms: C_4  and  C_9 
REMARK    3  A    between atoms: O_16  and  C_4 
REMARK    4  A    between atoms: C_17  and  O_16 
ROOT
ATOM      1  C   UNL d   1       0.923  -0.059   0.008  0.00  0.00     0.260 C 
ATOM      2  N   UNL d   1       0.248  -0.745  -1.016  0.00  0.00    -0.347 N 
ATOM      3  C   UNL d   1       0.720  -2.073  -1.400  0.00  0.00     0.127 C 
ATOM      4  C   UNL d   1      -0.993  -0.325  -1.666  0.00  0.00     0.127 C 
ATOM      5  O   UNL d   1       1.848  -0.609   0.610  0.00  0.00    -0.267 OA
ATOM      6  C   UNL d   1      -1.683  -2.778  -1.780  0.00  0.00     0.088 C 
ATOM      7  C   UNL d   1      -2.108  -1.345  -1.436  0.00  0.00     0.034 C 
ATOM      8  C   UNL d   1      -0.347  -3.128  -1.116  0.00  0.00     0.034 C 
ENDROOT
BRANCH   1   9
ATOM      9  C   UNL d   1       0.511   1.300   0.343  0.00  0.00     0.072 A 
ATOM     10  S   UNL d   1       0.425   1.740   2.002  0.00  0.00    -0.097 SA
ATOM     11  C   UNL d   1      -0.075   3.331   1.627  0.00  0.00     0.050 A 
ATOM     12  C   UNL d   1      -0.151   3.541   0.270  0.00  0.00     0.009 A 
ATOM     13  C   UNL d   1       0.220   2.381  -0.471  0.00  0.00     0.025 A 
ENDBRANCH   1   9
BRANCH   6  14
ATOM     14  C   UNL d   1      -1.660  -3.005  -3.284  0.00  0.00     0.263 C 
ATOM     15  O   UNL d   1      -1.887  -2.149  -4.128  0.00  0.00    -0.265 OA
BRANCH  14  16
ATOM     16  O   UNL d   1      -1.432  -4.325  -3.545  0.00  0.00    -0.322 OA
BRANCH  16  17
ATOM     17  C   UNL d   1      -1.613  -4.741  -4.906  0.00  0.00     0.174 C 
ATOM     18  C   UNL d   1      -3.058  -5.157  -5.103  0.00  0.00     0.034 C 
ENDBRANCH  16  17
ENDBRANCH  14  16
ENDBRANCH   6  14
TORSDOF 4
