REMARK  2 active torsions:
REMARK  status: ('A' for Active; 'I' for Inactive)
REMARK    1  A    between atoms: C_10  and  N_1 
REMARK    2  A    between atoms: C_17  and  C_10 
ROOT
ATOM      1  N   UNL d   1       2.363   0.560   0.007  0.00  0.00    -0.299 N 
ATOM      2  C   UNL d   1       1.231   1.380   0.026  0.00  0.00     0.261 A 
ATOM      3  C   UNL d   1      -0.079   0.705   0.024  0.00  0.00     0.059 A 
ATOM      4  N   UNL d   1       1.093  -1.427   0.127  0.00  0.00    -0.345 N 
ATOM      5  HN  UNL d   1       1.059  -2.445   0.195  1.00  0.00     0.167 HD
ATOM      6  C   UNL d   1       2.231  -0.812   0.085  0.00  0.00     0.083 A 
ATOM      7  C   UNL d   1      -0.085  -0.683   0.077  0.00  0.00     0.050 A 
ATOM      8  C   UNL d   1      -1.276   1.429  -0.047  0.00  0.00     0.021 A 
ATOM      9  C   UNL d   1      -1.306  -1.363   0.066  0.00  0.00     0.054 A 
ATOM     10  O   UNL d   1       1.261   2.610   0.050  0.00  0.00    -0.267 OA
ATOM     11  C   UNL d   1      -2.500  -0.650  -0.015  0.00  0.00     0.036 A 
ATOM     12  C   UNL d   1      -2.492   0.743  -0.071  0.00  0.00     0.025 A 
ATOM     13  C   UNL d   1       3.453  -1.702   0.108  0.00  0.00     0.089 C 
ATOM     14 CL   UNL d   1      -3.997  -1.496  -0.058  0.00  0.00    -0.084 Cl
ENDROOT
BRANCH   1  15
ATOM     15  C   UNL d   1       3.654   1.254  -0.090  0.00  0.00     0.172 C 
BRANCH  15  16
ATOM     16  C   UNL d   1       4.041   1.549  -1.523  0.00  0.00    -0.037 A 
ATOM     17  C   UNL d   1       3.599   2.714  -2.161  0.00  0.00     0.026 A 
ATOM     18  C   UNL d   1       3.909   2.905  -3.499  0.00  0.00     0.088 A 
ATOM     19  N   UNL d   1       4.628   2.031  -4.234  0.00  0.00    -0.375 N 
ATOM     20  C   UNL d   1       5.067   0.926  -3.599  0.00  0.00     0.088 A 
ATOM     21  HN  UNL d   1       4.828   2.198  -5.220  1.00  0.00     0.164 HD
ATOM     22  C   UNL d   1       4.813   0.650  -2.264  0.00  0.00     0.026 A 
ENDBRANCH  15  16
ENDBRANCH   1  15
TORSDOF 2
