REMARK  4 active torsions:
REMARK  status: ('A' for Active; 'I' for Inactive)
REMARK    1  A    between atoms: C_6  and  N_1 
REMARK    2  A    between atoms: C_10  and  C_2 
REMARK    3  A    between atoms: S_12  and  C_5 
REMARK    4  A    between atoms: O_23  and  C_18 
ROOT
ATOM      1  N   UNL d   1      -0.243  -1.298   0.068  0.00  0.00    -0.273 N 
ATOM      2  C   UNL d   1       1.002  -0.664  -0.059  0.00  0.00     0.139 A 
ATOM      3  N   UNL d   1       0.817   0.642  -0.066  0.00  0.00    -0.282 N 
ATOM      4  HN  UNL d   1       1.555   1.345  -0.100  1.00  0.00     0.188 HD
ATOM      5  C   UNL d   1      -1.150  -0.248   0.055  0.00  0.00     0.165 A 
ATOM      6  N   UNL d   1      -0.522   0.899  -0.020  0.00  0.00    -0.278 N 
ATOM      7  HN  UNL d   1      -0.957   1.822  -0.039  1.00  0.00     0.189 HD
ENDROOT
BRANCH   1   8
ATOM      8  C   UNL d   1      -0.516  -2.698   0.101  0.00  0.00     0.066 A 
ATOM      9  C   UNL d   1      -1.484  -3.214  -0.779  0.00  0.00     0.055 A 
ATOM     10  C   UNL d   1      -1.708  -4.591  -0.849  0.00  0.00     0.036 A 
ATOM     11 CL   UNL d   1      -2.925  -5.205  -1.895  0.00  0.00    -0.084 Cl
ATOM     12  C   UNL d   1      -0.949  -5.469  -0.082  0.00  0.00     0.026 A 
ATOM     13  C   UNL d   1      -0.002  -4.964   0.809  0.00  0.00     0.028 A 
ATOM     14  C   UNL d   1       0.193  -3.582   0.932  0.00  0.00     0.061 A 
ATOM     15 CL   UNL d   1       1.197  -3.066   2.242  0.00  0.00    -0.082 Cl
ENDBRANCH   1   8
BRANCH   2  16
ATOM     16  C   UNL d   1       2.327  -1.284  -0.207  0.00  0.00     0.010 A 
ATOM     17  C   UNL d   1       2.556  -2.405  -1.015  0.00  0.00     0.018 A 
ATOM     18  C   UNL d   1       3.820  -3.007  -1.063  0.00  0.00     0.037 A 
ATOM     19  C   UNL d   1       4.881  -2.475  -0.330  0.00  0.00     0.068 A 
ATOM     20  C   UNL d   1       4.673  -1.319   0.427  0.00  0.00     0.037 A 
ATOM     21  C   UNL d   1       3.410  -0.728   0.484  0.00  0.00     0.018 A 
BRANCH  19  22
ATOM     22  O   UNL d   1       6.153  -2.974  -0.277  0.00  0.00    -0.356 OA
ATOM     23  C   UNL d   1       6.382  -4.220  -0.923  0.00  0.00     0.210 C 
ENDBRANCH  19  22
ENDBRANCH   2  16
BRANCH   5  24
ATOM     24  S   UNL d   1      -2.871  -0.350   0.256  0.00  0.00    -0.105 SA
ATOM     25  H   UNL d   1      -2.988  -1.605   0.709  0.00  0.00     0.110 HD
ENDBRANCH   5  24
TORSDOF 4
