REMARK  4 active torsions:
REMARK  status: ('A' for Active; 'I' for Inactive)
REMARK    1  A    between atoms: C_8  and  C_1 
REMARK    2  A    between atoms: C_14  and  C_4 
REMARK       I    between atoms: C_7  and  N_12 
REMARK       I    between atoms: N_9  and  C_7 
REMARK    3  A    between atoms: N_12  and  C_8 
REMARK    4  A    between atoms: C_10  and  N_9 
ROOT
ATOM      1  C   UNL d   1       0.346  -2.601   0.037  0.00  0.00     0.168 C 
ENDROOT
BRANCH   1   2
ATOM      2  C   UNL d   1      -0.019  -1.161   0.097  0.00  0.00     0.020 A 
ATOM      3  C   UNL d   1      -1.293  -0.614   0.497  0.00  0.00     0.075 A 
ATOM      4  N   UNL d   1      -1.261   0.727   0.427  0.00  0.00    -0.260 N 
ATOM      5  O   UNL d   1      -0.014   1.073  -0.025  0.00  0.00    -0.242 OA
ATOM      6  HN  UNL d   1      -2.020   1.366   0.665  1.00  0.00     0.195 HD
ATOM      7  C   UNL d   1       0.729  -0.041  -0.225  0.00  0.00     0.082 A 
ATOM      8  C   UNL d   1       2.100   0.196  -0.718  0.00  0.00     0.079 C 
BRANCH   3   9
ATOM      9  C   UNL d   1      -2.510  -1.298   0.967  0.00  0.00    -0.007 A 
ATOM     10  C   UNL d   1      -2.827  -2.611   0.591  0.00  0.00     0.014 A 
ATOM     11  C   UNL d   1      -3.961  -3.255   1.095  0.00  0.00     0.001 A 
ATOM     12  C   UNL d   1      -4.818  -2.582   1.960  0.00  0.00     0.000 A 
ATOM     13  C   UNL d   1      -4.545  -1.264   2.315  0.00  0.00     0.001 A 
ATOM     14  C   UNL d   1      -3.399  -0.629   1.824  0.00  0.00     0.014 A 
ENDBRANCH   3   9
ENDBRANCH   1   2
BRANCH   1  15
ATOM     15  N   UNL d   1       1.751  -2.802  -0.201  0.00  0.00    -0.338 N 
ATOM     16  C   UNL d   1       2.183  -3.720  -1.103  0.00  0.00     0.321 C 
ATOM     17  N   UNL d   1       3.520  -3.818  -1.336  0.00  0.00    -0.306 N 
ATOM     18  O   UNL d   1       1.421  -4.373  -1.814  0.00  0.00    -0.247 OA
ATOM     19  H   UNL d   1       3.679  -4.319  -2.202  0.00  0.00     0.171 HD
ATOM     20  H   UNL d   1       2.357  -2.608   0.580  0.00  0.00     0.164 HD
BRANCH  17  21
ATOM     21  C   UNL d   1       4.647  -3.256  -0.710  0.00  0.00     0.075 A 
ATOM     22  C   UNL d   1       4.708  -2.841   0.627  0.00  0.00     0.146 A 
ATOM     23  C   UNL d   1       5.857  -2.266   1.159  0.00  0.00     0.086 A 
ATOM     24  F   UNL d   1       3.670  -3.025   1.457  0.00  0.00    -0.204 F 
ATOM     25  C   UNL d   1       6.969  -2.114   0.347  0.00  0.00     0.119 A 
ATOM     26  C   UNL d   1       6.957  -2.553  -0.971  0.00  0.00     0.044 A 
ATOM     27  F   UNL d   1       8.074  -1.542   0.842  0.00  0.00    -0.206 F 
ATOM     28  C   UNL d   1       5.802  -3.140  -1.495  0.00  0.00     0.036 A 
ENDBRANCH  17  21
ENDBRANCH   1  15
TORSDOF 4
