REMARK  6 active torsions:
REMARK  status: ('A' for Active; 'I' for Inactive)
REMARK    1  A    between atoms: S_7  and  C_3 
REMARK    2  A    between atoms: C_10  and  C_4 
REMARK    3  A    between atoms: C_18  and  S_7 
REMARK    4  A    between atoms: C_9  and  N_16 
REMARK    5  A    between atoms: N_17  and  C_9 
REMARK    6  A    between atoms: N_16  and  N_11 
ROOT
ATOM      1  N   UNL d   1       1.492  -1.205   0.013  0.00  0.00    -0.329 N 
ATOM      2  HN  UNL d   1       1.591  -2.221   0.015  1.00  0.00     0.168 HD
ATOM      3  C   UNL d   1       2.486  -0.244   0.006  0.00  0.00     0.105 A 
ATOM      4  C   UNL d   1       1.976   1.051   0.016  0.00  0.00     0.091 A 
ATOM      5  C   UNL d   1       0.402  -0.499   0.017  0.00  0.00     0.156 A 
ATOM      6  N   UNL d   1       0.614   0.850   0.016  0.00  0.00    -0.298 N 
ATOM      7  S   UNL d   1      -1.296  -0.873   0.006  0.00  0.00    -0.064 SA
ATOM      8  C   UNL d   1      -0.531   1.615   0.006  0.00  0.00     0.107 A 
ATOM      9  C   UNL d   1      -1.644   0.863  -0.002  0.00  0.00     0.071 A 
ENDROOT
BRANCH   4  10
ATOM     10  C   UNL d   1       2.640   2.323   0.018  0.00  0.00     0.140 C 
ATOM     11  N   UNL d   1       1.915   3.392   0.031  0.00  0.00    -0.307 N 
ATOM     12  HN  UNL d   1       0.898   3.325   0.037  1.00  0.00     0.186 HD
BRANCH  11  13
ATOM     13  N   UNL d   1       2.525   4.609   0.035  0.00  0.00    -0.277 N 
ATOM     14  H   UNL d   1       3.536   4.659   0.031  0.00  0.00     0.189 HD
BRANCH  13  15
ATOM     15  C   UNL d   1       1.751   5.772   0.041  0.00  0.00     0.186 C 
ATOM     16  S   UNL d   1       0.072   5.784   0.034  0.00  0.00    -0.040 SA
BRANCH  15  17
ATOM     17  N   UNL d   1       2.539   6.909   0.056  0.00  0.00    -0.370 N 
ATOM     18  C   UNL d   1       2.072   8.286   0.070  0.00  0.00     0.148 C 
ATOM     19  H   UNL d   1       3.541   6.790   0.061  0.00  0.00     0.161 HD
ENDBRANCH  15  17
ENDBRANCH  13  15
ENDBRANCH  11  13
ENDBRANCH   4  10
BRANCH   3  20
ATOM     20  S   UNL d   1       4.175  -0.710  -0.046  0.00  0.00    -0.070 SA
BRANCH  20  21
ATOM     21  C   UNL d   1       4.547  -0.865   1.690  0.00  0.00     0.007 A 
ATOM     22  C   UNL d   1       3.909  -1.818   2.493  0.00  0.00     0.020 A 
ATOM     23  C   UNL d   1       4.220  -1.917   3.853  0.00  0.00     0.025 A 
ATOM     24  C   UNL d   1       5.173  -1.065   4.409  0.00  0.00     0.034 A 
ATOM     25  C   UNL d   1       5.826  -0.124   3.615  0.00  0.00     0.025 A 
ATOM     26 CL   UNL d   1       5.549  -1.174   6.083  0.00  0.00    -0.084 Cl
ATOM     27  C   UNL d   1       5.516  -0.029   2.256  0.00  0.00     0.020 A 
ENDBRANCH  20  21
ENDBRANCH   3  20
TORSDOF 6
