REMARK  6 active torsions:
REMARK  status: ('A' for Active; 'I' for Inactive)
REMARK    1  A    between atoms: C_9  and  S_1 
REMARK    2  A    between atoms: N_16  and  S_1 
REMARK    3  A    between atoms: S_2  and  C_10 
REMARK    4  A    between atoms: N_17  and  S_2 
REMARK    5  A    between atoms: N_11  and  C_5 
REMARK    6  A    between atoms: N_12  and  C_6 
ROOT
ATOM      1  C   UNL d   1      -1.242   5.606   0.245  0.00  0.00     0.025 A 
ATOM      2  C   UNL d   1      -0.481   4.348   0.292  0.00  0.00     0.025 A 
ATOM      3  C   UNL d   1      -0.926   6.960   0.138  0.00  0.00     0.116 A 
ATOM      4  C   UNL d   1       0.846   3.991   0.523  0.00  0.00     0.116 A 
ATOM      5  C   UNL d   1      -1.380   3.276   0.115  0.00  0.00     0.030 A 
ATOM      6  C   UNL d   1      -2.620   5.292   0.205  0.00  0.00     0.030 A 
ATOM      7  C   UNL d   1       0.342   1.637   0.145  0.00  0.00     0.078 A 
ATOM      8  C   UNL d   1      -3.284   7.563   0.106  0.00  0.00     0.078 A 
ATOM      9  C   UNL d   1      -2.748   3.825   0.113  0.00  0.00     0.194 A 
ATOM     10  C   UNL d   1       1.270   2.649   0.433  0.00  0.00     0.061 A 
ATOM     11  C   UNL d   1      -1.933   7.941   0.079  0.00  0.00     0.061 A 
ATOM     12  C   UNL d   1      -1.016   1.937   0.031  0.00  0.00     0.041 A 
ATOM     13  C   UNL d   1      -3.653   6.221   0.158  0.00  0.00     0.041 A 
ATOM     14  O   UNL d   1      -3.781   3.195   0.049  0.00  0.00    -0.287 OA
ENDROOT
BRANCH   7  15
ATOM     15  S   UNL d   1       0.878  -0.063   0.175  0.00  0.00     0.243 S 
ATOM     16  O   UNL d   1      -0.279  -0.861   0.519  0.00  0.00    -0.206 OA
ATOM     17  O   UNL d   1       2.083  -0.121   0.981  0.00  0.00    -0.206 OA
BRANCH  15  18
ATOM     18  N   UNL d   1       1.312  -0.406  -1.456  0.00  0.00    -0.206 NA
ATOM     19  C   UNL d   1       2.517   0.335  -1.943  0.00  0.00     0.107 C 
ATOM     20  C   UNL d   1       2.769   0.040  -3.420  0.00  0.00     0.015 C 
ATOM     21  C   UNL d   1       2.932  -1.454  -3.666  0.00  0.00     0.002 C 
ATOM     22  C   UNL d   1       1.718  -2.203  -3.135  0.00  0.00     0.015 C 
ATOM     23  C   UNL d   1       1.470  -1.884  -1.664  0.00  0.00     0.107 C 
ENDBRANCH  15  18
ENDBRANCH   7  15
BRANCH   4  24
ATOM     24  N   UNL d   1       1.807   4.924   1.075  0.00  0.00    -0.115 N 
ATOM     25  O   UNL d   1       1.442   5.558   2.074  0.00  0.00    -0.532 OA
ATOM     26  O   UNL d   1       2.916   4.982   0.536  0.00  0.00    -0.532 OA
ENDBRANCH   4  24
BRANCH   3  27
ATOM     27  N   UNL d   1       0.421   7.424  -0.108  0.00  0.00    -0.115 N 
ATOM     28  O   UNL d   1       1.025   6.885  -1.044  0.00  0.00    -0.532 OA
ATOM     29  O   UNL d   1       0.846   8.338   0.607  0.00  0.00    -0.532 OA
ENDBRANCH   3  27
BRANCH   8  30
ATOM     30  S   UNL d   1      -4.503   8.848  -0.034  0.00  0.00     0.243 S 
ATOM     31  O   UNL d   1      -4.232   9.516  -1.285  0.00  0.00    -0.206 OA
ATOM     32  O   UNL d   1      -5.800   8.281   0.270  0.00  0.00    -0.206 OA
BRANCH  30  33
ATOM     33  N   UNL d   1      -4.063   9.883   1.259  0.00  0.00    -0.206 NA
ATOM     34  C   UNL d   1      -4.404   9.354   2.612  0.00  0.00     0.107 C 
ATOM     35  C   UNL d   1      -3.753  10.221   3.686  0.00  0.00     0.015 C 
ATOM     36  C   UNL d   1      -4.182  11.678   3.547  0.00  0.00     0.002 C 
ATOM     37  C   UNL d   1      -3.886  12.184   2.139  0.00  0.00     0.015 C 
ATOM     38  C   UNL d   1      -4.527  11.289   1.080  0.00  0.00     0.107 C 
ENDBRANCH  30  33
ENDBRANCH   8  30
TORSDOF 6
