REMARK  1 active torsions:
REMARK  status: ('A' for Active; 'I' for Inactive)
REMARK    1  A    between atoms: C_11  and  C_3 
ROOT
ATOM      1  N   UNL d   1       1.185   1.286  -0.003  0.00  0.00    -0.355 N 
ATOM      2  HN  UNL d   1       1.168   2.305   0.003  1.00  0.00     0.166 HD
ATOM      3  C   UNL d   1       2.370   0.628  -0.039  0.00  0.00     0.044 A 
ATOM      4  C   UNL d   1       1.235  -1.480   0.062  0.00  0.00     0.059 A 
ATOM      5  C   UNL d   1       0.035   0.594   0.024  0.00  0.00     0.044 A 
ATOM      6  C   UNL d   1      -0.008  -0.813   0.057  0.00  0.00     0.013 A 
ATOM      7  N   UNL d   1       1.393  -4.069   0.086  0.00  0.00    -0.191 NA
ATOM      8  C   UNL d   1       1.320  -2.913   0.081  0.00  0.00     0.100 C 
ATOM      9  C   UNL d   1       2.427  -0.756   0.010  0.00  0.00     0.054 A 
ATOM     10  C   UNL d   1      -1.268  -1.465   0.063  0.00  0.00     0.034 A 
ATOM     11  C   UNL d   1      -1.160   1.301  -0.012  0.00  0.00     0.032 A 
ATOM     12  C   UNL d   1      -2.448  -0.728   0.006  0.00  0.00     0.011 A 
ATOM     13  C   UNL d   1      -2.400   0.657  -0.034  0.00  0.00     0.021 A 
ATOM     14 BR   UNL d   1      -4.114  -1.617  -0.039  0.00  0.00    -0.051 Br
ENDROOT
BRANCH   3  15
ATOM     15  C   UNL d   1       3.568   1.475  -0.201  0.00  0.00    -0.009 A 
ATOM     16  C   UNL d   1       3.642   2.748   0.392  0.00  0.00     0.013 A 
ATOM     17  C   UNL d   1       4.745   3.584   0.187  0.00  0.00     0.001 A 
ATOM     18  C   UNL d   1       5.799   3.162  -0.618  0.00  0.00     0.000 A 
ATOM     19  C   UNL d   1       5.759   1.902  -1.205  0.00  0.00     0.001 A 
ATOM     20  C   UNL d   1       4.656   1.068  -0.998  0.00  0.00     0.013 A 
ENDBRANCH   3  15
TORSDOF 1
