REMARK  4 active torsions:
REMARK  status: ('A' for Active; 'I' for Inactive)
REMARK    1  A    between atoms: C_3  and  C_1 
REMARK    2  A    between atoms: C_8  and  C_1 
REMARK    3  A    between atoms: C_7  and  C_2 
REMARK    4  A    between atoms: N_4  and  C_3 
ROOT
ATOM      1  C   UNL d   1       1.004   0.033  -0.095  0.00  0.00     0.072 C 
ATOM      2  C   UNL d   1       0.354  -0.662   0.862  0.00  0.00     0.037 C 
ENDROOT
BRANCH   1   3
ATOM      3  C   UNL d   1       2.524   0.033  -0.095  0.00  0.00    -0.033 C 
BRANCH   3   4
ATOM      4  N   UNL d   1       3.785   0.033  -0.095  0.00  0.00    -0.365 N 
ATOM      5  HN2 UNL d   1       2.765   0.033  -0.095  1.00  0.00     0.165 HD
ATOM      6  HN1 UNL d   1       4.805   0.033  -0.095  1.00  0.00     0.165 HD
ENDBRANCH   3   4
ENDBRANCH   1   3
BRANCH   1   7
ATOM      7  C   UNL d   1       0.236   0.775  -1.132  0.00  0.00     0.165 C 
ATOM      8  O   UNL d   1      -0.997   0.760  -1.122  0.00  0.00    -0.292 OA
ATOM      9  C   UNL d   1       0.968   1.552  -2.198  0.00  0.00     0.097 C 
ENDBRANCH   1   7
BRANCH   2  10
ATOM     10  C   UNL d   1       1.012  -1.414   1.892  0.00  0.00    -0.028 A 
ATOM     11  C   UNL d   1       1.356  -0.874   3.112  0.00  0.00     0.061 A 
ATOM     12  S   UNL d   1       2.225  -1.986   4.085  0.00  0.00    -0.113 SA
ATOM     13  C   UNL d   1       2.127  -3.200   2.881  0.00  0.00     0.050 A 
ATOM     14  C   UNL d   1       1.440  -2.770   1.764  0.00  0.00     0.019 A 
ENDBRANCH   2  10
TORSDOF 4
