REMARK  1 active torsions:
REMARK  status: ('A' for Active; 'I' for Inactive)
REMARK    1  A    between atoms: O_13  and  C_5 
ROOT
ATOM      1  C   UNL d   1       1.427   0.886  -0.001  0.00  0.00     0.100 A 
ATOM      2  C   UNL d   1       0.678   2.178   0.001  0.00  0.00     0.263 A 
ATOM      3  C   UNL d   1       0.755  -0.273  -0.001  0.00  0.00     0.110 A 
ATOM      4  N   UNL d   1      -0.709   2.131   0.001  0.00  0.00    -0.317 N 
ATOM      5  C   UNL d   1       2.876   0.834   0.000  0.00  0.00     0.090 A 
ATOM      6  C   UNL d   1      -0.711  -0.315  -0.000  0.00  0.00     0.026 A 
ATOM      7  C   UNL d   1       3.522  -0.334  -0.000  0.00  0.00     0.120 A 
ATOM      8  C   UNL d   1      -1.426   0.896   0.000  0.00  0.00     0.050 A 
ATOM      9  O   UNL d   1       1.417  -1.525  -0.001  0.00  0.00    -0.273 OA
ATOM     10  C   UNL d   1       2.781  -1.602  -0.001  0.00  0.00     0.290 A 
ATOM     11  O   UNL d   1       1.326   3.229   0.001  0.00  0.00    -0.267 OA
ATOM     12  O   UNL d   1       3.378  -2.672  -0.001  0.00  0.00    -0.260 OA
ATOM     13  C   UNL d   1      -1.440   3.390   0.002  0.00  0.00     0.159 C 
ATOM     14  C   UNL d   1      -1.411  -1.534  -0.000  0.00  0.00     0.016 A 
ATOM     15  C   UNL d   1      -2.831   0.857   0.000  0.00  0.00     0.031 A 
ATOM     16  C   UNL d   1      -2.805  -1.556   0.000  0.00  0.00     0.001 A 
ATOM     17  C   UNL d   1      -3.514  -0.361   0.001  0.00  0.00     0.002 A 
ENDROOT
BRANCH   5  18
ATOM     18  O   UNL d   1       3.598   2.013   0.001  0.00  0.00    -0.359 OA
ATOM     19  H   UNL d   1       2.972   2.772   0.001  0.00  0.00     0.217 HD
ENDBRANCH   5  18
TORSDOF 1
