REMARK  5 active torsions:
REMARK  status: ('A' for Active; 'I' for Inactive)
REMARK    1  A    between atoms: C_2  and  S_1 
REMARK    2  A    between atoms: N_4  and  S_1 
REMARK    3  A    between atoms: C_14  and  C_19 
REMARK    4  A    between atoms: O_23  and  C_14 
REMARK    5  A    between atoms: C_24  and  O_23 
ROOT
ATOM      1  S   UNL d   1       1.052  -0.086  -0.116  0.00  0.00     0.246 S 
ATOM      2  O   UNL d   1       0.174  -1.130   0.377  0.00  0.00    -0.206 OA
ATOM      3  O   UNL d   1       1.194   0.127  -1.538  0.00  0.00    -0.206 OA
ENDROOT
BRANCH   1   4
ATOM      4  C   UNL d   1       2.629  -0.397   0.592  0.00  0.00     0.105 A 
ATOM      5  C   UNL d   1       3.851   0.017   0.035  0.00  0.00     0.108 A 
ATOM      6  C   UNL d   1       5.130  -0.395   0.617  0.00  0.00     0.086 A 
ATOM      7  N   UNL d   1       4.126   0.795  -1.021  0.00  0.00    -0.238 N 
ATOM      8  N   UNL d   1       6.120   0.143  -0.104  0.00  0.00    -0.239 N 
ATOM      9  C   UNL d   1       5.222  -1.226   1.750  0.00  0.00     0.034 A 
ATOM     10  O   UNL d   1       5.504   0.861  -1.111  0.00  0.00    -0.156 OA
ATOM     11  HN  UNL d   1       7.122   0.044   0.057  1.00  0.00     0.197 HD
ATOM     12  C   UNL d   1       3.987  -1.633   2.281  0.00  0.00     0.004 A 
ATOM     13  C   UNL d   1       2.743  -1.238   1.726  0.00  0.00     0.027 A 
ATOM     14  HN  UNL d   1       3.452   1.250  -1.637  1.00  0.00     0.197 HD
ENDBRANCH   1   4
BRANCH   1  15
ATOM     15  N   UNL d   1       0.533   1.398   0.605  0.00  0.00    -0.206 NA
ATOM     16  C   UNL d   1       1.260   2.597   0.092  0.00  0.00     0.108 C 
ATOM     17  C   UNL d   1       0.822   3.852   0.845  0.00  0.00     0.030 C 
ATOM     18  C   UNL d   1      -0.693   4.070   0.777  0.00  0.00     0.088 C 
ATOM     19  C   UNL d   1      -1.394   2.805   1.287  0.00  0.00     0.030 C 
ATOM     20  C   UNL d   1      -0.952   1.570   0.503  0.00  0.00     0.108 C 
BRANCH  18  21
ATOM     21  C   UNL d   1      -1.224   4.429  -0.606  0.00  0.00     0.263 C 
ATOM     22  O   UNL d   1      -2.374   4.207  -0.964  0.00  0.00    -0.265 OA
BRANCH  21  23
ATOM     23  O   UNL d   1      -0.285   5.046  -1.371  0.00  0.00    -0.322 OA
BRANCH  23  24
ATOM     24  C   UNL d   1      -0.703   5.381  -2.705  0.00  0.00     0.174 C 
ATOM     25  C   UNL d   1      -0.600   4.166  -3.611  0.00  0.00     0.034 C 
ENDBRANCH  23  24
ENDBRANCH  21  23
ENDBRANCH  18  21
ENDBRANCH   1  15
TORSDOF 5
