REMARK  8 active torsions:
REMARK  status: ('A' for Active; 'I' for Inactive)
REMARK    1  A    between atoms: N_2  and  C_1 
REMARK    2  A    between atoms: C_3  and  C_1 
REMARK    3  A    between atoms: N_4  and  C_1 
REMARK    4  A    between atoms: C_6  and  C_1 
REMARK       I    between atoms: C_5  and  N_2 
REMARK    5  A    between atoms: C_8  and  N_4 
REMARK    6  A    between atoms: C_7  and  C_5 
REMARK    7  A    between atoms: O_19  and  C_6 
REMARK    8  A    between atoms: C_23  and  O_19 
ROOT
ATOM      1  C   UNL d   1       1.075  -0.085  -0.152  0.00  0.00     0.297 C 
ENDROOT
BRANCH   1   2
ATOM      2  N   UNL d   1       0.629   0.343  -1.468  0.00  0.00    -0.313 N 
ATOM      3  C   UNL d   1       0.656  -0.413  -2.602  0.00  0.00     0.277 C 
ATOM      4  O   UNL d   1       1.094  -1.555  -2.619  0.00  0.00    -0.265 OA
ATOM      5  H   UNL d   1       0.100   1.203  -1.493  0.00  0.00     0.166 HD
BRANCH   3   6
ATOM      6  C   UNL d   1       0.118   0.284  -3.754  0.00  0.00     0.142 A 
ATOM      7  O   UNL d   1      -0.236   1.606  -3.621  0.00  0.00    -0.317 OA
ATOM      8  C   UNL d   1      -0.683   2.027  -4.831  0.00  0.00     0.143 A 
ATOM      9  C   UNL d   1      -0.637   1.001  -5.744  0.00  0.00     0.027 A 
ATOM     10  C   UNL d   1      -0.119  -0.123  -5.052  0.00  0.00     0.045 A 
ENDBRANCH   3   6
ENDBRANCH   1   2
BRANCH   1  11
ATOM     11  C   UNL d   1       0.570  -1.509   0.292  0.00  0.00     0.442 C 
ATOM     12  F   UNL d   1      -0.590  -1.855  -0.324  0.00  0.00    -0.166 F 
ATOM     13  F   UNL d   1       1.457  -2.505   0.075  0.00  0.00    -0.166 F 
ATOM     14  F   UNL d   1       0.295  -1.514   1.628  0.00  0.00    -0.166 F 
ENDBRANCH   1  11
BRANCH   1  15
ATOM     15  N   UNL d   1       0.492   0.989   0.715  0.00  0.00    -0.347 N 
ATOM     16  H   UNL d   1       0.311   0.642   1.663  0.00  0.00     0.163 HD
BRANCH  15  17
ATOM     17  C   UNL d   1       0.893   2.330   0.758  0.00  0.00     0.052 A 
ATOM     18  C   UNL d   1       0.339   3.187   1.738  0.00  0.00     0.060 A 
ATOM     19 CL   UNL d   1      -0.686   2.550   2.984  0.00  0.00    -0.082 Cl
ATOM     20  C   UNL d   1       0.587   4.563   1.741  0.00  0.00     0.026 A 
ATOM     21  C   UNL d   1       1.391   5.124   0.755  0.00  0.00     0.002 A 
ATOM     22  C   UNL d   1       1.950   4.307  -0.222  0.00  0.00     0.002 A 
ATOM     23  C   UNL d   1       1.696   2.930  -0.223  0.00  0.00     0.031 A 
ENDBRANCH  15  17
ENDBRANCH   1  15
BRANCH   1  24
ATOM     24  C   UNL d   1       2.602  -0.200   0.081  0.00  0.00     0.318 C 
ATOM     25  O   UNL d   1       3.130  -0.183   1.189  0.00  0.00    -0.260 OA
BRANCH  24  26
ATOM     26  O   UNL d   1       3.286  -0.393  -1.085  0.00  0.00    -0.318 OA
BRANCH  26  27
ATOM     27  C   UNL d   1       4.694  -0.649  -0.970  0.00  0.00     0.174 C 
ATOM     28  C   UNL d   1       4.973  -2.046  -0.440  0.00  0.00     0.034 C 
ENDBRANCH  26  27
ENDBRANCH  24  26
ENDBRANCH   1  24
TORSDOF 8
