REMARK  5 active torsions:
REMARK  status: ('A' for Active; 'I' for Inactive)
REMARK    1  A    between atoms: N_9  and  C_1 
REMARK    2  A    between atoms: C_5  and  C_2 
REMARK    3  A    between atoms: C_16  and  N_9 
REMARK    4  A    between atoms: O_14  and  C_18 
REMARK    5  A    between atoms: C_18  and  C_16 
ROOT
ATOM      1  C   UNL d   1      -1.109  -1.437  -0.113  0.00  0.00     0.044 A 
ATOM      2  C   UNL d   1      -2.200   0.739  -0.004  0.00  0.00     0.119 A 
ATOM      3  N   UNL d   1      -1.019   1.396   0.052  0.00  0.00    -0.352 N 
ATOM      4  HN  UNL d   1      -0.991   2.412   0.128  1.00  0.00     0.166 HD
ATOM      5  C   UNL d   1      -2.269  -0.650  -0.066  0.00  0.00     0.064 A 
ATOM      6  C   UNL d   1       0.143  -0.730  -0.106  0.00  0.00     0.017 A 
ATOM      7  C   UNL d   1       0.108   0.684   0.004  0.00  0.00     0.045 A 
ATOM      8  C   UNL d   1       1.428  -1.331  -0.233  0.00  0.00     0.016 A 
ATOM      9  C   UNL d   1       1.294   1.408   0.057  0.00  0.00     0.030 A 
ATOM     10  C   UNL d   1       2.607  -0.585  -0.157  0.00  0.00     0.001 A 
ATOM     11  C   UNL d   1       2.540   0.789  -0.004  0.00  0.00     0.002 A 
ENDROOT
BRANCH   1  12
ATOM     12  N   UNL d   1      -1.198  -2.836  -0.173  0.00  0.00    -0.382 N 
ATOM     13  C   UNL d   1      -0.482  -3.625   0.835  0.00  0.00     0.150 C 
BRANCH  12  14
ATOM     14  C   UNL d   1      -2.389  -3.534  -0.721  0.00  0.00     0.148 C 
BRANCH  14  15
ATOM     15  C   UNL d   1      -2.203  -3.874  -2.201  0.00  0.00     0.183 C 
BRANCH  15  16
ATOM     16  O   UNL d   1      -1.301  -4.969  -2.357  0.00  0.00    -0.399 OA
ATOM     17  H   UNL d   1      -1.112  -5.042  -3.308  0.00  0.00     0.209 HD
ENDBRANCH  15  16
ENDBRANCH  14  15
ENDBRANCH  12  14
ENDBRANCH   1  12
BRANCH   2  18
ATOM     18  C   UNL d   1      -3.499   1.531   0.012  0.00  0.00     0.432 C 
ATOM     19  F   UNL d   1      -3.339   2.885  -0.023  0.00  0.00    -0.165 F 
ATOM     20  F   UNL d   1      -4.301   1.229  -1.053  0.00  0.00    -0.165 F 
ATOM     21  F   UNL d   1      -4.256   1.274   1.117  0.00  0.00    -0.165 F 
ENDBRANCH   2  18
TORSDOF 5
