REMARK  6 active torsions:
REMARK  status: ('A' for Active; 'I' for Inactive)
REMARK    1  A    between atoms: C_8  and  C_1 
REMARK    2  A    between atoms: C_11  and  C_2 
REMARK    3  A    between atoms: C_9  and  N_5 
REMARK    4  A    between atoms: N_7  and  C_8 
REMARK    5  A    between atoms: O_23  and  C_14 
REMARK    6  A    between atoms: C_26  and  O_23 
ROOT
ATOM      1  N   UNL d   1       3.618  -1.907  -0.409  0.00  0.00    -0.375 N 
ATOM      2  N   UNL d   1       3.176   1.029  -0.038  0.00  0.00     0.096 N 
ATOM      3  C   UNL d   1       3.694  -1.315   0.945  0.00  0.00     0.153 C 
ATOM      4  C   UNL d   1       2.687  -1.156  -1.279  0.00  0.00     0.153 C 
ATOM      5  C   UNL d   1       4.019   0.207   0.863  0.00  0.00     0.292 C 
ATOM      6  C   UNL d   1       3.072   0.337  -1.337  0.00  0.00     0.292 C 
ENDROOT
BRANCH   2   7
ATOM      7  C   UNL d   1       1.887   1.369   0.568  0.00  0.00     0.315 C 
BRANCH   7   8
ATOM      8  C   UNL d   1       1.081   2.267  -0.326  0.00  0.00     0.016 A 
ATOM      9  C   UNL d   1       1.433   3.518  -0.940  0.00  0.00     0.067 A 
ATOM     10  N   UNL d   1       0.441   3.954  -1.736  0.00  0.00    -0.300 N 
ATOM     11  N   UNL d   1      -0.523   3.040  -1.614  0.00  0.00    -0.311 N 
ATOM     12  HN  UNL d   1       0.428   4.799  -2.308  1.00  0.00     0.187 HD
ATOM     13  C   UNL d   1      -0.204   2.020  -0.775  0.00  0.00     0.118 A 
ATOM     14  H   UNL d   1      -1.378   3.174  -2.145  0.00  0.00     0.186 HD
BRANCH   9  15
ATOM     15  C   UNL d   1       2.665   4.302  -0.823  0.00  0.00    -0.007 A 
ATOM     16  C   UNL d   1       3.263   4.845  -1.972  0.00  0.00     0.017 A 
ATOM     17  C   UNL d   1       4.423   5.618  -1.874  0.00  0.00     0.043 A 
ATOM     18  C   UNL d   1       4.979   5.857  -0.624  0.00  0.00     0.116 A 
ATOM     19  C   UNL d   1       4.399   5.338   0.528  0.00  0.00     0.043 A 
ATOM     20  F   UNL d   1       6.085   6.607  -0.524  0.00  0.00    -0.206 F 
ATOM     21  C   UNL d   1       3.240   4.561   0.429  0.00  0.00     0.017 A 
ENDBRANCH   9  15
ENDBRANCH   7   8
ENDBRANCH   2   7
BRANCH   1  22
ATOM     22  C   UNL d   1       3.788  -3.292  -0.603  0.00  0.00     0.064 A 
ATOM     23  C   UNL d   1       4.783  -4.084   0.044  0.00  0.00     0.095 A 
ATOM     24  C   UNL d   1       4.908  -5.461  -0.251  0.00  0.00     0.039 A 
ATOM     25  C   UNL d   1       4.126  -6.074  -1.223  0.00  0.00     0.003 A 
ATOM     26  C   UNL d   1       3.180  -5.325  -1.893  0.00  0.00     0.002 A 
ATOM     27  C   UNL d   1       3.007  -3.974  -1.571  0.00  0.00     0.032 A 
BRANCH  23  28
ATOM     28  O   UNL d   1       5.647  -3.471   0.928  0.00  0.00    -0.349 OA
BRANCH  28  29
ATOM     29  C   UNL d   1       6.819  -4.196   1.310  0.00  0.00     0.171 C 
ATOM     30  C   UNL d   1       7.735  -3.284   2.104  0.00  0.00     0.034 C 
ENDBRANCH  28  29
ENDBRANCH  23  28
ENDBRANCH   1  22
TORSDOF 6
