REMARK  6 active torsions:
REMARK  status: ('A' for Active; 'I' for Inactive)
REMARK    1  A    between atoms: C_4  and  C_1 
REMARK    2  A    between atoms: C_6  and  C_1 
REMARK    3  A    between atoms: N_5  and  N_2 
REMARK    4  A    between atoms: O_11  and  C_4 
REMARK    5  A    between atoms: C_7  and  N_5 
REMARK    6  A    between atoms: C_16  and  O_11 
ROOT
ATOM      1  C   UNL d   1       1.083   0.103   0.093  0.00  0.00     0.169 C 
ATOM      2  N   UNL d   1       0.415  -0.023   1.212  0.00  0.00    -0.292 N 
ATOM      3  HN  UNL d   1      -0.594   0.121   1.239  1.00  0.00     0.187 HD
ENDROOT
BRANCH   2   4
ATOM      4  N   UNL d   1       1.105  -0.353   2.342  0.00  0.00    -0.300 N 
ATOM      5  H   UNL d   1       1.969  -0.899   2.233  0.00  0.00     0.187 HD
BRANCH   4   6
ATOM      6  C   UNL d   1       0.378  -0.743   3.497  0.00  0.00     0.054 A 
ATOM      7  C   UNL d   1       1.052  -1.067   4.695  0.00  0.00    -0.034 A 
ATOM      8  C   UNL d   1       2.551  -1.079   4.829  0.00  0.00     0.050 C 
ATOM      9  C   UNL d   1       0.308  -1.401   5.845  0.00  0.00     0.009 A 
ATOM     10  C   UNL d   1      -1.085  -1.392   5.829  0.00  0.00     0.001 A 
ATOM     11  C   UNL d   1      -1.754  -1.041   4.665  0.00  0.00     0.002 A 
ATOM     12  C   UNL d   1      -1.029  -0.706   3.518  0.00  0.00     0.031 A 
ENDBRANCH   4   6
ENDBRANCH   2   4
BRANCH   1  13
ATOM     13  C   UNL d   1       0.272   0.469  -1.143  0.00  0.00     0.315 C 
ATOM     14  O   UNL d   1       0.720   1.181  -2.025  0.00  0.00    -0.257 OA
BRANCH  13  15
ATOM     15  O   UNL d   1      -0.976  -0.031  -1.063  0.00  0.00    -0.317 OA
BRANCH  15  16
ATOM     16  C   UNL d   1      -1.936   0.568  -1.946  0.00  0.00     0.175 C 
ATOM     17  C   UNL d   1      -2.574   1.745  -1.229  0.00  0.00     0.034 C 
ENDBRANCH  15  16
ENDBRANCH  13  15
ENDBRANCH   1  13
BRANCH   1  18
ATOM     18  C   UNL d   1       2.591  -0.084   0.021  0.00  0.00     0.179 C 
ATOM     19  O   UNL d   1       3.103  -1.011   0.645  0.00  0.00    -0.291 OA
ATOM     20  C   UNL d   1       3.412   0.897  -0.764  0.00  0.00     0.099 C 
ENDBRANCH   1  18
TORSDOF 6
