REMARK  7 active torsions:
REMARK  status: ('A' for Active; 'I' for Inactive)
REMARK    1  A    between atoms: N_4  and  C_1 
REMARK       I    between atoms: C_2  and  N_6 
REMARK       I    between atoms: N_8  and  C_2 
REMARK    2  A    between atoms: C_3  and  C_12 
REMARK    3  A    between atoms: C_5  and  S_11 
REMARK    4  A    between atoms: N_6  and  C_7 
REMARK    5  A    between atoms: C_24  and  N_8 
REMARK    6  A    between atoms: S_11  and  C_25 
REMARK    7  A    between atoms: C_33  and  O_31 
ROOT
ATOM      1  O   UNL d   1       1.308  -1.940   0.085  0.00  0.00    -0.401 OA
ATOM      2  H   UNL d   1       0.833  -1.139  -0.199  0.00  0.00     0.209 HD
ENDROOT
BRANCH   1   3
ATOM      3  C   UNL d   1       2.495  -1.532   0.750  0.00  0.00     0.159 C 
ATOM      4  C   UNL d   1       2.459  -2.019   2.184  0.00  0.00     0.033 C 
ENDBRANCH   1   3
TORSDOF 7
