REMARK  5 active torsions:
REMARK  status: ('A' for Active; 'I' for Inactive)
REMARK    1  A    between atoms: N_11  and  C_1 
REMARK    2  A    between atoms: C_18  and  C_2 
REMARK    3  A    between atoms: C_13  and  C_5 
REMARK       I    between atoms: C_14  and  N_11 
REMARK    4  A    between atoms: C_12  and  C_23 
REMARK       I    between atoms: N_17  and  C_14 
REMARK    5  A    between atoms: C_23  and  N_17 
ROOT
ATOM      1  N   UNL d   1       0.393  -2.397   0.188  0.00  0.00    -0.305 N 
ATOM      2  C   UNL d   1       1.684  -2.721  -0.167  0.00  0.00     0.321 C 
ATOM      3  N   UNL d   1       1.928  -4.067  -0.014  0.00  0.00    -0.337 N 
ATOM      4  O   UNL d   1       2.562  -1.925  -0.471  0.00  0.00    -0.247 OA
ATOM      5  H   UNL d   1       0.018  -3.018   0.893  0.00  0.00     0.171 HD
ATOM      6  H   UNL d   1       1.188  -4.739  -0.185  0.00  0.00     0.164 HD
ENDROOT
BRANCH   1   7
ATOM      7  C   UNL d   1      -0.030  -1.071   0.281  0.00  0.00     0.097 A 
ATOM      8  C   UNL d   1      -0.692  -0.458   1.395  0.00  0.00     0.094 A 
ATOM      9  N   UNL d   1      -1.061   0.796   1.090  0.00  0.00    -0.258 N 
ATOM     10  O   UNL d   1      -0.566   1.045  -0.169  0.00  0.00    -0.240 OA
ATOM     11  HN  UNL d   1      -1.601   1.435   1.674  1.00  0.00     0.195 HD
ATOM     12  C   UNL d   1       0.079  -0.054  -0.646  0.00  0.00     0.101 A 
ATOM     13  C   UNL d   1       0.642   0.108  -2.000  0.00  0.00     0.081 C 
BRANCH   8  14
ATOM     14  C   UNL d   1      -0.878  -0.976   2.752  0.00  0.00    -0.005 A 
ATOM     15  C   UNL d   1       0.129  -1.743   3.360  0.00  0.00     0.014 A 
ATOM     16  C   UNL d   1       0.003  -2.162   4.686  0.00  0.00     0.001 A 
ATOM     17  C   UNL d   1      -1.124  -1.808   5.423  0.00  0.00     0.000 A 
ATOM     18  C   UNL d   1      -2.129  -1.043   4.833  0.00  0.00     0.001 A 
ATOM     19  C   UNL d   1      -2.009  -0.630   3.503  0.00  0.00     0.014 A 
ENDBRANCH   8  14
ENDBRANCH   1   7
BRANCH   3  20
ATOM     20  C   UNL d   1       3.281  -4.546  -0.142  0.00  0.00     0.181 C 
BRANCH  20  21
ATOM     21  C   UNL d   1       3.345  -6.035  -0.281  0.00  0.00     0.034 A 
ATOM     22  N   UNL d   1       2.199  -6.830  -0.216  0.00  0.00    -0.351 N 
ATOM     23  C   UNL d   1       2.517  -8.105  -0.371  0.00  0.00     0.091 A 
ATOM     24  HN  UNL d   1       1.253  -6.478  -0.070  1.00  0.00     0.166 HD
ATOM     25  S   UNL d   1       4.200  -8.406  -0.607  0.00  0.00    -0.081 SA
ATOM     26  C   UNL d   1       4.517  -6.737  -0.489  0.00  0.00     0.078 A 
BRANCH  23  27
ATOM     27  C   UNL d   1       1.555  -9.188  -0.349  0.00  0.00     0.038 A 
ATOM     28  S   UNL d   1      -0.108  -8.905  -0.013  0.00  0.00    -0.099 SA
ATOM     29  C   UNL d   1      -0.502 -10.563  -0.159  0.00  0.00     0.050 A 
ATOM     30  C   UNL d   1       0.598 -11.330  -0.462  0.00  0.00     0.008 A 
ATOM     31  C   UNL d   1       1.779 -10.540  -0.571  0.00  0.00     0.022 A 
ENDBRANCH  23  27
ENDBRANCH  20  21
ENDBRANCH   3  20
TORSDOF 5
