REMARK  3 active torsions:
REMARK  status: ('A' for Active; 'I' for Inactive)
REMARK    1  A    between atoms: N_5  and  C_1 
REMARK    2  A    between atoms: S_10  and  C_2 
REMARK    3  A    between atoms: C_4  and  S_10 
ROOT
ATOM      1  C   UNL d   1      -1.147  -1.090  -0.038  0.00  0.00     0.132 A 
ATOM      2  C   UNL d   1       0.010   1.392  -0.025  0.00  0.00     0.098 A 
ATOM      3  C   UNL d   1       0.844   0.268  -0.039  0.00  0.00     0.086 A 
ATOM      4  C   UNL d   1       0.263  -1.020  -0.043  0.00  0.00    -0.003 A 
ATOM      5  N   UNL d   1      -1.348   1.297  -0.016  0.00  0.00    -0.351 N 
ATOM      6  HN  UNL d   1      -1.925   2.138   0.002  1.00  0.00     0.166 HD
ATOM      7  C   UNL d   1      -1.923   0.068  -0.030  0.00  0.00     0.040 A 
ATOM      8  C   UNL d   1       2.267   0.436  -0.031  0.00  0.00     0.103 C 
ATOM      9  N   UNL d   1       3.424   0.538  -0.011  0.00  0.00    -0.191 NA
ATOM     10  C   UNL d   1       1.102  -2.274  -0.035  0.00  0.00     0.052 C 
ATOM     11  C   UNL d   1      -3.425   0.057  -0.004  0.00  0.00     0.071 C 
ENDROOT
BRANCH   2  12
ATOM     12  S   UNL d   1       0.635   3.057   0.106  0.00  0.00    -0.051 SA
BRANCH  12  13
ATOM     13  C   UNL d   1       0.768   3.546  -1.614  0.00  0.00     0.097 A 
ATOM     14  C   UNL d   1       0.767   4.896  -1.987  0.00  0.00     0.084 A 
ATOM     15  C   UNL d   1       0.845   5.216  -3.355  0.00  0.00    -0.037 A 
ATOM     16  C   UNL d   1       0.698   5.931  -0.995  0.00  0.00     0.103 C 
ATOM     17  C   UNL d   1       0.798   6.624  -3.886  0.00  0.00     0.050 C 
ATOM     18  C   UNL d   1       0.948   4.169  -4.280  0.00  0.00     0.033 A 
ATOM     19  C   UNL d   1       0.974   2.855  -3.828  0.00  0.00     0.006 A 
ATOM     20  N   UNL d   1       0.884   2.535  -2.517  0.00  0.00    -0.353 N 
ATOM     21  C   UNL d   1       1.083   1.729  -4.813  0.00  0.00     0.068 C 
ATOM     22  HN  UNL d   1       0.903   1.561  -2.213  1.00  0.00     0.166 HD
ATOM     23  N   UNL d   1       0.657   6.788  -0.214  0.00  0.00    -0.191 NA
ENDBRANCH  12  13
ENDBRANCH   2  12
BRANCH   1  24
ATOM     24  N   UNL d   1      -1.815  -2.376  -0.017  0.00  0.00    -0.113 N 
ATOM     25  O   UNL d   1      -1.662  -3.073   0.992  0.00  0.00    -0.532 OA
ATOM     26  O   UNL d   1      -2.485  -2.680  -1.012  0.00  0.00    -0.532 OA
ENDBRANCH   1  24
TORSDOF 3
