REMARK  6 active torsions:
REMARK  status: ('A' for Active; 'I' for Inactive)
REMARK    1  A    between atoms: C_5  and  N_1 
REMARK    2  A    between atoms: C_2  and  C_4 
REMARK    3  A    between atoms: C_3  and  N_7 
REMARK    4  A    between atoms: N_6  and  C_3 
REMARK    5  A    between atoms: C_12  and  N_6 
REMARK    6  A    between atoms: N_7  and  C_18 
ROOT
ATOM      1  C   UNL d   1      -1.669  -1.365   5.739  0.00  0.00     0.176 C 
ATOM      2  S   UNL d   1      -2.524  -1.766   7.122  0.00  0.00    -0.041 SA
ENDROOT
BRANCH   1   3
ATOM      3  N   UNL d   1      -1.976  -1.769   4.470  0.00  0.00    -0.333 N 
ATOM      4  H   UNL d   1      -1.181  -2.108   3.940  0.00  0.00     0.168 HD
BRANCH   3   5
ATOM      5  C   UNL d   1      -3.226  -1.800   3.820  0.00  0.00     0.034 A 
ATOM      6  C   UNL d   1      -4.330  -1.068   4.270  0.00  0.00     0.032 A 
ATOM      7  C   UNL d   1      -5.506  -1.019   3.514  0.00  0.00     0.038 A 
ATOM      8  C   UNL d   1      -5.577  -1.710   2.300  0.00  0.00     0.103 A 
ATOM      9  C   UNL d   1      -4.483  -2.456   1.845  0.00  0.00     0.038 A 
ATOM     10  C   UNL d   1      -3.309  -2.490   2.604  0.00  0.00     0.032 A 
BRANCH   8  11
ATOM     11  N   UNL d   1      -6.793  -1.622   1.482  0.00  0.00    -0.116 N 
ATOM     12  O   UNL d   1      -6.806  -2.233   0.404  0.00  0.00    -0.532 OA
ATOM     13  O   UNL d   1      -7.730  -0.936   1.913  0.00  0.00    -0.532 OA
ENDBRANCH   8  11
ENDBRANCH   3   5
ENDBRANCH   1   3
BRANCH   1  14
ATOM     14  N   UNL d   1      -0.486  -0.691   5.900  0.00  0.00    -0.333 N 
ATOM     15  H   UNL d   1      -0.190  -0.640   6.870  0.00  0.00     0.168 HD
BRANCH  14  16
ATOM     16  C   UNL d   1       0.287   0.051   4.981  0.00  0.00     0.035 A 
ATOM     17  C   UNL d   1      -0.149   0.416   3.704  0.00  0.00     0.045 A 
ATOM     18  C   UNL d   1       0.674   1.156   2.836  0.00  0.00     0.050 A 
ATOM     19  C   UNL d   1       1.939   1.560   3.280  0.00  0.00     0.016 A 
ATOM     20  C   UNL d   1       2.367   1.237   4.566  0.00  0.00     0.003 A 
ATOM     21  C   UNL d   1       1.543   0.491   5.412  0.00  0.00     0.029 A 
BRANCH  18  22
ATOM     22  C   UNL d   1       0.208   1.511   1.444  0.00  0.00     0.417 C 
ATOM     23  F   UNL d   1      -1.055   1.081   1.167  0.00  0.00    -0.166 F 
ATOM     24  F   UNL d   1       0.207   2.852   1.216  0.00  0.00    -0.166 F 
ATOM     25  F   UNL d   1       1.003   0.966   0.481  0.00  0.00    -0.166 F 
ENDBRANCH  18  22
ENDBRANCH  14  16
ENDBRANCH   1  14
TORSDOF 6
