REMARK  7 active torsions:
REMARK  status: ('A' for Active; 'I' for Inactive)
REMARK    1  A    between atoms: C_6  and  C_1 
REMARK       I    between atoms: C_2  and  N_3 
REMARK    2  A    between atoms: C_5  and  C_2 
REMARK    3  A    between atoms: N_3  and  C_4 
REMARK       I    between atoms: N_16  and  C_6 
REMARK    4  A    between atoms: N_7  and  C_20 
REMARK    5  A    between atoms: C_25  and  N_16 
REMARK    6  A    between atoms: C_20  and  C_21 
REMARK    7  A    between atoms: C_21  and  C_25 
ROOT
ATOM      1  C   UNL d   1       1.057  -0.722   0.702  0.00  0.00     0.058 C 
ATOM      2  C   UNL d   1       1.130  -1.155  -0.638  0.00  0.00     0.050 C 
ATOM      3  C   UNL d   1      -0.112  -0.108   1.173  0.00  0.00     0.019 C 
ATOM      4  C   UNL d   1      -0.049  -1.210  -1.394  0.00  0.00     0.030 C 
ATOM      5  C   UNL d   1      -1.248  -0.059   0.368  0.00  0.00     0.001 C 
ATOM      6  C   UNL d   1      -1.233  -0.665  -0.888  0.00  0.00     0.002 C 
ENDROOT
BRANCH   1   7
ATOM      7  C   UNL d   1       2.098  -1.048   1.729  0.00  0.00     0.253 C 
ATOM      8  O   UNL d   1       2.282  -0.321   2.697  0.00  0.00    -0.268 OA
ATOM      9  N   UNL d   1       2.714  -2.277   1.554  0.00  0.00    -0.357 N 
ATOM     10  H   UNL d   1       2.574  -2.741   0.667  0.00  0.00     0.162 HD
BRANCH   9  11
ATOM     11  C   UNL d   1       3.863  -2.694   2.325  0.00  0.00     0.124 C 
BRANCH  11  12
ATOM     12  C   UNL d   1       3.816  -4.172   2.716  0.00  0.00     0.050 C 
BRANCH  12  13
ATOM     13  C   UNL d   1       3.633  -5.176   1.563  0.00  0.00     0.274 C 
BRANCH  13  14
ATOM     14  N   UNL d   1       4.568  -5.034   0.435  0.00  0.00     0.092 N 
ATOM     15  C   UNL d   1       5.972  -5.357   0.790  0.00  0.00     0.298 C 
ATOM     16  C   UNL d   1       6.271  -6.861   0.950  0.00  0.00     0.198 C 
ATOM     17  O   UNL d   1       5.868  -7.606  -0.205  0.00  0.00    -0.388 OA
ATOM     18  C   UNL d   1       4.478  -7.403  -0.475  0.00  0.00     0.198 C 
ATOM     19  C   UNL d   1       4.176  -5.911  -0.697  0.00  0.00     0.298 C 
ENDBRANCH  13  14
ENDBRANCH  12  13
ENDBRANCH  11  12
ENDBRANCH   9  11
ENDBRANCH   1   7
BRANCH   2  20
ATOM     20  N   UNL d   1       2.349  -1.445  -1.321  0.00  0.00    -0.322 N 
ATOM     21  C   UNL d   1       3.467  -0.638  -1.118  0.00  0.00     0.256 C 
ATOM     22  O   UNL d   1       3.524   0.281  -0.309  0.00  0.00    -0.267 OA
ATOM     23  H   UNL d   1       2.261  -1.867  -2.236  0.00  0.00     0.169 HD
BRANCH  21  24
ATOM     24  C   UNL d   1       4.646  -0.823  -2.011  0.00  0.00     0.035 A 
ATOM     25  C   UNL d   1       4.869  -1.974  -2.769  0.00  0.00     0.041 A 
ATOM     26  C   UNL d   1       6.014  -2.052  -3.573  0.00  0.00     0.036 A 
ATOM     27 CL   UNL d   1       6.287  -3.463  -4.518  0.00  0.00    -0.084 Cl
ATOM     28  C   UNL d   1       6.938  -1.007  -3.619  0.00  0.00     0.047 A 
ATOM     29  C   UNL d   1       6.715   0.127  -2.853  0.00  0.00     0.036 A 
ATOM     30  C   UNL d   1       5.582   0.228  -2.055  0.00  0.00     0.041 A 
ATOM     31 CL   UNL d   1       7.849   1.424  -2.887  0.00  0.00    -0.084 Cl
ENDBRANCH  21  24
ENDBRANCH   2  20
TORSDOF 7
