REMARK  6 active torsions:
REMARK  status: ('A' for Active; 'I' for Inactive)
REMARK    1  A    between atoms: C_8  and  S_1 
REMARK    2  A    between atoms: N_9  and  S_1 
REMARK    3  A    between atoms: C_2  and  C_11 
REMARK    4  A    between atoms: C_6  and  C_4 
REMARK    5  A    between atoms: N_12  and  N_9 
REMARK    6  A    between atoms: C_11  and  C_13 
REMARK       I    between atoms: C_13  and  N_12 
ROOT
ATOM      1  N   UNL d   1       1.544   2.642   0.829  0.00  0.00    -0.260 N 
ATOM      2  C   UNL d   1       1.023   3.839   1.282  0.00  0.00     0.241 C 
ATOM      3  O   UNL d   1       1.412   4.363   2.328  0.00  0.00    -0.271 OA
ATOM      4  H   UNL d   1       1.152   2.094   0.069  0.00  0.00     0.190 HD
ENDROOT
BRANCH   1   5
ATOM      5  N   UNL d   1       2.677   2.092   1.582  0.00  0.00    -0.220 N 
ATOM      6  H   UNL d   1       2.963   2.589   2.439  0.00  0.00     0.200 HD
BRANCH   5   7
ATOM      7  S   UNL d   1       3.284   0.541   1.390  0.00  0.00     0.277 S 
ATOM      8  O   UNL d   1       4.239   0.365   2.463  0.00  0.00    -0.199 OA
ATOM      9  O   UNL d   1       2.163  -0.350   1.167  0.00  0.00    -0.199 OA
BRANCH   7  10
ATOM     10  C   UNL d   1       4.216   0.549  -0.127  0.00  0.00     0.096 A 
ATOM     11  C   UNL d   1       4.846  -0.623  -0.591  0.00  0.00     0.071 A 
ATOM     12  C   UNL d   1       5.455  -0.592  -1.865  0.00  0.00     0.018 A 
ATOM     13  C   UNL d   1       5.457   0.565  -2.642  0.00  0.00     0.001 A 
ATOM     14  C   UNL d   1       4.869   1.725  -2.156  0.00  0.00     0.002 A 
ATOM     15  C   UNL d   1       4.253   1.722  -0.901  0.00  0.00     0.026 A 
BRANCH  11  16
ATOM     16  C   UNL d   1       4.946  -1.929   0.169  0.00  0.00     0.419 C 
ATOM     17  F   UNL d   1       4.364  -1.979   1.387  0.00  0.00    -0.166 F 
ATOM     18  F   UNL d   1       4.407  -2.963  -0.539  0.00  0.00    -0.166 F 
ATOM     19  F   UNL d   1       6.251  -2.278   0.371  0.00  0.00    -0.166 F 
ENDBRANCH  11  16
ENDBRANCH   7  10
ENDBRANCH   5   7
ENDBRANCH   1   5
BRANCH   2  20
ATOM     20  C   UNL d   1       0.032   4.537   0.363  0.00  0.00     0.151 C 
BRANCH  20  21
ATOM     21  C   UNL d   1      -1.208   3.735   0.108  0.00  0.00    -0.001 C 
ATOM     22  S   UNL d   1      -1.988   3.910  -1.407  0.00  0.00    -0.093 SA
ATOM     23  C   UNL d   1      -3.028   2.579  -1.112  0.00  0.00     0.016 A 
ATOM     24  C   UNL d   1      -3.953   2.011  -2.009  0.00  0.00     0.021 A 
ATOM     25  C   UNL d   1      -2.830   2.066   0.172  0.00  0.00    -0.011 A 
ATOM     26  C   UNL d   1      -4.577   0.814  -1.657  0.00  0.00     0.025 A 
ATOM     27  C   UNL d   1      -4.325   0.232  -0.423  0.00  0.00     0.035 A 
ATOM     28  C   UNL d   1      -3.506   0.868   0.514  0.00  0.00     0.037 A 
ATOM     29 CL   UNL d   1      -4.998  -1.308  -0.054  0.00  0.00    -0.084 Cl
ATOM     30  C   UNL d   1      -1.936   2.902   0.945  0.00  0.00    -0.037 C 
ATOM     31  C   UNL d   1      -1.752   2.795   2.427  0.00  0.00     0.050 C 
ENDBRANCH  20  21
ENDBRANCH   2  20
TORSDOF 6
