REMARK  4 active torsions:
REMARK  status: ('A' for Active; 'I' for Inactive)
REMARK    1  A    between atoms: C_2  and  S_1 
REMARK    2  A    between atoms: N_3  and  S_1 
REMARK    3  A    between atoms: C_6  and  N_3 
REMARK    4  A    between atoms: N_16  and  C_12 
ROOT
ATOM      1  S   UNL d   1       0.426  -0.353  -2.408  0.00  0.00     0.265 S 
ATOM      2  O   UNL d   1      -0.016  -1.543  -1.715  0.00  0.00    -0.200 OA
ATOM      3  O   UNL d   1      -0.380   0.198  -3.478  0.00  0.00    -0.200 OA
ENDROOT
BRANCH   1   4
ATOM      4  C   UNL d   1       2.050  -0.683  -3.034  0.00  0.00     0.103 A 
ATOM      5  C   UNL d   1       2.268  -0.534  -4.413  0.00  0.00     0.052 A 
ATOM      6  C   UNL d   1       3.525  -0.805  -4.960  0.00  0.00     0.057 A 
ATOM      7 CL   UNL d   1       3.721  -0.610  -6.664  0.00  0.00    -0.083 Cl
ATOM      8  C   UNL d   1       4.568  -1.224  -4.128  0.00  0.00     0.057 A 
ATOM      9  C   UNL d   1       4.348  -1.372  -2.756  0.00  0.00     0.051 A 
ATOM     10 CL   UNL d   1       6.149  -1.574  -4.730  0.00  0.00    -0.082 Cl
ATOM     11  C   UNL d   1       3.088  -1.109  -2.202  0.00  0.00     0.059 A 
ATOM     12 CL   UNL d   1       2.939  -1.324  -0.497  0.00  0.00    -0.083 Cl
ENDBRANCH   1   4
BRANCH   1  13
ATOM     13  N   UNL d   1       0.661   0.844  -1.258  0.00  0.00    -0.279 N 
ATOM     14  H   UNL d   1       0.021   0.759  -0.468  0.00  0.00     0.179 HD
BRANCH  13  15
ATOM     15  C   UNL d   1       0.955   2.177  -1.672  0.00  0.00     0.063 A 
ATOM     16  C   UNL d   1      -0.058   3.047  -2.110  0.00  0.00     0.034 A 
ATOM     17  C   UNL d   1       0.265   4.396  -2.304  0.00  0.00     0.032 A 
ATOM     18  C   UNL d   1       1.587   4.852  -2.175  0.00  0.00    -0.060 A 
ATOM     19  C   UNL d   1       2.591   3.947  -1.817  0.00  0.00     0.009 A 
ATOM     20  C   UNL d   1       1.905   6.301  -2.401  0.00  0.00     0.048 C 
ATOM     21  C   UNL d   1       2.273   2.616  -1.550  0.00  0.00     0.032 A 
BRANCH  16  22
ATOM     22  N   UNL d   1      -1.412   2.645  -2.130  0.00  0.00    -0.301 NA
ATOM     23  H   UNL d   1      -1.492   1.675  -2.446  0.00  0.00     0.124 HD
ATOM     24  H   UNL d   1      -1.987   3.240  -2.719  0.00  0.00     0.124 HD
ENDBRANCH  16  22
ENDBRANCH  13  15
ENDBRANCH   1  13
TORSDOF 4
