REMARK  1 active torsions:
REMARK  status: ('A' for Active; 'I' for Inactive)
REMARK    1  A    between atoms: C_9  and  C_5 
ROOT
ATOM      1  C   UNL d   1      -0.302   0.679   0.015  0.00  0.00     0.688 A 
ATOM      2  N   UNL d   1      -1.556   1.084   0.041  0.00  0.00    -0.189 N 
ATOM      3  HN  UNL d   1      -1.887   2.048   0.070  1.00  0.00     0.184 HD
ATOM      4  N   UNL d   1      -0.249  -0.713   0.005  0.00  0.00    -0.166 N 
ATOM      5  C   UNL d   1      -2.329  -0.054   0.022  0.00  0.00     0.076 A 
ATOM      6  C   UNL d   1      -1.536  -1.181   0.005  0.00  0.00     0.145 A 
ATOM      7  N   UNL d   1       0.845   1.421   0.007  0.00  0.00    -0.201 N 
ATOM      8  HN  UNL d   1       0.828   2.441   0.006  1.00  0.00     0.183 HD
ATOM      9  C   UNL d   1       0.949  -1.413   0.003  0.00  0.00     0.116 A 
ATOM     10  C   UNL d   1       2.102  -0.733   0.002  0.00  0.00     0.036 A 
ATOM     11  C   UNL d   1       1.957   0.751  -0.001  0.00  0.00     0.107 A 
ENDROOT
BRANCH   5  12
ATOM     12  C   UNL d   1      -3.781  -0.031   0.053  0.00  0.00    -0.007 A 
ATOM     13  C   UNL d   1      -4.546  -1.081  -0.477  0.00  0.00     0.017 A 
ATOM     14  C   UNL d   1      -5.942  -1.036  -0.427  0.00  0.00     0.043 A 
ATOM     15  C   UNL d   1      -6.572   0.057   0.155  0.00  0.00     0.116 A 
ATOM     16  C   UNL d   1      -5.835   1.111   0.681  0.00  0.00     0.043 A 
ATOM     17  F   UNL d   1      -7.910   0.095   0.207  0.00  0.00    -0.206 F 
ATOM     18  C   UNL d   1      -4.440   1.069   0.625  0.00  0.00     0.017 A 
ENDBRANCH   5  12
TORSDOF 1
