REMARK  4 active torsions:
REMARK  status: ('A' for Active; 'I' for Inactive)
REMARK    1  A    between atoms: C_2  and  C_1 
REMARK    2  A    between atoms: C_4  and  C_2 
REMARK    3  A    between atoms: S_8  and  C_3 
REMARK    4  A    between atoms: C_9  and  S_8 
ROOT
ATOM      1  C   UNL d   1       1.106   0.079   0.021  0.00  0.00     0.062 C 
ATOM      2  C   UNL d   1       2.435   0.025  -0.147  0.00  0.00     0.054 C 
ENDROOT
BRANCH   1   3
ATOM      3  C   UNL d   1       0.433  -0.950   0.860  0.00  0.00     0.182 C 
ATOM      4  O   UNL d   1       0.951  -2.033   1.100  0.00  0.00    -0.288 OA
BRANCH   3   5
ATOM      5  C   UNL d   1      -0.920  -0.622   1.396  0.00  0.00     0.014 A 
ATOM      6  C   UNL d   1      -1.822  -1.672   1.613  0.00  0.00     0.018 A 
ATOM      7  C   UNL d   1      -3.068  -1.419   2.196  0.00  0.00     0.043 A 
ATOM      8  C   UNL d   1      -3.396  -0.121   2.572  0.00  0.00     0.116 A 
ATOM      9  C   UNL d   1      -2.515   0.933   2.356  0.00  0.00     0.043 A 
ATOM     10  F   UNL d   1      -4.573   0.116   3.168  0.00  0.00    -0.206 F 
ATOM     11  C   UNL d   1      -1.272   0.685   1.764  0.00  0.00     0.018 A 
ENDBRANCH   3   5
ENDBRANCH   1   3
BRANCH   2  12
ATOM     12  S   UNL d   1       3.270   1.228  -1.075  0.00  0.00    -0.102 SA
BRANCH  12  13
ATOM     13  C   UNL d   1       4.036   0.192  -2.311  0.00  0.00     0.004 A 
ATOM     14  C   UNL d   1       3.719   0.398  -3.660  0.00  0.00     0.020 A 
ATOM     15  C   UNL d   1       4.310  -0.386  -4.656  0.00  0.00     0.025 A 
ATOM     16  C   UNL d   1       5.227  -1.374  -4.303  0.00  0.00     0.034 A 
ATOM     17  C   UNL d   1       5.567  -1.574  -2.968  0.00  0.00     0.025 A 
ATOM     18 CL   UNL d   1       5.946  -2.348  -5.526  0.00  0.00    -0.084 Cl
ATOM     19  C   UNL d   1       4.978  -0.787  -1.973  0.00  0.00     0.020 A 
ENDBRANCH  12  13
ENDBRANCH   2  12
TORSDOF 4
