REMARK  4 active torsions:
REMARK  status: ('A' for Active; 'I' for Inactive)
REMARK    1  A    between atoms: C_3  and  N_1 
REMARK    2  A    between atoms: C_2  and  N_12 
REMARK    3  A    between atoms: N_12  and  N_6 
REMARK    4  A    between atoms: C_14  and  C_17 
ROOT
ATOM      1  N   UNL d   1       1.176   1.082  -4.945  0.00  0.00    -0.311 N 
ATOM      2  HN  UNL d   1       1.655   0.368  -4.397  1.00  0.00     0.186 HD
ATOM      3  C   UNL d   1       0.293   1.867  -4.420  0.00  0.00     0.118 C 
ENDROOT
BRANCH   1   4
ATOM      4  N   UNL d   1       1.430   1.260  -6.259  0.00  0.00    -0.298 N 
ATOM      5  H   UNL d   1       0.921   1.956  -6.804  0.00  0.00     0.187 HD
BRANCH   4   6
ATOM      6  C   UNL d   1       2.758   1.063  -6.724  0.00  0.00     0.094 A 
ATOM      7  C   UNL d   1       2.950   0.568  -8.028  0.00  0.00     0.079 A 
ATOM      8 CL   UNL d   1       1.619   0.180  -9.062  0.00  0.00    -0.080 Cl
ATOM      9  C   UNL d   1       4.241   0.374  -8.507  0.00  0.00     0.114 A 
ATOM     10  N   UNL d   1       5.358   0.654  -7.801  0.00  0.00    -0.372 N 
ATOM     11  C   UNL d   1       5.163   1.152  -6.559  0.00  0.00     0.114 A 
ATOM     12  HN  UNL d   1       6.291   0.499  -8.182  1.00  0.00     0.164 HD
ATOM     13  C   UNL d   1       3.915   1.376  -5.982  0.00  0.00     0.079 A 
ATOM     14 CL   UNL d   1       3.905   2.130  -4.424  0.00  0.00    -0.080 Cl
ENDBRANCH   4   6
ENDBRANCH   1   4
BRANCH   3  15
ATOM     15  C   UNL d   1      -0.019   1.783  -2.981  0.00  0.00    -0.017 A 
ATOM     16  C   UNL d   1      -0.568   2.895  -2.340  0.00  0.00     0.048 A 
ATOM     17  C   UNL d   1      -0.795   2.833  -0.958  0.00  0.00     0.103 A 
ATOM     18  C   UNL d   1      -0.503   1.669  -0.231  0.00  0.00     0.036 A 
ATOM     19  C   UNL d   1       0.029   0.561  -0.888  0.00  0.00     0.003 A 
ATOM     20  C   UNL d   1       0.280   0.620  -2.261  0.00  0.00     0.013 A 
BRANCH  17  21
ATOM     21  N   UNL d   1      -1.322   4.011  -0.259  0.00  0.00    -0.116 N 
ATOM     22  O   UNL d   1      -1.552   5.024  -0.933  0.00  0.00    -0.532 OA
ATOM     23  O   UNL d   1      -1.504   3.924   0.965  0.00  0.00    -0.532 OA
ENDBRANCH  17  21
ENDBRANCH   3  15
TORSDOF 4
