REMARK  8 active torsions:
REMARK  status: ('A' for Active; 'I' for Inactive)
REMARK    1  A    between atoms: C_4  and  C_1 
REMARK    2  A    between atoms: C_18  and  N_2 
REMARK    3  A    between atoms: C_8  and  C_3 
REMARK    4  A    between atoms: S_17  and  C_8 
REMARK    5  A    between atoms: C_14  and  C_19 
REMARK    6  A    between atoms: C_16  and  O_21 
REMARK    7  A    between atoms: C_29  and  S_17 
REMARK    8  A    between atoms: O_21  and  C_33 
ROOT
ATOM      1  C   UNL d   1      -0.177  -1.289   0.173  0.00  0.00     0.094 C 
ATOM      2  N   UNL d   1       1.113  -0.774   0.296  0.00  0.00    -0.254 N 
ATOM      3  C   UNL d   1      -1.039  -0.182   0.322  0.00  0.00     0.075 C 
ATOM      4  N   UNL d   1       1.103   0.468   0.810  0.00  0.00    -0.297 N 
ATOM      5  HN  UNL d   1       1.895   0.983   1.194  1.00  0.00     0.187 HD
ATOM      6  C   UNL d   1      -0.161   0.884   0.714  0.00  0.00     0.039 C 
ATOM      7  C   UNL d   1      -0.352   2.330   1.021  0.00  0.00     0.071 C 
ENDROOT
BRANCH   3   8
ATOM      8  C   UNL d   1      -2.492  -0.189   0.142  0.00  0.00     0.228 C 
ATOM      9  O   UNL d   1      -3.083  -0.964  -0.608  0.00  0.00    -0.279 OA
BRANCH   8  10
ATOM     10  S   UNL d   1      -3.388   1.055   0.968  0.00  0.00    -0.047 SA
BRANCH  10  11
ATOM     11  C   UNL d   1      -4.396   0.239   2.180  0.00  0.00     0.008 A 
ATOM     12  C   UNL d   1      -4.845   1.050   3.232  0.00  0.00     0.020 A 
ATOM     13  C   UNL d   1      -5.835   0.609   4.109  0.00  0.00     0.017 A 
ATOM     14  C   UNL d   1      -6.400  -0.660   3.952  0.00  0.00     0.048 A 
ATOM     15  C   UNL d   1      -5.868  -1.518   2.975  0.00  0.00     0.017 A 
ATOM     16  C   UNL d   1      -4.875  -1.070   2.091  0.00  0.00     0.020 A 
BRANCH  14  17
ATOM     17  C   UNL d   1      -7.614  -1.065   4.755  0.00  0.00     0.417 C 
ATOM     18  F   UNL d   1      -8.084  -0.070   5.561  0.00  0.00    -0.166 F 
ATOM     19  F   UNL d   1      -8.662  -1.414   3.957  0.00  0.00    -0.166 F 
ATOM     20  F   UNL d   1      -7.385  -2.131   5.567  0.00  0.00    -0.166 F 
ENDBRANCH  14  17
ENDBRANCH  10  11
ENDBRANCH   8  10
ENDBRANCH   3   8
BRANCH   1  21
ATOM     21  C   UNL d   1      -0.448  -2.708   0.071  0.00  0.00     0.076 A 
ATOM     22  C   UNL d   1       0.105  -3.779   0.783  0.00  0.00     0.043 A 
ATOM     23  N   UNL d   1      -0.381  -5.035   0.431  0.00  0.00    -0.298 N 
ATOM     24  C   UNL d   1       1.156  -3.765   1.837  0.00  0.00     0.071 C 
ATOM     25  N   UNL d   1      -1.280  -4.967  -0.529  0.00  0.00    -0.269 N 
ATOM     26  HN  UNL d   1      -0.077  -5.906   0.866  1.00  0.00     0.187 HD
ATOM     27  S   UNL d   1      -1.542  -3.412  -1.060  0.00  0.00     0.006 SA
ATOM     28  HN  UNL d   1      -1.764  -5.781  -0.908  1.00  0.00     0.195 HD
ENDBRANCH   1  21
BRANCH   2  29
ATOM     29  C   UNL d   1       2.381  -1.364   0.042  0.00  0.00     0.057 A 
ATOM     30  C   UNL d   1       2.569  -2.342  -0.939  0.00  0.00     0.034 A 
ATOM     31  C   UNL d   1       3.833  -2.930  -1.099  0.00  0.00     0.039 A 
ATOM     32  C   UNL d   1       4.891  -2.574  -0.262  0.00  0.00     0.078 A 
ATOM     33  C   UNL d   1       4.710  -1.557   0.676  0.00  0.00     0.039 A 
ATOM     34  C   UNL d   1       3.469  -0.944   0.820  0.00  0.00     0.034 A 
BRANCH  32  35
ATOM     35  O   UNL d   1       6.156  -3.069  -0.310  0.00  0.00    -0.255 OA
BRANCH  35  36
ATOM     36  C   UNL d   1       6.364  -4.436  -0.629  0.00  0.00     0.530 C 
ATOM     37  F   UNL d   1       5.233  -5.143  -0.824  0.00  0.00    -0.144 F 
ATOM     38  F   UNL d   1       7.123  -4.514  -1.743  0.00  0.00    -0.144 F 
ATOM     39  F   UNL d   1       7.046  -5.015   0.386  0.00  0.00    -0.144 F 
ENDBRANCH  35  36
ENDBRANCH  32  35
ENDBRANCH   2  29
TORSDOF 8
