REMARK  2 active torsions:
REMARK  status: ('A' for Active; 'I' for Inactive)
REMARK    1  A    between atoms: S_12  and  C_2 
REMARK    2  A    between atoms: C_13  and  S_12 
ROOT
ATOM      1  C   UNL d   1       0.869   0.340  -0.019  0.00  0.00     0.084 A 
ATOM      2  C   UNL d   1       0.050   1.479  -0.026  0.00  0.00     0.092 A 
ATOM      3  N   UNL d   1      -1.307   1.408   0.013  0.00  0.00    -0.353 N 
ATOM      4  HN  UNL d   1      -1.876   2.254   0.022  1.00  0.00     0.166 HD
ATOM      5  C   UNL d   1       0.260  -0.926   0.017  0.00  0.00    -0.037 A 
ATOM      6  C   UNL d   1       2.296   0.464  -0.046  0.00  0.00     0.103 C 
ATOM      7  N   UNL d   1       3.457   0.522  -0.055  0.00  0.00    -0.191 NA
ATOM      8  C   UNL d   1      -1.882   0.180   0.037  0.00  0.00     0.006 A 
ATOM      9  C   UNL d   1      -1.138  -0.994   0.038  0.00  0.00     0.033 A 
ATOM     10  C   UNL d   1       1.029  -2.220   0.004  0.00  0.00     0.050 C 
ATOM     11  C   UNL d   1      -3.382   0.124   0.033  0.00  0.00     0.068 C 
ENDROOT
BRANCH   2  12
ATOM     12  S   UNL d   1       0.754   3.115  -0.225  0.00  0.00    -0.099 SA
BRANCH  12  13
ATOM     13  C   UNL d   1      -0.420   4.140   0.717  0.00  0.00     0.173 C 
ATOM     14  C   UNL d   1       0.085   5.522   0.789  0.00  0.00    -0.107 C 
ATOM     15  C   UNL d   1       0.533   6.638   0.825  0.00  0.00     0.013 C 
ENDBRANCH  12  13
ENDBRANCH   2  12
TORSDOF 2
