REMARK  3 active torsions:
REMARK  status: ('A' for Active; 'I' for Inactive)
REMARK    1  A    between atoms: C_2  and  S_1 
REMARK    2  A    between atoms: N_8  and  S_1 
REMARK    3  A    between atoms: C_15  and  N_8 
ROOT
ATOM      1  C   UNL d   1       2.603  -3.878   1.845  0.00  0.00     0.092 A 
ATOM      2  C   UNL d   1       2.098  -6.191   2.515  0.00  0.00    -0.043 A 
ATOM      3  O   UNL d   1       3.954  -4.223   1.650  0.00  0.00    -0.275 OA
ATOM      4  C   UNL d   1       4.394  -5.515   1.855  0.00  0.00     0.288 A 
ATOM      5  C   UNL d   1       1.653  -4.808   2.276  0.00  0.00     0.004 A 
ATOM      6  C   UNL d   1       3.390  -6.489   2.302  0.00  0.00     0.090 A 
ATOM      7  C   UNL d   1       2.283  -2.551   1.556  0.00  0.00     0.062 A 
ATOM      8  C   UNL d   1       0.338  -4.345   2.431  0.00  0.00     0.016 A 
ATOM      9  C   UNL d   1       0.971  -2.123   1.686  0.00  0.00     0.025 A 
ATOM     10  O   UNL d   1       5.559  -5.850   1.679  0.00  0.00    -0.260 OA
ATOM     11  C   UNL d   1      -0.004  -3.010   2.141  0.00  0.00     0.025 A 
ATOM     12  C   UNL d   1       1.175  -7.284   2.970  0.00  0.00     0.049 C 
ENDROOT
BRANCH   9  13
ATOM     13  N   UNL d   1       0.662  -0.781   1.316  0.00  0.00    -0.181 NA
ATOM     14  H   UNL d   1      -0.112  -0.672   0.659  0.00  0.00     0.146 HD
BRANCH  13  15
ATOM     15  S   UNL d   1       0.556   0.382   2.540  0.00  0.00     0.252 S 
ATOM     16  O   UNL d   1       0.179   1.625   1.905  0.00  0.00    -0.205 OA
ATOM     17  O   UNL d   1      -0.230  -0.162   3.631  0.00  0.00    -0.205 OA
BRANCH  15  18
ATOM     18  C   UNL d   1       2.180   0.639   3.218  0.00  0.00     0.115 A 
ATOM     19  S   UNL d   1       3.398   1.099   2.106  0.00  0.00    -0.089 SA
ATOM     20  C   UNL d   1       4.601   1.093   3.322  0.00  0.00     0.051 A 
ATOM     21  C   UNL d   1       4.082   0.785   4.560  0.00  0.00     0.009 A 
ATOM     22  C   UNL d   1       2.682   0.529   4.501  0.00  0.00     0.033 A 
ENDBRANCH  15  18
ENDBRANCH  13  15
ENDBRANCH   9  13
TORSDOF 3
