REMARK  0 active torsions:
REMARK  status: ('A' for Active; 'I' for Inactive)
ROOT
ATOM      1  N   UNL d   1       0.046  -1.415  -0.021  0.00  0.00    -0.356 N 
ATOM      2  HN  UNL d   1       0.052  -2.435  -0.039  1.00  0.00     0.166 HD
ATOM      3  N   UNL d   1       0.027   1.396   0.016  0.00  0.00    -0.356 N 
ATOM      4  HN  UNL d   1       0.018   2.416   0.036  1.00  0.00     0.166 HD
ATOM      5  C   UNL d   1       1.181   0.705   0.008  0.00  0.00     0.061 A 
ATOM      6  C   UNL d   1       1.188  -0.710  -0.015  0.00  0.00     0.061 A 
ATOM      7  C   UNL d   1       2.397  -1.387  -0.036  0.00  0.00     0.057 A 
ATOM      8  C   UNL d   1       2.391   1.387   0.025  0.00  0.00     0.057 A 
ATOM      9  C   UNL d   1      -1.114  -0.715  -0.002  0.00  0.00     0.032 A 
ATOM     10  C   UNL d   1      -1.125   0.678  -0.004  0.00  0.00     0.032 A 
ATOM     11  C   UNL d   1       3.606   0.698   0.009  0.00  0.00     0.058 A 
ATOM     12  C   UNL d   1       3.609  -0.696  -0.025  0.00  0.00     0.058 A 
ATOM     13 CL   UNL d   1       5.061   1.628   0.031  0.00  0.00    -0.082 Cl
ATOM     14 CL   UNL d   1       5.065  -1.623  -0.058  0.00  0.00    -0.082 Cl
ATOM     15  C   UNL d   1      -2.412   1.457   0.039  0.00  0.00     0.059 C 
ATOM     16  C   UNL d   1      -2.383  -1.520  -0.046  0.00  0.00     0.059 C 
ATOM     17  C   UNL d   1      -3.614  -0.715   0.365  0.00  0.00     0.006 C 
ATOM     18  C   UNL d   1      -3.629   0.625  -0.363  0.00  0.00     0.006 C 
ENDROOT
TORSDOF 0
