REMARK  5 active torsions:
REMARK  status: ('A' for Active; 'I' for Inactive)
REMARK    1  A    between atoms: C_11  and  C_3 
REMARK    2  A    between atoms: N_14  and  C_4 
REMARK    3  A    between atoms: C_13  and  C_6 
REMARK    4  A    between atoms: O_16  and  C_11 
REMARK    5  A    between atoms: C_21  and  O_16 
ROOT
ATOM      1  C   UNL d   1       0.892  -0.982  -0.216  0.00  0.00     0.066 A 
ATOM      2  C   UNL d   1       0.498   0.283  -0.021  0.00  0.00     0.103 A 
ATOM      3  C   UNL d   1       3.258  -0.145   0.033  0.00  0.00     0.075 A 
ATOM      4  C   UNL d   1       2.749   1.087   0.247  0.00  0.00     0.134 A 
ATOM      5  C   UNL d   1      -0.120  -2.034  -0.464  0.00  0.00     0.298 C 
ATOM      6  C   UNL d   1       2.368  -1.348  -0.248  0.00  0.00     0.103 A 
ATOM      7  O   UNL d   1       1.381   1.323   0.185  0.00  0.00    -0.297 OA
ATOM      8  C   UNL d   1      -0.916   0.649  -0.023  0.00  0.00     0.033 A 
ATOM      9  O   UNL d   1      -1.447  -1.714  -0.193  0.00  0.00    -0.274 OA
ATOM     10  C   UNL d   1      -1.855  -0.377  -0.066  0.00  0.00     0.092 A 
ATOM     11  O   UNL d   1       0.177  -3.145  -0.886  0.00  0.00    -0.259 OA
ATOM     12  C   UNL d   1      -1.379   1.970   0.019  0.00  0.00     0.017 A 
ATOM     13  C   UNL d   1      -3.225  -0.127  -0.031  0.00  0.00     0.038 A 
ATOM     14  C   UNL d   1      -2.752   2.239   0.031  0.00  0.00     0.001 A 
ATOM     15  C   UNL d   1      -3.674   1.193   0.015  0.00  0.00     0.003 A 
ENDROOT
BRANCH   6  16
ATOM     16  C   UNL d   1       2.678  -2.539   0.663  0.00  0.00    -0.045 A 
ATOM     17  C   UNL d   1       2.596  -2.454   2.061  0.00  0.00     0.008 A 
ATOM     18  C   UNL d   1       2.804  -3.588   2.850  0.00  0.00     0.001 A 
ATOM     19  C   UNL d   1       3.095  -4.817   2.256  0.00  0.00     0.000 A 
ATOM     20  C   UNL d   1       3.196  -4.913   0.872  0.00  0.00     0.001 A 
ATOM     21  C   UNL d   1       2.995  -3.782   0.082  0.00  0.00     0.008 A 
ENDBRANCH   6  16
BRANCH   3  22
ATOM     22  C   UNL d   1       4.737  -0.305   0.006  0.00  0.00     0.294 C 
ATOM     23  O   UNL d   1       5.524   0.475   0.531  0.00  0.00    -0.259 OA
BRANCH  22  24
ATOM     24  O   UNL d   1       5.093  -1.355  -0.775  0.00  0.00    -0.318 OA
BRANCH  24  25
ATOM     25  C   UNL d   1       6.501  -1.511  -1.024  0.00  0.00     0.174 C 
ATOM     26  C   UNL d   1       7.086  -2.589  -0.132  0.00  0.00     0.034 C 
ENDBRANCH  24  25
ENDBRANCH  22  24
ENDBRANCH   3  22
BRANCH   4  27
ATOM     27  N   UNL d   1       3.454   2.232   0.520  0.00  0.00    -0.282 NA
ATOM     28  H   UNL d   1       4.466   2.147   0.408  0.00  0.00     0.126 HD
ATOM     29  H   UNL d   1       3.052   3.065   0.102  0.00  0.00     0.126 HD
ENDBRANCH   4  27
TORSDOF 5
