REMARK  8 active torsions:
REMARK  status: ('A' for Active; 'I' for Inactive)
REMARK    1  A    between atoms: C_2  and  C_1 
REMARK       I    between atoms: N_8  and  C_1 
REMARK    2  A    between atoms: O_10  and  C_3 
REMARK    3  A    between atoms: O_11  and  C_4 
REMARK    4  A    between atoms: O_12  and  C_5 
REMARK    5  A    between atoms: CA_13  and  N_8 
REMARK    6  A    between atoms: C_15  and  CA_13 
REMARK    7  A    between atoms: C_19  and  CA_13 
REMARK    8  A    between atoms: O_14  and  C_15 
ROOT
ATOM      1  C   UNL d   1       0.397   1.345   0.459  0.00  0.00     0.037 A 
ATOM      2  C   UNL d   1      -1.035   3.760   0.499  0.00  0.00     0.135 A 
ATOM      3  C   UNL d   1      -1.448   2.670   1.298  0.00  0.00     0.105 A 
ATOM      4  C   UNL d   1       0.112   3.640  -0.314  0.00  0.00     0.105 A 
ATOM      5  C   UNL d   1       0.820   2.427  -0.320  0.00  0.00     0.057 A 
ATOM      6  C   UNL d   1      -0.735   1.466   1.270  0.00  0.00     0.057 A 
ENDROOT
BRANCH   1   7
ATOM      7  C   UNL d   1       1.081   0.034   0.305  0.00  0.00     0.252 C 
ATOM      8  N   UNL d   1       1.026  -0.808   1.393  0.00  0.00    -0.350 N 
ATOM      9  H   UNL d   1       0.925  -0.399   2.313  0.00  0.00     0.163 HD
ATOM     10  O   UNL d   1       1.631  -0.259  -0.750  0.00  0.00    -0.268 OA
BRANCH   8  11
ATOM     11  CA  UNL d   1       1.521  -2.183   1.341  0.00  0.00     0.108 C 
BRANCH  11  12
ATOM     12  C   UNL d   1       3.038  -2.237   1.589  0.00  0.00     0.189 C 
BRANCH  12  13
ATOM     13  O   UNL d   1       3.357  -1.734   2.887  0.00  0.00    -0.399 OA
ATOM     14  H   UNL d   1       4.328  -1.688   2.932  0.00  0.00     0.209 HD
ENDBRANCH  12  13
ENDBRANCH  11  12
BRANCH  11  15
ATOM     15  C   UNL d   1       0.750  -3.047   2.353  0.00  0.00     0.023 C 
ATOM     16  C   UNL d   1      -0.738  -3.131   2.029  0.00  0.00     0.007 C 
ENDBRANCH  11  15
ENDBRANCH   8  11
ENDBRANCH   1   7
BRANCH   4  17
ATOM     17  O   UNL d   1       0.458   4.705  -1.103  0.00  0.00    -0.353 OA
ATOM     18  C   UNL d   1       1.628   4.601  -1.905  0.00  0.00     0.210 C 
ENDBRANCH   4  17
BRANCH   3  19
ATOM     19  O   UNL d   1      -2.594   2.845   2.038  0.00  0.00    -0.353 OA
ATOM     20  C   UNL d   1      -2.775   1.988   3.157  0.00  0.00     0.210 C 
ENDBRANCH   3  19
BRANCH   2  21
ATOM     21  O   UNL d   1      -1.883   4.845   0.547  0.00  0.00    -0.351 OA
ATOM     22  C   UNL d   1      -1.341   6.134   0.312  0.00  0.00     0.210 C 
ENDBRANCH   2  21
TORSDOF 8
