REMARK  1 active torsions:
REMARK  status: ('A' for Active; 'I' for Inactive)
REMARK    1  A    between atoms: N_7  and  C_1 
ROOT
ATOM      1  C   UNL d   1       1.362   0.765  -0.002  0.00  0.00     0.699 A 
ATOM      2  N   UNL d   1       0.358   0.959   0.889  0.00  0.00    -0.139 N 
ATOM      3  N   UNL d   1       1.190  -0.313  -0.719  0.00  0.00    -0.128 N 
ATOM      4  HN  UNL d   1       1.798  -0.673  -1.455  1.00  0.00     0.205 HD
ATOM      5  C   UNL d   1      -0.531  -0.055   0.715  0.00  0.00     0.353 A 
ATOM      6  N   UNL d   1       0.017  -0.854  -0.269  0.00  0.00    -0.237 N 
ATOM      7  O   UNL d   1      -1.592  -0.205   1.294  0.00  0.00    -0.245 OA
ATOM      8  H   UNL d   1       0.194   1.730   1.505  0.00  0.00     0.189 HD
ATOM      9  H   UNL d   1      -0.394  -1.687  -0.666  0.00  0.00     0.192 HD
ENDROOT
BRANCH   1  10
ATOM     10  N   UNL d   1       2.405   1.651  -0.111  0.00  0.00    -0.215 N 
ATOM     11  C   UNL d   1       3.411   1.479  -1.174  0.00  0.00     0.151 C 
ATOM     12  C   UNL d   1       3.618   2.784  -1.949  0.00  0.00     0.094 C 
ATOM     13  S   UNL d   1       4.210   4.144  -0.881  0.00  0.00    -0.166 SA
ATOM     14  C   UNL d   1       2.944   4.005   0.426  0.00  0.00     0.094 C 
ATOM     15  C   UNL d   1       2.811   2.575   0.954  0.00  0.00     0.151 C 
ENDBRANCH   1  10
TORSDOF 1
