REMARK  3 active torsions:
REMARK  status: ('A' for Active; 'I' for Inactive)
REMARK    1  A    between atoms: O_5  and  C_1 
REMARK    2  A    between atoms: C_6  and  O_5 
REMARK       I    between atoms: N_9  and  C_6 
REMARK    3  A    between atoms: C_16  and  N_9 
ROOT
ATOM      1  C   UNL d   1       1.251  -3.115  -0.655  0.00  0.00     0.186 A 
ATOM      2  C   UNL d   1       1.301  -4.301  -1.430  0.00  0.00     0.055 A 
ATOM      3  N   UNL d   1       0.065  -2.937  -0.065  0.00  0.00    -0.237 N 
ATOM      4  HN  UNL d   1      -0.239  -2.137   0.489  1.00  0.00     0.197 HD
ATOM      5  O   UNL d   1      -0.664  -4.080  -0.369  0.00  0.00    -0.235 OA
ATOM      6  C   UNL d   1       0.074  -4.892  -1.173  0.00  0.00     0.113 A 
ATOM      7  C   UNL d   1       2.202  -4.964  -2.287  0.00  0.00     0.042 A 
ATOM      8  C   UNL d   1      -0.323  -6.131  -1.673  0.00  0.00     0.042 A 
ATOM      9  C   UNL d   1       1.827  -6.211  -2.809  0.00  0.00     0.035 A 
ATOM     10  C   UNL d   1       0.594  -6.791  -2.502  0.00  0.00     0.026 A 
ATOM     11 CL   UNL d   1       2.918  -7.050  -3.846  0.00  0.00    -0.084 Cl
ENDROOT
BRANCH   1  12
ATOM     12  O   UNL d   1       2.161  -2.137  -0.454  0.00  0.00    -0.241 OA
BRANCH  12  13
ATOM     13  C   UNL d   1       3.436  -2.530  -0.181  0.00  0.00     0.367 C 
ATOM     14  N   UNL d   1       4.329  -1.517   0.024  0.00  0.00    -0.333 N 
ATOM     15  H   UNL d   1       5.239  -1.877   0.276  0.00  0.00     0.165 HD
ATOM     16  O   UNL d   1       3.832  -3.688  -0.093  0.00  0.00    -0.238 OA
BRANCH  14  17
ATOM     17  C   UNL d   1       4.124  -0.081   0.163  0.00  0.00     0.078 C 
ATOM     18  C   UNL d   1       3.561   0.576  -1.091  0.00  0.00     0.032 C 
ATOM     19  C   UNL d   1       3.316   0.273   1.406  0.00  0.00     0.032 C 
ENDBRANCH  14  17
ENDBRANCH  12  13
ENDBRANCH   1  12
TORSDOF 3
