REMARK  4 active torsions:
REMARK  status: ('A' for Active; 'I' for Inactive)
REMARK    1  A    between atoms: C_8  and  C_1 
REMARK    2  A    between atoms: C_7  and  N_2 
REMARK    3  A    between atoms: N_6  and  C_8 
REMARK    4  A    between atoms: O_15  and  C_12 
ROOT
ATOM      1  N   UNL d   1       0.741  -1.568   1.238  0.00  0.00    -0.375 N 
ATOM      2  N   UNL d   1      -1.656  -3.053   0.270  0.00  0.00     0.095 N 
ATOM      3  C   UNL d   1      -0.619  -1.221   1.696  0.00  0.00     0.153 C 
ATOM      4  C   UNL d   1       0.804  -2.352  -0.018  0.00  0.00     0.153 C 
ATOM      5  C   UNL d   1      -0.275  -3.467  -0.075  0.00  0.00     0.292 C 
ATOM      6  C   UNL d   1      -1.579  -2.424   1.611  0.00  0.00     0.292 C 
ENDROOT
BRANCH   2   7
ATOM      7  C   UNL d   1      -2.185  -2.141  -0.765  0.00  0.00     0.313 C 
BRANCH   7   8
ATOM      8  C   UNL d   1      -3.594  -1.722  -0.467  0.00  0.00    -0.002 A 
ATOM      9  C   UNL d   1      -4.690  -2.550  -0.322  0.00  0.00     0.098 A 
ATOM     10  N   UNL d   1      -5.787  -1.783  -0.060  0.00  0.00    -0.365 N 
ATOM     11  C   UNL d   1      -5.444  -0.452  -0.041  0.00  0.00     0.043 A 
ATOM     12  H   UNL d   1      -6.720  -2.132   0.098  0.00  0.00     0.165 HD
ATOM     13  C   UNL d   1      -4.076  -0.376  -0.296  0.00  0.00    -0.000 A 
ATOM     14  C   UNL d   1      -6.241   0.680   0.184  0.00  0.00     0.030 A 
ATOM     15  C   UNL d   1      -3.474   0.901  -0.336  0.00  0.00     0.014 A 
ATOM     16  C   UNL d   1      -4.256   2.043  -0.114  0.00  0.00     0.001 A 
ATOM     17  C   UNL d   1      -5.619   1.929   0.142  0.00  0.00     0.002 A 
ENDBRANCH   7   8
ENDBRANCH   2   7
BRANCH   1  18
ATOM     18  C   UNL d   1       1.782  -0.635   1.457  0.00  0.00     0.064 A 
ATOM     19  C   UNL d   1       1.610   0.722   1.855  0.00  0.00     0.094 A 
ATOM     20  C   UNL d   1       2.724   1.522   2.170  0.00  0.00     0.039 A 
ATOM     21  C   UNL d   1       4.018   1.016   2.084  0.00  0.00     0.003 A 
ATOM     22  C   UNL d   1       4.214  -0.289   1.665  0.00  0.00     0.002 A 
ATOM     23  C   UNL d   1       3.114  -1.097   1.363  0.00  0.00     0.032 A 
BRANCH  19  24
ATOM     24  O   UNL d   1       0.342   1.255   1.835  0.00  0.00    -0.354 OA
ATOM     25  C   UNL d   1       0.082   2.384   2.656  0.00  0.00     0.210 C 
ENDBRANCH  19  24
ENDBRANCH   1  18
TORSDOF 4
