REMARK  5 active torsions:
REMARK  status: ('A' for Active; 'I' for Inactive)
REMARK    1  A    between atoms: C_10  and  C_5 
REMARK    2  A    between atoms: S_11  and  C_8 
REMARK    3  A    between atoms: O_17  and  C_9 
REMARK    4  A    between atoms: C_13  and  S_11 
REMARK    5  A    between atoms: C_12  and  C_13 
ROOT
ATOM      1  N   UNL d   1      -0.680   1.218  -0.068  0.00  0.00    -0.322 N 
ATOM      2  HN  UNL d   1      -1.150   2.122  -0.104  1.00  0.00     0.169 HD
ATOM      3  N   UNL d   1      -0.778  -1.150   0.051  0.00  0.00    -0.307 N 
ATOM      4  HN  UNL d   1      -1.312  -2.018   0.103  1.00  0.00     0.171 HD
ATOM      5  C   UNL d   1      -1.351   0.051  -0.003  0.00  0.00     0.120 A 
ATOM      6  N   UNL d   1       1.313  -0.061  -0.031  0.00  0.00    -0.302 N 
ATOM      7  HN  UNL d   1       2.331  -0.119  -0.040  1.00  0.00     0.171 HD
ATOM      8  C   UNL d   1       0.650   1.095  -0.081  0.00  0.00     0.149 A 
ATOM      9  C   UNL d   1       0.535  -1.119   0.032  0.00  0.00     0.224 A 
ENDROOT
BRANCH   8  10
ATOM     10  S   UNL d   1       1.731   2.512  -0.145  0.00  0.00    -0.089 SA
BRANCH  10  11
ATOM     11  C   UNL d   1       0.594   3.931  -0.230  0.00  0.00     0.122 C 
BRANCH  11  12
ATOM     12  C   UNL d   1       1.369   5.241  -0.196  0.00  0.00    -0.027 A 
ATOM     13  C   UNL d   1       1.812   5.910  -1.352  0.00  0.00     0.041 A 
ATOM     14 CL   UNL d   1       1.494   5.302  -2.937  0.00  0.00    -0.084 Cl
ATOM     15  C   UNL d   1       2.537   7.108  -1.260  0.00  0.00     0.024 A 
ATOM     16  C   UNL d   1       2.843   7.652  -0.012  0.00  0.00     0.002 A 
ATOM     17  C   UNL d   1       2.429   6.998   1.141  0.00  0.00     0.001 A 
ATOM     18  C   UNL d   1       1.705   5.805   1.053  0.00  0.00     0.009 A 
ENDBRANCH  11  12
ENDBRANCH  10  11
ENDBRANCH   8  10
BRANCH   9  19
ATOM     19  O   UNL d   1       1.187  -2.311   0.087  0.00  0.00    -0.332 OA
ATOM     20  H   UNL d   1       2.107  -2.000   0.057  0.00  0.00     0.221 HD
ENDBRANCH   9  19
BRANCH   5  21
ATOM     21  C   UNL d   1      -2.835   0.061   0.015  0.00  0.00     0.008 A 
ATOM     22  C   UNL d   1      -3.577  -1.142   0.099  0.00  0.00     0.017 A 
ATOM     23  C   UNL d   1      -4.978  -1.151   0.115  0.00  0.00     0.025 A 
ATOM     24  C   UNL d   1      -5.670   0.051   0.048  0.00  0.00     0.034 A 
ATOM     25  C   UNL d   1      -4.975   1.253  -0.035  0.00  0.00     0.025 A 
ATOM     26 CL   UNL d   1      -7.391   0.051   0.069  0.00  0.00    -0.084 Cl
ATOM     27  C   UNL d   1      -3.572   1.256  -0.052  0.00  0.00     0.017 A 
ENDBRANCH   5  21
TORSDOF 5
