REMARK  7 active torsions:
REMARK  status: ('A' for Active; 'I' for Inactive)
REMARK    1  A    between atoms: C_10  and  C_1 
REMARK    2  A    between atoms: N_3  and  C_10 
REMARK    3  A    between atoms: S_17  and  C_4 
REMARK    4  A    between atoms: C_11  and  C_15 
REMARK    5  A    between atoms: C_28  and  S_17 
REMARK    6  A    between atoms: C_18  and  C_28 
REMARK       I    between atoms: N_20  and  C_18 
REMARK    7  A    between atoms: C_30  and  N_20 
ROOT
ATOM      1  C   UNL d   1       0.085   0.951  -0.071  0.00  0.00     0.118 A 
ATOM      2  N   UNL d   1       0.988  -0.033   0.290  0.00  0.00    -0.318 N 
ATOM      3  C   UNL d   1       0.245  -1.177   0.434  0.00  0.00     0.162 A 
ATOM      4  N   UNL d   1      -1.102   0.389  -0.211  0.00  0.00    -0.285 N 
ATOM      5  HN  UNL d   1      -1.953   0.865  -0.510  1.00  0.00     0.188 HD
ATOM      6  N   UNL d   1      -1.002  -0.935   0.111  0.00  0.00    -0.278 N 
ATOM      7  HN  UNL d   1      -1.763  -1.614   0.101  1.00  0.00     0.189 HD
ATOM      8  C   UNL d   1       2.409   0.110   0.473  0.00  0.00     0.160 C 
ENDROOT
BRANCH   1   9
ATOM      9  C   UNL d   1       0.351   2.423  -0.128  0.00  0.00     0.210 C 
BRANCH   9  10
ATOM     10  N   UNL d   1       0.125   3.007  -1.455  0.00  0.00    -0.309 N 
ATOM     11  C   UNL d   1      -1.125   3.656  -1.746  0.00  0.00     0.055 A 
ATOM     12  C   UNL d   1      -2.310   3.262  -1.100  0.00  0.00     0.047 A 
ATOM     13  C   UNL d   1      -1.202   4.720  -2.665  0.00  0.00     0.028 A 
ATOM     14  C   UNL d   1      -3.544   3.885  -1.361  0.00  0.00     0.050 A 
ATOM     15  C   UNL d   1      -3.582   4.964  -2.247  0.00  0.00     0.017 A 
ATOM     16  C   UNL d   1      -2.416   5.382  -2.889  0.00  0.00     0.021 A 
ATOM     17  S   UNL d   1       0.232   5.316  -3.532  0.00  0.00    -0.118 SA
ATOM     18  C   UNL d   1       1.068   3.728  -3.656  0.00  0.00     0.182 C 
ATOM     19  C   UNL d   1       1.240   3.085  -2.297  0.00  0.00     0.234 C 
ATOM     20  O   UNL d   1       2.318   2.572  -1.986  0.00  0.00    -0.272 OA
BRANCH  14  21
ATOM     21  C   UNL d   1      -4.816   3.396  -0.707  0.00  0.00     0.417 C 
ATOM     22  F   UNL d   1      -4.648   2.289   0.065  0.00  0.00    -0.166 F 
ATOM     23  F   UNL d   1      -5.370   4.337   0.106  0.00  0.00    -0.166 F 
ATOM     24  F   UNL d   1      -5.776   3.076  -1.618  0.00  0.00    -0.166 F 
ENDBRANCH  14  21
ENDBRANCH   9  10
ENDBRANCH   1   9
BRANCH   3  25
ATOM     25  S   UNL d   1       0.847  -2.707   1.000  0.00  0.00    -0.083 SA
BRANCH  25  26
ATOM     26  C   UNL d   1      -0.707  -3.652   0.958  0.00  0.00     0.185 C 
BRANCH  26  27
ATOM     27  C   UNL d   1      -0.633  -5.098   1.427  0.00  0.00     0.231 C 
ATOM     28  N   UNL d   1       0.522  -5.495   2.073  0.00  0.00    -0.327 N 
ATOM     29  H   UNL d   1       1.209  -4.771   2.249  0.00  0.00     0.169 HD
ATOM     30  O   UNL d   1      -1.624  -5.812   1.259  0.00  0.00    -0.272 OA
BRANCH  28  31
ATOM     31  C   UNL d   1       0.785  -6.774   2.616  0.00  0.00     0.034 A 
ATOM     32  C   UNL d   1      -0.000  -7.902   2.358  0.00  0.00     0.029 A 
ATOM     33  C   UNL d   1       0.283  -9.129   2.966  0.00  0.00     0.002 A 
ATOM     34  C   UNL d   1       1.360  -9.244   3.839  0.00  0.00     0.000 A 
ATOM     35  C   UNL d   1       2.169  -8.137   4.083  0.00  0.00     0.002 A 
ATOM     36  C   UNL d   1       1.890  -6.911   3.466  0.00  0.00     0.029 A 
ENDBRANCH  28  31
ENDBRANCH  26  27
ENDBRANCH  25  26
ENDBRANCH   3  25
TORSDOF 7
