REMARK  7 active torsions:
REMARK  status: ('A' for Active; 'I' for Inactive)
REMARK    1  A    between atoms: C_3  and  C_1 
REMARK    2  A    between atoms: O_12  and  C_1 
REMARK       I    between atoms: C_2  and  N_4 
REMARK    3  A    between atoms: C_11  and  C_2 
REMARK    4  A    between atoms: N_4  and  C_9 
REMARK    5  A    between atoms: O_10  and  C_11 
REMARK    6  A    between atoms: C_15  and  O_10 
REMARK    7  A    between atoms: C_16  and  O_12 
ROOT
ATOM      1  C   UNL d   1      -1.390  -5.777  -1.625  0.00  0.00     0.246 C 
ATOM      2  N   UNL d   1      -1.722  -4.896  -0.597  0.00  0.00    -0.325 N 
ATOM      3  O   UNL d   1      -0.496  -5.584  -2.447  0.00  0.00    -0.271 OA
ATOM      4  H   UNL d   1      -2.703  -4.895  -0.348  0.00  0.00     0.169 HD
ENDROOT
BRANCH   2   5
ATOM      5  C   UNL d   1      -1.070  -3.659  -0.504  0.00  0.00     0.034 A 
ATOM      6  C   UNL d   1      -1.504  -2.552  -1.239  0.00  0.00     0.030 A 
ATOM      7  C   UNL d   1      -0.828  -1.331  -1.117  0.00  0.00     0.020 A 
ATOM      8  C   UNL d   1       0.260  -1.206  -0.242  0.00  0.00     0.039 A 
ATOM      9  C   UNL d   1       0.662  -2.316   0.514  0.00  0.00     0.020 A 
ATOM     10  C   UNL d   1       0.006  -3.540   0.376  0.00  0.00     0.030 A 
BRANCH   8  11
ATOM     11  C   UNL d   1       1.024   0.067  -0.068  0.00  0.00     0.293 C 
ATOM     12  O   UNL d   1       1.869   0.221   0.801  0.00  0.00    -0.259 OA
BRANCH  11  13
ATOM     13  O   UNL d   1       0.660   0.979  -1.002  0.00  0.00    -0.318 OA
BRANCH  13  14
ATOM     14  C   UNL d   1       1.350   2.236  -0.931  0.00  0.00     0.174 C 
ATOM     15  C   UNL d   1       2.658   2.171  -1.700  0.00  0.00     0.034 C 
ENDBRANCH  13  14
ENDBRANCH  11  13
ENDBRANCH   8  11
ENDBRANCH   2   5
BRANCH   1  16
ATOM     16  C   UNL d   1      -2.242  -7.044  -1.645  0.00  0.00     0.278 C 
BRANCH  16  17
ATOM     17  O   UNL d   1      -1.709  -7.923  -0.662  0.00  0.00    -0.342 OA
BRANCH  17  18
ATOM     18  C   UNL d   1      -2.246  -9.176  -0.577  0.00  0.00     0.069 A 
ATOM     19  C   UNL d   1      -3.372  -9.639  -1.258  0.00  0.00     0.037 A 
ATOM     20  C   UNL d   1      -3.827 -10.947  -1.048  0.00  0.00     0.003 A 
ATOM     21  C   UNL d   1      -3.159 -11.792  -0.165  0.00  0.00     0.000 A 
ATOM     22  C   UNL d   1      -2.030 -11.336   0.511  0.00  0.00     0.003 A 
ATOM     23  C   UNL d   1      -1.579 -10.032   0.303  0.00  0.00     0.037 A 
ENDBRANCH  17  18
ENDBRANCH  16  17
ENDBRANCH   1  16
TORSDOF 7
