REMARK  2 active torsions:
REMARK  status: ('A' for Active; 'I' for Inactive)
REMARK       I    between atoms: C_5  and  N_8 
REMARK    1  A    between atoms: C_10  and  C_5 
REMARK    2  A    between atoms: N_8  and  C_11 
ROOT
ATOM      1  N   UNL d   1      -0.782  -2.826   0.975  0.00  0.00    -0.022 NA
ATOM      2  N   UNL d   1       0.516  -2.771   0.704  0.00  0.00    -0.282 N 
ATOM      3  HN  UNL d   1       1.138  -3.572   0.595  1.00  0.00     0.184 HD
ATOM      4  C   UNL d   1       0.874  -1.454   0.596  0.00  0.00     0.076 A 
ATOM      5  N   UNL d   1      -1.233  -1.563   1.036  0.00  0.00    -0.282 N 
ATOM      6  C   UNL d   1      -0.242  -0.654   0.793  0.00  0.00     0.074 A 
ATOM      7  C   UNL d   1       2.118  -0.857   0.338  0.00  0.00     0.062 A 
ATOM      8  C   UNL d   1       2.201   0.541   0.287  0.00  0.00     0.037 A 
ATOM      9  C   UNL d   1      -0.209   0.738   0.733  0.00  0.00     0.035 A 
ATOM     10  C   UNL d   1       1.041   1.315   0.469  0.00  0.00     0.032 A 
ATOM     11  H   UNL d   1      -2.209  -1.405   1.248  0.00  0.00     0.184 HD
ENDROOT
BRANCH   8  12
ATOM     12  N   UNL d   1       3.408   1.243   0.063  0.00  0.00    -0.323 N 
ATOM     13  C   UNL d   1       4.676   0.701  -0.059  0.00  0.00     0.256 C 
ATOM     14  O   UNL d   1       4.975  -0.485  -0.011  0.00  0.00    -0.267 OA
ATOM     15  H   UNL d   1       3.316   2.244  -0.038  0.00  0.00     0.169 HD
BRANCH  13  16
ATOM     16  C   UNL d   1       5.767   1.683  -0.308  0.00  0.00     0.034 A 
ATOM     17  C   UNL d   1       5.765   2.962   0.261  0.00  0.00     0.041 A 
ATOM     18  C   UNL d   1       6.805   3.844  -0.035  0.00  0.00     0.035 A 
ATOM     19 CL   UNL d   1       6.797   5.424   0.646  0.00  0.00    -0.084 Cl
ATOM     20  C   UNL d   1       7.851   3.460  -0.875  0.00  0.00     0.024 A 
ATOM     21  C   UNL d   1       7.869   2.175  -1.416  0.00  0.00     0.003 A 
ATOM     22  C   UNL d   1       6.833   1.287  -1.129  0.00  0.00     0.017 A 
ENDBRANCH  13  16
ENDBRANCH   8  12
TORSDOF 2
