REMARK  6 active torsions:
REMARK  status: ('A' for Active; 'I' for Inactive)
REMARK    1  A    between atoms: C_2  and  S_1 
REMARK    2  A    between atoms: N_11  and  S_1 
REMARK    3  A    between atoms: C_7  and  C_13 
REMARK    4  A    between atoms: C_13  and  N_11 
REMARK    5  A    between atoms: O_17  and  C_12 
REMARK    6  A    between atoms: C_21  and  O_17 
ROOT
ATOM      1  N   UNL d   1       0.506   2.117  -1.539  0.00  0.00    -0.311 N 
ATOM      2  H   UNL d   1       1.156   2.791  -1.137  0.00  0.00     0.172 HD
ENDROOT
BRANCH   1   3
ATOM      3  S   UNL d   1      -1.058   2.186  -0.991  0.00  0.00     0.261 S 
ATOM      4  O   UNL d   1      -1.210   3.414  -0.244  0.00  0.00    -0.200 OA
ATOM      5  O   UNL d   1      -1.949   1.861  -2.086  0.00  0.00    -0.200 OA
BRANCH   3   6
ATOM      6  C   UNL d   1      -1.128   0.866   0.146  0.00  0.00     0.110 A 
ATOM      7  C   UNL d   1      -0.345   0.836   1.310  0.00  0.00     0.108 A 
ATOM      8  C   UNL d   1      -0.431  -0.277   2.246  0.00  0.00     0.086 A 
ATOM      9  N   UNL d   1       0.568   1.698   1.780  0.00  0.00    -0.238 N 
ATOM     10  N   UNL d   1       0.414  -0.046   3.256  0.00  0.00    -0.239 N 
ATOM     11  C   UNL d   1      -1.283  -1.377   2.037  0.00  0.00     0.034 A 
ATOM     12  O   UNL d   1       1.014   1.169   2.978  0.00  0.00    -0.156 OA
ATOM     13  HN  UNL d   1       0.582  -0.643   4.066  1.00  0.00     0.197 HD
ATOM     14  C   UNL d   1      -2.048  -1.323   0.857  0.00  0.00     0.004 A 
ATOM     15  C   UNL d   1      -1.979  -0.243  -0.055  0.00  0.00     0.028 A 
ATOM     16  HN  UNL d   1       0.873   2.567   1.343  1.00  0.00     0.197 HD
ENDBRANCH   3   6
ENDBRANCH   1   3
BRANCH   1  17
ATOM     17  C   UNL d   1       0.993   1.075  -2.434  0.00  0.00     0.175 C 
BRANCH  17  18
ATOM     18  C   UNL d   1       0.455   1.069  -3.849  0.00  0.00     0.016 A 
ATOM     19  C   UNL d   1       0.240  -0.165  -4.508  0.00  0.00     0.085 A 
ATOM     20  C   UNL d   1      -0.189  -0.200  -5.846  0.00  0.00     0.038 A 
ATOM     21  C   UNL d   1      -0.490   0.974  -6.524  0.00  0.00     0.004 A 
ATOM     22  C   UNL d   1      -0.289   2.194  -5.894  0.00  0.00     0.024 A 
ATOM     23  C   UNL d   1       0.218   2.247  -4.589  0.00  0.00     0.044 A 
ATOM     24 CL   UNL d   1       0.582   3.831  -3.992  0.00  0.00    -0.084 Cl
BRANCH  19  25
ATOM     25  O   UNL d   1       0.525  -1.333  -3.809  0.00  0.00    -0.310 OA
BRANCH  25  26
ATOM     26  C   UNL d   1      -0.143  -2.479  -4.185  0.00  0.00     0.076 A 
ATOM     27  C   UNL d   1       0.618  -3.594  -4.536  0.00  0.00     0.037 A 
ATOM     28  C   UNL d   1      -0.019  -4.747  -4.997  0.00  0.00     0.003 A 
ATOM     29  C   UNL d   1      -1.411  -4.786  -5.091  0.00  0.00     0.000 A 
ATOM     30  C   UNL d   1      -2.172  -3.686  -4.695  0.00  0.00     0.003 A 
ATOM     31  C   UNL d   1      -1.540  -2.536  -4.221  0.00  0.00     0.037 A 
ENDBRANCH  25  26
ENDBRANCH  19  25
ENDBRANCH  17  18
ENDBRANCH   1  17
TORSDOF 6
