REMARK  4 active torsions:
REMARK  status: ('A' for Active; 'I' for Inactive)
REMARK    1  A    between atoms: C_5  and  C_1 
REMARK    2  A    between atoms: C_7  and  C_2 
REMARK       I    between atoms: N_9  and  C_7 
REMARK    3  A    between atoms: N_12  and  N_9 
REMARK    4  A    between atoms: C_14  and  N_12 
ROOT
ATOM      1  C   UNL d   1      -1.347  -0.723   0.227  0.00  0.00     0.088 A 
ATOM      2  C   UNL d   1      -0.047  -1.318   0.097  0.00  0.00     0.094 A 
ATOM      3  N   UNL d   1      -1.230   0.601   0.419  0.00  0.00    -0.259 N 
ATOM      4  HN  UNL d   1      -1.988   1.257   0.610  1.00  0.00     0.195 HD
ATOM      5  O   UNL d   1       0.101   0.902   0.308  0.00  0.00    -0.241 OA
ATOM      6  C   UNL d   1       0.812  -0.232   0.097  0.00  0.00     0.090 A 
ATOM      7  C   UNL d   1       2.259  -0.016  -0.108  0.00  0.00     0.080 C 
ENDROOT
BRANCH   2   8
ATOM      8  C   UNL d   1       0.305  -2.717  -0.061  0.00  0.00     0.271 C 
ATOM      9  N   UNL d   1       1.520  -3.067   0.510  0.00  0.00    -0.282 N 
ATOM     10  H   UNL d   1       2.018  -2.438   1.125  0.00  0.00     0.184 HD
ATOM     11  O   UNL d   1      -0.427  -3.531  -0.616  0.00  0.00    -0.266 OA
BRANCH   9  12
ATOM     12  N   UNL d   1       1.939  -4.410   0.445  0.00  0.00    -0.203 NA
ATOM     13  H   UNL d   1       1.144  -5.027   0.247  0.00  0.00     0.153 HD
BRANCH  12  14
ATOM     14  C   UNL d   1       2.716  -4.857   1.544  0.00  0.00     0.027 A 
ATOM     15  C   UNL d   1       2.621  -6.200   1.942  0.00  0.00     0.028 A 
ATOM     16  C   UNL d   1       3.424  -6.711   2.968  0.00  0.00     0.044 A 
ATOM     17  C   UNL d   1       4.351  -5.883   3.587  0.00  0.00     0.116 A 
ATOM     18  C   UNL d   1       4.500  -4.564   3.186  0.00  0.00     0.044 A 
ATOM     19  F   UNL d   1       5.125  -6.369   4.565  0.00  0.00    -0.206 F 
ATOM     20  C   UNL d   1       3.699  -4.058   2.155  0.00  0.00     0.028 A 
ENDBRANCH  12  14
ENDBRANCH   9  12
ENDBRANCH   2   8
BRANCH   1  21
ATOM     21  C   UNL d   1      -2.672  -1.343   0.237  0.00  0.00     0.054 A 
ATOM     22  C   UNL d   1      -2.913  -2.456   1.052  0.00  0.00     0.130 A 
ATOM     23  F   UNL d   1      -1.936  -2.958   1.825  0.00  0.00    -0.205 F 
ATOM     24  C   UNL d   1      -4.167  -3.065   1.116  0.00  0.00     0.043 A 
ATOM     25  C   UNL d   1      -5.228  -2.550   0.378  0.00  0.00     0.005 A 
ATOM     26  C   UNL d   1      -5.021  -1.435  -0.431  0.00  0.00     0.025 A 
ATOM     27  C   UNL d   1      -3.753  -0.839  -0.512  0.00  0.00     0.049 A 
ATOM     28 CL   UNL d   1      -3.610   0.501  -1.603  0.00  0.00    -0.083 Cl
ENDBRANCH   1  21
TORSDOF 4
