REMARK  3 active torsions:
REMARK  status: ('A' for Active; 'I' for Inactive)
REMARK    1  A    between atoms: N_6  and  C_8 
REMARK    2  A    between atoms: N_7  and  C_13 
REMARK    3  A    between atoms: O_21  and  C_9 
ROOT
ATOM      1  C   UNL d   1       1.198   0.849  -0.001  0.00  0.00     0.028 A 
ATOM      2  C   UNL d   1      -1.175   0.843  -0.002  0.00  0.00     0.031 A 
ATOM      3  C   UNL d   1       0.740  -0.485  -0.000  0.00  0.00    -0.008 A 
ATOM      4  C   UNL d   1       0.010   1.730  -0.003  0.00  0.00     0.194 A 
ATOM      5  C   UNL d   1      -0.718  -0.493  -0.001  0.00  0.00     0.023 A 
ATOM      6  C   UNL d   1      -3.446   0.168  -0.000  0.00  0.00     0.106 A 
ATOM      7  C   UNL d   1      -1.669  -1.503   0.001  0.00  0.00     0.080 A 
ATOM      8  C   UNL d   1      -2.513   1.210  -0.002  0.00  0.00     0.052 A 
ATOM      9  C   UNL d   1       2.537   1.208  -0.000  0.00  0.00     0.052 A 
ATOM     10  C   UNL d   1      -3.029  -1.177   0.002  0.00  0.00     0.073 A 
ATOM     11  C   UNL d   1       3.465   0.160   0.001  0.00  0.00     0.103 A 
ATOM     12  C   UNL d   1       1.676  -1.509   0.002  0.00  0.00     0.016 A 
ATOM     13  O   UNL d   1       0.009   2.941  -0.004  0.00  0.00    -0.287 OA
ATOM     14  C   UNL d   1       3.040  -1.186   0.002  0.00  0.00     0.037 A 
ENDROOT
BRANCH   6  15
ATOM     15  N   UNL d   1      -4.886   0.464  -0.003  0.00  0.00    -0.116 N 
ATOM     16  O   UNL d   1      -5.224   1.655  -0.007  0.00  0.00    -0.532 OA
ATOM     17  O   UNL d   1      -5.671  -0.493  -0.001  0.00  0.00    -0.532 OA
ENDBRANCH   6  15
BRANCH   7  18
ATOM     18  O   UNL d   1      -1.400  -2.835   0.003  0.00  0.00    -0.360 OA
ATOM     19  H   UNL d   1      -0.448  -2.992  -0.037  0.00  0.00     0.217 HD
ENDBRANCH   7  18
BRANCH  11  20
ATOM     20  N   UNL d   1       4.905   0.449   0.002  0.00  0.00    -0.116 N 
ATOM     21  O   UNL d   1       5.254   1.637   0.003  0.00  0.00    -0.532 OA
ATOM     22  O   UNL d   1       5.684  -0.515   0.002  0.00  0.00    -0.532 OA
ENDBRANCH  11  20
TORSDOF 3
