REMARK  4 active torsions:
REMARK  status: ('A' for Active; 'I' for Inactive)
REMARK    1  A    between atoms: S_12  and  C_3 
REMARK    2  A    between atoms: N_13  and  C_4 
REMARK    3  A    between atoms: C_15  and  S_12 
REMARK    4  A    between atoms: C_17  and  C_15 
ROOT
ATOM      1  N   UNL d   1       2.999  -8.246  -3.643  0.00  0.00    -0.191 NA
ATOM      2  C   UNL d   1       2.784  -7.746  -2.620  0.00  0.00     0.099 C 
ATOM      3  C   UNL d   1       2.511  -7.128  -1.353  0.00  0.00     0.045 A 
ATOM      4  C   UNL d   1       1.851  -5.894  -1.299  0.00  0.00     0.030 A 
ATOM      5  C   UNL d   1       1.577  -5.278  -0.065  0.00  0.00    -0.047 A 
ATOM      6  C   UNL d   1       2.649  -7.150   1.062  0.00  0.00     0.002 A 
ATOM      7  C   UNL d   1       2.908  -7.756  -0.167  0.00  0.00     0.022 A 
ATOM      8  C   UNL d   1       1.991  -5.919   1.114  0.00  0.00     0.008 A 
ENDROOT
BRANCH   5   9
ATOM      9  C   UNL d   1       0.896  -3.926  -0.011  0.00  0.00     0.121 C 
BRANCH   9  10
ATOM     10  S   UNL d   1       2.128  -2.592  -0.093  0.00  0.00    -0.089 SA
BRANCH  10  11
ATOM     11  C   UNL d   1       1.093  -1.147  -0.034  0.00  0.00     0.147 A 
ATOM     12  N   UNL d   1      -0.231  -1.276   0.045  0.00  0.00    -0.313 N 
ATOM     13  C   UNL d   1      -0.897  -0.129   0.100  0.00  0.00     0.157 A 
ATOM     14  HN  UNL d   1      -0.695  -2.184   0.061  1.00  0.00     0.170 HD
ATOM     15  N   UNL d   1      -0.353   1.077   0.046  0.00  0.00    -0.329 N 
ATOM     16  C   UNL d   1       0.971   1.083  -0.039  0.00  0.00     0.184 A 
ATOM     17  HN  UNL d   1      -0.908   1.933   0.068  1.00  0.00     0.169 HD
ATOM     18  N   UNL d   1       1.748   0.012  -0.082  0.00  0.00    -0.333 N 
ATOM     19  HN  UNL d   1       2.764   0.070  -0.147  1.00  0.00     0.168 HD
BRANCH  13  20
ATOM     20  N   UNL d   1      -2.273  -0.180   0.187  0.00  0.00    -0.274 NA
ATOM     21  H   UNL d   1      -2.640  -1.034  -0.206  0.00  0.00     0.127 HD
ATOM     22  H   UNL d   1      -2.676   0.690  -0.137  0.00  0.00     0.127 HD
ENDBRANCH  13  20
ENDBRANCH  10  11
ENDBRANCH   9  10
ENDBRANCH   5   9
TORSDOF 4
