REMARK  5 active torsions:
REMARK  status: ('A' for Active; 'I' for Inactive)
REMARK    1  A    between atoms: C_11  and  C_1 
REMARK    2  A    between atoms: O_15  and  C_3 
REMARK       I    between atoms: C_4  and  N_10 
REMARK    3  A    between atoms: O_14  and  C_4 
REMARK    4  A    between atoms: N_10  and  N_6 
REMARK    5  A    between atoms: C_17  and  O_14 
ROOT
ATOM      1  C   UNL d   1      -0.020   2.030  -0.073  0.00  0.00     0.017 A 
ATOM      2  C   UNL d   1      -0.993  -0.180  -0.022  0.00  0.00     0.069 A 
ATOM      3  C   UNL d   1      -1.150   1.211  -0.060  0.00  0.00     0.099 A 
ATOM      4  C   UNL d   1       0.278  -0.752   0.003  0.00  0.00     0.050 A 
ATOM      5  C   UNL d   1       1.260   1.460  -0.045  0.00  0.00     0.039 A 
ATOM      6  C   UNL d   1       1.400   0.074  -0.008  0.00  0.00     0.036 A 
ATOM      7 CL   UNL d   1      -2.378  -1.210  -0.002  0.00  0.00    -0.081 Cl
ATOM      8 CL   UNL d   1       2.971  -0.625   0.026  0.00  0.00    -0.084 Cl
ENDROOT
BRANCH   1   9
ATOM      9  C   UNL d   1      -0.159   3.501  -0.096  0.00  0.00     0.121 C 
ATOM     10  N   UNL d   1       0.889   4.257  -0.047  0.00  0.00    -0.307 N 
ATOM     11  HN  UNL d   1       1.832   3.869  -0.013  1.00  0.00     0.186 HD
BRANCH  10  12
ATOM     12  N   UNL d   1       0.664   5.597  -0.045  0.00  0.00    -0.246 N 
ATOM     13  C   UNL d   1       1.696   6.473   0.196  0.00  0.00     0.379 C 
ATOM     14  O   UNL d   1       2.877   6.182   0.341  0.00  0.00    -0.237 OA
ATOM     15  H   UNL d   1      -0.276   5.971  -0.070  0.00  0.00     0.192 HD
BRANCH  13  16
ATOM     16  O   UNL d   1       1.192   7.732   0.301  0.00  0.00    -0.303 OA
BRANCH  16  17
ATOM     17  C   UNL d   1       2.133   8.729   0.729  0.00  0.00     0.176 C 
ATOM     18  C   UNL d   1       2.161   8.775   2.247  0.00  0.00     0.034 C 
ENDBRANCH  16  17
ENDBRANCH  13  16
ENDBRANCH  10  12
ENDBRANCH   1   9
BRANCH   3  19
ATOM     19  O   UNL d   1      -2.400   1.773  -0.080  0.00  0.00    -0.358 OA
ATOM     20  H   UNL d   1      -3.053   1.046  -0.058  0.00  0.00     0.217 HD
ENDBRANCH   3  19
TORSDOF 5
