REMARK  2 active torsions:
REMARK  status: ('A' for Active; 'I' for Inactive)
REMARK    1  A    between atoms: C_7  and  C_3 
REMARK    2  A    between atoms: C_8  and  C_4 
ROOT
ATOM      1  N   UNL d   1       1.443  -0.619  -0.031  0.00  0.00    -0.349 N 
ATOM      2  HN  UNL d   1       2.329  -1.126  -0.046  1.00  0.00     0.166 HD
ATOM      3  C   UNL d   1       0.252  -1.186  -0.034  0.00  0.00     0.085 A 
ATOM      4  C   UNL d   1       1.323   0.761  -0.003  0.00  0.00     0.050 A 
ATOM      5  S   UNL d   1      -1.072  -0.081   0.019  0.00  0.00    -0.081 SA
ATOM      6  C   UNL d   1       0.022   1.229   0.008  0.00  0.00     0.082 A 
ENDROOT
BRANCH   3   7
ATOM      7  C   UNL d   1       0.015  -2.639  -0.049  0.00  0.00     0.001 A 
ATOM      8  C   UNL d   1       0.936  -3.499   0.571  0.00  0.00     0.054 A 
ATOM      9  C   UNL d   1       0.740  -4.882   0.552  0.00  0.00     0.103 A 
ATOM     10  O   UNL d   1       1.688  -5.651   1.177  0.00  0.00    -0.346 OA
ATOM     11  C   UNL d   1      -0.386  -5.422  -0.074  0.00  0.00     0.102 A 
ATOM     12  C   UNL d   1       1.583  -7.026   0.791  0.00  0.00     0.202 C 
ATOM     13  C   UNL d   1       0.137  -7.492   0.821  0.00  0.00     0.202 C 
ATOM     14  O   UNL d   1      -0.654  -6.765  -0.123  0.00  0.00    -0.346 OA
ATOM     15  C   UNL d   1      -1.300  -4.586  -0.706  0.00  0.00     0.040 A 
ATOM     16  C   UNL d   1      -1.101  -3.203  -0.691  0.00  0.00     0.017 A 
ENDBRANCH   3   7
BRANCH   4  17
ATOM     17  C   UNL d   1       2.488   1.636  -0.004  0.00  0.00    -0.006 A 
ATOM     18  C   UNL d   1       2.452   2.887   0.630  0.00  0.00     0.053 A 
ATOM     19  C   UNL d   1       3.566   3.722   0.607  0.00  0.00     0.103 A 
ATOM     20  O   UNL d   1       3.431   4.931   1.240  0.00  0.00    -0.346 OA
ATOM     21  C   UNL d   1       4.741   3.311  -0.026  0.00  0.00     0.102 A 
ATOM     22  C   UNL d   1       4.479   5.832   0.872  0.00  0.00     0.202 C 
ATOM     23  C   UNL d   1       5.829   5.133   0.901  0.00  0.00     0.202 C 
ATOM     24  O   UNL d   1       5.878   4.075  -0.064  0.00  0.00    -0.346 OA
ATOM     25  C   UNL d   1       4.790   2.073  -0.663  0.00  0.00     0.040 A 
ATOM     26  C   UNL d   1       3.669   1.235  -0.645  0.00  0.00     0.017 A 
ENDBRANCH   4  17
TORSDOF 2
