REMARK  12 active torsions:
REMARK  status: ('A' for Active; 'I' for Inactive)
REMARK    1  A    between atoms: C_2  and  O_1 
REMARK    2  A    between atoms: C_3  and  C_2 
REMARK    3  A    between atoms: C_8  and  C_3 
REMARK    4  A    between atoms: C_4  and  C_5 
REMARK    5  A    between atoms: C_5  and  C_7 
REMARK    6  A    between atoms: C_6  and  C_8 
REMARK    7  A    between atoms: C_12  and  C_6 
REMARK    8  A    between atoms: C_7  and  C_13 
REMARK    9  A    between atoms: C_9  and  C_10 
REMARK   10  A    between atoms: C_11  and  C_9 
REMARK   11  A    between atoms: C_10  and  C_12 
REMARK   12  A    between atoms: C_13  and  C_11 
ROOT
ATOM      1  C   UNL d   1       6.914  -4.214   0.848  0.00  0.00     0.000 C 
ENDROOT
BRANCH   1   2
ATOM      2  C   UNL d   1       8.438  -4.228   0.851  0.00  0.00     0.000 C 
BRANCH   2   3
ATOM      3  C   UNL d   1       8.957  -5.626   1.160  0.00  0.00     0.000 C 
BRANCH   3   4
ATOM      4  C   UNL d   1      10.478  -5.641   1.163  0.00  0.00     0.000 C 
BRANCH   4   5
ATOM      5  C   UNL d   1      11.003  -7.039   1.472  0.00  0.00     0.000 C 
BRANCH   5   6
ATOM      6  C   UNL d   1      12.527  -7.051   1.475  0.00  0.00    -0.000 C 
BRANCH   6   7
ATOM      7  C   UNL d   1      13.068  -8.444   1.784  0.00  0.00    -0.005 C 
ATOM      8  C   UNL d   1      14.586  -8.451   1.786  0.00  0.00     0.005 C 
ENDBRANCH   6   7
ENDBRANCH   5   6
ENDBRANCH   4   5
ENDBRANCH   3   4
ENDBRANCH   2   3
ENDBRANCH   1   2
BRANCH   1   9
ATOM      9  C   UNL d   1       6.393  -2.817   0.541  0.00  0.00     0.000 C 
BRANCH   9  10
ATOM     10  C   UNL d   1       4.870  -2.801   0.540  0.00  0.00     0.000 C 
BRANCH  10  11
ATOM     11  C   UNL d   1       4.349  -1.402   0.232  0.00  0.00     0.002 C 
BRANCH  11  12
ATOM     12  C   UNL d   1       2.826  -1.376   0.231  0.00  0.00     0.026 C 
BRANCH  12  13
ATOM     13  C   UNL d   1       2.303   0.017  -0.077  0.00  0.00     0.164 C 
BRANCH  13  14
ATOM     14  O   UNL d   1       0.884  -0.016  -0.064  0.00  0.00    -0.401 OA
ATOM     15  H   UNL d   1       0.578   0.882  -0.263  0.00  0.00     0.209 HD
ENDBRANCH  13  14
ENDBRANCH  12  13
ENDBRANCH  11  12
ENDBRANCH  10  11
ENDBRANCH   9  10
ENDBRANCH   1   9
TORSDOF 12
