REMARK  3 active torsions:
REMARK  status: ('A' for Active; 'I' for Inactive)
REMARK    1  A    between atoms: C_3  and  C_1 
REMARK    2  A    between atoms: C_9  and  C_2 
REMARK    3  A    between atoms: C_18  and  N_15 
ROOT
ATOM      1  C   UNL d   1       0.042  -1.272  -0.019  0.00  0.00     0.052 A 
ATOM      2  C   UNL d   1      -1.300  -0.783   0.088  0.00  0.00     0.081 A 
ATOM      3  N   UNL d   1      -1.275   0.551   0.256  0.00  0.00    -0.259 N 
ATOM      4  HN  UNL d   1      -2.080   1.161   0.396  1.00  0.00     0.195 HD
ATOM      5  O   UNL d   1       0.045   0.937   0.201  0.00  0.00    -0.241 OA
ATOM      6  C   UNL d   1       0.836  -0.153   0.044  0.00  0.00     0.087 A 
ATOM      7  C   UNL d   1       2.287   0.101  -0.022  0.00  0.00     0.080 C 
ENDROOT
BRANCH   1   8
ATOM      8  C   UNL d   1       0.459  -2.664  -0.135  0.00  0.00     0.056 A 
ATOM      9  N   UNL d   1      -0.290  -3.505  -0.924  0.00  0.00    -0.335 N 
ATOM     10  C   UNL d   1       0.123  -4.749  -0.810  0.00  0.00     0.149 A 
ATOM     11  HN  UNL d   1      -1.063  -3.205  -1.518  1.00  0.00     0.168 HD
ATOM     12  N   UNL d   1      -0.452  -5.823  -1.393  0.00  0.00    -0.334 N 
ATOM     13  S   UNL d   1       1.480  -4.952   0.236  0.00  0.00    -0.064 SA
ATOM     14  H   UNL d   1      -0.305  -6.744  -0.995  0.00  0.00     0.168 HD
ATOM     15  C   UNL d   1       1.516  -3.260   0.516  0.00  0.00     0.083 A 
BRANCH  12  16
ATOM     16  C   UNL d   1      -1.291  -5.809  -2.525  0.00  0.00     0.073 A 
ATOM     17  C   UNL d   1      -2.260  -6.809  -2.684  0.00  0.00     0.143 A 
ATOM     18  F   UNL d   1      -2.357  -7.785  -1.766  0.00  0.00    -0.204 F 
ATOM     19  C   UNL d   1      -3.134  -6.820  -3.770  0.00  0.00     0.044 A 
ATOM     20  C   UNL d   1      -3.049  -5.817  -4.733  0.00  0.00     0.003 A 
ATOM     21  C   UNL d   1      -2.102  -4.803  -4.591  0.00  0.00     0.002 A 
ATOM     22  C   UNL d   1      -1.244  -4.793  -3.486  0.00  0.00     0.033 A 
ENDBRANCH  12  16
ENDBRANCH   1   8
BRANCH   2  23
ATOM     23  C   UNL d   1      -2.576  -1.513   0.139  0.00  0.00     0.015 A 
ATOM     24  C   UNL d   1      -3.731  -1.089  -0.548  0.00  0.00     0.048 A 
ATOM     25  C   UNL d   1      -4.935  -1.800  -0.430  0.00  0.00     0.048 A 
ATOM     26 CL   UNL d   1      -3.761   0.285  -1.603  0.00  0.00    -0.083 Cl
ATOM     27  C   UNL d   1      -4.992  -2.949   0.350  0.00  0.00     0.035 A 
ATOM     28  C   UNL d   1      -3.863  -3.394   1.027  0.00  0.00     0.025 A 
ATOM     29 CL   UNL d   1      -6.467  -3.825   0.481  0.00  0.00    -0.084 Cl
ATOM     30  C   UNL d   1      -2.670  -2.671   0.934  0.00  0.00     0.017 A 
ENDBRANCH   2  23
TORSDOF 3
