REMARK  5 active torsions:
REMARK  status: ('A' for Active; 'I' for Inactive)
REMARK    1  A    between atoms: C_5  and  C_1 
REMARK    2  A    between atoms: C_8  and  C_1 
REMARK    3  A    between atoms: C_2  and  S_6 
REMARK    4  A    between atoms: S_6  and  C_8 
REMARK    5  A    between atoms: C_14  and  C_7 
ROOT
ATOM      1  C   UNL d   1       0.165   1.042   0.740  0.00  0.00     0.011 A 
ATOM      2  C   UNL d   1      -1.441   2.952   2.128  0.00  0.00    -0.026 A 
ATOM      3  C   UNL d   1       0.508   2.393   0.734  0.00  0.00     0.016 A 
ATOM      4  C   UNL d   1      -0.963   0.643   1.467  0.00  0.00     0.016 A 
ATOM      5  C   UNL d   1      -0.279   3.326   1.428  0.00  0.00     0.013 A 
ATOM      6  C   UNL d   1      -1.753   1.583   2.144  0.00  0.00     0.013 A 
ENDROOT
BRANCH   1   7
ATOM      7  C   UNL d   1       0.921  -0.004  -0.017  0.00  0.00     0.169 C 
ATOM      8  O   UNL d   1       0.372  -1.093  -0.200  0.00  0.00    -0.291 OA
BRANCH   7   9
ATOM      9  C   UNL d   1       2.358   0.262  -0.441  0.00  0.00     0.164 C 
BRANCH   9  10
ATOM     10  S   UNL d   1       2.740  -0.514  -2.044  0.00  0.00    -0.104 SA
BRANCH  10  11
ATOM     11  C   UNL d   1       1.649   0.416  -3.104  0.00  0.00     0.069 A 
ATOM     12  N   UNL d   1       1.325   1.678  -2.731  0.00  0.00    -0.361 N 
ATOM     13  C   UNL d   1       0.517   2.372  -3.567  0.00  0.00     0.089 A 
ATOM     14  HN  UNL d   1       1.672   2.085  -1.862  1.00  0.00     0.165 HD
ATOM     15  C   UNL d   1       0.025   1.874  -4.761  0.00  0.00     0.017 A 
ATOM     16  C   UNL d   1       0.375   0.581  -5.126  0.00  0.00     0.004 A 
ATOM     17  C   UNL d   1       1.205  -0.160  -4.287  0.00  0.00     0.037 A 
ENDBRANCH  10  11
ENDBRANCH   9  10
ENDBRANCH   7   9
ENDBRANCH   1   7
BRANCH   2  18
ATOM     18  C   UNL d   1      -2.308   3.966   2.783  0.00  0.00    -0.026 A 
ATOM     19  C   UNL d   1      -3.062   3.671   3.934  0.00  0.00     0.012 A 
ATOM     20  C   UNL d   1      -3.884   4.632   4.539  0.00  0.00     0.001 A 
ATOM     21  C   UNL d   1      -3.960   5.918   4.013  0.00  0.00     0.000 A 
ATOM     22  C   UNL d   1      -3.229   6.238   2.876  0.00  0.00     0.001 A 
ATOM     23  C   UNL d   1      -2.424   5.272   2.266  0.00  0.00     0.012 A 
ENDBRANCH   2  18
TORSDOF 5
