REMARK  3 active torsions:
REMARK  status: ('A' for Active; 'I' for Inactive)
REMARK    1  A    between atoms: C_5  and  C_1 
REMARK    2  A    between atoms: C_6  and  C_2 
REMARK       I    between atoms: N_8  and  C_5 
REMARK    3  A    between atoms: C_7  and  N_11 
ROOT
ATOM      1  C   UNL d   1       0.237  -2.644   0.308  0.00  0.00     0.258 C 
ATOM      2  N   UNL d   1      -0.610  -3.729   0.051  0.00  0.00    -0.346 N 
ATOM      3  N   UNL d   1      -2.731  -5.641  -0.290  0.00  0.00    -0.251 NA
ATOM      4  O   UNL d   1       0.418  -1.750  -0.512  0.00  0.00    -0.267 OA
ATOM      5  C   UNL d   1      -1.319  -3.803  -1.234  0.00  0.00     0.141 C 
ATOM      6  C   UNL d   1      -0.575  -5.022   0.750  0.00  0.00     0.141 C 
ATOM      7  C   UNL d   1      -2.740  -4.399  -1.089  0.00  0.00     0.118 C 
ATOM      8  C   UNL d   1      -1.996  -5.563   0.981  0.00  0.00     0.118 C 
ENDROOT
BRANCH   1   9
ATOM      9  C   UNL d   1       0.880  -2.577   1.614  0.00  0.00     0.093 C 
ATOM     10  C   UNL d   1       2.236  -2.260   1.965  0.00  0.00     0.088 C 
ATOM     11  N   UNL d   1       2.398  -2.402   3.293  0.00  0.00    -0.259 N 
ATOM     12  O   UNL d   1       1.158  -2.618   3.829  0.00  0.00    -0.241 OA
ATOM     13  HN  UNL d   1       3.279  -2.357   3.804  1.00  0.00     0.195 HD
ATOM     14  C   UNL d   1       0.241  -2.680   2.837  0.00  0.00     0.090 C 
ATOM     15  C   UNL d   1      -1.156  -2.830   3.286  0.00  0.00     0.080 C 
BRANCH  10  16
ATOM     16  C   UNL d   1       3.393  -1.890   1.140  0.00  0.00     0.054 A 
ATOM     17  C   UNL d   1       3.638  -2.546  -0.073  0.00  0.00     0.130 A 
ATOM     18  F   UNL d   1       2.810  -3.506  -0.512  0.00  0.00    -0.205 F 
ATOM     19  C   UNL d   1       4.766  -2.266  -0.851  0.00  0.00     0.043 A 
ATOM     20  C   UNL d   1       5.701  -1.332  -0.417  0.00  0.00     0.005 A 
ATOM     21  C   UNL d   1       5.485  -0.661   0.782  0.00  0.00     0.025 A 
ATOM     22  C   UNL d   1       4.335  -0.920   1.547  0.00  0.00     0.049 A 
ATOM     23 CL   UNL d   1       4.158   0.056   2.971  0.00  0.00    -0.083 Cl
ENDBRANCH  10  16
ENDBRANCH   1   9
BRANCH   3  24
ATOM     24  C   UNL d   1      -3.979  -6.260  -0.171  0.00  0.00     0.159 A 
ATOM     25  N   UNL d   1      -4.920  -6.031  -1.105  0.00  0.00    -0.341 N 
ATOM     26  C   UNL d   1      -6.101  -6.682  -0.987  0.00  0.00     0.111 A 
ATOM     27  HN  UNL d   1      -4.749  -5.387  -1.877  1.00  0.00     0.167 HD
ATOM     28  C   UNL d   1      -6.389  -7.554   0.031  0.00  0.00     0.041 A 
ATOM     29  C   UNL d   1      -5.384  -7.725   0.946  0.00  0.00     0.111 A 
ATOM     30 BR   UNL d   1      -8.034  -8.445   0.164  0.00  0.00    -0.048 Br
ATOM     31  N   UNL d   1      -4.191  -7.097   0.865  0.00  0.00    -0.341 N 
ATOM     32  HN  UNL d   1      -3.469  -7.252   1.568  1.00  0.00     0.167 HD
ENDBRANCH   3  24
TORSDOF 3
