REMARK  5 active torsions:
REMARK  status: ('A' for Active; 'I' for Inactive)
REMARK    1  A    between atoms: N_2  and  S_1 
REMARK    2  A    between atoms: C_7  and  S_1 
REMARK    3  A    between atoms: C_3  and  N_2 
REMARK    4  A    between atoms: O_16  and  C_6 
REMARK    5  A    between atoms: O_17  and  C_9 
ROOT
ATOM      1  N   UNL d   1       0.550   1.681  -0.276  0.00  0.00    -0.278 N 
ATOM      2  H   UNL d   1      -0.088   1.917  -1.034  0.00  0.00     0.179 HD
ENDROOT
BRANCH   1   3
ATOM      3  S   UNL d   1       0.222   0.137   0.324  0.00  0.00     0.263 S 
ATOM      4  O   UNL d   1      -0.504  -0.545  -0.728  0.00  0.00    -0.200 OA
ATOM      5  O   UNL d   1      -0.334   0.237   1.658  0.00  0.00    -0.200 OA
BRANCH   3   6
ATOM      6  C   UNL d   1       1.820  -0.631   0.443  0.00  0.00     0.080 A 
ATOM      7  C   UNL d   1       2.522  -0.579   1.652  0.00  0.00     0.027 A 
ATOM      8  C   UNL d   1       3.768  -1.202   1.755  0.00  0.00     0.025 A 
ATOM      9  C   UNL d   1       4.287  -1.896   0.662  0.00  0.00     0.034 A 
ATOM     10  C   UNL d   1       3.571  -1.980  -0.533  0.00  0.00     0.025 A 
ATOM     11 CL   UNL d   1       5.825  -2.658   0.791  0.00  0.00    -0.084 Cl
ATOM     12  C   UNL d   1       2.330  -1.348  -0.645  0.00  0.00     0.027 A 
ENDBRANCH   3   6
ENDBRANCH   1   3
BRANCH   1  13
ATOM     13  C   UNL d   1       0.856   2.712   0.669  0.00  0.00     0.078 A 
ATOM     14  C   UNL d   1      -0.195   3.433   1.242  0.00  0.00     0.071 A 
ATOM     15  C   UNL d   1       0.033   4.415   2.221  0.00  0.00     0.092 A 
ATOM     16  C   UNL d   1       1.353   4.644   2.632  0.00  0.00     0.070 A 
ATOM     17  C   UNL d   1       2.411   3.921   2.047  0.00  0.00     0.065 A 
ATOM     18 CL   UNL d   1       1.839   5.763   3.858  0.00  0.00    -0.081 Cl
ATOM     19  C   UNL d   1       2.176   2.961   1.062  0.00  0.00     0.097 A 
BRANCH  15  20
ATOM     20  O   UNL d   1      -1.139   4.991   2.622  0.00  0.00    -0.354 OA
ATOM     21  C   UNL d   1      -1.143   6.077   3.533  0.00  0.00     0.210 C 
ENDBRANCH  15  20
BRANCH  19  22
ATOM     22  O   UNL d   1       3.151   2.241   0.423  0.00  0.00    -0.354 OA
ATOM     23  C   UNL d   1       4.505   2.520   0.757  0.00  0.00     0.210 C 
ENDBRANCH  19  22
ENDBRANCH   1  13
TORSDOF 5
