REMARK  4 active torsions:
REMARK  status: ('A' for Active; 'I' for Inactive)
REMARK    1  A    between atoms: C_2  and  C_1 
REMARK    2  A    between atoms: O_9  and  C_2 
REMARK    3  A    between atoms: C_11  and  O_9 
REMARK    4  A    between atoms: N_10  and  C_12 
ROOT
ATOM      1  C   UNL d   1       2.016  -2.965   0.063  0.00  0.00     0.106 A 
ATOM      2  C   UNL d   1       2.382  -1.987   1.017  0.00  0.00     0.064 A 
ATOM      3  C   UNL d   1       2.965  -3.546  -0.796  0.00  0.00     0.040 A 
ATOM      4  C   UNL d   1       3.755  -1.665   1.075  0.00  0.00     0.032 A 
ATOM      5  C   UNL d   1       4.310  -3.205  -0.694  0.00  0.00     0.003 A 
ATOM      6  C   UNL d   1       4.706  -2.261   0.241  0.00  0.00     0.002 A 
ENDROOT
BRANCH   1   7
ATOM      7  O   UNL d   1       0.634  -3.265  -0.119  0.00  0.00    -0.272 OA
BRANCH   7   8
ATOM      8  C   UNL d   1       0.186  -4.555  -0.445  0.00  0.00     0.309 C 
ATOM      9  O   UNL d   1       0.910  -5.534  -0.562  0.00  0.00    -0.258 OA
BRANCH   8  10
ATOM     10  C   UNL d   1      -1.247  -4.587  -0.616  0.00  0.00     0.122 A 
ATOM     11  C   UNL d   1      -2.077  -5.630  -1.019  0.00  0.00     0.047 A 
ATOM     12  N   UNL d   1      -3.435  -5.318  -1.030  0.00  0.00    -0.298 N 
ATOM     13  C   UNL d   1      -1.710  -7.013  -1.428  0.00  0.00     0.071 C 
ATOM     14  N   UNL d   1      -3.660  -4.069  -0.667  0.00  0.00    -0.269 N 
ATOM     15  HN  UNL d   1      -4.169  -5.978  -1.288  1.00  0.00     0.187 HD
ATOM     16  S   UNL d   1      -2.259  -3.237  -0.316  0.00  0.00     0.010 SA
ATOM     17  HN  UNL d   1      -4.591  -3.657  -0.609  1.00  0.00     0.195 HD
ENDBRANCH   8  10
ENDBRANCH   7   8
ENDBRANCH   1   7
BRANCH   2  18
ATOM     18  N   UNL d   1       1.518  -1.363   1.907  0.00  0.00    -0.379 N 
ATOM     19  C   UNL d   1       0.319  -2.008   2.434  0.00  0.00     0.123 C 
ATOM     20  C   UNL d   1       0.217  -1.735   3.937  0.00  0.00     0.020 C 
ATOM     21  C   UNL d   1       0.307  -0.244   4.258  0.00  0.00     0.003 C 
ATOM     22  C   UNL d   1       1.553   0.375   3.627  0.00  0.00     0.020 C 
ATOM     23  C   UNL d   1       1.605   0.087   2.127  0.00  0.00     0.123 C 
ENDBRANCH   2  18
TORSDOF 4
