REMARK  4 active torsions:
REMARK  status: ('A' for Active; 'I' for Inactive)
REMARK    1  A    between atoms: C_3  and  C_1 
REMARK       I    between atoms: N_7  and  C_1 
REMARK    2  A    between atoms: C_10  and  N_2 
REMARK    3  A    between atoms: C_12  and  C_10 
REMARK    4  A    between atoms: O_11  and  C_12 
ROOT
ATOM      1  N   UNL d   1       1.718   2.938  -1.942  0.00  0.00     0.090 N 
ATOM      2  C   UNL d   1       0.285   0.504  -1.065  0.00  0.00     0.081 C 
ATOM      3  C   UNL d   1       1.100   0.552  -2.360  0.00  0.00     0.044 C 
ATOM      4  C   UNL d   1      -0.146   1.918  -0.671  0.00  0.00     0.044 C 
ATOM      5  C   UNL d   1       1.040   2.882  -0.638  0.00  0.00     0.273 C 
ATOM      6  C   UNL d   1       2.210   1.606  -2.333  0.00  0.00     0.273 C 
ENDROOT
BRANCH   2   7
ATOM      7  C   UNL d   1       1.037  -0.208   0.056  0.00  0.00     0.219 C 
ATOM      8  O   UNL d   1       2.165  -0.679  -0.056  0.00  0.00    -0.273 OA
ATOM      9  N   UNL d   1       0.351  -0.351   1.225  0.00  0.00    -0.370 N 
ATOM     10  H   UNL d   1      -0.552   0.065   1.399  0.00  0.00     0.159 HD
ATOM     11  H   UNL d   1       0.817  -0.830   1.985  0.00  0.00     0.159 HD
ENDBRANCH   2   7
BRANCH   1  12
ATOM     12  C   UNL d   1       2.823   3.920  -1.872  0.00  0.00     0.298 C 
BRANCH  12  13
ATOM     13  C   UNL d   1       3.564   4.157  -3.196  0.00  0.00     0.194 C 
BRANCH  13  14
ATOM     14  O   UNL d   1       4.571   5.151  -3.016  0.00  0.00    -0.399 OA
ATOM     15  H   UNL d   1       5.037   5.230  -3.866  0.00  0.00     0.209 HD
ENDBRANCH  13  14
ENDBRANCH  12  13
ENDBRANCH   1  12
TORSDOF 4
