REMARK  4 active torsions:
REMARK  status: ('A' for Active; 'I' for Inactive)
REMARK    1  A    between atoms: C_8  and  C_1 
REMARK    2  A    between atoms: C_11  and  C_4 
REMARK       I    between atoms: C_7  and  N_9 
REMARK       I    between atoms: N_10  and  C_7 
REMARK    3  A    between atoms: N_9  and  C_8 
REMARK    4  A    between atoms: C_13  and  N_10 
ROOT
ATOM      1  C   UNL d   1       0.013  -1.158   0.125  0.00  0.00     0.020 A 
ATOM      2  N   UNL d   1      -1.292   0.705   0.347  0.00  0.00    -0.260 N 
ATOM      3  HN  UNL d   1      -2.077   1.330   0.530  1.00  0.00     0.195 HD
ATOM      4  C   UNL d   1      -1.296  -0.634   0.442  0.00  0.00     0.075 A 
ATOM      5  O   UNL d   1      -0.028   1.071  -0.044  0.00  0.00    -0.242 OA
ATOM      6  C   UNL d   1       0.751  -0.033  -0.183  0.00  0.00     0.082 A 
ATOM      7  C   UNL d   1       2.140   0.228  -0.619  0.00  0.00     0.079 C 
ENDROOT
BRANCH   1   8
ATOM      8  C   UNL d   1       0.390  -2.592   0.131  0.00  0.00     0.168 C 
BRANCH   8   9
ATOM      9  N   UNL d   1       1.772  -2.841  -0.185  0.00  0.00    -0.338 N 
ATOM     10  C   UNL d   1       2.317  -3.738  -1.058  0.00  0.00     0.320 C 
ATOM     11  N   UNL d   1       1.457  -4.343  -1.937  0.00  0.00    -0.309 N 
ATOM     12  O   UNL d   1       3.526  -3.916  -0.985  0.00  0.00    -0.247 OA
ATOM     13  H   UNL d   1       0.489  -4.089  -1.901  0.00  0.00     0.170 HD
ATOM     14  H   UNL d   1       2.462  -2.509   0.478  0.00  0.00     0.164 HD
BRANCH  11  15
ATOM     15  C   UNL d   1       1.772  -5.210  -3.005  0.00  0.00     0.036 A 
ATOM     16  C   UNL d   1       3.067  -5.601  -3.337  0.00  0.00     0.029 A 
ATOM     17  C   UNL d   1       3.299  -6.380  -4.474  0.00  0.00     0.002 A 
ATOM     18  C   UNL d   1       2.237  -6.791  -5.276  0.00  0.00     0.000 A 
ATOM     19  C   UNL d   1       0.935  -6.444  -4.928  0.00  0.00     0.002 A 
ATOM     20  C   UNL d   1       0.703  -5.660  -3.796  0.00  0.00     0.029 A 
ENDBRANCH  11  15
ENDBRANCH   8   9
ENDBRANCH   1   8
BRANCH   4  21
ATOM     21  C   UNL d   1      -2.519  -1.350   0.850  0.00  0.00    -0.007 A 
ATOM     22  C   UNL d   1      -2.784  -2.673   0.462  0.00  0.00     0.014 A 
ATOM     23  C   UNL d   1      -3.909  -3.360   0.917  0.00  0.00     0.001 A 
ATOM     24  C   UNL d   1      -4.828  -2.717   1.733  0.00  0.00     0.000 A 
ATOM     25  C   UNL d   1      -4.620  -1.385   2.092  0.00  0.00     0.001 A 
ATOM     26  C   UNL d   1      -3.473  -0.711   1.658  0.00  0.00     0.014 A 
ENDBRANCH   4  21
TORSDOF 4
