REMARK  6 active torsions:
REMARK  status: ('A' for Active; 'I' for Inactive)
REMARK    1  A    between atoms: C_2  and  C_1 
REMARK       I    between atoms: N_3  and  C_1 
REMARK    2  A    between atoms: C_11  and  N_3 
REMARK    3  A    between atoms: N_4  and  C_12 
REMARK    4  A    between atoms: C_7  and  C_6 
REMARK    5  A    between atoms: O_13  and  C_8 
REMARK    6  A    between atoms: O_14  and  C_10 
ROOT
ATOM      1  C   UNL d   1      -1.269   1.105   0.556  0.00  0.00     0.035 A 
ATOM      2  C   UNL d   1      -4.100   1.102   0.669  0.00  0.00     0.032 A 
ATOM      3  C   UNL d   1      -1.962   0.033   1.116  0.00  0.00     0.032 A 
ATOM      4  C   UNL d   1      -2.001   2.216   0.123  0.00  0.00     0.032 A 
ATOM      5  C   UNL d   1      -3.404   2.211   0.180  0.00  0.00     0.031 A 
ATOM      6  C   UNL d   1      -3.359   0.036   1.181  0.00  0.00     0.031 A 
ENDROOT
BRANCH   1   7
ATOM      7  N   UNL d   1       0.137   1.113   0.374  0.00  0.00    -0.323 N 
ATOM      8  C   UNL d   1       0.993   0.050   0.605  0.00  0.00     0.259 C 
ATOM      9  O   UNL d   1       0.680  -1.055   1.047  0.00  0.00    -0.267 OA
ATOM     10  H   UNL d   1       0.508   1.930  -0.095  0.00  0.00     0.169 HD
BRANCH   8  11
ATOM     11  C   UNL d   1       2.418   0.222   0.208  0.00  0.00     0.065 A 
ATOM     12  C   UNL d   1       3.165  -0.915  -0.151  0.00  0.00     0.081 A 
ATOM     13  C   UNL d   1       4.494  -0.798  -0.553  0.00  0.00     0.037 A 
ATOM     14  C   UNL d   1       5.101   0.454  -0.577  0.00  0.00     0.003 A 
ATOM     15  C   UNL d   1       4.381   1.587  -0.192  0.00  0.00     0.001 A 
ATOM     16  C   UNL d   1       3.044   1.476   0.202  0.00  0.00     0.020 A 
BRANCH  12  17
ATOM     17  O   UNL d   1       2.652  -2.187  -0.132  0.00  0.00    -0.360 OA
ATOM     18  H   UNL d   1       1.791  -2.150   0.344  0.00  0.00     0.217 HD
ENDBRANCH  12  17
ENDBRANCH   8  11
ENDBRANCH   1   7
BRANCH   2  19
ATOM     19  N   UNL d   1      -5.508   1.118   0.637  0.00  0.00    -0.365 N 
ATOM     20  C   UNL d   1      -6.123   0.009   0.355  0.00  0.00     0.102 C 
ATOM     21  HN  UNL d   1      -6.028   1.973   0.830  1.00  0.00     0.165 HD
BRANCH  20  22
ATOM     22  C   UNL d   1      -7.595  -0.064   0.259  0.00  0.00     0.012 A 
ATOM     23  C   UNL d   1      -8.401   1.075   0.340  0.00  0.00     0.077 A 
ATOM     24  C   UNL d   1      -9.781   0.966   0.202  0.00  0.00     0.037 A 
ATOM     25  C   UNL d   1     -10.364  -0.285  -0.006  0.00  0.00     0.003 A 
ATOM     26  C   UNL d   1      -9.565  -1.428  -0.077  0.00  0.00     0.001 A 
ATOM     27  C   UNL d   1      -8.179  -1.319   0.052  0.00  0.00     0.015 A 
BRANCH  23  28
ATOM     28  O   UNL d   1      -7.893   2.329   0.543  0.00  0.00    -0.360 OA
ATOM     29  H   UNL d   1      -6.920   2.229   0.654  0.00  0.00     0.217 HD
ENDBRANCH  23  28
ENDBRANCH  20  22
ENDBRANCH   2  19
TORSDOF 6
