REMARK  3 active torsions:
REMARK  status: ('A' for Active; 'I' for Inactive)
REMARK    1  A    between atoms: C_11  and  C_1 
REMARK       I    between atoms: C_5  and  N_9 
REMARK    2  A    between atoms: C_8  and  C_5 
REMARK    3  A    between atoms: N_9  and  C_20 
ROOT
ATOM      1  C   UNL d   1      -3.852  -0.727   0.229  0.00  0.00    -0.002 A 
ATOM      2  C   UNL d   1      -4.602   0.026  -0.684  0.00  0.00     0.016 A 
ATOM      3  C   UNL d   1      -4.538  -1.640   1.040  0.00  0.00     0.016 A 
ATOM      4  C   UNL d   1      -6.654  -1.112  -0.026  0.00  0.00     0.035 A 
ATOM      5  C   UNL d   1      -5.987  -0.167  -0.814  0.00  0.00     0.030 A 
ATOM      6  C   UNL d   1      -5.918  -1.831   0.913  0.00  0.00     0.030 A 
ENDROOT
BRANCH   1   7
ATOM      7  C   UNL d   1      -2.393  -0.539   0.327  0.00  0.00     0.085 A 
ATOM      8  N   UNL d   1      -1.754   0.570   0.011  0.00  0.00    -0.349 N 
ATOM      9  C   UNL d   1      -0.398   0.436   0.276  0.00  0.00     0.050 A 
ATOM     10  HN  UNL d   1      -2.193   1.407  -0.374  1.00  0.00     0.166 HD
ATOM     11  C   UNL d   1       0.584   1.433   0.117  0.00  0.00     0.031 A 
ATOM     12  C   UNL d   1      -0.004  -0.813   0.753  0.00  0.00     0.034 A 
ATOM     13  C   UNL d   1       1.918   1.157   0.448  0.00  0.00     0.009 A 
ATOM     14  C   UNL d   1       2.295  -0.099   0.931  0.00  0.00    -0.061 A 
ATOM     15  C   UNL d   1       1.330  -1.105   1.081  0.00  0.00     0.028 A 
ATOM     16  C   UNL d   1       3.729  -0.368   1.283  0.00  0.00     0.048 C 
ATOM     17  S   UNL d   1      -1.378  -1.833   0.848  0.00  0.00    -0.070 SA
ENDBRANCH   1   7
BRANCH   4  18
ATOM     18  N   UNL d   1      -8.030  -1.314  -0.258  0.00  0.00    -0.323 N 
ATOM     19  C   UNL d   1      -8.863  -2.238   0.358  0.00  0.00     0.263 C 
ATOM     20  O   UNL d   1      -8.543  -2.926   1.323  0.00  0.00    -0.267 OA
ATOM     21  H   UNL d   1      -8.449  -0.779  -1.008  0.00  0.00     0.169 HD
BRANCH  19  22
ATOM     22  C   UNL d   1     -10.188  -2.382  -0.246  0.00  0.00     0.072 A 
ATOM     23  S   UNL d   1     -10.721  -1.431  -1.568  0.00  0.00    -0.097 SA
ATOM     24  C   UNL d   1     -12.207  -2.271  -1.663  0.00  0.00     0.050 A 
ATOM     25  C   UNL d   1     -12.316  -3.242  -0.693  0.00  0.00     0.009 A 
ATOM     26  C   UNL d   1     -11.157  -3.295   0.131  0.00  0.00     0.025 A 
ENDBRANCH  19  22
ENDBRANCH   4  18
TORSDOF 3
