REMARK  5 active torsions:
REMARK  status: ('A' for Active; 'I' for Inactive)
REMARK    1  A    between atoms: C_6  and  N_1 
REMARK    2  A    between atoms: C_12  and  C_6 
REMARK    3  A    between atoms: N_9  and  C_13 
REMARK    4  A    between atoms: C_13  and  C_12 
REMARK    5  A    between atoms: O_21  and  C_12 
ROOT
ATOM      1  N   UNL d   1       0.259  -1.587  -0.670  0.00  0.00    -0.343 N 
ATOM      2  C   UNL d   1       0.396   0.637  -0.591  0.00  0.00     0.005 A 
ATOM      3  C   UNL d   1       0.992   0.184  -1.810  0.00  0.00     0.005 A 
ATOM      4  C   UNL d   1      -0.093  -0.482   0.082  0.00  0.00     0.046 A 
ATOM      5  C   UNL d   1       0.847  -1.204  -1.861  0.00  0.00     0.046 A 
ATOM      6  C   UNL d   1      -0.763  -0.377   1.317  0.00  0.00     0.032 A 
ATOM      7  C   UNL d   1       1.293  -1.961  -2.956  0.00  0.00     0.032 A 
ATOM      8  C   UNL d   1       0.238   1.908  -0.002  0.00  0.00     0.038 A 
ATOM      9  C   UNL d   1       1.641   0.841  -2.878  0.00  0.00     0.038 A 
ATOM     10  C   UNL d   1       2.102   0.089  -3.963  0.00  0.00     0.035 A 
ATOM     11  C   UNL d   1      -0.414   2.017   1.228  0.00  0.00     0.035 A 
ATOM     12  C   UNL d   1       1.922  -1.288  -4.009  0.00  0.00     0.026 A 
ATOM     13  C   UNL d   1      -0.914   0.893   1.876  0.00  0.00     0.026 A 
ATOM     14 CL   UNL d   1      -0.597   3.566   1.958  0.00  0.00    -0.084 Cl
ATOM     15 CL   UNL d   1       2.912   0.885  -5.257  0.00  0.00    -0.084 Cl
ENDROOT
BRANCH   1  16
ATOM     16  C   UNL d   1       0.151  -2.961  -0.212  0.00  0.00     0.163 C 
BRANCH  16  17
ATOM     17  C   UNL d   1       1.472  -3.531   0.325  0.00  0.00     0.164 C 
BRANCH  17  18
ATOM     18  C   UNL d   1       2.120  -2.662   1.434  0.00  0.00     0.305 C 
BRANCH  18  19
ATOM     19  N   UNL d   1       3.339  -3.282   2.018  0.00  0.00     0.095 N 
ATOM     20  C   UNL d   1       4.458  -3.295   1.040  0.00  0.00     0.298 C 
ATOM     21  C   UNL d   1       5.776  -3.774   1.674  0.00  0.00     0.198 C 
ATOM     22  O   UNL d   1       6.143  -2.958   2.791  0.00  0.00    -0.388 OA
ATOM     23  C   UNL d   1       5.104  -2.985   3.777  0.00  0.00     0.198 C 
ATOM     24  C   UNL d   1       3.776  -2.480   3.192  0.00  0.00     0.298 C 
ENDBRANCH  18  19
ENDBRANCH  17  18
BRANCH  17  25
ATOM     25  O   UNL d   1       1.206  -4.838   0.859  0.00  0.00    -0.392 OA
ATOM     26  H   UNL d   1       1.868  -4.969   1.569  0.00  0.00     0.210 HD
ENDBRANCH  17  25
ENDBRANCH  16  17
ENDBRANCH   1  16
TORSDOF 5
