REMARK  6 active torsions:
REMARK  status: ('A' for Active; 'I' for Inactive)
REMARK    1  A    between atoms: C_6  and  N_1 
REMARK    2  A    between atoms: C_13  and  C_6 
REMARK    3  A    between atoms: N_11  and  C_18 
REMARK    4  A    between atoms: C_12  and  N_11 
REMARK    5  A    between atoms: C_18  and  C_13 
REMARK    6  A    between atoms: O_21  and  C_13 
ROOT
ATOM      1  N   UNL d   1       0.171  -1.532  -0.361  0.00  0.00    -0.343 N 
ATOM      2  C   UNL d   1       0.865   0.496  -0.983  0.00  0.00     0.005 A 
ATOM      3  C   UNL d   1       0.010   0.633   0.152  0.00  0.00     0.005 A 
ATOM      4  C   UNL d   1       0.899  -0.856  -1.326  0.00  0.00     0.046 A 
ATOM      5  C   UNL d   1      -0.430  -0.639   0.513  0.00  0.00     0.046 A 
ATOM      6  C   UNL d   1       1.597  -1.323  -2.454  0.00  0.00     0.032 A 
ATOM      7  C   UNL d   1      -1.304  -0.843   1.593  0.00  0.00     0.032 A 
ATOM      8  C   UNL d   1       1.601   1.416  -1.760  0.00  0.00     0.038 A 
ATOM      9  C   UNL d   1      -0.440   1.752   0.896  0.00  0.00     0.038 A 
ATOM     10  C   UNL d   1       2.329   0.953  -2.857  0.00  0.00     0.035 A 
ATOM     11  C   UNL d   1      -1.314   1.551   1.964  0.00  0.00     0.035 A 
ATOM     12  C   UNL d   1       2.316  -0.392  -3.212  0.00  0.00     0.026 A 
ATOM     13  C   UNL d   1      -1.743   0.274   2.310  0.00  0.00     0.026 A 
ATOM     14 CL   UNL d   1       3.257   2.066  -3.788  0.00  0.00    -0.084 Cl
ATOM     15 CL   UNL d   1      -1.870   2.908   2.868  0.00  0.00    -0.084 Cl
ENDROOT
BRANCH   1  16
ATOM     16  C   UNL d   1       0.078  -2.977  -0.263  0.00  0.00     0.163 C 
BRANCH  16  17
ATOM     17  C   UNL d   1       1.390  -3.694   0.088  0.00  0.00     0.164 C 
BRANCH  17  18
ATOM     18  C   UNL d   1       2.104  -3.125   1.341  0.00  0.00     0.303 C 
BRANCH  18  19
ATOM     19  N   UNL d   1       3.333  -3.901   1.609  0.00  0.00     0.094 N 
ATOM     20  H   UNL d   1       3.921  -3.876   0.773  0.00  0.00     0.317 HD
BRANCH  19  21
ATOM     21  C   UNL d   1       4.143  -3.447   2.764  0.00  0.00     0.147 C 
ATOM     22  C   UNL d   1       3.397  -3.680   4.086  0.00  0.00     0.048 C 
ATOM     23  C   UNL d   1       5.424  -4.310   2.779  0.00  0.00     0.048 C 
ATOM     24  C   UNL d   1       4.573  -1.973   2.656  0.00  0.00     0.048 C 
ENDBRANCH  19  21
ENDBRANCH  18  19
ENDBRANCH  17  18
BRANCH  17  25
ATOM     25  O   UNL d   1       1.075  -5.080   0.304  0.00  0.00    -0.392 OA
ATOM     26  H   UNL d   1       1.629  -5.369   1.058  0.00  0.00     0.210 HD
ENDBRANCH  17  25
ENDBRANCH  16  17
ENDBRANCH   1  16
TORSDOF 6
