REMARK  10 active torsions:
REMARK  status: ('A' for Active; 'I' for Inactive)
REMARK    1  A    between atoms: N_5  and  C_1 
REMARK    2  A    between atoms: C_4  and  C_7 
REMARK    3  A    between atoms: C_6  and  O_11 
REMARK    4  A    between atoms: C_17  and  N_8 
REMARK    5  A    between atoms: O_11  and  C_26 
REMARK    6  A    between atoms: C_25  and  C_17 
REMARK    7  A    between atoms: O_23  and  C_29 
REMARK    8  A    between atoms: C_28  and  O_23 
REMARK    9  A    between atoms: C_29  and  C_25 
REMARK   10  A    between atoms: O_34  and  C_25 
ROOT
ATOM      1  N   UNL d   1       2.660   6.557  -2.147  0.00  0.00    -0.214 N 
ATOM      2  N   UNL d   1       0.869   5.531  -0.021  0.00  0.00     0.094 N 
ATOM      3  C   UNL d   1       2.989   5.304  -1.458  0.00  0.00     0.171 C 
ATOM      4  C   UNL d   1       1.821   7.496  -1.391  0.00  0.00     0.171 C 
ATOM      5  C   UNL d   1       1.693   4.654  -0.904  0.00  0.00     0.293 C 
ATOM      6  C   UNL d   1       0.590   6.773  -0.786  0.00  0.00     0.293 C 
ENDROOT
BRANCH   2   7
ATOM      7  C   UNL d   1       1.578   5.771   1.248  0.00  0.00     0.306 C 
BRANCH   7   8
ATOM      8  C   UNL d   1       0.888   6.617   2.344  0.00  0.00     0.170 C 
BRANCH   8   9
ATOM      9  C   UNL d   1      -0.451   6.038   2.829  0.00  0.00     0.209 C 
BRANCH   9  10
ATOM     10  O   UNL d   1      -1.001   6.918   3.828  0.00  0.00    -0.349 OA
BRANCH  10  11
ATOM     11  C   UNL d   1      -2.245   6.614   4.312  0.00  0.00     0.069 A 
ATOM     12  C   UNL d   1      -2.963   5.462   4.022  0.00  0.00     0.039 A 
ATOM     13  C   UNL d   1      -4.240   5.278   4.554  0.00  0.00     0.040 A 
ATOM     14  C   UNL d   1      -4.818   6.232   5.400  0.00  0.00     0.078 A 
ATOM     15  C   UNL d   1      -4.108   7.393   5.690  0.00  0.00     0.040 A 
ATOM     16  C   UNL d   1      -2.817   7.574   5.158  0.00  0.00     0.039 A 
BRANCH  14  17
ATOM     17  O   UNL d   1      -6.078   5.921   5.805  0.00  0.00    -0.255 OA
BRANCH  17  18
ATOM     18  C   UNL d   1      -6.571   6.401   7.046  0.00  0.00     0.530 C 
ATOM     19  F   UNL d   1      -5.642   6.976   7.829  0.00  0.00    -0.144 F 
ATOM     20  F   UNL d   1      -7.565   7.289   6.815  0.00  0.00    -0.144 F 
ATOM     21  F   UNL d   1      -7.098   5.354   7.722  0.00  0.00    -0.144 F 
ENDBRANCH  17  18
ENDBRANCH  14  17
ENDBRANCH  10  11
ENDBRANCH   9  10
ENDBRANCH   8   9
BRANCH   8  22
ATOM     22  O   UNL d   1       1.816   6.704   3.445  0.00  0.00    -0.392 OA
ATOM     23  H   UNL d   1       1.859   5.829   3.868  0.00  0.00     0.210 HD
ENDBRANCH   8  22
ENDBRANCH   7   8
ENDBRANCH   2   7
BRANCH   1  24
ATOM     24  C   UNL d   1       3.696   7.119  -2.888  0.00  0.00     0.680 A 
ATOM     25  N   UNL d   1       3.704   8.443  -3.085  0.00  0.00    -0.186 N 
ATOM     26  C   UNL d   1       4.670   8.980  -3.875  0.00  0.00     0.133 A 
ATOM     27  HN  UNL d   1       2.999   9.037  -2.650  1.00  0.00     0.184 HD
ATOM     28  C   UNL d   1       5.627   8.196  -4.489  0.00  0.00     0.052 A 
ATOM     29  C   UNL d   1       5.552   6.853  -4.226  0.00  0.00     0.108 A 
ATOM     30  N   UNL d   1       4.612   6.306  -3.435  0.00  0.00    -0.202 N 
ATOM     31  HN  UNL d   1       4.596   5.302  -3.256  1.00  0.00     0.183 HD
BRANCH  26  32
ATOM     32  C   UNL d   1       4.693  10.479  -4.096  0.00  0.00     0.433 C 
ATOM     33  F   UNL d   1       3.715  11.162  -3.436  0.00  0.00    -0.165 F 
ATOM     34  F   UNL d   1       5.872  11.043  -3.699  0.00  0.00    -0.165 F 
ATOM     35  F   UNL d   1       4.557  10.814  -5.413  0.00  0.00    -0.165 F 
ENDBRANCH  26  32
ENDBRANCH   1  24
TORSDOF 10
