REMARK  3 active torsions:
REMARK  status: ('A' for Active; 'I' for Inactive)
REMARK    1  A    between atoms: C_4  and  N_1 
REMARK    2  A    between atoms: C_2  and  O_7 
REMARK    3  A    between atoms: O_7  and  C_13 
ROOT
ATOM      1  C   UNL d   1       0.312  -1.118   0.643  0.00  0.00     0.103 A 
ATOM      2  C   UNL d   1       0.812  -1.587   1.866  0.00  0.00     0.039 A 
ATOM      3  C   UNL d   1      -0.889  -1.619   0.125  0.00  0.00     0.039 A 
ATOM      4  C   UNL d   1      -1.071  -3.104   2.032  0.00  0.00     0.076 A 
ATOM      5  C   UNL d   1      -1.579  -2.611   0.827  0.00  0.00     0.040 A 
ATOM      6  C   UNL d   1       0.104  -2.566   2.569  0.00  0.00     0.040 A 
ENDROOT
BRANCH   4   7
ATOM      7  O   UNL d   1      -1.824  -4.078   2.649  0.00  0.00    -0.309 OA
BRANCH   7   8
ATOM      8  C   UNL d   1      -1.190  -5.089   3.340  0.00  0.00     0.098 A 
ATOM      9  C   UNL d   1      -1.815  -5.596   4.489  0.00  0.00     0.069 A 
ATOM     10  C   UNL d   1      -1.216  -6.620   5.226  0.00  0.00     0.050 A 
ATOM     11 CL   UNL d   1      -3.334  -4.978   5.033  0.00  0.00    -0.081 Cl
ATOM     12  C   UNL d   1       0.004  -7.144   4.808  0.00  0.00     0.035 A 
ATOM     13  C   UNL d   1       0.615  -6.678   3.645  0.00  0.00     0.026 A 
ATOM     14 CL   UNL d   1       0.764  -8.382   5.729  0.00  0.00    -0.084 Cl
ATOM     15  C   UNL d   1       0.007  -5.668   2.898  0.00  0.00     0.041 A 
ENDBRANCH   7   8
ENDBRANCH   4   7
BRANCH   1  16
ATOM     16  N   UNL d   1       1.053  -0.086  -0.094  0.00  0.00    -0.116 N 
ATOM     17  O   UNL d   1       2.106   0.333   0.401  0.00  0.00    -0.532 OA
ATOM     18  O   UNL d   1       0.579   0.301  -1.174  0.00  0.00    -0.532 OA
ENDBRANCH   1  16
TORSDOF 3
