REMARK  4 active torsions:
REMARK  status: ('A' for Active; 'I' for Inactive)
REMARK    1  A    between atoms: N_3  and  C_1 
REMARK    2  A    between atoms: C_2  and  S_10 
REMARK       I    between atoms: C_4  and  N_3 
REMARK    3  A    between atoms: C_15  and  C_4 
REMARK    4  A    between atoms: S_10  and  C_15 
ROOT
ATOM      1  N   UNL d   1       1.791  -2.324   0.066  0.00  0.00    -0.326 N 
ATOM      2  C   UNL d   1       3.126  -2.564   0.359  0.00  0.00     0.231 C 
ATOM      3  O   UNL d   1       3.903  -1.743   0.846  0.00  0.00    -0.272 OA
ATOM      4  H   UNL d   1       1.246  -3.138  -0.191  0.00  0.00     0.169 HD
ENDROOT
BRANCH   2   5
ATOM      5  C   UNL d   1       3.581  -4.006   0.187  0.00  0.00     0.185 C 
BRANCH   5   6
ATOM      6  S   UNL d   1       2.741  -4.896  -1.153  0.00  0.00    -0.085 SA
BRANCH   6   7
ATOM      7  C   UNL d   1       3.281  -3.943  -2.551  0.00  0.00     0.144 A 
ATOM      8  N   UNL d   1       4.455  -3.295  -2.490  0.00  0.00    -0.347 N 
ATOM      9  C   UNL d   1       4.813  -2.609  -3.591  0.00  0.00     0.091 A 
ATOM     10  HN  UNL d   1       5.042  -3.320  -1.656  1.00  0.00     0.167 HD
ATOM     11  C   UNL d   1       4.055  -2.557  -4.735  0.00  0.00     0.034 A 
ATOM     12  C   UNL d   1       2.873  -3.257  -4.692  0.00  0.00     0.091 A 
ATOM     13  N   UNL d   1       2.463  -3.953  -3.616  0.00  0.00    -0.347 N 
ATOM     14  HN  UNL d   1       1.579  -4.461  -3.610  1.00  0.00     0.167 HD
ENDBRANCH   6   7
ENDBRANCH   5   6
ENDBRANCH   2   5
BRANCH   1  15
ATOM     15  C   UNL d   1       1.121  -1.077   0.097  0.00  0.00     0.043 A 
ATOM     16  C   UNL d   1       1.829   0.129   0.186  0.00  0.00     0.072 A 
ATOM     17  C   UNL d   1       1.161   1.348   0.183  0.00  0.00     0.118 A 
ATOM     18  F   UNL d   1       1.864   2.486   0.258  0.00  0.00    -0.206 F 
ATOM     19  C   UNL d   1      -0.218   1.407   0.088  0.00  0.00     0.043 A 
ATOM     20  C   UNL d   1      -0.942   0.222  -0.006  0.00  0.00     0.012 A 
ATOM     21  C   UNL d   1      -0.290  -1.030   0.007  0.00  0.00    -0.035 A 
ATOM     22  C   UNL d   1      -1.165  -2.251  -0.105  0.00  0.00     0.050 C 
ENDBRANCH   1  15
TORSDOF 4
