REMARK  6 active torsions:
REMARK  status: ('A' for Active; 'I' for Inactive)
REMARK    1  A    between atoms: N_5  and  S_1 
REMARK    2  A    between atoms: C_2  and  N_4 
REMARK    3  A    between atoms: N_7  and  C_2 
REMARK    4  A    between atoms: N_4  and  C_3 
REMARK    5  A    between atoms: C_11  and  N_5 
REMARK    6  A    between atoms: C_13  and  N_7 
ROOT
ATOM      1  C   UNL d   1       0.047   4.632  -2.034  0.00  0.00     0.042 A 
ATOM      2  C   UNL d   1      -0.001   3.234  -2.134  0.00  0.00     0.054 A 
ATOM      3  C   UNL d   1       0.812   2.438  -1.333  0.00  0.00     0.024 A 
ATOM      4  C   UNL d   1       0.837   5.232  -1.038  0.00  0.00    -0.035 A 
ATOM      5  C   UNL d   1       1.651   4.410  -0.236  0.00  0.00     0.011 A 
ATOM      6  C   UNL d   1       1.647   3.022  -0.390  0.00  0.00     0.025 A 
ATOM      7  C   UNL d   1       0.865   6.717  -0.811  0.00  0.00     0.050 C 
ENDROOT
BRANCH   1   8
ATOM      8  N   UNL d   1      -0.723   5.411  -2.935  0.00  0.00    -0.333 N 
ATOM      9  H   UNL d   1      -0.878   6.379  -2.682  0.00  0.00     0.168 HD
BRANCH   8  10
ATOM     10  C   UNL d   1      -0.786   5.197  -4.289  0.00  0.00     0.176 C 
ATOM     11  S   UNL d   1       0.373   4.416  -5.228  0.00  0.00    -0.041 SA
BRANCH  10  12
ATOM     12  N   UNL d   1      -1.825   5.734  -4.987  0.00  0.00    -0.333 N 
ATOM     13  H   UNL d   1      -1.673   5.632  -5.988  0.00  0.00     0.168 HD
BRANCH  12  14
ATOM     14  C   UNL d   1      -3.105   6.197  -4.629  0.00  0.00     0.035 A 
ATOM     15  C   UNL d   1      -3.630   6.205  -3.339  0.00  0.00     0.053 A 
ATOM     16  C   UNL d   1      -4.944   6.636  -3.127  0.00  0.00     0.036 A 
ATOM     17 CL   UNL d   1      -5.590   6.651  -1.530  0.00  0.00    -0.084 Cl
ATOM     18  C   UNL d   1      -5.748   7.046  -4.191  0.00  0.00     0.024 A 
ATOM     19  C   UNL d   1      -5.234   7.032  -5.482  0.00  0.00     0.004 A 
ATOM     20  C   UNL d   1      -3.920   6.615  -5.695  0.00  0.00     0.029 A 
ENDBRANCH  12  14
ENDBRANCH  10  12
ENDBRANCH   8  10
ENDBRANCH   1   8
BRANCH   3  21
ATOM     21  N   UNL d   1       0.731   1.018  -1.440  0.00  0.00    -0.186 NA
ATOM     22  H   UNL d   1       0.552   0.675  -2.388  0.00  0.00     0.145 HD
BRANCH  21  23
ATOM     23  S   UNL d   1      -0.323   0.227  -0.377  0.00  0.00     0.210 S 
ATOM     24  O   UNL d   1      -0.825  -0.916  -1.109  0.00  0.00    -0.211 OA
ATOM     25  O   UNL d   1      -1.222   1.176   0.248  0.00  0.00    -0.211 OA
ATOM     26  C   UNL d   1       0.819  -0.376   0.843  0.00  0.00     0.180 C 
ENDBRANCH  21  23
ENDBRANCH   3  21
TORSDOF 6
