REMARK  2 active torsions:
REMARK  status: ('A' for Active; 'I' for Inactive)
REMARK    1  A    between atoms: C_7  and  C_2 
REMARK    2  A    between atoms: S_10  and  C_3 
ROOT
ATOM      1  S   UNL d   1      -1.170  -0.104   0.036  0.00  0.00    -0.076 SA
ATOM      2  C   UNL d   1       0.047   1.247   0.069  0.00  0.00     0.194 C 
ATOM      3  C   UNL d   1       0.167  -1.228   0.086  0.00  0.00     0.119 C 
ATOM      4  N   UNL d   1       1.369  -0.749  -0.021  0.00  0.00    -0.308 N 
ATOM      5  HN  UNL d   1       2.226  -1.298   0.053  1.00  0.00     0.182 HD
ATOM      6  N   UNL d   1       1.321   0.592  -0.247  0.00  0.00    -0.219 NA
ATOM      7  H   UNL d   1       2.121   1.110   0.115  0.00  0.00     0.148 HD
ENDROOT
BRANCH   2   8
ATOM      8  C   UNL d   1      -0.259   2.390  -0.880  0.00  0.00     0.038 A 
ATOM      9  N   UNL d   1      -0.447   3.621  -0.332  0.00  0.00    -0.367 N 
ATOM     10  C   UNL d   1      -0.648   4.658  -1.176  0.00  0.00     0.088 A 
ATOM     11  HN  UNL d   1      -0.437   3.757   0.679  1.00  0.00     0.165 HD
ATOM     12  C   UNL d   1      -0.664   4.538  -2.555  0.00  0.00     0.017 A 
ATOM     13  C   UNL d   1      -0.477   3.277  -3.104  0.00  0.00     0.003 A 
ATOM     14  C   UNL d   1      -0.277   2.189  -2.263  0.00  0.00     0.027 A 
ENDBRANCH   2   8
BRANCH   3  15
ATOM     15  S   UNL d   1      -0.193  -2.910   0.303  0.00  0.00    -0.109 SA
ATOM     16  C   UNL d   1       1.471  -3.606   0.228  0.00  0.00     0.097 C 
ENDBRANCH   3  15
TORSDOF 2
