REMARK  7 active torsions:
REMARK  status: ('A' for Active; 'I' for Inactive)
REMARK    1  A    between atoms: C_3  and  C_1 
REMARK    2  A    between atoms: C_7  and  C_2 
REMARK       I    between atoms: N_8  and  C_3 
REMARK    3  A    between atoms: C_6  and  N_8 
REMARK    4  A    between atoms: N_12  and  C_11 
REMARK    5  A    between atoms: C_13  and  C_14 
REMARK    6  A    between atoms: O_21  and  C_13 
REMARK    7  A    between atoms: C_28  and  O_21 
ROOT
ATOM      1  C   UNL d   1       0.458  -4.146  -0.316  0.00  0.00     0.261 C 
ATOM      2  N   UNL d   1      -0.661  -3.472   0.141  0.00  0.00    -0.321 N 
ATOM      3  O   UNL d   1       0.508  -4.692  -1.408  0.00  0.00    -0.267 OA
ATOM      4  H   UNL d   1      -0.702  -3.228   1.115  0.00  0.00     0.169 HD
ENDROOT
BRANCH   2   5
ATOM      5  C   UNL d   1      -1.923  -3.514  -0.482  0.00  0.00     0.062 A 
ATOM      6  C   UNL d   1      -2.271  -2.691  -1.582  0.00  0.00     0.057 A 
ATOM      7  C   UNL d   1      -3.614  -2.787  -2.005  0.00  0.00     0.033 A 
ATOM      8  C   UNL d   1      -4.560  -3.622  -1.385  0.00  0.00     0.020 A 
ATOM      9  C   UNL d   1      -4.187  -4.404  -0.297  0.00  0.00     0.041 A 
ATOM     10  C   UNL d   1      -2.868  -4.336   0.156  0.00  0.00     0.049 A 
BRANCH   6  11
ATOM     11  N   UNL d   1      -1.418  -1.782  -2.195  0.00  0.00    -0.379 N 
ATOM     12  C   UNL d   1      -1.577  -1.407  -3.604  0.00  0.00     0.123 C 
ATOM     13  C   UNL d   1      -1.889   0.088  -3.700  0.00  0.00     0.020 C 
ATOM     14  C   UNL d   1      -0.794   0.908  -3.020  0.00  0.00     0.003 C 
ATOM     15  C   UNL d   1      -0.574   0.437  -1.585  0.00  0.00     0.020 C 
ATOM     16  C   UNL d   1      -0.335  -1.073  -1.505  0.00  0.00     0.123 C 
ENDBRANCH   6  11
BRANCH   9  17
ATOM     17  C   UNL d   1      -5.126  -5.312   0.412  0.00  0.00     0.293 C 
ATOM     18  O   UNL d   1      -4.780  -6.025   1.341  0.00  0.00    -0.259 OA
BRANCH  17  19
ATOM     19  O   UNL d   1      -6.367  -5.247  -0.129  0.00  0.00    -0.318 OA
BRANCH  19  20
ATOM     20  C   UNL d   1      -7.312  -6.201   0.383  0.00  0.00     0.174 C 
ATOM     21  C   UNL d   1      -7.284  -7.438  -0.494  0.00  0.00     0.034 C 
ENDBRANCH  19  20
ENDBRANCH  17  19
ENDBRANCH   9  17
ENDBRANCH   2   5
BRANCH   1  22
ATOM     22  C   UNL d   1       1.573  -4.190   0.643  0.00  0.00     0.093 A 
ATOM     23  C   UNL d   1       2.997  -4.368   0.422  0.00  0.00     0.085 A 
ATOM     24  N   UNL d   1       3.635  -4.405   1.604  0.00  0.00    -0.259 N 
ATOM     25  O   UNL d   1       2.709  -4.195   2.576  0.00  0.00    -0.241 OA
ATOM     26  HN  UNL d   1       4.632  -4.562   1.745  1.00  0.00     0.195 HD
ATOM     27  C   UNL d   1       1.480  -4.088   2.030  0.00  0.00     0.090 A 
ATOM     28  C   UNL d   1       0.401  -3.932   3.032  0.00  0.00     0.080 C 
BRANCH  23  29
ATOM     29  C   UNL d   1       3.800  -4.522  -0.805  0.00  0.00     0.015 A 
ATOM     30  C   UNL d   1       5.074  -3.927  -0.968  0.00  0.00     0.046 A 
ATOM     31 CL   UNL d   1       5.808  -2.871   0.198  0.00  0.00    -0.083 Cl
ATOM     32  C   UNL d   1       5.828  -4.143  -2.133  0.00  0.00     0.025 A 
ATOM     33  C   UNL d   1       5.325  -4.925  -3.167  0.00  0.00     0.002 A 
ATOM     34  C   UNL d   1       4.078  -5.521  -3.025  0.00  0.00     0.001 A 
ATOM     35  C   UNL d   1       3.341  -5.342  -1.848  0.00  0.00     0.015 A 
ENDBRANCH  23  29
ENDBRANCH   1  22
TORSDOF 7
