REMARK  5 active torsions:
REMARK  status: ('A' for Active; 'I' for Inactive)
REMARK    1  A    between atoms: S_3  and  C_1 
REMARK    2  A    between atoms: C_6  and  C_2 
REMARK    3  A    between atoms: N_9  and  S_3 
REMARK    4  A    between atoms: C_22  and  N_9 
REMARK    5  A    between atoms: C_23  and  C_22 
ROOT
ATOM      1  S   UNL d   1       2.892  -1.686  -0.092  0.00  0.00     0.262 S 
ATOM      2  O   UNL d   1       1.503  -1.304  -0.193  0.00  0.00    -0.200 OA
ATOM      3  O   UNL d   1       3.739  -1.266   1.001  0.00  0.00    -0.200 OA
ENDROOT
BRANCH   1   4
ATOM      4  C   UNL d   1       2.855  -3.393   0.081  0.00  0.00     0.129 A 
ATOM      5  C   UNL d   1       3.977  -4.260   0.124  0.00  0.00     0.157 A 
ATOM      6  N   UNL d   1       3.565  -5.541   0.272  0.00  0.00    -0.294 N 
ATOM      7  N   UNL d   1       2.225  -5.462   0.363  0.00  0.00    -0.306 N 
ATOM      8  HN  UNL d   1       4.142  -6.381   0.306  1.00  0.00     0.187 HD
ATOM      9  C   UNL d   1       1.745  -4.199   0.220  0.00  0.00     0.137 A 
ATOM     10  C   UNL d   1       1.456  -6.657   0.614  0.00  0.00     0.177 C 
BRANCH   5  11
ATOM     11  C   UNL d   1       5.437  -3.912   0.006  0.00  0.00     0.435 C 
ATOM     12  F   UNL d   1       5.654  -2.591  -0.237  0.00  0.00    -0.165 F 
ATOM     13  F   UNL d   1       6.148  -4.234   1.116  0.00  0.00    -0.165 F 
ATOM     14  F   UNL d   1       6.019  -4.559  -1.042  0.00  0.00    -0.165 F 
ENDBRANCH   5  11
ENDBRANCH   1   4
BRANCH   1  15
ATOM     15  N   UNL d   1       3.658  -1.322  -1.536  0.00  0.00    -0.311 N 
ATOM     16  H   UNL d   1       4.651  -1.573  -1.535  0.00  0.00     0.172 HD
BRANCH  15  17
ATOM     17  C   UNL d   1       2.917  -1.635  -2.761  0.00  0.00     0.170 C 
BRANCH  17  18
ATOM     18  C   UNL d   1       3.707  -1.268  -3.994  0.00  0.00    -0.037 A 
ATOM     19  C   UNL d   1       4.043  -2.250  -4.940  0.00  0.00     0.048 A 
ATOM     20  C   UNL d   1       4.776  -1.865  -6.043  0.00  0.00     0.105 A 
ATOM     21  O   UNL d   1       5.188  -2.687  -7.045  0.00  0.00    -0.323 OA
ATOM     22  C   UNL d   1       5.176  -0.564  -6.233  0.00  0.00     0.105 A 
ATOM     23  C   UNL d   1       5.870  -1.747  -7.902  0.00  0.00     0.352 A 
ATOM     24  O   UNL d   1       5.897  -0.405  -7.375  0.00  0.00    -0.323 OA
ATOM     25  C   UNL d   1       4.856   0.430  -5.336  0.00  0.00     0.040 A 
ATOM     26  C   UNL d   1       4.110   0.072  -4.208  0.00  0.00     0.012 A 
ENDBRANCH  17  18
ENDBRANCH  15  17
ENDBRANCH   1  15
TORSDOF 5
