REMARK  3 active torsions:
REMARK  status: ('A' for Active; 'I' for Inactive)
REMARK    1  A    between atoms: C_6  and  C_1 
REMARK    2  A    between atoms: C_16  and  C_9 
REMARK    3  A    between atoms: C_19  and  C_14 
ROOT
ATOM      1  C   UNL d   1      -2.341   0.027   0.022  0.00  0.00     0.067 A 
ATOM      2  N   UNL d   1      -1.582  -1.117   0.114  0.00  0.00    -0.340 N 
ATOM      3  HN  UNL d   1      -1.917  -2.077   0.204  1.00  0.00     0.167 HD
ATOM      4  C   UNL d   1      -0.331  -0.709   0.062  0.00  0.00     0.112 A 
ATOM      5  N   UNL d   1      -0.254   0.673  -0.033  0.00  0.00    -0.317 N 
ATOM      6  C   UNL d   1      -1.539   1.144  -0.072  0.00  0.00     0.129 A 
ATOM      7  C   UNL d   1       0.900  -1.427   0.091  0.00  0.00     0.056 A 
ATOM      8  C   UNL d   1       0.946   1.377  -0.072  0.00  0.00     0.098 A 
ATOM      9  C   UNL d   1       2.080  -0.766   0.040  0.00  0.00    -0.054 A 
ATOM     10  C   UNL d   1       2.105   0.698  -0.027  0.00  0.00     0.025 A 
ENDROOT
BRANCH   1  11
ATOM     11  C   UNL d   1      -3.833   0.024   0.017  0.00  0.00     0.034 A 
ATOM     12  S   UNL d   1      -4.803   1.412  -0.175  0.00  0.00    -0.086 SA
ATOM     13  C   UNL d   1      -6.262   0.511  -0.077  0.00  0.00     0.032 A 
ATOM     14  C   UNL d   1      -5.990  -0.836   0.094  0.00  0.00     0.023 A 
ATOM     15  C   UNL d   1      -4.593  -1.115   0.161  0.00  0.00     0.023 A 
BRANCH  13  16
ATOM     16  C   UNL d   1      -7.569   1.170  -0.199  0.00  0.00     0.049 A 
ATOM     17  N   UNL d   1      -8.531   0.400  -0.765  0.00  0.00    -0.365 N 
ATOM     18  C   UNL d   1      -9.760   0.946  -0.903  0.00  0.00     0.088 A 
ATOM     19  HN  UNL d   1      -8.336  -0.552  -1.075  1.00  0.00     0.165 HD
ATOM     20  C   UNL d   1     -10.089   2.224  -0.485  0.00  0.00     0.017 A 
ATOM     21  C   UNL d   1      -9.097   2.995   0.106  0.00  0.00     0.004 A 
ATOM     22  C   UNL d   1      -7.817   2.464   0.250  0.00  0.00     0.031 A 
ENDBRANCH  13  16
ENDBRANCH   1  11
BRANCH   9  23
ATOM     23  C   UNL d   1       3.405  -1.490   0.089  0.00  0.00     0.034 C 
ATOM     24  C   UNL d   1       4.248  -1.306  -1.167  0.00  0.00     0.010 C 
ENDBRANCH   9  23
TORSDOF 3
