REMARK  2 active torsions:
REMARK  status: ('A' for Active; 'I' for Inactive)
REMARK       I    between atoms: N_2  and  C_1 
REMARK    1  A    between atoms: C_7  and  C_1 
REMARK    2  A    between atoms: C_5  and  N_2 
ROOT
ATOM      1  N   UNL d   1       1.334  -2.752  -0.227  0.00  0.00    -0.342 N 
ATOM      2  HN  UNL d   1       0.694  -1.971  -0.377  1.00  0.00     0.167 HD
ATOM      3  C   UNL d   1       2.650  -2.525  -0.082  0.00  0.00     0.108 A 
ATOM      4  C   UNL d   1       0.864  -4.006  -0.174  0.00  0.00     0.043 A 
ATOM      5  C   UNL d   1       1.704  -5.116   0.031  0.00  0.00    -0.009 A 
ATOM      6  C   UNL d   1       3.078  -4.873   0.143  0.00  0.00     0.017 A 
ATOM      7  C   UNL d   1       3.557  -3.564   0.083  0.00  0.00     0.049 A 
ATOM      8  C   UNL d   1      -0.500  -4.224  -0.306  0.00  0.00     0.030 A 
ATOM      9  C   UNL d   1       1.155  -6.408   0.129  0.00  0.00     0.013 A 
ATOM     10  C   UNL d   1      -1.051  -5.504  -0.209  0.00  0.00     0.002 A 
ATOM     11  C   UNL d   1      -0.223  -6.598   0.018  0.00  0.00     0.001 A 
ENDROOT
BRANCH   3  12
ATOM     12  N   UNL d   1       3.145  -1.209  -0.041  0.00  0.00    -0.309 N 
ATOM     13  C   UNL d   1       2.357  -0.077  -0.130  0.00  0.00     0.257 C 
ATOM     14  O   UNL d   1       1.157  -0.040  -0.389  0.00  0.00    -0.267 OA
ATOM     15  H   UNL d   1       4.140  -1.106   0.069  0.00  0.00     0.170 HD
BRANCH  13  16
ATOM     16  C   UNL d   1       3.043   1.233   0.101  0.00  0.00     0.032 A 
ATOM     17  C   UNL d   1       2.425   2.386  -0.405  0.00  0.00     0.017 A 
ATOM     18  C   UNL d   1       2.965   3.650  -0.169  0.00  0.00     0.007 A 
ATOM     19  C   UNL d   1       4.133   3.788   0.588  0.00  0.00    -0.062 A 
ATOM     20  C   UNL d   1       4.764   2.640   1.080  0.00  0.00     0.007 A 
ATOM     21  C   UNL d   1       4.691   5.157   0.849  0.00  0.00     0.048 C 
ATOM     22  C   UNL d   1       4.220   1.369   0.849  0.00  0.00     0.017 A 
ENDBRANCH  13  16
ENDBRANCH   3  12
TORSDOF 2
