REMARK  1 active torsions:
REMARK  status: ('A' for Active; 'I' for Inactive)
REMARK    1  A    between atoms: O_9  and  C_1 
ROOT
ATOM      1  C   UNL d   1       0.776   1.409  -0.338  0.00  0.00     0.176 C 
ATOM      2  C   UNL d   1       1.265   1.879  -1.656  0.00  0.00     0.100 C 
ATOM      3  N   UNL d   1      -1.299  -0.018   0.005  0.00  0.00     0.092 N 
ATOM      4  N   UNL d   1       1.634   2.264  -2.687  0.00  0.00    -0.194 NA
ATOM      5  C   UNL d   1      -0.781   1.344  -0.316  0.00  0.00     0.326 C 
ATOM      6  C   UNL d   1       1.306  -0.013  -0.009  0.00  0.00     0.040 C 
ATOM      7  C   UNL d   1       0.744  -1.023  -1.030  0.00  0.00     0.039 C 
ATOM      8  C   UNL d   1       0.753  -0.442   1.368  0.00  0.00     0.039 C 
ATOM      9  C   UNL d   1      -0.794  -0.967  -1.012  0.00  0.00     0.273 C 
ATOM     10  C   UNL d   1      -0.783  -0.422   1.333  0.00  0.00     0.273 C 
ENDROOT
BRANCH   1  11
ATOM     11  O   UNL d   1       1.236   2.300   0.696  0.00  0.00    -0.373 OA
ATOM     12  H   UNL d   1       0.957   3.201   0.451  0.00  0.00     0.212 HD
ENDBRANCH   1  11
TORSDOF 1
