REMARK  6 active torsions:
REMARK  status: ('A' for Active; 'I' for Inactive)
REMARK    1  A    between atoms: O_8  and  C_1 
REMARK    2  A    between atoms: C_12  and  C_1 
REMARK    3  A    between atoms: N_2  and  O_8 
REMARK    4  A    between atoms: C_4  and  C_5 
REMARK    5  A    between atoms: C_6  and  C_4 
REMARK    6  A    between atoms: N_14  and  C_5 
ROOT
ATOM      1  N   UNL d   1       1.069  -2.295  -0.194  0.00  0.00    -0.250 N 
ATOM      2  HN  UNL d   1       0.584  -1.413  -0.361  1.00  0.00     0.196 HD
ATOM      3  C   UNL d   1       0.466  -3.442  -0.132  0.00  0.00     0.080 C 
ENDROOT
BRANCH   1   4
ATOM      4  O   UNL d   1       2.473  -2.393  -0.006  0.00  0.00    -0.194 OA
BRANCH   4   5
ATOM      5  C   UNL d   1       3.007  -1.135  -0.045  0.00  0.00     0.315 C 
ATOM      6  O   UNL d   1       2.406  -0.096  -0.301  0.00  0.00    -0.257 OA
BRANCH   5   7
ATOM      7  C   UNL d   1       4.464  -1.111   0.278  0.00  0.00     0.041 A 
ATOM      8  C   UNL d   1       5.096   0.145   0.304  0.00  0.00     0.017 A 
ATOM      9  C   UNL d   1       6.452   0.264   0.613  0.00  0.00     0.001 A 
ATOM     10  C   UNL d   1       7.195  -0.877   0.899  0.00  0.00     0.000 A 
ATOM     11  C   UNL d   1       6.583  -2.131   0.874  0.00  0.00     0.001 A 
ATOM     12  C   UNL d   1       5.221  -2.253   0.565  0.00  0.00     0.017 A 
ENDBRANCH   5   7
ENDBRANCH   4   5
ENDBRANCH   1   4
BRANCH   3  13
ATOM     13  C   UNL d   1      -1.067  -3.429  -0.228  0.00  0.00     0.117 C 
BRANCH  13  14
ATOM     14  C   UNL d   1      -1.561  -4.210  -1.414  0.00  0.00    -0.011 A 
ATOM     15  S   UNL d   1      -1.663  -5.924  -1.354  0.00  0.00    -0.106 SA
ATOM     16  C   UNL d   1      -2.266  -6.014  -2.950  0.00  0.00     0.050 A 
ATOM     17  C   UNL d   1      -2.437  -4.767  -3.507  0.00  0.00     0.008 A 
ATOM     18  C   UNL d   1      -2.040  -3.726  -2.617  0.00  0.00     0.015 A 
ENDBRANCH  13  14
ENDBRANCH   3  13
BRANCH   3  19
ATOM     19  N   UNL d   1       1.102  -4.649   0.050  0.00  0.00    -0.290 NA
ATOM     20  H   UNL d   1       0.613  -5.453  -0.329  0.00  0.00     0.125 HD
ATOM     21  H   UNL d   1       2.081  -4.622  -0.207  0.00  0.00     0.125 HD
ENDBRANCH   3  19
TORSDOF 6
