REMARK  8 active torsions:
REMARK  status: ('A' for Active; 'I' for Inactive)
REMARK    1  A    between atoms: C_3  and  C_1 
REMARK    2  A    between atoms: C_2  and  C_12 
REMARK    3  A    between atoms: O_13  and  C_3 
REMARK    4  A    between atoms: C_5  and  C_10 
REMARK    5  A    between atoms: N_6  and  O_13 
REMARK    6  A    between atoms: C_22  and  C_8 
REMARK    7  A    between atoms: C_14  and  C_9 
REMARK    8  A    between atoms: N_21  and  C_9 
ROOT
ATOM      1  N   UNL d   1       2.700  -2.067  -1.058  0.00  0.00    -0.246 N 
ATOM      2  HN  UNL d   1       2.769  -1.301  -1.727  1.00  0.00     0.196 HD
ATOM      3  C   UNL d   1       3.579  -3.016  -0.944  0.00  0.00     0.109 C 
ENDROOT
BRANCH   1   4
ATOM      4  O   UNL d   1       1.631  -2.226  -0.141  0.00  0.00    -0.192 OA
BRANCH   4   5
ATOM      5  C   UNL d   1       0.908  -1.058  -0.090  0.00  0.00     0.339 C 
ATOM      6  O   UNL d   1       1.396   0.071  -0.123  0.00  0.00    -0.255 OA
BRANCH   5   7
ATOM      7  C   UNL d   1      -0.512  -1.326  -0.011  0.00  0.00     0.153 A 
ATOM      8  O   UNL d   1      -1.013  -2.611  -0.007  0.00  0.00    -0.295 OA
ATOM      9  C   UNL d   1      -2.374  -2.504  -0.009  0.00  0.00     0.130 A 
ATOM     10  C   UNL d   1      -2.760  -1.186  -0.009  0.00  0.00     0.050 A 
ATOM     11  C   UNL d   1      -1.567  -0.428   0.004  0.00  0.00     0.047 A 
BRANCH   9  12
ATOM     12  C   UNL d   1      -3.163  -3.687  -0.029  0.00  0.00    -0.036 C 
ATOM     13  C   UNL d   1      -3.917  -4.622  -0.018  0.00  0.00    -0.059 C 
BRANCH  13  14
ATOM     14  C   UNL d   1      -4.863  -5.697   0.033  0.00  0.00     0.018 A 
ATOM     15  C   UNL d   1      -6.234  -5.438  -0.031  0.00  0.00     0.020 A 
ATOM     16  C   UNL d   1      -7.151  -6.488   0.068  0.00  0.00     0.001 A 
ATOM     17  C   UNL d   1      -6.699  -7.798   0.227  0.00  0.00     0.000 A 
ATOM     18  C   UNL d   1      -5.330  -8.058   0.279  0.00  0.00     0.001 A 
ATOM     19  C   UNL d   1      -4.412  -7.009   0.181  0.00  0.00     0.020 A 
ENDBRANCH  13  14
ENDBRANCH   9  12
ENDBRANCH   5   7
ENDBRANCH   4   5
ENDBRANCH   1   4
BRANCH   3  20
ATOM     20  C   UNL d   1       4.641  -3.108  -1.997  0.00  0.00     0.004 A 
ATOM     21  C   UNL d   1       5.084  -1.959  -2.662  0.00  0.00     0.030 A 
ATOM     22  C   UNL d   1       6.079  -2.050  -3.650  0.00  0.00     0.048 A 
ATOM     23  C   UNL d   1       6.593  -3.314  -3.986  0.00  0.00     0.016 A 
ATOM     24  C   UNL d   1       6.136  -4.462  -3.340  0.00  0.00     0.002 A 
ATOM     25  C   UNL d   1       5.166  -4.360  -2.342  0.00  0.00     0.015 A 
BRANCH  22  26
ATOM     26  C   UNL d   1       6.615  -0.817  -4.335  0.00  0.00     0.417 C 
ATOM     27  F   UNL d   1       6.051   0.343  -3.902  0.00  0.00    -0.166 F 
ATOM     28  F   UNL d   1       7.957  -0.669  -4.145  0.00  0.00    -0.166 F 
ATOM     29  F   UNL d   1       6.433  -0.844  -5.684  0.00  0.00    -0.166 F 
ENDBRANCH  22  26
ENDBRANCH   3  20
BRANCH   3  30
ATOM     30  N   UNL d   1       3.598  -3.931   0.083  0.00  0.00    -0.286 NA
ATOM     31  H   UNL d   1       3.064  -3.616   0.887  0.00  0.00     0.125 HD
ATOM     32  H   UNL d   1       4.520  -4.261   0.350  0.00  0.00     0.125 HD
ENDBRANCH   3  30
TORSDOF 8
