REMARK  5 active torsions:
REMARK  status: ('A' for Active; 'I' for Inactive)
REMARK    1  A    between atoms: C_4  and  C_3 
REMARK    2  A    between atoms: S_9  and  C_5 
REMARK    3  A    between atoms: C_15  and  S_9 
REMARK    4  A    between atoms: C_10  and  C_15 
REMARK    5  A    between atoms: O_16  and  C_10 
ROOT
ATOM      1  N   UNL d   1      -1.127   1.327   0.068  0.00  0.00    -0.352 N 
ATOM      2  HN  UNL d   1      -1.146   2.347   0.080  1.00  0.00     0.166 HD
ATOM      3  C   UNL d   1      -2.286   0.619   0.056  0.00  0.00     0.118 A 
ATOM      4  C   UNL d   1      -1.071  -1.462   0.054  0.00  0.00     0.015 A 
ATOM      5  C   UNL d   1      -2.287  -0.768   0.048  0.00  0.00     0.053 A 
ATOM      6  C   UNL d   1       0.042   0.673   0.061  0.00  0.00     0.044 A 
ATOM      7  C   UNL d   1       0.147  -0.736   0.048  0.00  0.00     0.007 A 
ATOM      8  C   UNL d   1       1.447  -1.305   0.003  0.00  0.00     0.015 A 
ATOM      9  C   UNL d   1       1.194   1.446   0.043  0.00  0.00     0.030 A 
ATOM     10  C   UNL d   1       2.592  -0.505   0.002  0.00  0.00     0.001 A 
ATOM     11  C   UNL d   1       2.466   0.875   0.020  0.00  0.00     0.002 A 
ENDROOT
BRANCH   4  12
ATOM     12  S   UNL d   1      -1.229  -3.249  -0.091  0.00  0.00    -0.119 SA
BRANCH  12  13
ATOM     13  C   UNL d   1      -0.490  -3.871   1.452  0.00  0.00     0.190 C 
BRANCH  13  14
ATOM     14  C   UNL d   1      -1.121  -3.364   2.729  0.00  0.00     0.268 C 
ATOM     15  O   UNL d   1      -2.046  -2.574   2.840  0.00  0.00    -0.264 OA
BRANCH  14  16
ATOM     16  O   UNL d   1      -0.470  -3.953   3.781  0.00  0.00    -0.326 OA
ATOM     17  C   UNL d   1      -0.932  -3.555   5.074  0.00  0.00     0.213 C 
ENDBRANCH  14  16
ENDBRANCH  13  14
ENDBRANCH  12  13
ENDBRANCH   4  12
BRANCH   3  18
ATOM     18  C   UNL d   1      -3.614   1.360   0.021  0.00  0.00     0.432 C 
ATOM     19  F   UNL d   1      -3.500   2.719   0.018  0.00  0.00    -0.165 F 
ATOM     20  F   UNL d   1      -4.352   1.051  -1.086  0.00  0.00    -0.165 F 
ATOM     21  F   UNL d   1      -4.415   1.059   1.087  0.00  0.00    -0.165 F 
ENDBRANCH   3  18
TORSDOF 5
