REMARK  3 active torsions:
REMARK  status: ('A' for Active; 'I' for Inactive)
REMARK    1  A    between atoms: C_3  and  C_13 
REMARK    2  A    between atoms: C_4  and  C_3 
REMARK    3  A    between atoms: C_13  and  S_6 
ROOT
ATOM      1  C   UNL d   1       5.754  -1.160  -4.041  0.00  0.00     0.134 C 
ATOM      2  N   UNL d   1       5.165  -2.105  -4.365  0.00  0.00    -0.184 NA
ATOM      3  S   UNL d   1       6.622   0.207  -3.560  0.00  0.00    -0.043 SA
ENDROOT
BRANCH   3   4
ATOM      4  C   UNL d   1       5.277   1.120  -2.764  0.00  0.00     0.174 C 
BRANCH   4   5
ATOM      5  C   UNL d   1       4.727   0.390  -1.557  0.00  0.00     0.169 C 
ATOM      6  O   UNL d   1       3.554   0.020  -1.523  0.00  0.00    -0.291 OA
BRANCH   5   7
ATOM      7  C   UNL d   1       5.598   0.123  -0.376  0.00  0.00     0.011 A 
ATOM      8  C   UNL d   1       6.701   0.927  -0.062  0.00  0.00     0.016 A 
ATOM      9  C   UNL d   1       7.462   0.653   1.079  0.00  0.00     0.020 A 
ATOM     10  C   UNL d   1       7.123  -0.421   1.902  0.00  0.00     0.011 A 
ATOM     11  C   UNL d   1       6.035  -1.233   1.591  0.00  0.00     0.020 A 
ATOM     12 BR   UNL d   1       8.135  -0.762   3.461  0.00  0.00    -0.051 Br
ATOM     13  C   UNL d   1       5.271  -0.959   0.454  0.00  0.00     0.016 A 
ENDBRANCH   5   7
ENDBRANCH   4   5
ENDBRANCH   3   4
TORSDOF 3
