REMARK  6 active torsions:
REMARK  status: ('A' for Active; 'I' for Inactive)
REMARK    1  A    between atoms: C_3  and  C_1 
REMARK    2  A    between atoms: C_2  and  C_8 
REMARK    3  A    between atoms: O_19  and  C_3 
REMARK    4  A    between atoms: N_4  and  C_9 
REMARK    5  A    between atoms: O_18  and  C_7 
REMARK    6  A    between atoms: C_22  and  O_19 
ROOT
ATOM      1  N   UNL d   1       1.226   2.458  -0.310  0.00  0.00    -0.364 N 
ATOM      2  HN  UNL d   1       0.936   3.210   0.315  1.00  0.00     0.165 HD
ATOM      3  C   UNL d   1       2.176   2.665  -1.164  0.00  0.00     0.102 C 
ENDROOT
BRANCH   1   4
ATOM      4  C   UNL d   1       0.586   1.203  -0.236  0.00  0.00     0.048 A 
ATOM      5  C   UNL d   1       1.171  -0.073  -0.196  0.00  0.00     0.066 A 
ATOM      6  C   UNL d   1       0.361  -1.228  -0.117  0.00  0.00     0.026 A 
ATOM      7  C   UNL d   1      -1.031  -1.138  -0.050  0.00  0.00    -0.061 A 
ATOM      8  C   UNL d   1      -1.616   0.126  -0.065  0.00  0.00     0.009 A 
ATOM      9  C   UNL d   1      -1.879  -2.371   0.041  0.00  0.00     0.048 C 
ATOM     10  C   UNL d   1      -0.817   1.271  -0.155  0.00  0.00     0.031 A 
BRANCH   5  11
ATOM     11  C   UNL d   1       2.622  -0.352  -0.182  0.00  0.00     0.295 C 
ATOM     12  O   UNL d   1       3.113  -1.328  -0.725  0.00  0.00    -0.259 OA
BRANCH  11  13
ATOM     13  O   UNL d   1       3.245   0.484   0.681  0.00  0.00    -0.318 OA
BRANCH  13  14
ATOM     14  C   UNL d   1       4.487   0.002   1.210  0.00  0.00     0.174 C 
ATOM     15  C   UNL d   1       4.187  -0.641   2.552  0.00  0.00     0.034 C 
ENDBRANCH  13  14
ENDBRANCH  11  13
ENDBRANCH   5  11
ENDBRANCH   1   4
BRANCH   3  16
ATOM     16  C   UNL d   1       2.757   4.018  -1.335  0.00  0.00     0.016 A 
ATOM     17  C   UNL d   1       3.917   4.202  -2.092  0.00  0.00     0.099 A 
ATOM     18  C   UNL d   1       4.408   5.495  -2.305  0.00  0.00     0.069 A 
ATOM     19 CL   UNL d   1       5.838   5.741  -3.242  0.00  0.00    -0.081 Cl
ATOM     20  C   UNL d   1       3.751   6.604  -1.773  0.00  0.00     0.050 A 
ATOM     21  C   UNL d   1       2.599   6.413  -1.012  0.00  0.00     0.036 A 
ATOM     22  C   UNL d   1       2.103   5.129  -0.784  0.00  0.00     0.039 A 
ATOM     23 CL   UNL d   1       1.768   7.777  -0.374  0.00  0.00    -0.084 Cl
BRANCH  17  24
ATOM     24  O   UNL d   1       4.564   3.116  -2.619  0.00  0.00    -0.358 OA
ATOM     25  H   UNL d   1       5.362   3.437  -3.082  0.00  0.00     0.217 HD
ENDBRANCH  17  24
ENDBRANCH   3  16
TORSDOF 6
