REMARK  6 active torsions:
REMARK  status: ('A' for Active; 'I' for Inactive)
REMARK    1  A    between atoms: C_6  and  C_1 
REMARK    2  A    between atoms: C_5  and  C_2 
REMARK       I    between atoms: N_10  and  C_5 
REMARK    3  A    between atoms: C_12  and  C_9 
REMARK    4  A    between atoms: C_11  and  N_10 
REMARK    5  A    between atoms: O_19  and  C_12 
REMARK    6  A    between atoms: C_25  and  O_19 
ROOT
ATOM      1  C   UNL d   1      -5.880  -1.849  -0.856  0.00  0.00     0.086 A 
ATOM      2  C   UNL d   1      -4.832  -2.511  -0.133  0.00  0.00     0.093 A 
ATOM      3  N   UNL d   1      -5.878  -0.534  -0.572  0.00  0.00    -0.259 N 
ATOM      4  HN  UNL d   1      -6.466   0.180  -1.001  1.00  0.00     0.195 HD
ATOM      5  O   UNL d   1      -4.937  -0.338   0.400  0.00  0.00    -0.241 OA
ATOM      6  C   UNL d   1      -4.324  -1.510   0.683  0.00  0.00     0.090 A 
ATOM      7  C   UNL d   1      -3.311  -1.420   1.756  0.00  0.00     0.080 C 
ENDROOT
BRANCH   2   8
ATOM      8  C   UNL d   1      -4.383  -3.899  -0.187  0.00  0.00     0.260 C 
ATOM      9  N   UNL d   1      -3.010  -4.014  -0.026  0.00  0.00    -0.327 N 
ATOM     10  H   UNL d   1      -2.517  -3.131  -0.016  0.00  0.00     0.169 HD
ATOM     11  O   UNL d   1      -5.161  -4.826  -0.384  0.00  0.00    -0.267 OA
BRANCH   9  12
ATOM     12  C   UNL d   1      -2.194  -5.137   0.034  0.00  0.00     0.014 C 
ATOM     13  C   UNL d   1      -0.884  -4.903   0.235  0.00  0.00     0.106 C 
ATOM     14  C   UNL d   1      -2.806  -6.503  -0.091  0.00  0.00     0.068 C 
BRANCH  13  15
ATOM     15  C   UNL d   1       0.257  -5.836   0.294  0.00  0.00     0.284 C 
ATOM     16  O   UNL d   1       1.101  -5.762   1.172  0.00  0.00    -0.260 OA
BRANCH  15  17
ATOM     17  O   UNL d   1       0.377  -6.483  -0.891  0.00  0.00    -0.318 OA
BRANCH  17  18
ATOM     18  C   UNL d   1       1.734  -6.726  -1.297  0.00  0.00     0.174 C 
ATOM     19  C   UNL d   1       2.320  -7.992  -0.702  0.00  0.00     0.034 C 
ENDBRANCH  17  18
ENDBRANCH  15  17
ENDBRANCH  13  15
ENDBRANCH   9  12
ENDBRANCH   2   8
BRANCH   1  20
ATOM     20  C   UNL d   1      -6.849  -2.331  -1.842  0.00  0.00     0.037 A 
ATOM     21  C   UNL d   1      -8.229  -2.102  -1.644  0.00  0.00     0.048 A 
ATOM     22 CL   UNL d   1      -8.879  -1.490  -0.154  0.00  0.00    -0.083 Cl
ATOM     23  C   UNL d   1      -9.161  -2.367  -2.656  0.00  0.00     0.025 A 
ATOM     24  C   UNL d   1      -8.742  -2.896  -3.871  0.00  0.00     0.003 A 
ATOM     25  C   UNL d   1      -7.391  -3.172  -4.069  0.00  0.00     0.025 A 
ATOM     26  C   UNL d   1      -6.447  -2.885  -3.071  0.00  0.00     0.048 A 
ATOM     27 CL   UNL d   1      -4.787  -3.174  -3.474  0.00  0.00    -0.083 Cl
ENDBRANCH   1  20
TORSDOF 6
