REMARK  3 active torsions:
REMARK  status: ('A' for Active; 'I' for Inactive)
REMARK    1  A    between atoms: C_13  and  C_6 
REMARK    2  A    between atoms: C_14  and  C_8 
REMARK    3  A    between atoms: O_20  and  C_17 
ROOT
ATOM      1  C   UNL d   1      -0.091  -0.762  -0.033  0.00  0.00     0.104 A 
ATOM      2  N   UNL d   1       1.049  -1.469  -0.052  0.00  0.00    -0.333 N 
ATOM      3  HN  UNL d   1       1.090  -2.487  -0.093  1.00  0.00     0.168 HD
ATOM      4  C   UNL d   1      -0.184   0.613   0.027  0.00  0.00     0.083 A 
ATOM      5  S   UNL d   1      -1.605  -1.512  -0.091  0.00  0.00    -0.069 SA
ATOM      6  C   UNL d   1      -2.439  -0.004  -0.000  0.00  0.00     0.019 A 
ATOM      7  C   UNL d   1      -1.538   1.051   0.036  0.00  0.00     0.053 A 
ATOM      8  C   UNL d   1       2.131  -0.670  -0.013  0.00  0.00     0.131 A 
ATOM      9  N   UNL d   1       0.951   1.358   0.068  0.00  0.00    -0.296 N 
ATOM     10  HN  UNL d   1       0.922   2.376   0.114  1.00  0.00     0.187 HD
ATOM     11  N   UNL d   1       2.104   0.691   0.046  0.00  0.00    -0.284 N 
ATOM     12  HN  UNL d   1       2.983   1.208   0.073  1.00  0.00     0.188 HD
ENDROOT
BRANCH   6  13
ATOM     13  C   UNL d   1      -3.912   0.019  -0.003  0.00  0.00    -0.019 A 
ATOM     14  C   UNL d   1      -4.662  -1.014   0.580  0.00  0.00     0.015 A 
ATOM     15  C   UNL d   1      -6.060  -1.008   0.545  0.00  0.00     0.037 A 
ATOM     16  C   UNL d   1      -6.737   0.042  -0.066  0.00  0.00     0.068 A 
ATOM     17  C   UNL d   1      -6.006   1.097  -0.615  0.00  0.00     0.037 A 
ATOM     18  C   UNL d   1      -4.607   1.084  -0.592  0.00  0.00     0.015 A 
BRANCH  16  19
ATOM     19  O   UNL d   1      -8.096   0.162  -0.142  0.00  0.00    -0.356 OA
ATOM     20  C   UNL d   1      -8.817  -1.065  -0.194  0.00  0.00     0.210 C 
ENDBRANCH  16  19
ENDBRANCH   6  13
BRANCH   8  21
ATOM     21  C   UNL d   1       3.450  -1.336  -0.059  0.00  0.00     0.009 A 
ATOM     22  C   UNL d   1       3.553  -2.742  -0.139  0.00  0.00     0.015 A 
ATOM     23  C   UNL d   1       4.793  -3.383  -0.200  0.00  0.00     0.001 A 
ATOM     24  C   UNL d   1       5.963  -2.633  -0.179  0.00  0.00     0.000 A 
ATOM     25  C   UNL d   1       5.894  -1.246  -0.094  0.00  0.00     0.001 A 
ATOM     26  C   UNL d   1       4.652  -0.605  -0.034  0.00  0.00     0.015 A 
ENDBRANCH   8  21
TORSDOF 3
