REMARK  4 active torsions:
REMARK  status: ('A' for Active; 'I' for Inactive)
REMARK    1  A    between atoms: S_3  and  N_1 
REMARK    2  A    between atoms: C_16  and  C_2 
REMARK    3  A    between atoms: C_10  and  S_3 
REMARK    4  A    between atoms: C_9  and  C_12 
ROOT
ATOM      1  N   UNL d   1      -1.586   1.549  -0.055  0.00  0.00    -0.273 N 
ATOM      2  C   UNL d   1      -0.967   0.560  -0.942  0.00  0.00     0.162 C 
ATOM      3  N   UNL d   1      -1.615  -0.709  -0.548  0.00  0.00    -0.211 NA
ATOM      4  C   UNL d   1      -0.705  -1.764  -0.570  0.00  0.00     0.236 C 
ATOM      5  C   UNL d   1       0.477   0.222  -0.598  0.00  0.00     0.006 A 
ATOM      6  C   UNL d   1       0.629  -1.165  -0.525  0.00  0.00     0.037 A 
ATOM      7  C   UNL d   1      -2.530   0.926   0.884  0.00  0.00     0.153 C 
ATOM      8  C   UNL d   1      -2.325  -0.566   0.706  0.00  0.00     0.122 C 
ATOM      9  O   UNL d   1      -0.942  -2.946  -0.404  0.00  0.00    -0.274 OA
ATOM     10  C   UNL d   1       1.554   1.032  -0.264  0.00  0.00     0.012 A 
ATOM     11  C   UNL d   1       1.807  -1.790  -0.153  0.00  0.00     0.017 A 
ATOM     12  C   UNL d   1       2.755   0.426   0.133  0.00  0.00     0.001 A 
ATOM     13  C   UNL d   1       2.884  -0.973   0.179  0.00  0.00     0.001 A 
ENDROOT
BRANCH   1  14
ATOM     14  S   UNL d   1      -1.493   3.191  -0.215  0.00  0.00     0.263 S 
ATOM     15  O   UNL d   1      -1.524   3.724   1.136  0.00  0.00    -0.200 OA
ATOM     16  O   UNL d   1      -0.421   3.550  -1.111  0.00  0.00    -0.200 OA
BRANCH  14  17
ATOM     17  C   UNL d   1      -3.013   3.761  -0.959  0.00  0.00     0.080 A 
ATOM     18  C   UNL d   1      -3.268   5.140  -0.905  0.00  0.00     0.041 A 
ATOM     19  C   UNL d   1      -4.489   5.660  -1.365  0.00  0.00     0.049 A 
ATOM     20  C   UNL d   1      -5.450   4.774  -1.877  0.00  0.00     0.016 A 
ATOM     21  C   UNL d   1      -5.193   3.405  -1.937  0.00  0.00     0.002 A 
ATOM     22  C   UNL d   1      -3.976   2.898  -1.478  0.00  0.00     0.025 A 
BRANCH  19  23
ATOM     23  C   UNL d   1      -4.795   7.136  -1.286  0.00  0.00     0.417 C 
ATOM     24  F   UNL d   1      -3.733   7.893  -0.895  0.00  0.00    -0.166 F 
ATOM     25  F   UNL d   1      -5.201   7.650  -2.480  0.00  0.00    -0.166 F 
ATOM     26  F   UNL d   1      -5.794   7.409  -0.403  0.00  0.00    -0.166 F 
ENDBRANCH  19  23
ENDBRANCH  14  17
ENDBRANCH   1  14
BRANCH   2  27
ATOM     27  C   UNL d   1      -1.205   0.773  -2.457  0.00  0.00    -0.009 A 
ATOM     28  C   UNL d   1      -0.300   1.494  -3.259  0.00  0.00     0.011 A 
ATOM     29  C   UNL d   1      -0.535   1.703  -4.623  0.00  0.00     0.001 A 
ATOM     30  C   UNL d   1      -1.681   1.192  -5.223  0.00  0.00     0.000 A 
ATOM     31  C   UNL d   1      -2.588   0.465  -4.463  0.00  0.00     0.001 A 
ATOM     32  C   UNL d   1      -2.350   0.254  -3.100  0.00  0.00     0.011 A 
ENDBRANCH   2  27
TORSDOF 4
