REMARK  5 active torsions:
REMARK  status: ('A' for Active; 'I' for Inactive)
REMARK       I    between atoms: N_2  and  C_1 
REMARK       I    between atoms: N_3  and  C_1 
REMARK    1  A    between atoms: C_12  and  N_2 
REMARK    2  A    between atoms: C_16  and  N_2 
REMARK    3  A    between atoms: C_9  and  N_3 
REMARK    4  A    between atoms: C_7  and  C_8 
REMARK    5  A    between atoms: C_13  and  C_16 
ROOT
ATOM      1  N   UNL d   1       3.255  -4.848   1.513  0.00  0.00    -0.197 NA
ATOM      2  C   UNL d   1       2.752  -3.963   0.955  0.00  0.00     0.060 C 
ATOM      3  C   UNL d   1       2.136  -2.836   0.247  0.00  0.00     0.144 C 
ENDROOT
BRANCH   3   4
ATOM      4  C   UNL d   1       2.707  -1.512   0.768  0.00  0.00     0.142 C 
BRANCH   4   5
ATOM      5  N   UNL d   1       2.159  -0.322   0.072  0.00  0.00    -0.329 N 
ATOM      6  C   UNL d   1       0.840  -0.018   0.425  0.00  0.00     0.323 C 
ATOM      7  N   UNL d   1       0.322   1.158  -0.041  0.00  0.00    -0.309 N 
ATOM      8  O   UNL d   1       0.210  -0.817   1.113  0.00  0.00    -0.247 OA
ATOM      9  H   UNL d   1       0.844   1.681  -0.719  0.00  0.00     0.170 HD
BRANCH   7  10
ATOM     10  C   UNL d   1      -0.892   1.763   0.390  0.00  0.00     0.036 C 
ATOM     11  C   UNL d   1      -1.719   1.247   1.390  0.00  0.00     0.030 C 
ATOM     12  C   UNL d   1      -2.757   2.009   1.935  0.00  0.00     0.010 C 
ATOM     13  C   UNL d   1      -3.005   3.320   1.502  0.00  0.00    -0.051 C 
ATOM     14  C   UNL d   1      -2.278   3.764   0.386  0.00  0.00     0.010 C 
ATOM     15  C   UNL d   1      -1.233   3.005  -0.158  0.00  0.00     0.030 C 
BRANCH  13  16
ATOM     16  C   UNL d   1      -3.937   4.239   2.313  0.00  0.00    -0.024 C 
ATOM     17  C   UNL d   1      -4.016   5.675   1.748  0.00  0.00     0.019 C 
ATOM     18  C   UNL d   1      -5.372   3.682   2.385  0.00  0.00     0.019 C 
ATOM     19  C   UNL d   1      -3.384   4.355   3.756  0.00  0.00     0.019 C 
ENDBRANCH  13  16
ENDBRANCH   7  10
BRANCH   5  20
ATOM     20  C   UNL d   1       3.141   0.608  -0.552  0.00  0.00     0.080 C 
ATOM     21  C   UNL d   1       3.840   1.474   0.504  0.00  0.00     0.032 C 
ATOM     22  C   UNL d   1       4.173  -0.107  -1.437  0.00  0.00     0.032 C 
ENDBRANCH   5  20
ENDBRANCH   4   5
ENDBRANCH   3   4
TORSDOF 5
