REMARK  5 active torsions:
REMARK  status: ('A' for Active; 'I' for Inactive)
REMARK    1  A    between atoms: C_8  and  N_1 
REMARK    2  A    between atoms: C_10  and  C_2 
REMARK    3  A    between atoms: S_11  and  C_5 
REMARK    4  A    between atoms: O_19  and  C_14 
REMARK    5  A    between atoms: O_20  and  C_15 
ROOT
ATOM      1  N   UNL d   1      -0.263  -1.276  -0.035  0.00  0.00    -0.275 N 
ATOM      2  C   UNL d   1       1.001  -0.669  -0.025  0.00  0.00     0.139 A 
ATOM      3  N   UNL d   1       0.842   0.643  -0.001  0.00  0.00    -0.282 N 
ATOM      4  HN  UNL d   1       1.593   1.330   0.066  1.00  0.00     0.188 HD
ATOM      5  C   UNL d   1      -1.145  -0.208  -0.108  0.00  0.00     0.165 A 
ATOM      6  N   UNL d   1      -0.490   0.928  -0.080  0.00  0.00    -0.278 N 
ATOM      7  HN  UNL d   1      -0.904   1.860  -0.111  1.00  0.00     0.189 HD
ENDROOT
BRANCH   1   8
ATOM      8  C   UNL d   1      -0.552  -2.671   0.034  0.00  0.00     0.046 A 
ATOM      9  C   UNL d   1       0.200  -3.497   0.889  0.00  0.00     0.066 A 
ATOM     10  C   UNL d   1      -0.015  -4.876   0.905  0.00  0.00     0.070 A 
ATOM     11  C   UNL d   1      -1.018  -5.421   0.101  0.00  0.00     0.037 A 
ATOM     12  C   UNL d   1      -1.781  -4.606  -0.734  0.00  0.00     0.005 A 
ATOM     13  C   UNL d   1      -1.544  -3.232  -0.779  0.00  0.00     0.030 A 
BRANCH  10  14
ATOM     14  O   UNL d   1       0.675  -5.785   1.657  0.00  0.00    -0.356 OA
ATOM     15  C   UNL d   1       1.843  -5.318   2.322  0.00  0.00     0.210 C 
ENDBRANCH  10  14
ENDBRANCH   1   8
BRANCH   2  16
ATOM     16  C   UNL d   1       2.318  -1.317  -0.101  0.00  0.00     0.010 A 
ATOM     17  C   UNL d   1       2.566  -2.435  -0.910  0.00  0.00     0.018 A 
ATOM     18  C   UNL d   1       3.823  -3.049  -0.928  0.00  0.00     0.037 A 
ATOM     19  C   UNL d   1       4.867  -2.528  -0.166  0.00  0.00     0.068 A 
ATOM     20  C   UNL d   1       4.652  -1.372   0.584  0.00  0.00     0.037 A 
ATOM     21  C   UNL d   1       3.390  -0.776   0.624  0.00  0.00     0.018 A 
BRANCH  19  22
ATOM     22  O   UNL d   1       6.137  -3.033  -0.116  0.00  0.00    -0.356 OA
ATOM     23  C   UNL d   1       6.259  -4.428  -0.371  0.00  0.00     0.210 C 
ENDBRANCH  19  22
ENDBRANCH   2  16
BRANCH   5  24
ATOM     24  S   UNL d   1      -2.879  -0.275  -0.046  0.00  0.00    -0.105 SA
ATOM     25  H   UNL d   1      -3.042  -1.498   0.474  0.00  0.00     0.110 HD
ENDBRANCH   5  24
TORSDOF 5
