REMARK  3 active torsions:
REMARK  status: ('A' for Active; 'I' for Inactive)
REMARK    1  A    between atoms: C_2  and  C_1 
REMARK    2  A    between atoms: C_4  and  C_2 
REMARK    3  A    between atoms: N_10  and  C_3 
ROOT
ATOM      1  C   UNL d   1       0.872   0.108   0.082  0.00  0.00     0.105 C 
ATOM      2  C   UNL d   1       0.182  -0.765  -0.682  0.00  0.00     0.111 C 
ATOM      3  C   UNL d   1       0.234   1.131   0.827  0.00  0.00     0.104 C 
ATOM      4  N   UNL d   1      -0.268   1.981   1.438  0.00  0.00    -0.191 NA
ENDROOT
BRANCH   1   5
ATOM      5  C   UNL d   1       2.368   0.020   0.085  0.00  0.00     0.175 C 
ATOM      6  O   UNL d   1       2.988  -0.771  -0.619  0.00  0.00    -0.291 OA
BRANCH   5   7
ATOM      7  C   UNL d   1       3.104   0.910   1.043  0.00  0.00     0.061 A 
ATOM      8  C   UNL d   1       4.615   0.942   1.084  0.00  0.00     0.013 A 
ATOM      9  C   UNL d   1       3.856   0.280   2.195  0.00  0.00     0.013 A 
ENDBRANCH   5   7
ENDBRANCH   1   5
BRANCH   2  10
ATOM     10  N   UNL d   1      -1.186  -0.961  -0.876  0.00  0.00    -0.397 N 
ATOM     11  C   UNL d   1      -2.225  -0.672   0.116  0.00  0.00     0.148 C 
ATOM     12  C   UNL d   1      -1.700  -1.646  -2.067  0.00  0.00     0.148 C 
ENDBRANCH   2  10
TORSDOF 3
