REMARK  7 active torsions:
REMARK  status: ('A' for Active; 'I' for Inactive)
REMARK    1  A    between atoms: C_13  and  C_1 
REMARK    2  A    between atoms: S_18  and  C_5 
REMARK    3  A    between atoms: C_8  and  C_10 
REMARK    4  A    between atoms: C_9  and  C_14 
REMARK    5  A    between atoms: C_16  and  C_17 
REMARK    6  A    between atoms: C_17  and  C_21 
REMARK    7  A    between atoms: C_21  and  S_18 
ROOT
ATOM      1  C   UNL d   1       0.575  -0.858   0.244  0.00  0.00     0.192 A 
ATOM      2  O   UNL d   1       0.763   0.457   0.579  0.00  0.00    -0.266 OA
ATOM      3  N   UNL d   1      -0.668  -1.109  -0.127  0.00  0.00    -0.275 N 
ATOM      4  HN  UNL d   1      -1.049  -2.009  -0.419  1.00  0.00     0.189 HD
ATOM      5  C   UNL d   1      -0.480   0.990   0.372  0.00  0.00     0.204 A 
ATOM      6  N   UNL d   1      -1.350   0.090  -0.040  0.00  0.00    -0.272 N 
ATOM      7  HN  UNL d   1      -2.335   0.247  -0.253  1.00  0.00     0.189 HD
ENDROOT
BRANCH   5   8
ATOM      8  S   UNL d   1      -0.822   2.672   0.618  0.00  0.00    -0.077 SA
BRANCH   8   9
ATOM      9  C   UNL d   1      -2.562   2.754   0.104  0.00  0.00     0.166 C 
BRANCH   9  10
ATOM     10  C   UNL d   1      -3.084   4.184   0.126  0.00  0.00     0.169 C 
ATOM     11  O   UNL d   1      -2.437   5.141   0.550  0.00  0.00    -0.291 OA
BRANCH  10  12
ATOM     12  C   UNL d   1      -4.464   4.449  -0.399  0.00  0.00     0.011 A 
ATOM     13  C   UNL d   1      -5.316   3.430  -0.846  0.00  0.00     0.031 A 
ATOM     14  C   UNL d   1      -6.592   3.737  -1.359  0.00  0.00     0.048 A 
ATOM     15  C   UNL d   1      -7.009   5.076  -1.403  0.00  0.00     0.016 A 
ATOM     16  C   UNL d   1      -6.172   6.092  -0.948  0.00  0.00     0.002 A 
ATOM     17  C   UNL d   1      -4.906   5.779  -0.451  0.00  0.00     0.015 A 
BRANCH  14  18
ATOM     18  C   UNL d   1      -7.507   2.654  -1.882  0.00  0.00     0.417 C 
ATOM     19  F   UNL d   1      -6.989   1.401  -1.751  0.00  0.00    -0.166 F 
ATOM     20  F   UNL d   1      -8.709   2.631  -1.244  0.00  0.00    -0.166 F 
ATOM     21  F   UNL d   1      -7.785   2.807  -3.205  0.00  0.00    -0.166 F 
ENDBRANCH  14  18
ENDBRANCH  10  12
ENDBRANCH   9  10
ENDBRANCH   8   9
ENDBRANCH   5   8
BRANCH   1  22
ATOM     22  C   UNL d   1       1.735  -1.741   0.311  0.00  0.00     0.085 A 
ATOM     23  N   UNL d   1       2.884  -1.206   0.799  0.00  0.00    -0.362 N 
ATOM     24  C   UNL d   1       3.981  -2.001   0.845  0.00  0.00     0.104 A 
ATOM     25  HN  UNL d   1       2.920  -0.239   1.121  1.00  0.00     0.165 HD
ATOM     26  C   UNL d   1       4.001  -3.321   0.422  0.00  0.00     0.063 A 
ATOM     27  C   UNL d   1       2.805  -3.856  -0.069  0.00  0.00     0.020 A 
ATOM     28  C   UNL d   1       1.660  -3.061  -0.125  0.00  0.00     0.035 A 
BRANCH  26  29
ATOM     29  C   UNL d   1       5.260  -4.131   0.483  0.00  0.00     0.418 C 
ATOM     30  F   UNL d   1       6.323  -3.450   0.993  0.00  0.00    -0.166 F 
ATOM     31  F   UNL d   1       5.125  -5.245   1.255  0.00  0.00    -0.166 F 
ATOM     32  F   UNL d   1       5.653  -4.572  -0.743  0.00  0.00    -0.166 F 
ENDBRANCH  26  29
ENDBRANCH   1  22
TORSDOF 7
