REMARK  8 active torsions:
REMARK  status: ('A' for Active; 'I' for Inactive)
REMARK    1  A    between atoms: N_2  and  C_1 
REMARK    2  A    between atoms: N_7  and  C_1 
REMARK    3  A    between atoms: C_9  and  N_2 
REMARK    4  A    between atoms: N_3  and  N_7 
REMARK    5  A    between atoms: C_5  and  C_10 
REMARK    6  A    between atoms: O_11  and  C_8 
REMARK    7  A    between atoms: C_17  and  O_11 
REMARK    8  A    between atoms: C_18  and  C_17 
ROOT
ATOM      1  N   UNL d   1       3.067   1.185   0.760  0.00  0.00    -0.309 N 
ATOM      2  HN  UNL d   1       2.660   1.982   1.248  1.00  0.00     0.186 HD
ATOM      3  C   UNL d   1       4.231   0.701   1.069  0.00  0.00     0.121 C 
ENDROOT
BRANCH   1   4
ATOM      4  N   UNL d   1       2.427   0.549  -0.265  0.00  0.00    -0.277 N 
ATOM      5  H   UNL d   1       2.886  -0.213  -0.758  0.00  0.00     0.189 HD
BRANCH   4   6
ATOM      6  C   UNL d   1       1.176   0.933  -0.710  0.00  0.00     0.187 C 
ATOM      7  S   UNL d   1       0.526   0.132  -2.018  0.00  0.00    -0.040 SA
BRANCH   6   8
ATOM      8  N   UNL d   1       0.623   1.956   0.020  0.00  0.00    -0.358 N 
ATOM      9  H   UNL d   1       1.289   2.272   0.721  0.00  0.00     0.162 HD
BRANCH   8  10
ATOM     10  C   UNL d   1      -0.543   2.828  -0.256  0.00  0.00     0.021 C 
ATOM     11  C   UNL d   1      -1.852   2.033  -0.454  0.00  0.00     0.037 C 
ATOM     12  C   UNL d   1      -0.738   3.768   0.953  0.00  0.00     0.037 C 
ATOM     13  C   UNL d   1      -0.253   3.708  -1.485  0.00  0.00     0.037 C 
ENDBRANCH   8  10
ENDBRANCH   6   8
ENDBRANCH   4   6
ENDBRANCH   1   4
BRANCH   3  14
ATOM     14  C   UNL d   1       5.027   1.267   2.184  0.00  0.00     0.014 A 
ATOM     15  C   UNL d   1       6.081   0.550   2.778  0.00  0.00     0.080 A 
ATOM     16  C   UNL d   1       6.742   1.120   3.872  0.00  0.00     0.037 A 
ATOM     17  C   UNL d   1       6.351   2.362   4.380  0.00  0.00     0.003 A 
ATOM     18  C   UNL d   1       5.314   3.071   3.779  0.00  0.00     0.001 A 
ATOM     19  C   UNL d   1       4.657   2.531   2.677  0.00  0.00     0.015 A 
BRANCH  15  20
ATOM     20  O   UNL d   1       6.409  -0.674   2.250  0.00  0.00    -0.350 OA
BRANCH  20  21
ATOM     21  C   UNL d   1       7.153  -1.549   3.107  0.00  0.00     0.175 C 
BRANCH  21  22
ATOM     22  C   UNL d   1       7.194  -2.953   2.512  0.00  0.00     0.022 C 
ATOM     23  C   UNL d   1       5.804  -3.525   2.276  0.00  0.00     0.007 C 
ENDBRANCH  21  22
ENDBRANCH  20  21
ENDBRANCH  15  20
ENDBRANCH   3  14
TORSDOF 8
