REMARK  4 active torsions:
REMARK  status: ('A' for Active; 'I' for Inactive)
REMARK    1  A    between atoms: C_2  and  C_8 
REMARK    2  A    between atoms: O_7  and  C_5 
REMARK    3  A    between atoms: O_12  and  C_6 
REMARK    4  A    between atoms: C_8  and  O_7 
ROOT
ATOM      1  C   UNL d   1      -0.641  -0.019   0.068  0.00  0.00     0.111 A 
ATOM      2  C   UNL d   1      -2.052  -0.038   0.290  0.00  0.00     0.105 C 
ATOM      3  N   UNL d   1      -3.208  -0.032   0.416  0.00  0.00    -0.191 NA
ATOM      4  C   UNL d   1       0.052   1.205  -0.028  0.00  0.00     0.092 A 
ATOM      5  C   UNL d   1       0.086  -1.226   0.038  0.00  0.00     0.091 A 
ATOM      6  C   UNL d   1       2.168   0.012  -0.070  0.00  0.00     0.006 A 
ATOM      7  C   UNL d   1       1.453   1.206  -0.078  0.00  0.00     0.038 A 
ATOM      8  C   UNL d   1       1.485  -1.199  -0.015  0.00  0.00     0.038 A 
ENDROOT
BRANCH   4   9
ATOM      9  O   UNL d   1      -0.483   2.469   0.033  0.00  0.00    -0.341 OA
BRANCH   9  10
ATOM     10  C   UNL d   1      -1.679   2.724  -0.721  0.00  0.00     0.293 C 
BRANCH  10  11
ATOM     11  C   UNL d   1      -1.733   4.161  -1.239  0.00  0.00     0.408 C 
ATOM     12  F   UNL d   1      -0.561   4.816  -1.090  0.00  0.00    -0.169 F 
ATOM     13  F   UNL d   1      -2.038   4.179  -2.559  0.00  0.00    -0.169 F 
ATOM     14  F   UNL d   1      -2.686   4.877  -0.598  0.00  0.00    -0.169 F 
ENDBRANCH  10  11
ENDBRANCH   9  10
ENDBRANCH   4   9
BRANCH   5  15
ATOM     15  O   UNL d   1      -0.431  -2.490   0.184  0.00  0.00    -0.354 OA
ATOM     16  C   UNL d   1      -1.535  -2.826  -0.654  0.00  0.00     0.210 C 
ENDBRANCH   5  15
TORSDOF 4
