REMARK  4 active torsions:
REMARK  status: ('A' for Active; 'I' for Inactive)
REMARK    1  A    between atoms: C_5  and  C_1 
REMARK    2  A    between atoms: C_6  and  C_5 
REMARK    3  A    between atoms: S_13  and  C_6 
REMARK    4  A    between atoms: C_14  and  N_7 
ROOT
ATOM      1  C   UNL d   1      -3.975   2.165  -1.463  0.00  0.00     0.216 C 
ATOM      2  C   UNL d   1      -4.264   2.531  -2.860  0.00  0.00     0.078 C 
ATOM      3  N   UNL d   1      -4.497   2.851  -3.956  0.00  0.00    -0.196 NA
ENDROOT
BRANCH   1   4
ATOM      4  C   UNL d   1      -4.813   2.982  -0.524  0.00  0.00     0.106 A 
ATOM      5  N   UNL d   1      -4.346   3.778   0.420  0.00  0.00    -0.343 N 
ATOM      6  C   UNL d   1      -5.444   4.348   1.013  0.00  0.00     0.060 A 
ATOM      7  HN  UNL d   1      -3.368   3.937   0.661  1.00  0.00     0.167 HD
ATOM      8  C   UNL d   1      -5.513   5.280   2.057  0.00  0.00     0.032 A 
ATOM      9  C   UNL d   1      -6.615   3.880   0.432  0.00  0.00     0.060 A 
ATOM     10  C   UNL d   1      -6.773   5.719   2.482  0.00  0.00     0.002 A 
ATOM     11  C   UNL d   1      -7.936   5.237   1.878  0.00  0.00     0.002 A 
ATOM     12  C   UNL d   1      -7.885   4.301   0.836  0.00  0.00     0.032 A 
ATOM     13  N   UNL d   1      -6.193   3.002  -0.538  0.00  0.00    -0.343 N 
ATOM     14  H   UNL d   1      -6.789   2.474  -1.157  0.00  0.00     0.167 HD
ENDBRANCH   1   4
BRANCH   1  15
ATOM     15  C   UNL d   1      -4.219   0.679  -1.211  0.00  0.00     0.072 C 
ATOM     16  N   UNL d   1      -5.222   0.103  -1.809  0.00  0.00    -0.353 N 
ATOM     17  HN  UNL d   1      -5.809   0.714  -2.376  1.00  0.00     0.166 HD
BRANCH  16  18
ATOM     18  C   UNL d   1      -5.602  -1.251  -1.777  0.00  0.00     0.032 A 
ATOM     19  C   UNL d   1      -6.958  -1.528  -2.004  0.00  0.00     0.029 A 
ATOM     20  C   UNL d   1      -7.457  -2.835  -1.960  0.00  0.00     0.002 A 
ATOM     21  C   UNL d   1      -6.599  -3.896  -1.694  0.00  0.00     0.000 A 
ATOM     22  C   UNL d   1      -5.239  -3.653  -1.547  0.00  0.00     0.002 A 
ATOM     23  C   UNL d   1      -4.746  -2.346  -1.629  0.00  0.00     0.029 A 
ENDBRANCH  16  18
BRANCH  15  24
ATOM     24  S   UNL d   1      -3.030  -0.107  -0.163  0.00  0.00    -0.119 SA
ATOM     25  C   UNL d   1      -3.241   0.721   1.423  0.00  0.00     0.097 C 
ENDBRANCH  15  24
ENDBRANCH   1  15
TORSDOF 4
