REMARK  5 active torsions:
REMARK  status: ('A' for Active; 'I' for Inactive)
REMARK    1  A    between atoms: C_7  and  C_1 
REMARK    2  A    between atoms: C_5  and  O_11 
REMARK       I    between atoms: N_10  and  C_5 
REMARK    3  A    between atoms: C_15  and  N_8 
REMARK    4  A    between atoms: C_13  and  N_10 
REMARK    5  A    between atoms: O_11  and  C_16 
ROOT
ATOM      1  C   UNL d   1       5.661   1.366   0.780  0.00  0.00     0.032 A 
ATOM      2  C   UNL d   1       8.384   1.717   0.192  0.00  0.00     0.081 A 
ATOM      3  C   UNL d   1       6.492   0.263   0.540  0.00  0.00     0.032 A 
ATOM      4  C   UNL d   1       6.246   2.638   0.820  0.00  0.00     0.032 A 
ATOM      5  C   UNL d   1       7.854   0.432   0.269  0.00  0.00     0.039 A 
ATOM      6  C   UNL d   1       7.602   2.819   0.527  0.00  0.00     0.039 A 
ENDROOT
BRANCH   1   7
ATOM      7  N   UNL d   1       4.258   1.308   0.803  0.00  0.00    -0.365 N 
ATOM      8  C   UNL d   1       3.621   0.240   1.153  0.00  0.00     0.107 C 
ATOM      9  HN  UNL d   1       3.725   2.136   0.536  1.00  0.00     0.165 HD
BRANCH   8  10
ATOM     10  C   UNL d   1       2.179   0.140   1.015  0.00  0.00     0.027 A 
ATOM     11  S   UNL d   1       1.444  -1.286   1.607  0.00  0.00    -0.088 SA
ATOM     12  C   UNL d   1      -0.135  -0.764   1.187  0.00  0.00     0.016 A 
ATOM     13  C   UNL d   1      -1.345  -1.452   1.413  0.00  0.00     0.019 A 
ATOM     14  C   UNL d   1      -0.105   0.484   0.565  0.00  0.00    -0.012 A 
ATOM     15  C   UNL d   1      -2.547  -0.860   1.020  0.00  0.00     0.001 A 
ATOM     16  C   UNL d   1      -2.550   0.379   0.399  0.00  0.00     0.001 A 
ATOM     17  C   UNL d   1      -1.345   1.048   0.163  0.00  0.00     0.013 A 
ATOM     18  C   UNL d   1       1.250   0.999   0.441  0.00  0.00    -0.032 A 
ATOM     19  C   UNL d   1       1.535   2.312  -0.225  0.00  0.00     0.050 C 
ENDBRANCH   8  10
ENDBRANCH   1   7
BRANCH   2  20
ATOM     20  O   UNL d   1       9.698   1.988  -0.243  0.00  0.00    -0.261 OA
BRANCH  20  21
ATOM     21  C   UNL d   1      10.274   1.276  -1.287  0.00  0.00     0.370 C 
ATOM     22  N   UNL d   1      11.447   1.779  -1.793  0.00  0.00    -0.302 N 
ATOM     23  H   UNL d   1      11.775   1.215  -2.566  0.00  0.00     0.171 HD
ATOM     24  O   UNL d   1       9.797   0.267  -1.810  0.00  0.00    -0.238 OA
BRANCH  22  25
ATOM     25  C   UNL d   1      12.155   2.968  -1.528  0.00  0.00     0.038 A 
ATOM     26  C   UNL d   1      11.840   3.870  -0.516  0.00  0.00     0.053 A 
ATOM     27  C   UNL d   1      12.552   5.066  -0.394  0.00  0.00     0.036 A 
ATOM     28 CL   UNL d   1      12.124   6.185   0.844  0.00  0.00    -0.084 Cl
ATOM     29  C   UNL d   1      13.594   5.371  -1.264  0.00  0.00     0.024 A 
ATOM     30  C   UNL d   1      13.941   4.461  -2.257  0.00  0.00     0.004 A 
ATOM     31  C   UNL d   1      13.228   3.264  -2.386  0.00  0.00     0.029 A 
ENDBRANCH  22  25
ENDBRANCH  20  21
ENDBRANCH   2  20
TORSDOF 5
