REMARK  4 active torsions:
REMARK  status: ('A' for Active; 'I' for Inactive)
REMARK    1  A    between atoms: C_2  and  C_1 
REMARK    2  A    between atoms: C_10  and  C_2 
REMARK       I    between atoms: C_3  and  N_5 
REMARK    3  A    between atoms: C_6  and  C_3 
REMARK    4  A    between atoms: N_5  and  C_4 
ROOT
ATOM      1  C   UNL d   1       1.547   1.156  -0.786  0.00  0.00     0.043 A 
ATOM      2  C   UNL d   1       2.395   0.066  -0.488  0.00  0.00     0.049 A 
ATOM      3  C   UNL d   1       0.151   0.980  -0.680  0.00  0.00     0.041 A 
ATOM      4  C   UNL d   1       1.830  -1.184  -0.202  0.00  0.00     0.032 A 
ATOM      5  C   UNL d   1      -0.385  -0.254  -0.328  0.00  0.00     0.035 A 
ATOM      6  C   UNL d   1       0.447  -1.345  -0.103  0.00  0.00     0.026 A 
ATOM      7 CL   UNL d   1      -2.088  -0.444  -0.180  0.00  0.00    -0.084 Cl
ENDROOT
BRANCH   1   8
ATOM      8  C   UNL d   1       1.965   2.499  -1.283  0.00  0.00     0.194 C 
ATOM      9  O   UNL d   1       1.283   3.477  -0.972  0.00  0.00    -0.287 OA
BRANCH   8  10
ATOM     10  C   UNL d   1       3.097   2.711  -2.227  0.00  0.00     0.015 A 
ATOM     11  C   UNL d   1       3.702   3.975  -2.256  0.00  0.00     0.015 A 
ATOM     12  C   UNL d   1       4.769   4.230  -3.120  0.00  0.00     0.001 A 
ATOM     13  C   UNL d   1       5.230   3.227  -3.971  0.00  0.00     0.000 A 
ATOM     14  C   UNL d   1       4.610   1.980  -3.976  0.00  0.00     0.001 A 
ATOM     15  C   UNL d   1       3.536   1.725  -3.122  0.00  0.00     0.015 A 
ENDBRANCH   8  10
ENDBRANCH   1   8
BRANCH   2  16
ATOM     16  N   UNL d   1       3.808   0.104  -0.407  0.00  0.00    -0.326 N 
ATOM     17  C   UNL d   1       4.497   1.092   0.273  0.00  0.00     0.229 C 
ATOM     18  O   UNL d   1       3.935   2.013   0.863  0.00  0.00    -0.272 OA
ATOM     19  H   UNL d   1       4.273  -0.792  -0.455  0.00  0.00     0.169 HD
BRANCH  17  20
ATOM     20  C   UNL d   1       6.027   0.895   0.379  0.00  0.00     0.030 C 
ATOM     21  C   UNL d   1       6.619  -0.115  -0.618  0.00  0.00     0.025 C 
ATOM     22  C   UNL d   1       6.680   2.263   0.127  0.00  0.00     0.025 C 
ATOM     23  C   UNL d   1       6.349   0.423   1.806  0.00  0.00     0.025 C 
ENDBRANCH  17  20
ENDBRANCH   2  16
TORSDOF 4
