REMARK  2 active torsions:
REMARK  status: ('A' for Active; 'I' for Inactive)
REMARK    1  A    between atoms: C_11  and  C_1 
REMARK    2  A    between atoms: C_13  and  C_10 
ROOT
ATOM      1  C   UNL d   1       0.914  -1.374  -0.015  0.00  0.00     0.144 A 
ATOM      2  N   UNL d   1      -0.259  -0.631  -0.007  0.00  0.00    -0.235 N 
ATOM      3  C   UNL d   1      -0.208   0.770   0.017  0.00  0.00     0.129 A 
ATOM      4  N   UNL d   1       0.972   1.465   0.034  0.00  0.00    -0.340 N 
ATOM      5  HN  UNL d   1       0.993   2.484   0.068  1.00  0.00     0.167 HD
ATOM      6  C   UNL d   1       2.102  -0.736  -0.016  0.00  0.00     0.067 A 
ATOM      7  N   UNL d   1      -1.542  -1.065  -0.011  0.00  0.00    -0.297 N 
ATOM      8  HN  UNL d   1      -1.865  -2.032  -0.024  1.00  0.00     0.187 HD
ATOM      9  C   UNL d   1      -1.513   1.205   0.024  0.00  0.00     0.076 A 
ATOM     10  C   UNL d   1       2.068   0.759   0.004  0.00  0.00     0.047 A 
ATOM     11  C   UNL d   1      -2.295   0.036   0.007  0.00  0.00     0.026 A 
ATOM     12  C   UNL d   1      -3.774  -0.070   0.008  0.00  0.00     0.070 C 
ENDROOT
BRANCH  10  13
ATOM     13  C   UNL d   1       3.383   1.448   0.047  0.00  0.00     0.006 A 
ATOM     14  C   UNL d   1       4.503   0.953  -0.615  0.00  0.00     0.101 A 
ATOM     15  N   UNL d   1       5.736   1.510  -0.540  0.00  0.00    -0.374 N 
ATOM     16  C   UNL d   1       5.853   2.624   0.214  0.00  0.00     0.087 A 
ATOM     17  HN  UNL d   1       6.536   1.107  -1.028  1.00  0.00     0.164 HD
ATOM     18  C   UNL d   1       4.791   3.216   0.881  0.00  0.00     0.018 A 
ATOM     19  C   UNL d   1       3.535   2.620   0.789  0.00  0.00     0.016 A 
ENDBRANCH  10  13
BRANCH   1  20
ATOM     20  C   UNL d   1       0.842  -2.854  -0.002  0.00  0.00     0.434 C 
ATOM     21  F   UNL d   1      -0.388  -3.413   0.001  0.00  0.00    -0.165 F 
ATOM     22  F   UNL d   1       1.496  -3.370  -1.081  0.00  0.00    -0.165 F 
ATOM     23  F   UNL d   1       1.491  -3.350   1.089  0.00  0.00    -0.165 F 
ENDBRANCH   1  20
TORSDOF 2
