REMARK  2 active torsions:
REMARK  status: ('A' for Active; 'I' for Inactive)
REMARK       I    between atoms: N_2  and  C_1 
REMARK    1  A    between atoms: O_3  and  C_1 
REMARK    2  A    between atoms: C_5  and  O_3 
ROOT
ATOM      1  C   UNL d   1       0.915  -0.090  -0.128  0.00  0.00     0.368 C 
ATOM      2  N   UNL d   1       0.291   0.818  -0.954  0.00  0.00    -0.328 N 
ATOM      3  O   UNL d   1       2.005  -0.591  -0.387  0.00  0.00    -0.238 OA
ATOM      4  C   UNL d   1       0.935   1.341  -2.142  0.00  0.00     0.128 C 
ATOM      5  C   UNL d   1      -0.938   1.526  -0.651  0.00  0.00     0.128 C 
ATOM      6  C   UNL d   1       0.308   2.716  -2.315  0.00  0.00     0.022 C 
ATOM      7  C   UNL d   1      -1.114   2.507  -1.807  0.00  0.00     0.022 C 
ENDROOT
BRANCH   1   8
ATOM      8  O   UNL d   1       0.181  -0.332   1.034  0.00  0.00    -0.261 OA
BRANCH   8   9
ATOM      9  C   UNL d   1       0.862  -0.941   2.101  0.00  0.00     0.081 A 
ATOM     10  C   UNL d   1       2.069  -0.424   2.575  0.00  0.00     0.037 A 
ATOM     11  C   UNL d   1       2.681  -1.006   3.686  0.00  0.00     0.003 A 
ATOM     12  C   UNL d   1       2.074  -2.082   4.332  0.00  0.00     0.000 A 
ATOM     13  C   UNL d   1       0.855  -2.579   3.870  0.00  0.00     0.003 A 
ATOM     14  C   UNL d   1       0.239  -2.005   2.754  0.00  0.00     0.037 A 
ENDBRANCH   8   9
ENDBRANCH   1   8
TORSDOF 2
