REMARK  7 active torsions:
REMARK  status: ('A' for Active; 'I' for Inactive)
REMARK    1  A    between atoms: C_4  and  C_1 
REMARK       I    between atoms: C_2  and  N_5 
REMARK       I    between atoms: N_6  and  C_2 
REMARK    2  A    between atoms: N_5  and  C_3 
REMARK       I    between atoms: N_11  and  C_4 
REMARK    3  A    between atoms: C_12  and  N_6 
REMARK    4  A    between atoms: N_7  and  C_14 
REMARK    5  A    between atoms: C_19  and  N_11 
REMARK    6  A    between atoms: C_14  and  C_15 
REMARK    7  A    between atoms: C_15  and  C_19 
ROOT
ATOM      1  C   UNL d   1       1.158  -0.683   0.795  0.00  0.00     0.058 C 
ATOM      2  C   UNL d   1       1.062  -0.985  -0.564  0.00  0.00     0.052 C 
ATOM      3  C   UNL d   1       0.070  -0.102   1.452  0.00  0.00     0.019 C 
ATOM      4  C   UNL d   1      -0.198  -1.035  -1.172  0.00  0.00     0.030 C 
ATOM      5  C   UNL d   1      -1.158   0.002   0.796  0.00  0.00     0.001 C 
ATOM      6  C   UNL d   1      -1.310  -0.545  -0.480  0.00  0.00     0.002 C 
ENDROOT
BRANCH   1   7
ATOM      7  C   UNL d   1       2.354  -1.072   1.591  0.00  0.00     0.253 C 
ATOM      8  O   UNL d   1       2.769  -0.323   2.465  0.00  0.00    -0.268 OA
ATOM      9  N   UNL d   1       2.876  -2.339   1.335  0.00  0.00    -0.357 N 
ATOM     10  H   UNL d   1       2.549  -2.849   0.518  0.00  0.00     0.162 HD
BRANCH   9  11
ATOM     11  C   UNL d   1       4.101  -2.792   1.974  0.00  0.00     0.124 C 
BRANCH  11  12
ATOM     12  C   UNL d   1       4.239  -4.311   2.142  0.00  0.00     0.050 C 
BRANCH  12  13
ATOM     13  C   UNL d   1       4.331  -5.154   0.860  0.00  0.00     0.274 C 
BRANCH  13  14
ATOM     14  N   UNL d   1       5.335  -4.723  -0.123  0.00  0.00     0.092 N 
ATOM     15  C   UNL d   1       6.739  -4.914   0.305  0.00  0.00     0.298 C 
ATOM     16  C   UNL d   1       7.287  -6.352   0.189  0.00  0.00     0.198 C 
ATOM     17  O   UNL d   1       7.047  -6.920  -1.104  0.00  0.00    -0.388 OA
ATOM     18  C   UNL d   1       5.651  -6.880  -1.414  0.00  0.00     0.198 C 
ATOM     19  C   UNL d   1       5.143  -5.429  -1.413  0.00  0.00     0.298 C 
ENDBRANCH  13  14
ENDBRANCH  12  13
ENDBRANCH  11  12
ENDBRANCH   9  11
ENDBRANCH   1   7
BRANCH   2  20
ATOM     20  N   UNL d   1       2.220  -0.909  -1.376  0.00  0.00    -0.308 N 
ATOM     21  C   UNL d   1       2.749  -2.002  -1.981  0.00  0.00     0.325 C 
ATOM     22  N   UNL d   1       3.851  -1.851  -2.751  0.00  0.00    -0.309 N 
ATOM     23  O   UNL d   1       2.304  -3.144  -1.813  0.00  0.00    -0.247 OA
ATOM     24  H   UNL d   1       4.180  -2.760  -3.040  0.00  0.00     0.170 HD
ATOM     25  H   UNL d   1       2.970  -0.362  -0.970  0.00  0.00     0.170 HD
BRANCH  22  26
ATOM     26  C   UNL d   1       4.549  -0.759  -3.331  0.00  0.00     0.036 A 
ATOM     27  C   UNL d   1       4.317   0.601  -3.112  0.00  0.00     0.029 A 
ATOM     28  C   UNL d   1       5.064   1.564  -3.813  0.00  0.00     0.002 A 
ATOM     29  C   UNL d   1       6.023   1.183  -4.747  0.00  0.00     0.000 A 
ATOM     30  C   UNL d   1       6.264  -0.166  -4.969  0.00  0.00     0.002 A 
ATOM     31  C   UNL d   1       5.542  -1.123  -4.256  0.00  0.00     0.029 A 
ENDBRANCH  22  26
ENDBRANCH   2  20
TORSDOF 7
