REMARK  2 active torsions:
REMARK  status: ('A' for Active; 'I' for Inactive)
REMARK    1  A    between atoms: C_7  and  C_4 
REMARK    2  A    between atoms: C_8  and  C_5 
ROOT
ATOM      1  C   UNL d   1       1.944   0.259   0.081  0.00  0.00     0.021 C 
ATOM      2  C   UNL d   1      -0.414   1.257   0.127  0.00  0.00     0.021 C 
ATOM      3  C   UNL d   1       1.066   1.458   0.262  0.00  0.00     0.188 C 
ATOM      4  C   UNL d   1       3.280   0.451   0.098  0.00  0.00     0.025 C 
ATOM      5  C   UNL d   1      -1.197   2.355   0.185  0.00  0.00     0.025 C 
ATOM      6  N   UNL d   1      -0.027  -1.126   0.565  0.00  0.00     0.092 N 
ATOM      7  C   UNL d   1      -0.909  -0.147  -0.077  0.00  0.00     0.315 C 
ATOM      8  C   UNL d   1       1.282  -1.077  -0.089  0.00  0.00     0.315 C 
ATOM      9  O   UNL d   1       1.543   2.574   0.481  0.00  0.00    -0.287 OA
ATOM     10  C   UNL d   1      -0.593  -2.471   0.473  0.00  0.00     0.310 C 
ENDROOT
BRANCH   4  11
ATOM     11  C   UNL d   1       4.257  -0.639  -0.079  0.00  0.00    -0.024 A 
ATOM     12  C   UNL d   1       4.768  -1.380   1.021  0.00  0.00    -0.016 A 
ATOM     13  C   UNL d   1       5.639  -2.469   0.760  0.00  0.00    -0.025 A 
ATOM     14  C   UNL d   1       4.453  -1.097   2.370  0.00  0.00     0.013 A 
ATOM     15  C   UNL d   1       6.164  -3.217   1.826  0.00  0.00     0.012 A 
ATOM     16  C   UNL d   1       5.971  -2.797  -0.564  0.00  0.00     0.012 A 
ATOM     17  C   UNL d   1       5.846  -2.904   3.147  0.00  0.00     0.001 A 
ATOM     18  C   UNL d   1       4.989  -1.847   3.419  0.00  0.00     0.001 A 
ATOM     19  C   UNL d   1       5.479  -2.050  -1.631  0.00  0.00     0.002 A 
ATOM     20  C   UNL d   1       4.632  -0.971  -1.390  0.00  0.00     0.012 A 
ENDBRANCH   4  11
BRANCH   5  21
ATOM     21  C   UNL d   1      -2.658   2.337  -0.013  0.00  0.00    -0.024 A 
ATOM     22  C   UNL d   1      -3.244   2.503  -1.299  0.00  0.00    -0.016 A 
ATOM     23  C   UNL d   1      -4.653   2.397  -1.421  0.00  0.00    -0.025 A 
ATOM     24  C   UNL d   1      -2.501   2.776  -2.471  0.00  0.00     0.013 A 
ATOM     25  C   UNL d   1      -5.264   2.569  -2.674  0.00  0.00     0.012 A 
ATOM     26  C   UNL d   1      -5.435   2.125  -0.288  0.00  0.00     0.012 A 
ATOM     27  C   UNL d   1      -4.506   2.853  -3.809  0.00  0.00     0.001 A 
ATOM     28  C   UNL d   1      -3.125   2.954  -3.709  0.00  0.00     0.001 A 
ATOM     29  C   UNL d   1      -4.849   1.998   0.970  0.00  0.00     0.002 A 
ATOM     30  C   UNL d   1      -3.470   2.117   1.110  0.00  0.00     0.012 A 
ENDBRANCH   5  21
TORSDOF 2
