REMARK  5 active torsions:
REMARK  status: ('A' for Active; 'I' for Inactive)
REMARK    1  A    between atoms: N_2  and  C_1 
REMARK    2  A    between atoms: N_6  and  C_3 
REMARK    3  A    between atoms: C_7  and  C_5 
REMARK       I    between atoms: C_9  and  N_6 
REMARK    4  A    between atoms: O_15  and  C_7 
REMARK    5  A    between atoms: C_17  and  O_15 
ROOT
ATOM      1  C   UNL d   1       1.474  -0.085   0.166  0.00  0.00     0.130 A 
ATOM      2  C   UNL d   1       0.687  -1.249   0.106  0.00  0.00     0.068 A 
ATOM      3  C   UNL d   1       0.898   1.192   0.176  0.00  0.00     0.056 A 
ATOM      4  C   UNL d   1      -0.492   1.322   0.114  0.00  0.00     0.042 A 
ATOM      5  C   UNL d   1      -0.704  -1.095   0.023  0.00  0.00     0.033 A 
ATOM      6  C   UNL d   1      -1.290   0.174   0.019  0.00  0.00     0.020 A 
ENDROOT
BRANCH   2   7
ATOM      7  N   UNL d   1       1.267  -2.538   0.116  0.00  0.00    -0.325 N 
ATOM      8  C   UNL d   1       0.714  -3.629   0.759  0.00  0.00     0.218 C 
ATOM      9  O   UNL d   1      -0.297  -3.603   1.456  0.00  0.00    -0.274 OA
ATOM     10  C   UNL d   1       1.484  -4.906   0.551  0.00  0.00     0.117 C 
ATOM     11  H   UNL d   1       2.257  -2.600  -0.121  0.00  0.00     0.169 HD
ENDBRANCH   2   7
BRANCH   1  12
ATOM     12  N   UNL d   1       2.913  -0.178   0.370  0.00  0.00    -0.113 N 
ATOM     13  O   UNL d   1       3.520  -1.067  -0.254  0.00  0.00    -0.532 OA
ATOM     14  O   UNL d   1       3.432   0.609   1.169  0.00  0.00    -0.532 OA
ENDBRANCH   1  12
BRANCH   4  15
ATOM     15  C   UNL d   1      -1.063   2.683   0.264  0.00  0.00     0.293 C 
ATOM     16  O   UNL d   1      -0.378   3.689   0.333  0.00  0.00    -0.259 OA
BRANCH  15  17
ATOM     17  O   UNL d   1      -2.402   2.603   0.464  0.00  0.00    -0.318 OA
BRANCH  17  18
ATOM     18  C   UNL d   1      -2.978   3.709   1.172  0.00  0.00     0.174 C 
ATOM     19  C   UNL d   1      -2.947   3.367   2.651  0.00  0.00     0.034 C 
ENDBRANCH  17  18
ENDBRANCH  15  17
ENDBRANCH   4  15
TORSDOF 5
