REMARK  3 active torsions:
REMARK  status: ('A' for Active; 'I' for Inactive)
REMARK    1  A    between atoms: O_2  and  S_1 
REMARK    2  A    between atoms: C_11  and  S_1 
REMARK    3  A    between atoms: C_14  and  O_2 
ROOT
ATOM      1  C   UNL d   1       0.688  -4.411   2.609  0.00  0.00     0.104 A 
ATOM      2  C   UNL d   1       1.961  -4.214   2.046  0.00  0.00     0.104 A 
ATOM      3  C   UNL d   1       2.581  -5.239   1.332  0.00  0.00     0.079 A 
ATOM      4  C   UNL d   1       0.027  -5.634   2.505  0.00  0.00     0.079 A 
ATOM      5  C   UNL d   1       1.892  -6.430   1.208  0.00  0.00     0.107 A 
ATOM      6  C   UNL d   1       0.657  -6.625   1.788  0.00  0.00     0.107 A 
ATOM      7  O   UNL d   1       2.662  -3.062   2.285  0.00  0.00    -0.346 OA
ATOM      8  O   UNL d   1       0.070  -3.413   3.307  0.00  0.00    -0.346 OA
ATOM      9  C   UNL d   1       0.849  -1.321   2.256  0.00  0.00     0.191 C 
ATOM     10  O   UNL d   1       0.171  -7.876   1.569  0.00  0.00    -0.323 OA
ATOM     11  O   UNL d   1       2.326  -7.535   0.543  0.00  0.00    -0.323 OA
ATOM     12  C   UNL d   1       1.264  -8.467   0.838  0.00  0.00     0.352 A 
ATOM     13  C   UNL d   1       2.103  -1.936   1.608  0.00  0.00     0.211 C 
ATOM     14  C   UNL d   1      -0.275  -2.353   2.414  0.00  0.00     0.211 C 
ENDROOT
BRANCH   9  15
ATOM     15  O   UNL d   1       0.447  -0.229   1.414  0.00  0.00    -0.262 OA
BRANCH  15  16
ATOM     16  S   UNL d   1      -0.843   0.672   1.843  0.00  0.00     0.298 S 
ATOM     17  O   UNL d   1      -0.616   1.139   3.199  0.00  0.00    -0.193 OA
ATOM     18  O   UNL d   1      -2.037  -0.054   1.480  0.00  0.00    -0.193 OA
BRANCH  16  19
ATOM     19  C   UNL d   1      -0.785   2.086   0.773  0.00  0.00     0.086 A 
ATOM     20  C   UNL d   1      -0.330   1.941  -0.539  0.00  0.00     0.026 A 
ATOM     21  C   UNL d   1      -0.194   3.075  -1.340  0.00  0.00     0.008 A 
ATOM     22  C   UNL d   1      -0.507   4.345  -0.834  0.00  0.00    -0.062 A 
ATOM     23  C   UNL d   1      -1.020   4.463   0.465  0.00  0.00     0.008 A 
ATOM     24  C   UNL d   1      -0.227   5.566  -1.660  0.00  0.00     0.048 C 
ATOM     25  C   UNL d   1      -1.159   3.335   1.272  0.00  0.00     0.026 A 
ENDBRANCH  16  19
ENDBRANCH  15  16
ENDBRANCH   9  15
TORSDOF 3
