REMARK  3 active torsions:
REMARK  status: ('A' for Active; 'I' for Inactive)
REMARK    1  A    between atoms: N_12  and  C_4 
REMARK    2  A    between atoms: C_14  and  C_7 
REMARK    3  A    between atoms: C_15  and  N_12 
ROOT
ATOM      1  C   UNL d   1       1.068  -0.919  -0.002  0.00  0.00     0.136 A 
ATOM      2  N   UNL d   1       0.731   0.441  -0.031  0.00  0.00    -0.280 N 
ATOM      3  C   UNL d   1       2.448  -1.295   0.034  0.00  0.00     0.100 A 
ATOM      4  C   UNL d   1       1.714   1.464  -0.007  0.00  0.00     0.115 A 
ATOM      5  N   UNL d   1       0.001  -1.689  -0.010  0.00  0.00    -0.339 N 
ATOM      6  HN  UNL d   1      -0.022  -2.708  -0.008  1.00  0.00     0.167 HD
ATOM      7  C   UNL d   1       3.402  -0.331   0.048  0.00  0.00     0.002 A 
ATOM      8  C   UNL d   1       3.009   1.077   0.036  0.00  0.00     0.063 A 
ATOM      9  C   UNL d   1      -0.664   0.495  -0.032  0.00  0.00     0.069 A 
ATOM     10  C   UNL d   1      -1.066  -0.842  -0.024  0.00  0.00     0.061 A 
ATOM     11  C   UNL d   1       2.772  -2.688   0.047  0.00  0.00     0.104 C 
ATOM     12  N   UNL d   1       3.063  -3.815   0.063  0.00  0.00    -0.191 NA
ATOM     13  C   UNL d   1      -1.615   1.531  -0.020  0.00  0.00     0.032 A 
ATOM     14  C   UNL d   1      -2.428  -1.176  -0.017  0.00  0.00     0.032 A 
ATOM     15  C   UNL d   1      -2.973   1.178  -0.020  0.00  0.00     0.002 A 
ATOM     16  C   UNL d   1      -3.377  -0.155  -0.018  0.00  0.00     0.002 A 
ENDROOT
BRANCH   7  17
ATOM     17  C   UNL d   1       4.835  -0.704   0.036  0.00  0.00    -0.024 A 
ATOM     18  C   UNL d   1       5.509  -0.836  -1.185  0.00  0.00     0.012 A 
ATOM     19  C   UNL d   1       6.846  -1.238  -1.211  0.00  0.00     0.001 A 
ATOM     20  C   UNL d   1       7.520  -1.497  -0.019  0.00  0.00     0.000 A 
ATOM     21  C   UNL d   1       6.862  -1.345   1.200  0.00  0.00     0.001 A 
ATOM     22  C   UNL d   1       5.523  -0.949   1.231  0.00  0.00     0.012 A 
ENDBRANCH   7  17
BRANCH   4  23
ATOM     23  N   UNL d   1       1.369   2.808  -0.047  0.00  0.00    -0.342 N 
ATOM     24  H   UNL d   1       0.557   3.062  -0.598  0.00  0.00     0.167 HD
BRANCH  23  25
ATOM     25  C   UNL d   1       1.776   3.769   0.900  0.00  0.00     0.033 A 
ATOM     26  C   UNL d   1       1.957   5.102   0.509  0.00  0.00     0.031 A 
ATOM     27  C   UNL d   1       2.492   6.040   1.402  0.00  0.00     0.026 A 
ATOM     28  C   UNL d   1       2.825   5.654   2.699  0.00  0.00     0.034 A 
ATOM     29  C   UNL d   1       2.607   4.347   3.118  0.00  0.00     0.026 A 
ATOM     30 CL   UNL d   1       3.532   6.788   3.781  0.00  0.00    -0.084 Cl
ATOM     31  C   UNL d   1       2.094   3.411   2.219  0.00  0.00     0.031 A 
ENDBRANCH  23  25
ENDBRANCH   4  23
TORSDOF 3
