REMARK  5 active torsions:
REMARK  status: ('A' for Active; 'I' for Inactive)
REMARK    1  A    between atoms: C_6  and  C_1 
REMARK    2  A    between atoms: C_7  and  C_2 
REMARK    3  A    between atoms: N_9  and  C_3 
REMARK    4  A    between atoms: O_12  and  C_6 
REMARK    5  A    between atoms: C_17  and  O_12 
ROOT
ATOM      1  C   UNL d   1       0.099   1.553   0.087  0.00  0.00     0.084 A 
ATOM      2  C   UNL d   1      -1.329   1.267  -0.026  0.00  0.00    -0.000 A 
ATOM      3  C   UNL d   1       0.853   0.386   0.060  0.00  0.00     0.085 A 
ATOM      4  C   UNL d   1      -1.550  -0.096  -0.114  0.00  0.00     0.065 A 
ATOM      5  S   UNL d   1      -0.118  -1.012  -0.062  0.00  0.00    -0.083 SA
ENDROOT
BRANCH   2   6
ATOM      6  C   UNL d   1      -2.462   2.205  -0.101  0.00  0.00    -0.024 A 
ATOM      7  C   UNL d   1      -2.347   3.424  -0.788  0.00  0.00     0.015 A 
ATOM      8  C   UNL d   1      -3.418   4.322  -0.846  0.00  0.00     0.043 A 
ATOM      9  C   UNL d   1      -4.625   3.986  -0.252  0.00  0.00     0.116 A 
ATOM     10  C   UNL d   1      -4.779   2.776   0.409  0.00  0.00     0.043 A 
ATOM     11  F   UNL d   1      -5.656   4.839  -0.321  0.00  0.00    -0.206 F 
ATOM     12  C   UNL d   1      -3.698   1.892   0.494  0.00  0.00     0.015 A 
ENDBRANCH   2   6
BRANCH   1  13
ATOM     13  C   UNL d   1       0.684   2.880   0.241  0.00  0.00     0.297 C 
ATOM     14  O   UNL d   1       0.123   3.804   0.821  0.00  0.00    -0.259 OA
BRANCH  13  15
ATOM     15  O   UNL d   1       1.899   3.014  -0.382  0.00  0.00    -0.318 OA
BRANCH  15  16
ATOM     16  C   UNL d   1       2.441   4.342  -0.382  0.00  0.00     0.174 C 
ATOM     17  C   UNL d   1       3.130   4.639   0.936  0.00  0.00     0.034 C 
ENDBRANCH  15  16
ENDBRANCH  13  15
ENDBRANCH   1  13
BRANCH   3  18
ATOM     18  N   UNL d   1       2.197   0.246   0.137  0.00  0.00    -0.393 N 
ATOM     19  H   UNL d   1       2.796   1.037  -0.095  0.00  0.00     0.156 HD
ATOM     20  H   UNL d   1       2.604  -0.655  -0.099  0.00  0.00     0.156 HD
ENDBRANCH   3  18
TORSDOF 5
