REMARK  0 active torsions:
REMARK  status: ('A' for Active; 'I' for Inactive)
ROOT
ATOM      1  S   UNL d   1       3.256  -0.736   1.000  0.00  0.00     0.086 S 
ATOM      2  C   UNL d   1       2.691   0.388   2.307  0.00  0.00     0.048 C 
ATOM      3  C   UNL d   1       1.760  -1.250   0.074  0.00  0.00     0.048 C 
ATOM      4  C   UNL d   1       1.484   0.338   3.068  0.00  0.00     0.010 C 
ATOM      5  C   UNL d   1       1.303  -2.102   3.387  0.00  0.00     0.294 C 
ATOM      6  C   UNL d   1       0.651  -0.789   3.289  0.00  0.00     0.052 C 
ATOM      7  C   UNL d   1       1.522  -2.629  -0.313  0.00  0.00     0.002 C 
ATOM      8  O   UNL d   1       0.890  -2.850   2.357  0.00  0.00    -0.313 OA
ATOM      9  O   UNL d   1       3.922  -1.900   1.647  0.00  0.00    -0.247 OA
ATOM     10  C   UNL d   1       1.794  -3.831   0.438  0.00  0.00    -0.021 C 
ATOM     11  C   UNL d   1       1.850  -3.826   1.952  0.00  0.00     0.218 C 
ATOM     12  O   UNL d   1       2.116  -2.387   4.242  0.00  0.00    -0.259 OA
ATOM     13  C   UNL d   1       1.086   1.512   3.761  0.00  0.00    -0.024 C 
ATOM     14  C   UNL d   1       0.873  -2.847  -1.558  0.00  0.00    -0.024 C 
ATOM     15  C   UNL d   1       3.581   1.461   2.518  0.00  0.00     0.022 C 
ATOM     16  C   UNL d   1       1.129  -0.208  -0.635  0.00  0.00     0.022 C 
ATOM     17  C   UNL d   1      -0.630  -0.696   3.851  0.00  0.00     0.018 C 
ATOM     18  C   UNL d   1       3.254   2.520   3.354  0.00  0.00     0.002 C 
ATOM     19  C   UNL d   1       0.364  -0.478  -1.765  0.00  0.00     0.002 C 
ATOM     20  C   UNL d   1      -1.073   0.527   4.330  0.00  0.00     0.002 C 
ATOM     21  C   UNL d   1       1.283  -5.249  -1.450  0.00  0.00     0.002 C 
ATOM     22  C   UNL d   1       1.757  -5.104  -0.162  0.00  0.00     0.010 C 
ATOM     23  C   UNL d   1       1.988   2.573   3.920  0.00  0.00     0.012 C 
ATOM     24  C   UNL d   1      -0.191   1.605   4.344  0.00  0.00     0.012 C 
ATOM     25  C   UNL d   1       0.788  -4.135  -2.117  0.00  0.00     0.012 C 
ATOM     26  C   UNL d   1       0.288  -1.778  -2.250  0.00  0.00     0.012 C 
ENDROOT
TORSDOF 0
