REMARK  6 active torsions:
REMARK  status: ('A' for Active; 'I' for Inactive)
REMARK    1  A    between atoms: C_12  and  C_1 
REMARK    2  A    between atoms: S_13  and  C_5 
REMARK    3  A    between atoms: C_8  and  C_9 
REMARK    4  A    between atoms: C_17  and  S_13 
REMARK    5  A    between atoms: C_15  and  C_17 
REMARK    6  A    between atoms: C_23  and  C_15 
ROOT
ATOM      1  C   UNL d   1      -0.295  -1.026   0.027  0.00  0.00     0.192 A 
ATOM      2  O   UNL d   1      -1.167   0.028  -0.067  0.00  0.00    -0.266 OA
ATOM      3  N   UNL d   1       0.961  -0.633   0.132  0.00  0.00    -0.275 N 
ATOM      4  HN  UNL d   1       1.783  -1.230   0.224  1.00  0.00     0.189 HD
ATOM      5  C   UNL d   1      -0.323   1.103  -0.030  0.00  0.00     0.204 A 
ATOM      6  N   UNL d   1       0.941   0.747   0.094  0.00  0.00    -0.272 N 
ATOM      7  HN  UNL d   1       1.747   1.370   0.151  1.00  0.00     0.189 HD
ENDROOT
BRANCH   1   8
ATOM      8  C   UNL d   1      -0.857  -2.372   0.018  0.00  0.00     0.085 A 
ATOM      9  N   UNL d   1      -2.199  -2.476  -0.166  0.00  0.00    -0.362 N 
ATOM     10  C   UNL d   1      -2.741  -3.716  -0.173  0.00  0.00     0.104 A 
ATOM     11  HN  UNL d   1      -2.779  -1.646  -0.295  1.00  0.00     0.165 HD
ATOM     12  C   UNL d   1      -2.012  -4.882   0.003  0.00  0.00     0.063 A 
ATOM     13  C   UNL d   1      -0.632  -4.756   0.190  0.00  0.00     0.020 A 
ATOM     14  C   UNL d   1      -0.046  -3.489   0.196  0.00  0.00     0.035 A 
BRANCH  12  15
ATOM     15  C   UNL d   1      -2.688  -6.218  -0.005  0.00  0.00     0.418 C 
ATOM     16  F   UNL d   1      -4.034  -6.149  -0.199  0.00  0.00    -0.166 F 
ATOM     17  F   UNL d   1      -2.212  -7.038  -0.982  0.00  0.00    -0.166 F 
ATOM     18  F   UNL d   1      -2.516  -6.894   1.165  0.00  0.00    -0.166 F 
ENDBRANCH  12  15
ENDBRANCH   1   8
BRANCH   5  19
ATOM     19  S   UNL d   1      -0.879   2.748  -0.098  0.00  0.00    -0.077 SA
BRANCH  19  20
ATOM     20  C   UNL d   1       0.598   3.550  -0.796  0.00  0.00     0.166 C 
BRANCH  20  21
ATOM     21  C   UNL d   1       0.900   3.046  -2.198  0.00  0.00     0.169 C 
ATOM     22  O   UNL d   1       0.018   2.654  -2.962  0.00  0.00    -0.291 OA
BRANCH  21  23
ATOM     23  C   UNL d   1       2.311   3.069  -2.698  0.00  0.00     0.010 A 
ATOM     24  C   UNL d   1       3.369   3.645  -1.983  0.00  0.00     0.015 A 
ATOM     25  C   UNL d   1       4.667   3.617  -2.505  0.00  0.00     0.001 A 
ATOM     26  C   UNL d   1       4.916   3.026  -3.742  0.00  0.00     0.000 A 
ATOM     27  C   UNL d   1       3.869   2.464  -4.466  0.00  0.00     0.001 A 
ATOM     28  C   UNL d   1       2.574   2.486  -3.947  0.00  0.00     0.015 A 
ENDBRANCH  21  23
ENDBRANCH  20  21
ENDBRANCH  19  20
ENDBRANCH   5  19
TORSDOF 6
