REMARK  4 active torsions:
REMARK  status: ('A' for Active; 'I' for Inactive)
REMARK    1  A    between atoms: C_4  and  S_1 
REMARK    2  A    between atoms: N_14  and  S_1 
REMARK    3  A    between atoms: C_2  and  C_3 
REMARK       I    between atoms: C_3  and  N_7 
REMARK    4  A    between atoms: N_7  and  C_13 
ROOT
ATOM      1  C   UNL d   1       0.577   1.773  -0.450  0.00  0.00     0.076 A 
ATOM      2  C   UNL d   1      -0.786   1.862  -0.748  0.00  0.00     0.054 A 
ATOM      3  C   UNL d   1      -1.422   3.100  -0.738  0.00  0.00     0.036 A 
ATOM      4  C   UNL d   1       1.339   2.914  -0.205  0.00  0.00     0.025 A 
ATOM      5  C   UNL d   1       0.717   4.159  -0.241  0.00  0.00     0.004 A 
ATOM      6  C   UNL d   1      -0.657   4.250  -0.496  0.00  0.00     0.029 A 
ENDROOT
BRANCH   3   7
ATOM      7  N   UNL d   1      -2.813   3.260  -0.919  0.00  0.00    -0.321 N 
ATOM      8  C   UNL d   1      -3.759   2.260  -1.087  0.00  0.00     0.281 C 
ATOM      9  O   UNL d   1      -3.514   1.058  -1.136  0.00  0.00    -0.265 OA
ATOM     10  H   UNL d   1      -3.172   4.208  -0.873  0.00  0.00     0.169 HD
BRANCH   8  11
ATOM     11  C   UNL d   1      -5.116   2.741  -1.202  0.00  0.00     0.167 A 
ATOM     12  O   UNL d   1      -5.384   4.070  -1.062  0.00  0.00    -0.233 OA
ATOM     13  N   UNL d   1      -6.744   4.286  -1.222  0.00  0.00    -0.272 N 
ATOM     14  C   UNL d   1      -7.269   3.080  -1.454  0.00  0.00     0.117 A 
ATOM     15  HN  UNL d   1      -7.239   5.176  -1.172  1.00  0.00     0.194 HD
ATOM     16  C   UNL d   1      -6.294   2.071  -1.442  0.00  0.00     0.064 A 
ENDBRANCH   8  11
ENDBRANCH   3   7
BRANCH   1  17
ATOM     17  S   UNL d   1       1.286   0.166  -0.266  0.00  0.00     0.239 S 
ATOM     18  O   UNL d   1       2.591   0.289   0.342  0.00  0.00    -0.206 OA
ATOM     19  O   UNL d   1       1.053  -0.591  -1.471  0.00  0.00    -0.206 OA
BRANCH  17  20
ATOM     20  N   UNL d   1       0.302  -0.494   0.926  0.00  0.00    -0.225 NA
ATOM     21  H   UNL d   1       0.823  -0.631   1.791  0.00  0.00     0.136 HD
ATOM     22  H   UNL d   1      -0.178  -1.323   0.577  0.00  0.00     0.136 HD
ENDBRANCH  17  20
ENDBRANCH   1  17
TORSDOF 4
