REMARK  5 active torsions:
REMARK  status: ('A' for Active; 'I' for Inactive)
REMARK    1  A    between atoms: N_3  and  C_1 
REMARK    2  A    between atoms: N_5  and  C_1 
REMARK    3  A    between atoms: C_2  and  N_3 
REMARK    4  A    between atoms: C_13  and  N_5 
REMARK       I    between atoms: C_7  and  N_8 
REMARK    5  A    between atoms: N_8  and  C_9 
ROOT
ATOM      1  N   UNL d   1       0.389   1.034  -0.563  0.00  0.00    -0.333 N 
ATOM      2  H   UNL d   1       0.859   0.140  -0.488  0.00  0.00     0.168 HD
ENDROOT
BRANCH   1   3
ATOM      3  C   UNL d   1       1.056   2.063  -1.260  0.00  0.00     0.042 A 
ATOM      4  C   UNL d   1       0.723   3.398  -0.979  0.00  0.00     0.059 A 
ATOM      5  C   UNL d   1       1.426   4.462  -1.538  0.00  0.00     0.036 A 
ATOM      6  C   UNL d   1       2.498   4.181  -2.389  0.00  0.00     0.030 A 
ATOM      7  C   UNL d   1       2.840   2.855  -2.681  0.00  0.00     0.011 A 
ATOM      8  C   UNL d   1       2.121   1.780  -2.130  0.00  0.00    -0.035 A 
ATOM      9  C   UNL d   1       2.518   0.391  -2.549  0.00  0.00     0.050 C 
BRANCH   5  10
ATOM     10  N   UNL d   1       1.122   5.818  -1.279  0.00  0.00    -0.327 N 
ATOM     11  C   UNL d   1       0.112   6.300  -0.462  0.00  0.00     0.218 C 
ATOM     12  O   UNL d   1      -0.672   5.643   0.213  0.00  0.00    -0.274 OA
ATOM     13  C   UNL d   1       0.027   7.801  -0.430  0.00  0.00     0.117 C 
ATOM     14  H   UNL d   1       1.692   6.498  -1.760  0.00  0.00     0.169 HD
ENDBRANCH   5  10
ENDBRANCH   1   3
BRANCH   1  15
ATOM     15  C   UNL d   1      -0.919   1.003  -0.133  0.00  0.00     0.176 C 
ATOM     16  S   UNL d   1      -2.241   1.627  -0.947  0.00  0.00    -0.041 SA
BRANCH  15  17
ATOM     17  N   UNL d   1      -1.145   0.217   0.971  0.00  0.00    -0.333 N 
ATOM     18  H   UNL d   1      -2.101  -0.111   1.064  0.00  0.00     0.168 HD
BRANCH  17  19
ATOM     19  C   UNL d   1      -0.335   0.093   2.121  0.00  0.00     0.034 A 
ATOM     20  C   UNL d   1       0.639   1.032   2.467  0.00  0.00     0.032 A 
ATOM     21  C   UNL d   1       1.358   0.894   3.659  0.00  0.00     0.044 A 
ATOM     22  C   UNL d   1       1.114  -0.199   4.488  0.00  0.00     0.116 A 
ATOM     23  C   UNL d   1       0.145  -1.135   4.156  0.00  0.00     0.044 A 
ATOM     24  F   UNL d   1       1.810  -0.333   5.623  0.00  0.00    -0.206 F 
ATOM     25  C   UNL d   1      -0.598  -0.978   2.985  0.00  0.00     0.032 A 
ENDBRANCH  17  19
ENDBRANCH  15  17
ENDBRANCH   1  15
TORSDOF 5
