REMARK  2 active torsions:
REMARK  status: ('A' for Active; 'I' for Inactive)
REMARK    1  A    between atoms: C_7  and  N_1 
REMARK    2  A    between atoms: S_12  and  C_2 
ROOT
ATOM      1  N   UNL d   1       2.465  -0.604  -0.001  0.00  0.00    -0.258 N 
ATOM      2  C   UNL d   1       2.340   0.786   0.065  0.00  0.00     0.152 A 
ATOM      3  C   UNL d   1       1.318  -1.407  -0.032  0.00  0.00     0.266 A 
ATOM      4  N   UNL d   1       1.210   1.415   0.102  0.00  0.00    -0.336 N 
ATOM      5  HN  UNL d   1       1.185   2.432   0.165  1.00  0.00     0.168 HD
ATOM      6  C   UNL d   1       0.018  -0.711   0.004  0.00  0.00     0.059 A 
ATOM      7  C   UNL d   1       0.028   0.677   0.055  0.00  0.00     0.049 A 
ATOM      8  O   UNL d   1       1.319  -2.639  -0.069  0.00  0.00    -0.267 OA
ATOM      9  C   UNL d   1      -1.189  -1.422  -0.032  0.00  0.00     0.019 A 
ATOM     10  C   UNL d   1      -1.189   1.364   0.031  0.00  0.00     0.030 A 
ATOM     11  C   UNL d   1      -2.398  -0.728  -0.048  0.00  0.00     0.001 A 
ATOM     12  C   UNL d   1      -2.398   0.666  -0.025  0.00  0.00     0.002 A 
ENDROOT
BRANCH   1  13
ATOM     13  C   UNL d   1       3.726  -1.271  -0.078  0.00  0.00     0.046 A 
ATOM     14  C   UNL d   1       4.699  -1.109   0.917  0.00  0.00     0.055 A 
ATOM     15  C   UNL d   1       5.963  -1.694   0.773  0.00  0.00     0.058 A 
ATOM     16 CL   UNL d   1       7.122  -1.414   2.024  0.00  0.00    -0.082 Cl
ATOM     17  C   UNL d   1       6.257  -2.457  -0.362  0.00  0.00     0.055 A 
ATOM     18  C   UNL d   1       5.275  -2.659  -1.334  0.00  0.00     0.028 A 
ATOM     19 CL   UNL d   1       7.811  -3.159  -0.632  0.00  0.00    -0.083 Cl
ATOM     20  C   UNL d   1       4.012  -2.081  -1.186  0.00  0.00     0.032 A 
ENDBRANCH   1  13
BRANCH   2  21
ATOM     21  S   UNL d   1       3.751   1.833   0.011  0.00  0.00    -0.106 SA
ATOM     22  H   UNL d   1       4.564   1.027  -0.679  0.00  0.00     0.110 HD
ENDBRANCH   2  21
TORSDOF 2
