REMARK  6 active torsions:
REMARK  status: ('A' for Active; 'I' for Inactive)
REMARK    1  A    between atoms: N_2  and  S_1 
REMARK    2  A    between atoms: C_5  and  S_1 
REMARK    3  A    between atoms: N_3  and  N_2 
REMARK    4  A    between atoms: C_4  and  N_3 
REMARK    5  A    between atoms: N_8  and  C_4 
REMARK    6  A    between atoms: C_12  and  N_8 
ROOT
ATOM      1  N   UNL d   1       0.785  -2.276  -0.837  0.00  0.00    -0.266 N 
ATOM      2  H   UNL d   1       1.668  -2.202  -1.348  0.00  0.00     0.190 HD
ENDROOT
BRANCH   1   3
ATOM      3  N   UNL d   1       0.688  -1.382   0.326  0.00  0.00    -0.221 N 
ATOM      4  H   UNL d   1      -0.196  -0.880   0.437  0.00  0.00     0.200 HD
BRANCH   3   5
ATOM      5  S   UNL d   1       2.074  -0.581   0.876  0.00  0.00     0.276 S 
ATOM      6  O   UNL d   1       2.562   0.199  -0.248  0.00  0.00    -0.199 OA
ATOM      7  O   UNL d   1       2.917  -1.534   1.559  0.00  0.00    -0.199 OA
BRANCH   5   8
ATOM      8  C   UNL d   1       1.403   0.529   2.087  0.00  0.00     0.081 A 
ATOM      9  C   UNL d   1       0.584   0.024   3.104  0.00  0.00     0.026 A 
ATOM     10  C   UNL d   1       0.051   0.896   4.054  0.00  0.00     0.008 A 
ATOM     11  C   UNL d   1       0.341   2.269   4.005  0.00  0.00    -0.062 A 
ATOM     12  C   UNL d   1       1.157   2.757   2.976  0.00  0.00     0.008 A 
ATOM     13  C   UNL d   1      -0.226   3.194   5.042  0.00  0.00     0.048 C 
ATOM     14  C   UNL d   1       1.688   1.895   2.018  0.00  0.00     0.026 A 
ENDBRANCH   5   8
ENDBRANCH   3   5
ENDBRANCH   1   3
BRANCH   1  15
ATOM     15  C   UNL d   1       0.376  -3.587  -0.694  0.00  0.00     0.191 C 
ATOM     16  S   UNL d   1       0.082  -4.360   0.764  0.00  0.00    -0.039 SA
BRANCH  15  17
ATOM     17  N   UNL d   1       0.261  -4.332  -1.839  0.00  0.00    -0.332 N 
ATOM     18  H   UNL d   1       0.227  -5.330  -1.647  0.00  0.00     0.168 HD
BRANCH  17  19
ATOM     19  C   UNL d   1      -0.328  -3.958  -3.072  0.00  0.00     0.034 A 
ATOM     20  C   UNL d   1      -0.777  -2.670  -3.368  0.00  0.00     0.037 A 
ATOM     21  C   UNL d   1      -1.520  -2.400  -4.534  0.00  0.00    -0.043 A 
ATOM     22  C   UNL d   1      -2.026  -1.002  -4.755  0.00  0.00     0.049 C 
ATOM     23  C   UNL d   1      -1.765  -3.445  -5.435  0.00  0.00     0.017 A 
ATOM     24  C   UNL d   1      -1.295  -4.731  -5.164  0.00  0.00     0.022 A 
ATOM     25 BR   UNL d   1      -2.756  -3.187  -7.034  0.00  0.00    -0.051 Br
ATOM     26  C   UNL d   1      -0.584  -4.986  -3.988  0.00  0.00     0.031 A 
ENDBRANCH  17  19
ENDBRANCH  15  17
ENDBRANCH   1  15
TORSDOF 6
