REMARK  2 active torsions:
REMARK  status: ('A' for Active; 'I' for Inactive)
REMARK    1  A    between atoms: C_2  and  C_1 
REMARK    2  A    between atoms: O_12  and  C_7 
ROOT
ATOM      1  C   UNL d   1      -2.135  -0.861   0.335  0.00  0.00     0.163 A 
ATOM      2  N   UNL d   1      -0.919  -1.663   0.155  0.00  0.00    -0.274 NA
ATOM      3  S   UNL d   1      -1.726   0.912   0.195  0.00  0.00    -0.103 SA
ATOM      4  C   UNL d   1       0.212  -0.833   0.058  0.00  0.00     0.026 A 
ATOM      5  C   UNL d   1      -0.004   0.547   0.126  0.00  0.00     0.023 A 
ATOM      6  C   UNL d   1       1.510  -1.318  -0.031  0.00  0.00     0.025 A 
ATOM      7  C   UNL d   1       1.043   1.455   0.088  0.00  0.00     0.020 A 
ATOM      8  C   UNL d   1       2.579  -0.416  -0.057  0.00  0.00     0.002 A 
ATOM      9  C   UNL d   1       2.346   0.964   0.001  0.00  0.00     0.001 A 
ATOM     10  H   UNL d   1      -0.964  -2.397  -0.545  0.00  0.00     0.129 HD
ENDROOT
BRANCH   1  11
ATOM     11  C   UNL d   1      -3.243  -1.286  -0.604  0.00  0.00     0.004 A 
ATOM     12  C   UNL d   1      -3.150  -1.261  -2.006  0.00  0.00     0.074 A 
ATOM     13  C   UNL d   1      -4.226  -1.640  -2.811  0.00  0.00     0.038 A 
ATOM     14  C   UNL d   1      -5.423  -2.060  -2.234  0.00  0.00     0.022 A 
ATOM     15  C   UNL d   1      -5.530  -2.109  -0.849  0.00  0.00     0.011 A 
ATOM     16  C   UNL d   1      -4.458  -1.728  -0.040  0.00  0.00     0.031 A 
ATOM     17 BR   UNL d   1      -7.144  -2.690  -0.053  0.00  0.00    -0.051 Br
BRANCH  12  18
ATOM     18  O   UNL d   1      -2.024  -0.879  -2.677  0.00  0.00    -0.360 OA
ATOM     19  H   UNL d   1      -1.396  -0.468  -2.056  0.00  0.00     0.217 HD
ENDBRANCH  12  18
ENDBRANCH   1  11
TORSDOF 2
