REMARK  7 active torsions:
REMARK  status: ('A' for Active; 'I' for Inactive)
REMARK    1  A    between atoms: C_2  and  C_1 
REMARK       I    between atoms: N_5  and  C_1 
REMARK    2  A    between atoms: C_3  and  N_7 
REMARK    3  A    between atoms: N_4  and  C_3 
REMARK    4  A    between atoms: C_6  and  N_4 
REMARK    5  A    between atoms: C_12  and  N_5 
REMARK    6  A    between atoms: N_7  and  C_14 
REMARK    7  A    between atoms: O_20  and  C_10 
ROOT
ATOM      1  C   UNL d   1      -1.255  -0.683  -0.585  0.00  0.00     0.037 A 
ATOM      2  C   UNL d   1      -2.201   0.255  -0.998  0.00  0.00     0.059 A 
ATOM      3  C   UNL d   1      -3.532  -0.113  -1.215  0.00  0.00     0.036 A 
ATOM      4  C   UNL d   1      -3.027  -2.340  -0.449  0.00  0.00     0.004 A 
ATOM      5  C   UNL d   1      -1.683  -1.982  -0.288  0.00  0.00     0.029 A 
ATOM      6  C   UNL d   1      -3.950  -1.408  -0.926  0.00  0.00     0.029 A 
ENDROOT
BRANCH   3   7
ATOM      7  N   UNL d   1      -4.402   0.877  -1.717  0.00  0.00    -0.333 N 
ATOM      8  H   UNL d   1      -4.073   1.828  -1.581  0.00  0.00     0.168 HD
BRANCH   7   9
ATOM      9  C   UNL d   1      -5.142   0.788  -2.879  0.00  0.00     0.176 C 
ATOM     10  S   UNL d   1      -5.222  -0.494  -3.952  0.00  0.00    -0.041 SA
BRANCH   9  11
ATOM     11  N   UNL d   1      -5.754   1.959  -3.263  0.00  0.00    -0.333 N 
ATOM     12  H   UNL d   1      -5.987   1.976  -4.249  0.00  0.00     0.168 HD
BRANCH  11  13
ATOM     13  C   UNL d   1      -6.219   3.039  -2.485  0.00  0.00     0.040 A 
ATOM     14  C   UNL d   1      -6.423   4.298  -3.086  0.00  0.00    -0.034 A 
ATOM     15  C   UNL d   1      -6.968   5.342  -2.314  0.00  0.00     0.028 A 
ATOM     16  C   UNL d   1      -5.970   4.639  -4.481  0.00  0.00     0.050 C 
ATOM     17  C   UNL d   1      -7.325   5.133  -0.983  0.00  0.00     0.011 A 
ATOM     18  C   UNL d   1      -7.130   3.892  -0.392  0.00  0.00     0.021 A 
ATOM     19 BR   UNL d   1      -8.083   6.544   0.020  0.00  0.00    -0.051 Br
ATOM     20  C   UNL d   1      -6.576   2.851  -1.141  0.00  0.00     0.031 A 
ENDBRANCH  11  13
ENDBRANCH   9  11
ENDBRANCH   7   9
ENDBRANCH   3   7
BRANCH   1  21
ATOM     21  N   UNL d   1       0.125  -0.391  -0.463  0.00  0.00    -0.323 N 
ATOM     22  C   UNL d   1       0.742   0.792  -0.832  0.00  0.00     0.259 C 
ATOM     23  O   UNL d   1       0.204   1.774  -1.335  0.00  0.00    -0.267 OA
ATOM     24  H   UNL d   1       0.693  -1.123  -0.061  0.00  0.00     0.169 HD
BRANCH  22  25
ATOM     25  C   UNL d   1       2.193   0.914  -0.540  0.00  0.00     0.065 A 
ATOM     26  C   UNL d   1       2.718   2.189  -0.256  0.00  0.00     0.081 A 
ATOM     27  C   UNL d   1       4.063   2.353   0.074  0.00  0.00     0.037 A 
ATOM     28  C   UNL d   1       4.906   1.244   0.086  0.00  0.00     0.003 A 
ATOM     29  C   UNL d   1       4.411  -0.021  -0.239  0.00  0.00     0.001 A 
ATOM     30  C   UNL d   1       3.058  -0.188  -0.553  0.00  0.00     0.020 A 
BRANCH  26  31
ATOM     31  O   UNL d   1       1.959   3.329  -0.281  0.00  0.00    -0.360 OA
ATOM     32  H   UNL d   1       1.106   3.112  -0.730  0.00  0.00     0.217 HD
ENDBRANCH  26  31
ENDBRANCH  22  25
ENDBRANCH   1  21
TORSDOF 7
