REMARK  5 active torsions:
REMARK  status: ('A' for Active; 'I' for Inactive)
REMARK    1  A    between atoms: C_3  and  C_1 
REMARK    2  A    between atoms: C_5  and  CA_2 
REMARK       I    between atoms: N_4  and  C_3 
REMARK    3  A    between atoms: C_6  and  N_4 
REMARK    4  A    between atoms: OXT_15  and  C_5 
REMARK    5  A    between atoms: C_14  and  C_11 
ROOT
ATOM      1  C   UNL d   1      -2.059  -4.450   0.021  0.00  0.00     0.275 C 
ATOM      2  N   UNL d   1      -0.979  -3.594   0.135  0.00  0.00    -0.321 N 
ATOM      3  O   UNL d   1      -2.057  -5.659   0.227  0.00  0.00    -0.266 OA
ATOM      4  H   UNL d   1      -1.175  -2.601   0.200  0.00  0.00     0.169 HD
ENDROOT
BRANCH   1   5
ATOM      5  C   UNL d   1      -3.305  -3.797  -0.451  0.00  0.00     0.134 A 
ATOM      6  CA  UNL d   1      -4.564  -4.160  -0.003  0.00  0.00     0.139 A 
ATOM      7  N   UNL d   1      -5.716  -3.784  -0.656  0.00  0.00    -0.357 N 
ATOM      8  C   UNL d   1      -5.527  -2.991  -1.743  0.00  0.00     0.105 A 
ATOM      9  HN  UNL d   1      -6.642  -4.080  -0.348  1.00  0.00     0.165 HD
ATOM     10  C   UNL d   1      -4.272  -2.579  -2.148  0.00  0.00     0.105 A 
ATOM     11  N   UNL d   1      -3.138  -2.965  -1.525  0.00  0.00    -0.358 N 
ATOM     12  HN  UNL d   1      -2.216  -2.656  -1.834  1.00  0.00     0.165 HD
BRANCH   6  13
ATOM     13  C   UNL d   1      -4.797  -4.834   1.297  0.00  0.00     0.196 C 
ATOM     14  O   UNL d   1      -4.026  -4.832   2.238  0.00  0.00    -0.645 OA
BRANCH  13  15
ATOM     15  OXT UNL d   1      -6.060  -5.334   1.351  0.00  0.00    -0.772 OA
ATOM     16  HXT UNL d   1      -6.555  -5.089   0.535  0.00  0.00     0.167 HD
ENDBRANCH  13  15
ENDBRANCH   6  13
ENDBRANCH   1   5
BRANCH   2  17
ATOM     17  C   UNL d   1       0.346  -3.996   0.415  0.00  0.00     0.046 A 
ATOM     18  C   UNL d   1       1.156  -3.233   1.295  0.00  0.00     0.001 A 
ATOM     19  C   UNL d   1       2.517  -3.593   1.385  0.00  0.00     0.014 A 
ATOM     20  C   UNL d   1       3.060  -4.636   0.629  0.00  0.00     0.001 A 
ATOM     21  C   UNL d   1       2.241  -5.384  -0.208  0.00  0.00     0.002 A 
ATOM     22  C   UNL d   1       0.884  -5.081  -0.296  0.00  0.00     0.030 A 
BRANCH  18  23
ATOM     23  C   UNL d   1       0.620  -2.136   2.148  0.00  0.00    -0.024 A 
ATOM     24  C   UNL d   1      -0.650  -2.219   2.754  0.00  0.00     0.012 A 
ATOM     25  C   UNL d   1      -1.177  -1.165   3.506  0.00  0.00     0.001 A 
ATOM     26  C   UNL d   1      -0.418  -0.022   3.725  0.00  0.00     0.000 A 
ATOM     27  C   UNL d   1       0.865   0.064   3.194  0.00  0.00     0.001 A 
ATOM     28  C   UNL d   1       1.372  -0.975   2.406  0.00  0.00     0.012 A 
ENDBRANCH  18  23
ENDBRANCH   2  17
TORSDOF 5
