REMARK  4 active torsions:
REMARK  status: ('A' for Active; 'I' for Inactive)
REMARK    1  A    between atoms: N_2  and  S_1 
REMARK    2  A    between atoms: C_5  and  S_1 
REMARK    3  A    between atoms: S_8  and  C_4 
REMARK    4  A    between atoms: S_9  and  C_4 
ROOT
ATOM      1  S   UNL d   1       1.031  -0.051   0.098  0.00  0.00     0.264 S 
ATOM      2  O   UNL d   1       0.242   1.070   0.566  0.00  0.00    -0.200 OA
ATOM      3  O   UNL d   1       2.453  -0.127   0.366  0.00  0.00    -0.200 OA
ENDROOT
BRANCH   1   4
ATOM      4  N   UNL d   1       0.763  -0.313  -1.460  0.00  0.00    -0.269 N 
ATOM      5  C   UNL d   1       0.973   0.570  -2.369  0.00  0.00     0.116 C 
ATOM      6  HN  UNL d   1       0.408  -1.226  -1.743  1.00  0.00     0.180 HD
BRANCH   5   7
ATOM      7  S   UNL d   1       1.595   2.192  -2.214  0.00  0.00    -0.109 SA
ATOM      8  C   UNL d   1       3.355   1.848  -2.019  0.00  0.00     0.097 C 
ENDBRANCH   5   7
BRANCH   5   9
ATOM      9  S   UNL d   1       0.557   0.149  -4.031  0.00  0.00    -0.109 SA
ATOM     10  C   UNL d   1      -0.527  -1.274  -3.759  0.00  0.00     0.097 C 
ENDBRANCH   5   9
ENDBRANCH   1   4
BRANCH   1  11
ATOM     11  C   UNL d   1       0.306  -1.514   0.813  0.00  0.00     0.079 A 
ATOM     12  C   UNL d   1       1.087  -2.663   0.966  0.00  0.00     0.026 A 
ATOM     13  C   UNL d   1       0.499  -3.827   1.456  0.00  0.00     0.008 A 
ATOM     14  C   UNL d   1      -0.862  -3.848   1.796  0.00  0.00    -0.062 A 
ATOM     15  C   UNL d   1      -1.624  -2.679   1.664  0.00  0.00     0.008 A 
ATOM     16  C   UNL d   1      -1.486  -5.122   2.284  0.00  0.00     0.048 C 
ATOM     17  C   UNL d   1      -1.044  -1.509   1.174  0.00  0.00     0.026 A 
ENDBRANCH   1  11
TORSDOF 4
