REMARK  9 active torsions:
REMARK  status: ('A' for Active; 'I' for Inactive)
REMARK    1  A    between atoms: S_2  and  C_1 
REMARK    2  A    between atoms: N_7  and  S_2 
REMARK    3  A    between atoms: C_10  and  N_7 
REMARK    4  A    between atoms: C_13  and  C_10 
REMARK    5  A    between atoms: C_16  and  C_13 
REMARK    6  A    between atoms: O_22  and  C_13 
REMARK    7  A    between atoms: O_14  and  C_16 
REMARK    8  A    between atoms: C_15  and  O_14 
REMARK    9  A    between atoms: O_23  and  C_17 
ROOT
ATOM      1  C   UNL d   1       1.644  -3.213   2.623  0.00  0.00     0.138 C 
ENDROOT
BRANCH   1   2
ATOM      2  N   UNL d   1       1.350  -3.910   1.353  0.00  0.00    -0.213 NA
ATOM      3  H   UNL d   1       1.762  -4.839   1.251  0.00  0.00     0.140 HD
BRANCH   2   4
ATOM      4  S   UNL d   1       1.648  -3.030  -0.057  0.00  0.00     0.243 S 
ATOM      5  O   UNL d   1       1.143  -1.686   0.117  0.00  0.00    -0.206 OA
ATOM      6  O   UNL d   1       1.295  -3.859  -1.180  0.00  0.00    -0.206 OA
BRANCH   4   7
ATOM      7  C   UNL d   1       3.358  -2.841  -0.187  0.00  0.00     0.105 A 
ATOM      8  C   UNL d   1       4.255  -3.880  -0.268  0.00  0.00     0.099 A 
ATOM      9  S   UNL d   1       5.871  -3.349  -0.333  0.00  0.00    -0.064 SA
ATOM     10 CL   UNL d   1       3.958  -5.574  -0.268  0.00  0.00    -0.075 Cl
ATOM     11  C   UNL d   1       5.379  -1.732  -0.235  0.00  0.00     0.077 A 
ATOM     12  C   UNL d   1       4.020  -1.575  -0.167  0.00  0.00     0.058 A 
ATOM     13 CL   UNL d   1       6.553  -0.480  -0.208  0.00  0.00    -0.076 Cl
ENDBRANCH   4   7
ENDBRANCH   2   4
ENDBRANCH   1   2
BRANCH   1  14
ATOM     14  C   UNL d   1       1.302  -4.081   3.842  0.00  0.00     0.156 C 
BRANCH  14  15
ATOM     15  C   UNL d   1       2.111  -5.383   3.904  0.00  0.00     0.208 C 
BRANCH  15  16
ATOM     16  O   UNL d   1       3.509  -5.068   3.890  0.00  0.00    -0.349 OA
BRANCH  16  17
ATOM     17  C   UNL d   1       4.370  -6.132   3.884  0.00  0.00     0.069 A 
ATOM     18  C   UNL d   1       4.001  -7.478   3.897  0.00  0.00     0.039 A 
ATOM     19  C   UNL d   1       4.975  -8.483   3.876  0.00  0.00     0.039 A 
ATOM     20  C   UNL d   1       6.329  -8.154   3.849  0.00  0.00     0.068 A 
ATOM     21  C   UNL d   1       6.698  -6.808   3.840  0.00  0.00     0.039 A 
ATOM     22  C   UNL d   1       5.726  -5.803   3.858  0.00  0.00     0.039 A 
BRANCH  20  23
ATOM     23  O   UNL d   1       7.368  -9.042   3.836  0.00  0.00    -0.356 OA
ATOM     24  C   UNL d   1       7.028 -10.424   3.831  0.00  0.00     0.210 C 
ENDBRANCH  20  23
ENDBRANCH  16  17
ENDBRANCH  15  16
ENDBRANCH  14  15
BRANCH  14  25
ATOM     25  O   UNL d   1       1.542  -3.320   5.034  0.00  0.00    -0.392 OA
ATOM     26  H   UNL d   1       2.508  -3.207   5.115  0.00  0.00     0.210 HD
ENDBRANCH  14  25
ENDBRANCH   1  14
TORSDOF 9
