REMARK  5 active torsions:
REMARK  status: ('A' for Active; 'I' for Inactive)
REMARK    1  A    between atoms: C_11  and  C_3 
REMARK    2  A    between atoms: N_14  and  C_4 
REMARK    3  A    between atoms: C_12  and  C_6 
REMARK    4  A    between atoms: O_17  and  C_11 
REMARK    5  A    between atoms: C_23  and  O_17 
ROOT
ATOM      1  C   UNL d   1       0.914  -0.979  -0.173  0.00  0.00     0.066 A 
ATOM      2  C   UNL d   1       0.500   0.294  -0.113  0.00  0.00     0.103 A 
ATOM      3  C   UNL d   1       3.265  -0.064  -0.121  0.00  0.00     0.075 A 
ATOM      4  C   UNL d   1       2.733   1.177  -0.097  0.00  0.00     0.134 A 
ATOM      5  C   UNL d   1      -0.078  -2.075  -0.258  0.00  0.00     0.298 C 
ATOM      6  C   UNL d   1       2.395  -1.314  -0.224  0.00  0.00     0.105 A 
ATOM      7  O   UNL d   1       1.363   1.370  -0.106  0.00  0.00    -0.297 OA
ATOM      8  C   UNL d   1      -0.918   0.639  -0.076  0.00  0.00     0.033 A 
ATOM      9  O   UNL d   1      -1.419  -1.736  -0.114  0.00  0.00    -0.274 OA
ATOM     10  C   UNL d   1      -1.843  -0.397  -0.061  0.00  0.00     0.092 A 
ATOM     11  O   UNL d   1       0.247  -3.239  -0.460  0.00  0.00    -0.259 OA
ATOM     12  C   UNL d   1      -1.394   1.957  -0.049  0.00  0.00     0.017 A 
ATOM     13  C   UNL d   1      -3.215  -0.160  -0.019  0.00  0.00     0.038 A 
ATOM     14  C   UNL d   1      -2.768   2.212  -0.012  0.00  0.00     0.001 A 
ATOM     15  C   UNL d   1      -3.678   1.153   0.004  0.00  0.00     0.003 A 
ENDROOT
BRANCH   6  16
ATOM     16  C   UNL d   1       2.809  -2.429   0.745  0.00  0.00    -0.023 A 
ATOM     17  C   UNL d   1       2.782  -2.325   2.145  0.00  0.00     0.041 A 
ATOM     18 CL   UNL d   1       2.248  -0.898   2.958  0.00  0.00    -0.084 Cl
ATOM     19  C   UNL d   1       3.208  -3.395   2.946  0.00  0.00     0.024 A 
ATOM     20  C   UNL d   1       3.650  -4.583   2.369  0.00  0.00     0.002 A 
ATOM     21  C   UNL d   1       3.668  -4.714   0.985  0.00  0.00     0.001 A 
ATOM     22  C   UNL d   1       3.253  -3.649   0.185  0.00  0.00     0.010 A 
ENDBRANCH   6  16
BRANCH   3  23
ATOM     23  C   UNL d   1       4.734  -0.290  -0.039  0.00  0.00     0.294 C 
ATOM     24  O   UNL d   1       5.298  -1.278  -0.476  0.00  0.00    -0.259 OA
BRANCH  23  25
ATOM     25  O   UNL d   1       5.305   0.675   0.730  0.00  0.00    -0.318 OA
BRANCH  25  26
ATOM     26  C   UNL d   1       6.540   0.340   1.373  0.00  0.00     0.174 C 
ATOM     27  C   UNL d   1       6.196  -0.111   2.782  0.00  0.00     0.034 C 
ENDBRANCH  25  26
ENDBRANCH  23  25
ENDBRANCH   3  23
BRANCH   4  28
ATOM     28  N   UNL d   1       3.420   2.369  -0.050  0.00  0.00    -0.282 NA
ATOM     29  H   UNL d   1       4.346   2.269   0.370  0.00  0.00     0.126 HD
ATOM     30  H   UNL d   1       2.869   3.094   0.403  0.00  0.00     0.126 HD
ENDBRANCH   4  28
TORSDOF 5
