REMARK  6 active torsions:
REMARK  status: ('A' for Active; 'I' for Inactive)
REMARK    1  A    between atoms: S_2  and  C_1 
REMARK    2  A    between atoms: N_7  and  S_2 
REMARK    3  A    between atoms: C_10  and  N_7 
REMARK    4  A    between atoms: C_12  and  C_10 
REMARK    5  A    between atoms: C_14  and  C_12 
REMARK    6  A    between atoms: O_15  and  C_12 
ROOT
ATOM      1  N   UNL d   1       1.301  -3.854   1.323  0.00  0.00    -0.213 NA
ATOM      2  H   UNL d   1       1.577  -4.835   1.267  0.00  0.00     0.140 HD
ENDROOT
BRANCH   1   3
ATOM      3  S   UNL d   1       1.626  -3.032  -0.102  0.00  0.00     0.243 S 
ATOM      4  O   UNL d   1       1.597  -1.610   0.165  0.00  0.00    -0.206 OA
ATOM      5  O   UNL d   1       0.860  -3.638  -1.160  0.00  0.00    -0.206 OA
BRANCH   3   6
ATOM      6  C   UNL d   1       3.262  -3.365  -0.535  0.00  0.00     0.105 A 
ATOM      7  C   UNL d   1       3.748  -4.614  -0.832  0.00  0.00     0.099 A 
ATOM      8  S   UNL d   1       5.400  -4.603  -1.234  0.00  0.00    -0.064 SA
ATOM      9 CL   UNL d   1       2.927  -6.127  -0.821  0.00  0.00    -0.075 Cl
ATOM     10  C   UNL d   1       5.482  -2.930  -0.994  0.00  0.00     0.077 A 
ATOM     11  C   UNL d   1       4.287  -2.369  -0.624  0.00  0.00     0.058 A 
ATOM     12 CL   UNL d   1       6.973  -2.110  -1.213  0.00  0.00    -0.076 Cl
ENDBRANCH   3   6
ENDBRANCH   1   3
BRANCH   1  13
ATOM     13  C   UNL d   1       1.690  -3.195   2.598  0.00  0.00     0.141 C 
BRANCH  13  14
ATOM     14  C   UNL d   1       1.266  -4.075   3.799  0.00  0.00     0.165 C 
BRANCH  14  15
ATOM     15  C   UNL d   1      -0.220  -4.402   3.905  0.00  0.00    -0.029 A 
ATOM     16  C   UNL d   1      -0.646  -5.562   4.580  0.00  0.00     0.010 A 
ATOM     17  C   UNL d   1      -2.002  -5.884   4.677  0.00  0.00     0.001 A 
ATOM     18  C   UNL d   1      -2.961  -5.037   4.131  0.00  0.00     0.000 A 
ATOM     19  C   UNL d   1      -2.565  -3.864   3.497  0.00  0.00     0.001 A 
ATOM     20  C   UNL d   1      -1.208  -3.547   3.390  0.00  0.00     0.010 A 
ENDBRANCH  14  15
BRANCH  14  21
ATOM     21  O   UNL d   1       2.054  -5.277   3.705  0.00  0.00    -0.390 OA
ATOM     22  H   UNL d   1       1.496  -5.952   3.284  0.00  0.00     0.210 HD
ENDBRANCH  14  21
ENDBRANCH  13  14
ENDBRANCH   1  13
TORSDOF 6
