REMARK  5 active torsions:
REMARK  status: ('A' for Active; 'I' for Inactive)
REMARK    1  A    between atoms: N_5  and  C_1 
REMARK       I    between atoms: C_2  and  N_5 
REMARK       I    between atoms: N_10  and  C_2 
REMARK    2  A    between atoms: C_18  and  N_10 
REMARK    3  A    between atoms: O_15  and  C_11 
REMARK    4  A    between atoms: C_12  and  C_13 
REMARK    5  A    between atoms: C_20  and  O_15 
ROOT
ATOM      1  N   UNL d   1      -1.713   0.038   2.017  0.00  0.00    -0.344 N 
ATOM      2  HN  UNL d   1      -1.909   0.536   2.885  1.00  0.00     0.167 HD
ATOM      3  C   UNL d   1      -1.579   0.691   0.844  0.00  0.00     0.148 A 
ATOM      4  C   UNL d   1      -1.345  -2.070   0.837  0.00  0.00     0.051 A 
ATOM      5  C   UNL d   1      -1.573  -1.316   1.987  0.00  0.00     0.119 A 
ATOM      6  C   UNL d   1      -1.344   0.032  -0.356  0.00  0.00     0.059 A 
ATOM      7  C   UNL d   1      -1.221  -1.360  -0.356  0.00  0.00     0.035 A 
ENDROOT
BRANCH   4   8
ATOM      8  N   UNL d   1      -1.248  -3.485   0.912  0.00  0.00    -0.307 N 
ATOM      9  C   UNL d   1      -1.585  -4.321  -0.114  0.00  0.00     0.325 C 
ATOM     10  N   UNL d   1      -1.494  -5.663   0.106  0.00  0.00    -0.307 N 
ATOM     11  O   UNL d   1      -2.135  -3.964  -1.156  0.00  0.00    -0.247 OA
ATOM     12  H   UNL d   1      -2.111  -6.135  -0.546  0.00  0.00     0.170 HD
ATOM     13  H   UNL d   1      -1.277  -3.916   1.827  0.00  0.00     0.170 HD
BRANCH  10  14
ATOM     14  C   UNL d   1      -0.426  -6.468   0.510  0.00  0.00     0.054 A 
ATOM     15  C   UNL d   1       0.886  -6.187   1.077  0.00  0.00     0.008 A 
ATOM     16  C   UNL d   1       1.672  -7.354   1.120  0.00  0.00     0.017 A 
ATOM     17  C   UNL d   1       1.518  -5.002   1.541  0.00  0.00     0.015 A 
ATOM     18  C   UNL d   1       3.018  -7.354   1.544  0.00  0.00     0.020 A 
ATOM     19  S   UNL d   1       0.807  -8.742   0.602  0.00  0.00    -0.099 SA
ATOM     20  C   UNL d   1       3.594  -6.168   1.986  0.00  0.00     0.001 A 
ATOM     21  C   UNL d   1       2.844  -5.006   2.003  0.00  0.00     0.001 A 
ATOM     22  C   UNL d   1      -0.579  -7.827   0.280  0.00  0.00     0.081 A 
ENDBRANCH  10  14
ENDBRANCH   4   8
BRANCH   3  23
ATOM     23  O   UNL d   1      -1.777   2.064   0.724  0.00  0.00    -0.294 OA
BRANCH  23  24
ATOM     24  C   UNL d   1      -1.626   2.960   1.754  0.00  0.00     0.077 A 
ATOM     25  C   UNL d   1      -1.185   2.712   3.045  0.00  0.00     0.038 A 
ATOM     26  C   UNL d   1      -1.046   3.765   3.973  0.00  0.00     0.011 A 
ATOM     27  C   UNL d   1      -1.333   5.100   3.638  0.00  0.00    -0.050 A 
ATOM     28  C   UNL d   1      -1.757   5.337   2.320  0.00  0.00     0.011 A 
ATOM     29  C   UNL d   1      -1.907   4.286   1.403  0.00  0.00     0.038 A 
BRANCH  27  30
ATOM     30  C   UNL d   1      -1.119   6.251   4.641  0.00  0.00    -0.024 C 
ATOM     31  C   UNL d   1      -2.104   7.424   4.427  0.00  0.00     0.019 C 
ATOM     32  C   UNL d   1      -1.295   5.802   6.111  0.00  0.00     0.019 C 
ATOM     33  C   UNL d   1       0.316   6.786   4.466  0.00  0.00     0.019 C 
ENDBRANCH  27  30
ENDBRANCH  23  24
ENDBRANCH   3  23
TORSDOF 5
