REMARK  6 active torsions:
REMARK  status: ('A' for Active; 'I' for Inactive)
REMARK    1  A    between atoms: C_3  and  C_1 
REMARK    2  A    between atoms: C_4  and  C_2 
REMARK    3  A    between atoms: O_13  and  C_3 
REMARK    4  A    between atoms: O_12  and  C_4 
REMARK    5  A    between atoms: C_15  and  O_12 
REMARK    6  A    between atoms: C_14  and  O_13 
ROOT
ATOM      1  C   UNL d   1       0.734   1.232   0.005  0.00  0.00     0.055 A 
ATOM      2  C   UNL d   1       0.818  -1.180   0.009  0.00  0.00     0.055 A 
ATOM      3  C   UNL d   1       1.484   0.050   0.009  0.00  0.00     0.038 A 
ATOM      4  N   UNL d   1      -1.322  -0.048   0.005  0.00  0.00    -0.373 N 
ATOM      5  HN  UNL d   1      -2.342  -0.083   0.002  1.00  0.00     0.164 HD
ATOM      6  C   UNL d   1      -0.572  -1.175   0.003  0.00  0.00     0.105 A 
ATOM      7  C   UNL d   1      -0.652   1.131   0.011  0.00  0.00     0.105 A 
ENDROOT
BRANCH   1   8
ATOM      8  C   UNL d   1       1.332   2.581  -0.062  0.00  0.00     0.294 C 
ATOM      9  O   UNL d   1       0.672   3.602  -0.109  0.00  0.00    -0.259 OA
BRANCH   8  10
ATOM     10  O   UNL d   1       2.679   2.485  -0.175  0.00  0.00    -0.318 OA
BRANCH  10  11
ATOM     11  C   UNL d   1       3.343   3.669  -0.640  0.00  0.00     0.174 C 
ATOM     12  C   UNL d   1       3.406   3.604  -2.155  0.00  0.00     0.034 C 
ENDBRANCH  10  11
ENDBRANCH   8  10
ENDBRANCH   1   8
BRANCH   2  13
ATOM     13  C   UNL d   1       1.508  -2.484   0.079  0.00  0.00     0.294 C 
ATOM     14  O   UNL d   1       0.921  -3.549   0.140  0.00  0.00    -0.259 OA
BRANCH  13  15
ATOM     15  O   UNL d   1       2.847  -2.296   0.174  0.00  0.00    -0.318 OA
BRANCH  15  16
ATOM     16  C   UNL d   1       3.595  -3.429   0.636  0.00  0.00     0.174 C 
ATOM     17  C   UNL d   1       3.660  -3.360   2.151  0.00  0.00     0.034 C 
ENDBRANCH  15  16
ENDBRANCH  13  15
ENDBRANCH   2  13
TORSDOF 6
