REMARK  5 active torsions:
REMARK  status: ('A' for Active; 'I' for Inactive)
REMARK    1  A    between atoms: S_2  and  C_1 
REMARK    2  A    between atoms: C_17  and  S_2 
REMARK    3  A    between atoms: C_6  and  C_17 
REMARK       I    between atoms: N_13  and  C_6 
REMARK    4  A    between atoms: C_20  and  N_13 
REMARK    5  A    between atoms: C_19  and  C_20 
ROOT
ATOM      1  C   UNL d   1       5.573  -0.275   0.050  0.00  0.00     0.227 C 
ATOM      2  N   UNL d   1       5.820  -1.607  -0.187  0.00  0.00    -0.356 N 
ATOM      3  O   UNL d   1       6.474   0.520   0.320  0.00  0.00    -0.273 OA
ATOM      4  H   UNL d   1       5.023  -2.221  -0.311  0.00  0.00     0.162 HD
ENDROOT
BRANCH   1   5
ATOM      5  C   UNL d   1       4.133   0.214  -0.109  0.00  0.00     0.182 C 
BRANCH   5   6
ATOM      6  S   UNL d   1       2.886  -1.114   0.073  0.00  0.00    -0.120 SA
BRANCH   6   7
ATOM      7  C   UNL d   1       1.370  -0.202  -0.300  0.00  0.00     0.013 A 
ATOM      8  C   UNL d   1       0.692  -0.426  -1.525  0.00  0.00    -0.044 A 
ATOM      9  C   UNL d   1      -0.540   0.215  -1.770  0.00  0.00     0.014 A 
ATOM     10  C   UNL d   1       1.165  -1.356  -2.614  0.00  0.00     0.049 C 
ATOM     11  C   UNL d   1      -1.122   1.066  -0.833  0.00  0.00    -0.061 A 
ATOM     12  C   UNL d   1      -0.449   1.289   0.370  0.00  0.00     0.014 A 
ATOM     13  C   UNL d   1      -2.457   1.694  -1.107  0.00  0.00     0.048 C 
ATOM     14  C   UNL d   1       0.785   0.667   0.654  0.00  0.00    -0.044 A 
ATOM     15  C   UNL d   1       1.337   0.924   2.033  0.00  0.00     0.049 C 
ENDBRANCH   6   7
ENDBRANCH   5   6
ENDBRANCH   1   5
BRANCH   2  16
ATOM     16  C   UNL d   1       7.124  -2.207   0.012  0.00  0.00     0.161 C 
BRANCH  16  17
ATOM     17  C   UNL d   1       7.576  -2.995  -1.194  0.00  0.00    -0.038 A 
ATOM     18  C   UNL d   1       7.867  -4.367  -1.089  0.00  0.00     0.048 A 
ATOM     19  C   UNL d   1       8.314  -5.027  -2.217  0.00  0.00     0.105 A 
ATOM     20  O   UNL d   1       8.640  -6.346  -2.289  0.00  0.00    -0.323 OA
ATOM     21  C   UNL d   1       8.485  -4.381  -3.418  0.00  0.00     0.105 A 
ATOM     22  C   UNL d   1       9.002  -6.462  -3.682  0.00  0.00     0.352 A 
ATOM     23  O   UNL d   1       8.935  -5.211  -4.397  0.00  0.00    -0.323 OA
ATOM     24  C   UNL d   1       8.221  -3.038  -3.560  0.00  0.00     0.040 A 
ATOM     25  C   UNL d   1       7.764  -2.341  -2.435  0.00  0.00     0.012 A 
ENDBRANCH  16  17
ENDBRANCH   2  16
TORSDOF 5
