REMARK  4 active torsions:
REMARK  status: ('A' for Active; 'I' for Inactive)
REMARK    1  A    between atoms: C_7  and  N_1 
REMARK    2  A    between atoms: C_10  and  N_2 
REMARK    3  A    between atoms: C_14  and  C_10 
REMARK    4  A    between atoms: C_17  and  C_12 
ROOT
ATOM      1  N   UNL d   1       0.912  -1.381  -0.077  0.00  0.00    -0.246 N 
ATOM      2  N   UNL d   1       2.111   0.679  -0.240  0.00  0.00    -0.259 N 
ATOM      3  C   UNL d   1       2.142  -0.730  -0.218  0.00  0.00     0.338 A 
ATOM      4  C   UNL d   1      -0.265  -0.671  -0.115  0.00  0.00     0.150 A 
ATOM      5  C   UNL d   1      -0.239   0.693  -0.183  0.00  0.00     0.147 A 
ATOM      6  C   UNL d   1       0.950   1.462  -0.221  0.00  0.00     0.282 A 
ATOM      7  N   UNL d   1      -1.549  -1.132  -0.038  0.00  0.00    -0.336 N 
ATOM      8  HN  UNL d   1      -1.859  -2.103   0.012  1.00  0.00     0.168 HD
ATOM      9  N   UNL d   1      -1.545   1.090  -0.133  0.00  0.00    -0.345 N 
ATOM     10  C   UNL d   1      -2.301  -0.049  -0.044  0.00  0.00     0.182 A 
ATOM     11  O   UNL d   1       3.211  -1.344  -0.287  0.00  0.00    -0.246 OA
ATOM     12  O   UNL d   1       0.933   2.689  -0.212  0.00  0.00    -0.265 OA
ATOM     13  H   UNL d   1      -1.878   2.046  -0.133  0.00  0.00     0.167 HD
ENDROOT
BRANCH   1  14
ATOM     14  C   UNL d   1       0.854  -2.781   0.076  0.00  0.00     0.052 A 
ATOM     15  C   UNL d   1       0.915  -3.431   1.337  0.00  0.00    -0.023 A 
ATOM     16  C   UNL d   1       0.978  -4.849   1.296  0.00  0.00     0.010 A 
ATOM     17  C   UNL d   1       1.016  -5.573   0.100  0.00  0.00     0.001 A 
ATOM     18  C   UNL d   1       0.960  -4.911  -1.114  0.00  0.00     0.002 A 
ATOM     19  C   UNL d   1       0.875  -3.525  -1.125  0.00  0.00     0.031 A 
BRANCH  15  20
ATOM     20  C   UNL d   1       0.846  -2.749   2.732  0.00  0.00    -0.022 C 
ATOM     21  C   UNL d   1      -0.631  -2.757   3.181  0.00  0.00     0.019 C 
ATOM     22  C   UNL d   1       1.678  -3.520   3.795  0.00  0.00     0.019 C 
ATOM     23  C   UNL d   1       1.365  -1.298   2.835  0.00  0.00     0.019 C 
ENDBRANCH  15  20
ENDBRANCH   1  14
BRANCH   2  24
ATOM     24  C   UNL d   1       3.392   1.373  -0.188  0.00  0.00     0.179 C 
BRANCH  24  25
ATOM     25  C   UNL d   1       3.862   1.868  -1.531  0.00  0.00    -0.001 A 
ATOM     26  C   UNL d   1       4.038   3.238  -1.748  0.00  0.00     0.124 A 
ATOM     27  F   UNL d   1       3.800   4.109  -0.757  0.00  0.00    -0.205 F 
ATOM     28  C   UNL d   1       4.478   3.729  -2.973  0.00  0.00     0.043 A 
ATOM     29  C   UNL d   1       4.763   2.843  -4.009  0.00  0.00     0.003 A 
ATOM     30  C   UNL d   1       4.615   1.471  -3.808  0.00  0.00     0.001 A 
ATOM     31  C   UNL d   1       4.170   0.984  -2.575  0.00  0.00     0.012 A 
ENDBRANCH  24  25
ENDBRANCH   2  24
TORSDOF 4
