REMARK  5 active torsions:
REMARK  status: ('A' for Active; 'I' for Inactive)
REMARK    1  A    between atoms: N_5  and  C_1 
REMARK    2  A    between atoms: C_4  and  C_2 
REMARK    3  A    between atoms: O_11  and  C_4 
REMARK    4  A    between atoms: C_10  and  N_5 
REMARK    5  A    between atoms: C_12  and  O_11 
ROOT
ATOM      1  C   UNL d   1       1.271  -0.787   0.033  0.00  0.00     0.163 A 
ATOM      2  C   UNL d   1       0.009  -1.231   0.035  0.00  0.00     0.138 A 
ATOM      3  O   UNL d   1       1.431   0.601   0.076  0.00  0.00    -0.327 OA
ATOM      4  C   UNL d   1      -0.777  -0.005   0.088  0.00  0.00     0.193 A 
ATOM      5  C   UNL d   1       0.123   1.177   0.051  0.00  0.00     0.261 A 
ATOM      6  O   UNL d   1      -1.997   0.060   0.133  0.00  0.00    -0.290 OA
ENDROOT
BRANCH   1   7
ATOM      7  N   UNL d   1       2.407  -1.560  -0.073  0.00  0.00    -0.336 N 
ATOM      8  H   UNL d   1       2.243  -2.556  -0.230  0.00  0.00     0.168 HD
BRANCH   7   9
ATOM      9  C   UNL d   1       3.760  -1.181  -0.015  0.00  0.00     0.034 A 
ATOM     10  C   UNL d   1       4.209  -0.012   0.614  0.00  0.00     0.029 A 
ATOM     11  C   UNL d   1       5.553   0.369   0.572  0.00  0.00     0.002 A 
ATOM     12  C   UNL d   1       6.477  -0.414  -0.113  0.00  0.00     0.000 A 
ATOM     13  C   UNL d   1       6.055  -1.580  -0.746  0.00  0.00     0.002 A 
ATOM     14  C   UNL d   1       4.709  -1.958  -0.697  0.00  0.00     0.029 A 
ENDBRANCH   7   9
ENDBRANCH   1   7
BRANCH   2  15
ATOM     15  C   UNL d   1      -0.436  -2.609  -0.113  0.00  0.00     0.301 C 
ATOM     16  O   UNL d   1       0.326  -3.553  -0.272  0.00  0.00    -0.259 OA
BRANCH  15  17
ATOM     17  O   UNL d   1      -1.786  -2.658  -0.158  0.00  0.00    -0.318 OA
BRANCH  17  18
ATOM     18  C   UNL d   1      -2.372  -3.837  -0.723  0.00  0.00     0.174 C 
ATOM     19  C   UNL d   1      -2.471  -3.640  -2.224  0.00  0.00     0.034 C 
ENDBRANCH  17  18
ENDBRANCH  15  17
ENDBRANCH   2  15
TORSDOF 5
