REMARK  4 active torsions:
REMARK  status: ('A' for Active; 'I' for Inactive)
REMARK       I    between atoms: N_2  and  C_1 
REMARK    1  A    between atoms: C_4  and  C_1 
REMARK    2  A    between atoms: N_7  and  N_2 
REMARK    3  A    between atoms: C_5  and  C_6 
REMARK    4  A    between atoms: C_15  and  N_7 
ROOT
ATOM      1  C   UNL d   1       1.168  -0.006  -0.042  0.00  0.00     0.266 C 
ATOM      2  N   UNL d   1       2.218  -0.128  -0.936  0.00  0.00    -0.283 N 
ATOM      3  O   UNL d   1       0.888  -0.868   0.788  0.00  0.00    -0.266 OA
ATOM      4  H   UNL d   1       2.187   0.344  -1.833  0.00  0.00     0.184 HD
ENDROOT
BRANCH   1   5
ATOM      5  C   UNL d   1       0.369   1.257  -0.142  0.00  0.00     0.033 A 
ATOM      6  C   UNL d   1       0.760   2.330  -0.947  0.00  0.00     0.017 A 
ATOM      7  C   UNL d   1       0.013   3.514  -0.965  0.00  0.00     0.009 A 
ATOM      8  C   UNL d   1      -1.135   3.675  -0.170  0.00  0.00    -0.051 A 
ATOM      9  C   UNL d   1      -1.520   2.584   0.627  0.00  0.00     0.009 A 
ATOM     10  C   UNL d   1      -0.782   1.393   0.640  0.00  0.00     0.017 A 
BRANCH   8  11
ATOM     11  C   UNL d   1      -1.890   5.016  -0.178  0.00  0.00    -0.024 C 
ATOM     12  C   UNL d   1      -3.107   5.044   0.773  0.00  0.00     0.019 C 
ATOM     13  C   UNL d   1      -0.937   6.150   0.263  0.00  0.00     0.019 C 
ATOM     14  C   UNL d   1      -2.409   5.322  -1.599  0.00  0.00     0.019 C 
ENDBRANCH   8  11
ENDBRANCH   1   5
BRANCH   2  15
ATOM     15  N   UNL d   1       2.910  -1.340  -0.960  0.00  0.00    -0.203 NA
ATOM     16  H   UNL d   1       2.669  -1.943  -0.163  0.00  0.00     0.153 HD
BRANCH  15  17
ATOM     17  C   UNL d   1       4.309  -1.245  -1.159  0.00  0.00     0.028 A 
ATOM     18  C   UNL d   1       4.984  -0.050  -1.457  0.00  0.00     0.032 A 
ATOM     19  C   UNL d   1       6.358  -0.030  -1.769  0.00  0.00    -0.054 A 
ATOM     20  C   UNL d   1       7.032   1.284  -2.063  0.00  0.00     0.049 C 
ATOM     21  C   UNL d   1       7.070  -1.242  -1.819  0.00  0.00    -0.056 A 
ATOM     22  C   UNL d   1       6.403  -2.435  -1.514  0.00  0.00     0.009 A 
ATOM     23  C   UNL d   1       8.523  -1.288  -2.207  0.00  0.00     0.049 C 
ATOM     24  C   UNL d   1       5.044  -2.433  -1.189  0.00  0.00     0.026 A 
ENDBRANCH  15  17
ENDBRANCH   2  15
TORSDOF 4
