REMARK  3 active torsions:
REMARK  status: ('A' for Active; 'I' for Inactive)
REMARK    1  A    between atoms: S_10  and  C_1 
REMARK    2  A    between atoms: C_7  and  S_10 
REMARK    3  A    between atoms: C_14  and  C_11 
ROOT
ATOM      1  C   UNL d   1      -2.630   3.120   0.063  0.00  0.00     0.149 A 
ATOM      2  N   UNL d   1      -3.301   3.768  -0.908  0.00  0.00    -0.336 N 
ATOM      3  HN  UNL d   1      -2.822   4.117  -1.738  1.00  0.00     0.168 HD
ATOM      4  C   UNL d   1      -4.631   3.942  -0.746  0.00  0.00     0.047 A 
ATOM      5  N   UNL d   1      -3.187   2.643   1.185  0.00  0.00    -0.346 N 
ATOM      6  HN  UNL d   1      -2.637   2.164   1.899  1.00  0.00     0.167 HD
ATOM      7  C   UNL d   1      -5.286   3.475   0.379  0.00  0.00     0.047 A 
ATOM      8  C   UNL d   1      -4.510   2.832   1.316  0.00  0.00     0.092 A 
ENDROOT
BRANCH   1   9
ATOM      9  S   UNL d   1      -0.872   3.013  -0.115  0.00  0.00    -0.050 SA
BRANCH   9  10
ATOM     10  C   UNL d   1      -0.567   1.439  -0.815  0.00  0.00     0.055 A 
ATOM     11  C   UNL d   1       0.565   0.677  -0.578  0.00  0.00     0.043 A 
ATOM     12  N   UNL d   1       0.431  -0.430  -1.376  0.00  0.00    -0.300 N 
ATOM     13  C   UNL d   1       1.746   0.902   0.296  0.00  0.00     0.071 C 
ATOM     14  C   UNL d   1       1.349  -1.533  -1.547  0.00  0.00     0.177 C 
ATOM     15  N   UNL d   1      -0.699  -0.437  -2.100  0.00  0.00    -0.302 N 
ATOM     16  C   UNL d   1      -1.308   0.713  -1.784  0.00  0.00     0.041 A 
ATOM     17  HN  UNL d   1      -1.022  -1.157  -2.747  1.00  0.00     0.186 HD
ATOM     18  C   UNL d   1      -2.573   1.051  -2.480  0.00  0.00     0.071 C 
ENDBRANCH   9  10
ENDBRANCH   1   9
BRANCH   4  19
ATOM     19  C   UNL d   1      -5.323   4.633  -1.848  0.00  0.00     0.006 A 
ATOM     20  C   UNL d   1      -4.854   4.557  -3.162  0.00  0.00     0.101 A 
ATOM     21  N   UNL d   1      -5.450   5.126  -4.242  0.00  0.00    -0.374 N 
ATOM     22  C   UNL d   1      -6.572   5.835  -4.010  0.00  0.00     0.087 A 
ATOM     23  HN  UNL d   1      -5.067   5.022  -5.181  1.00  0.00     0.164 HD
ATOM     24  C   UNL d   1      -7.118   6.004  -2.751  0.00  0.00     0.018 A 
ATOM     25  C   UNL d   1      -6.485   5.398  -1.665  0.00  0.00     0.016 A 
ENDBRANCH   4  19
TORSDOF 3
