REMARK  2 active torsions:
REMARK  status: ('A' for Active; 'I' for Inactive)
REMARK    1  A    between atoms: N_9  and  C_2 
REMARK    2  A    between atoms: C_8  and  C_4 
ROOT
ATOM      1  C   UNL d   1      -0.291  -1.142   0.048  0.00  0.00     0.085 A 
ATOM      2  C   UNL d   1       1.044  -0.809   0.098  0.00  0.00     0.089 A 
ATOM      3  S   UNL d   1       1.246   0.879   0.149  0.00  0.00    -0.070 SA
ATOM      4  C   UNL d   1      -0.444   1.200   0.012  0.00  0.00     0.024 A 
ATOM      5  C   UNL d   1      -1.172   0.009   0.002  0.00  0.00    -0.020 A 
ATOM      6  C   UNL d   1      -0.741  -2.507   0.027  0.00  0.00     0.103 C 
ATOM      7  N   UNL d   1      -1.110  -3.605   0.004  0.00  0.00    -0.191 NA
ATOM      8  C   UNL d   1      -2.663  -0.147  -0.078  0.00  0.00     0.051 C 
ENDROOT
BRANCH   2   9
ATOM      9  N   UNL d   1       2.124  -1.617   0.120  0.00  0.00    -0.392 N 
ATOM     10  H   UNL d   1       2.072  -2.626   0.003  0.00  0.00     0.156 HD
ATOM     11  H   UNL d   1       3.061  -1.226   0.066  0.00  0.00     0.156 HD
ENDBRANCH   2   9
BRANCH   4  12
ATOM     12  C   UNL d   1      -0.878   2.617  -0.066  0.00  0.00    -0.018 A 
ATOM     13  C   UNL d   1      -2.051   3.061   0.564  0.00  0.00     0.013 A 
ATOM     14  C   UNL d   1      -2.482   4.388   0.443  0.00  0.00     0.001 A 
ATOM     15  C   UNL d   1      -1.724   5.309  -0.273  0.00  0.00     0.000 A 
ATOM     16  C   UNL d   1      -0.537   4.904  -0.872  0.00  0.00     0.001 A 
ATOM     17  C   UNL d   1      -0.128   3.570  -0.780  0.00  0.00     0.013 A 
ENDBRANCH   4  12
TORSDOF 2
