REMARK  5 active torsions:
REMARK  status: ('A' for Active; 'I' for Inactive)
REMARK    1  A    between atoms: C_2  and  C_1 
REMARK       I    between atoms: N_3  and  C_1 
REMARK    2  A    between atoms: C_4  and  C_5 
REMARK    3  A    between atoms: C_7  and  C_14 
REMARK    4  A    between atoms: O_23  and  C_7 
REMARK    5  A    between atoms: C_24  and  O_23 
ROOT
ATOM      1  C   UNL d   1       0.808   0.071  -0.054  0.00  0.00     0.255 C 
ATOM      2  N   UNL d   1       0.130   0.104   1.167  0.00  0.00    -0.348 N 
ATOM      3  O   UNL d   1       1.831   0.713  -0.268  0.00  0.00    -0.267 OA
ATOM      4  C   UNL d   1      -0.968  -0.765   1.586  0.00  0.00     0.127 C 
ATOM      5  C   UNL d   1       0.566   1.044   2.199  0.00  0.00     0.127 C 
ATOM      6  C   UNL d   1      -1.860   1.147   2.973  0.00  0.00     0.088 C 
ATOM      7  C   UNL d   1      -2.189   0.098   1.898  0.00  0.00     0.034 C 
ATOM      8  C   UNL d   1      -0.599   1.945   2.614  0.00  0.00     0.034 C 
ENDROOT
BRANCH   1   9
ATOM      9  C   UNL d   1       0.298  -0.764  -1.165  0.00  0.00     0.048 A 
ATOM     10  C   UNL d   1       1.189  -1.485  -1.968  0.00  0.00     0.032 A 
ATOM     11  C   UNL d   1       0.704  -2.278  -3.018  0.00  0.00    -0.003 A 
ATOM     12  C   UNL d   1      -0.682  -2.304  -3.194  0.00  0.00     0.100 A 
ATOM     13  N   UNL d   1      -1.568  -1.575  -2.472  0.00  0.00    -0.373 N 
ATOM     14  C   UNL d   1      -1.046  -0.793  -1.502  0.00  0.00     0.104 A 
ATOM     15  HN  UNL d   1      -2.571  -1.616  -2.651  1.00  0.00     0.164 HD
BRANCH  11  16
ATOM     16  C   UNL d   1       1.616  -2.990  -3.926  0.00  0.00     0.016 A 
ATOM     17  S   UNL d   1       1.155  -4.486  -4.643  0.00  0.00    -0.101 SA
ATOM     18  C   UNL d   1       2.592  -4.582  -5.558  0.00  0.00     0.050 A 
ATOM     19  C   UNL d   1       3.438  -3.530  -5.297  0.00  0.00     0.008 A 
ATOM     20  C   UNL d   1       2.883  -2.620  -4.349  0.00  0.00     0.020 A 
ENDBRANCH  11  16
ENDBRANCH   1   9
BRANCH   6  21
ATOM     21  C   UNL d   1      -1.776   0.482   4.335  0.00  0.00     0.263 C 
ATOM     22  O   UNL d   1      -1.940  -0.714   4.536  0.00  0.00    -0.265 OA
BRANCH  21  23
ATOM     23  O   UNL d   1      -1.631   1.421   5.309  0.00  0.00    -0.322 OA
BRANCH  23  24
ATOM     24  C   UNL d   1      -1.987   0.975   6.625  0.00  0.00     0.174 C 
ATOM     25  C   UNL d   1      -3.482   1.181   6.801  0.00  0.00     0.034 C 
ENDBRANCH  23  24
ENDBRANCH  21  23
ENDBRANCH   6  21
TORSDOF 5
