REMARK  4 active torsions:
REMARK  status: ('A' for Active; 'I' for Inactive)
REMARK    1  A    between atoms: C_2  and  S_1 
REMARK    2  A    between atoms: N_10  and  S_1 
REMARK    3  A    between atoms: C_3  and  C_17 
REMARK    4  A    between atoms: C_20  and  N_10 
ROOT
ATOM      1  C   UNL d   1       1.580  -0.066  -5.359  0.00  0.00    -0.002 A 
ATOM      2  C   UNL d   1       0.900  -0.530  -2.667  0.00  0.00     0.042 A 
ATOM      3  C   UNL d   1       0.278  -0.452  -5.000  0.00  0.00     0.016 A 
ATOM      4  C   UNL d   1       2.535   0.071  -4.339  0.00  0.00     0.016 A 
ATOM      5  C   UNL d   1      -0.064  -0.679  -3.661  0.00  0.00     0.031 A 
ATOM      6  C   UNL d   1       2.193  -0.143  -3.001  0.00  0.00     0.031 A 
ENDROOT
BRANCH   2   7
ATOM      7  N   UNL d   1       0.552  -0.728  -1.313  0.00  0.00    -0.281 N 
ATOM      8  H   UNL d   1       0.392   0.068  -0.697  0.00  0.00     0.179 HD
BRANCH   7   9
ATOM      9  S   UNL d   1       0.665  -2.234  -0.597  0.00  0.00     0.265 S 
ATOM     10  O   UNL d   1       0.289  -2.087   0.794  0.00  0.00    -0.200 OA
ATOM     11  O   UNL d   1      -0.021  -3.186  -1.443  0.00  0.00    -0.200 OA
BRANCH   9  12
ATOM     12  C   UNL d   1       2.395  -2.632  -0.635  0.00  0.00     0.103 A 
ATOM     13  C   UNL d   1       2.795  -3.787  -1.328  0.00  0.00     0.052 A 
ATOM     14  C   UNL d   1       4.141  -4.164  -1.352  0.00  0.00     0.057 A 
ATOM     15 CL   UNL d   1       4.559  -5.605  -2.206  0.00  0.00    -0.083 Cl
ATOM     16  C   UNL d   1       5.094  -3.385  -0.689  0.00  0.00     0.057 A 
ATOM     17  C   UNL d   1       4.694  -2.236   0.001  0.00  0.00     0.051 A 
ATOM     18 CL   UNL d   1       6.775  -3.781  -0.681  0.00  0.00    -0.082 Cl
ATOM     19  C   UNL d   1       3.345  -1.859   0.038  0.00  0.00     0.059 A 
ATOM     20 CL   UNL d   1       2.973  -0.413   0.905  0.00  0.00    -0.083 Cl
ENDBRANCH   9  12
ENDBRANCH   7   9
ENDBRANCH   2   7
BRANCH   1  21
ATOM     21  C   UNL d   1       1.896   0.198  -6.774  0.00  0.00     0.085 A 
ATOM     22  N   UNL d   1       1.296  -0.387  -7.791  0.00  0.00    -0.349 N 
ATOM     23  C   UNL d   1       1.760   0.135  -8.988  0.00  0.00     0.050 A 
ATOM     24  HN  UNL d   1       0.590  -1.118  -7.709  1.00  0.00     0.166 HD
ATOM     25  C   UNL d   1       1.336  -0.241 -10.277  0.00  0.00     0.031 A 
ATOM     26  C   UNL d   1       2.724   1.135  -8.869  0.00  0.00     0.034 A 
ATOM     27  C   UNL d   1       1.871   0.402 -11.401  0.00  0.00     0.009 A 
ATOM     28  C   UNL d   1       2.830   1.409 -11.265  0.00  0.00    -0.061 A 
ATOM     29  C   UNL d   1       3.274   1.782  -9.988  0.00  0.00     0.028 A 
ATOM     30  C   UNL d   1       3.373   2.091 -12.487  0.00  0.00     0.048 C 
ATOM     31  S   UNL d   1       3.057   1.394  -7.205  0.00  0.00    -0.070 SA
ENDBRANCH   1  21
TORSDOF 4
