REMARK  5 active torsions:
REMARK  status: ('A' for Active; 'I' for Inactive)
REMARK    1  A    between atoms: S_2  and  C_1 
REMARK    2  A    between atoms: N_14  and  S_2 
REMARK    3  A    between atoms: C_3  and  C_15 
REMARK    4  A    between atoms: C_18  and  C_8 
REMARK    5  A    between atoms: C_15  and  N_14 
ROOT
ATOM      1  C   UNL d   1      -1.785  -2.562   2.688  0.00  0.00     0.148 C 
ENDROOT
BRANCH   1   2
ATOM      2  C   UNL d   1      -2.692  -2.674   3.862  0.00  0.00     0.017 A 
ATOM      3  C   UNL d   1      -3.561  -3.748   4.257  0.00  0.00     0.075 A 
ATOM      4  N   UNL d   1      -4.216  -3.421   5.384  0.00  0.00    -0.260 N 
ATOM      5  O   UNL d   1      -3.765  -2.179   5.759  0.00  0.00    -0.242 OA
ATOM      6  HN  UNL d   1      -4.913  -3.987   5.868  1.00  0.00     0.195 HD
ATOM      7  C   UNL d   1      -2.851  -1.737   4.863  0.00  0.00     0.082 A 
ATOM      8  C   UNL d   1      -2.247  -0.419   5.144  0.00  0.00     0.079 C 
BRANCH   3   9
ATOM      9  C   UNL d   1      -3.815  -5.036   3.601  0.00  0.00    -0.007 A 
ATOM     10  C   UNL d   1      -5.096  -5.609   3.648  0.00  0.00     0.014 A 
ATOM     11  C   UNL d   1      -5.365  -6.814   2.993  0.00  0.00     0.001 A 
ATOM     12  C   UNL d   1      -4.361  -7.457   2.274  0.00  0.00     0.000 A 
ATOM     13  C   UNL d   1      -3.082  -6.910   2.230  0.00  0.00     0.001 A 
ATOM     14  C   UNL d   1      -2.806  -5.719   2.905  0.00  0.00     0.014 A 
ENDBRANCH   3   9
ENDBRANCH   1   2
BRANCH   1  15
ATOM     15  N   UNL d   1      -2.558  -2.743   1.456  0.00  0.00    -0.211 NA
ATOM     16  H   UNL d   1      -3.159  -3.567   1.428  0.00  0.00     0.140 HD
BRANCH  15  17
ATOM     17  S   UNL d   1      -1.667  -2.665   0.030  0.00  0.00     0.250 S 
ATOM     18  O   UNL d   1      -2.502  -3.244  -0.999  0.00  0.00    -0.205 OA
ATOM     19  O   UNL d   1      -0.340  -3.163   0.307  0.00  0.00    -0.205 OA
BRANCH  17  20
ATOM     20  C   UNL d   1      -1.551  -0.956  -0.384  0.00  0.00     0.139 A 
ATOM     21  S   UNL d   1       0.003  -0.252  -0.486  0.00  0.00    -0.062 SA
ATOM     22  C   UNL d   1      -0.712   1.263  -0.850  0.00  0.00     0.048 A 
ATOM     23  C   UNL d   1       0.132   2.467  -1.077  0.00  0.00     0.076 C 
ATOM     24  N   UNL d   1      -2.026   1.269  -0.899  0.00  0.00    -0.356 N 
ATOM     25  C   UNL d   1      -2.518  -0.001  -0.644  0.00  0.00     0.036 A 
ATOM     26  HN  UNL d   1      -2.600   2.090  -1.096  1.00  0.00     0.166 HD
ATOM     27  C   UNL d   1      -3.993  -0.198  -0.665  0.00  0.00     0.070 C 
ENDBRANCH  17  20
ENDBRANCH  15  17
ENDBRANCH   1  15
TORSDOF 5
