REMARK  6 active torsions:
REMARK  status: ('A' for Active; 'I' for Inactive)
REMARK    1  A    between atoms: N_3  and  S_1 
REMARK    2  A    between atoms: C_7  and  S_1 
REMARK    3  A    between atoms: S_2  and  N_4 
REMARK    4  A    between atoms: C_8  and  S_2 
REMARK    5  A    between atoms: C_5  and  N_3 
REMARK    6  A    between atoms: N_4  and  C_6 
ROOT
ATOM      1  C   UNL d   1       0.747   2.168  -1.502  0.00  0.00     0.050 A 
ATOM      2  C   UNL d   1      -0.219   3.062  -2.001  0.00  0.00     0.064 A 
ATOM      3  C   UNL d   1       2.061   2.604  -1.308  0.00  0.00     0.033 A 
ATOM      4  C   UNL d   1       0.123   4.392  -2.237  0.00  0.00     0.032 A 
ATOM      5  C   UNL d   1       2.412   3.936  -1.569  0.00  0.00    -0.060 A 
ATOM      6  C   UNL d   1       1.428   4.830  -2.009  0.00  0.00     0.009 A 
ATOM      7  C   UNL d   1       3.824   4.413  -1.396  0.00  0.00     0.048 C 
ENDROOT
BRANCH   1   8
ATOM      8  N   UNL d   1       0.436   0.789  -1.274  0.00  0.00    -0.179 NA
ATOM      9  H   UNL d   1      -0.498   0.619  -0.882  0.00  0.00     0.146 HD
BRANCH   8  10
ATOM     10  S   UNL d   1       0.749  -0.299  -2.530  0.00  0.00     0.245 S 
ATOM     11  O   UNL d   1       0.660   0.396  -3.797  0.00  0.00    -0.206 OA
ATOM     12  O   UNL d   1      -0.046  -1.478  -2.264  0.00  0.00    -0.206 OA
BRANCH  10  13
ATOM     13  C   UNL d   1       2.450  -0.779  -2.269  0.00  0.00     0.074 A 
ATOM     14  C   UNL d   1       2.810  -1.424  -1.079  0.00  0.00     0.026 A 
ATOM     15  C   UNL d   1       4.129  -1.857  -0.900  0.00  0.00     0.025 A 
ATOM     16  C   UNL d   1       5.071  -1.653  -1.910  0.00  0.00     0.034 A 
ATOM     17  C   UNL d   1       4.710  -1.018  -3.098  0.00  0.00     0.025 A 
ATOM     18 CL   UNL d   1       6.689  -2.200  -1.692  0.00  0.00    -0.084 Cl
ATOM     19  C   UNL d   1       3.396  -0.580  -3.281  0.00  0.00     0.026 A 
ENDBRANCH  10  13
ENDBRANCH   8  10
ENDBRANCH   1   8
BRANCH   2  20
ATOM     20  N   UNL d   1      -1.517   2.630  -2.381  0.00  0.00    -0.279 N 
ATOM     21  H   UNL d   1      -1.725   2.494  -3.369  0.00  0.00     0.179 HD
BRANCH  20  22
ATOM     22  S   UNL d   1      -2.797   2.604  -1.316  0.00  0.00     0.263 S 
ATOM     23  O   UNL d   1      -3.965   2.248  -2.092  0.00  0.00    -0.200 OA
ATOM     24  O   UNL d   1      -2.395   1.813  -0.170  0.00  0.00    -0.200 OA
BRANCH  22  25
ATOM     25  C   UNL d   1      -2.996   4.297  -0.801  0.00  0.00     0.079 A 
ATOM     26  C   UNL d   1      -3.793   5.173  -1.547  0.00  0.00     0.026 A 
ATOM     27  C   UNL d   1      -4.000   6.481  -1.092  0.00  0.00     0.008 A 
ATOM     28  C   UNL d   1      -3.426   6.916   0.111  0.00  0.00    -0.062 A 
ATOM     29  C   UNL d   1      -2.642   6.024   0.854  0.00  0.00     0.008 A 
ATOM     30  C   UNL d   1      -3.679   8.312   0.606  0.00  0.00     0.048 C 
ATOM     31  C   UNL d   1      -2.432   4.718   0.406  0.00  0.00     0.026 A 
ENDBRANCH  22  25
ENDBRANCH  20  22
ENDBRANCH   2  20
TORSDOF 6
