REMARK  2 active torsions:
REMARK  status: ('A' for Active; 'I' for Inactive)
REMARK    1  A    between atoms: N_12  and  C_2 
REMARK    2  A    between atoms: C_14  and  N_12 
ROOT
ATOM      1  N   UNL d   1      -1.022   0.854  -0.070  0.00  0.00    -0.073 N 
ATOM      2  C   UNL d   1       0.258   1.454  -0.071  0.00  0.00     0.134 A 
ATOM      3  C   UNL d   1      -1.192  -0.537   0.010  0.00  0.00     0.706 A 
ATOM      4  C   UNL d   1       1.317   0.630  -0.039  0.00  0.00     0.006 A 
ATOM      5  N   UNL d   1      -0.126  -1.394   0.055  0.00  0.00    -0.193 N 
ATOM      6  HN  UNL d   1      -0.240  -2.407   0.108  1.00  0.00     0.184 HD
ATOM      7  N   UNL d   1      -2.479  -0.809   0.019  0.00  0.00    -0.185 N 
ATOM      8  HN  UNL d   1      -2.930  -1.721   0.082  1.00  0.00     0.185 HD
ATOM      9  C   UNL d   1       1.037  -0.827   0.026  0.00  0.00     0.036 A 
ATOM     10  N   UNL d   1      -2.241   1.457  -0.162  0.00  0.00    -0.273 N 
ATOM     11  HN  UNL d   1      -2.462   2.446  -0.269  1.00  0.00     0.189 HD
ATOM     12  C   UNL d   1      -3.066   0.416  -0.074  0.00  0.00     0.215 A 
ATOM     13  C   UNL d   1       2.783   0.849  -0.086  0.00  0.00     0.044 C 
ATOM     14  C   UNL d   1       2.313  -1.607   0.024  0.00  0.00     0.058 C 
ATOM     15  C   UNL d   1       3.398  -0.535   0.163  0.00  0.00     0.011 C 
ENDROOT
BRANCH   2  16
ATOM     16  N   UNL d   1       0.318   2.851  -0.153  0.00  0.00    -0.243 NA
ATOM     17  H   UNL d   1      -0.462   3.153  -0.752  0.00  0.00     0.135 HD
BRANCH  16  18
ATOM     18  C   UNL d   1       0.183   3.635   1.038  0.00  0.00     0.014 A 
ATOM     19  C   UNL d   1       0.762   3.257   2.257  0.00  0.00     0.025 A 
ATOM     20  C   UNL d   1       0.602   4.050   3.399  0.00  0.00     0.025 A 
ATOM     21  C   UNL d   1      -0.118   5.239   3.321  0.00  0.00     0.034 A 
ATOM     22  C   UNL d   1      -0.652   5.659   2.107  0.00  0.00     0.025 A 
ATOM     23 CL   UNL d   1      -0.344   6.197   4.732  0.00  0.00    -0.084 Cl
ATOM     24  C   UNL d   1      -0.483   4.869   0.967  0.00  0.00     0.025 A 
ENDBRANCH  16  18
ENDBRANCH   2  16
TORSDOF 2
