REMARK  7 active torsions:
REMARK  status: ('A' for Active; 'I' for Inactive)
REMARK    1  A    between atoms: C_2  and  C_1 
REMARK       I    between atoms: N_11  and  C_1 
REMARK       I    between atoms: N_6  and  C_2 
REMARK    2  A    between atoms: O_22  and  C_3 
REMARK    3  A    between atoms: O_25  and  C_4 
REMARK    4  A    between atoms: O_24  and  C_5 
REMARK    5  A    between atoms: C_12  and  N_6 
REMARK    6  A    between atoms: N_9  and  N_11 
REMARK    7  A    between atoms: C_18  and  C_19 
ROOT
ATOM      1  C   UNL d   1       0.530   1.562   2.709  0.00  0.00     0.328 C 
ATOM      2  N   UNL d   1      -0.166   2.740   2.962  0.00  0.00    -0.262 N 
ATOM      3  O   UNL d   1       0.141   0.583   2.094  0.00  0.00    -0.261 OA
ATOM      4  H   UNL d   1       0.373   3.549   3.271  0.00  0.00     0.190 HD
ENDROOT
BRANCH   2   5
ATOM      5  N   UNL d   1      -1.470   3.019   2.578  0.00  0.00    -0.308 N 
ATOM      6  C   UNL d   1      -2.318   2.034   2.570  0.00  0.00     0.118 C 
ATOM      7  HN  UNL d   1      -1.753   3.963   2.311  1.00  0.00     0.186 HD
BRANCH   6   8
ATOM      8  C   UNL d   1      -3.748   2.168   2.180  0.00  0.00    -0.014 A 
ATOM      9  C   UNL d   1      -4.303   3.361   1.719  0.00  0.00     0.052 A 
ATOM     10  C   UNL d   1      -5.659   3.420   1.331  0.00  0.00     0.105 A 
ATOM     11  C   UNL d   1      -6.472   2.263   1.398  0.00  0.00     0.135 A 
ATOM     12  C   UNL d   1      -5.911   1.074   1.916  0.00  0.00     0.105 A 
ATOM     13  C   UNL d   1      -4.557   1.035   2.288  0.00  0.00     0.052 A 
BRANCH  10  14
ATOM     14  O   UNL d   1      -6.012   4.678   0.897  0.00  0.00    -0.353 OA
ATOM     15  C   UNL d   1      -7.369   4.953   0.575  0.00  0.00     0.210 C 
ENDBRANCH  10  14
BRANCH  11  16
ATOM     16  O   UNL d   1      -7.775   2.401   0.993  0.00  0.00    -0.351 OA
ATOM     17  C   UNL d   1      -8.550   1.262   0.648  0.00  0.00     0.210 C 
ENDBRANCH  11  16
BRANCH  12  18
ATOM     18  O   UNL d   1      -6.704  -0.041   2.004  0.00  0.00    -0.353 OA
ATOM     19  C   UNL d   1      -6.420  -0.969   3.043  0.00  0.00     0.210 C 
ENDBRANCH  12  18
ENDBRANCH   6   8
ENDBRANCH   2   5
BRANCH   1  20
ATOM     20  C   UNL d   1       1.983   1.548   3.267  0.00  0.00     0.315 C 
ATOM     21  N   UNL d   1       2.806   0.720   2.530  0.00  0.00    -0.319 N 
ATOM     22  H   UNL d   1       2.415   0.393   1.648  0.00  0.00     0.169 HD
ATOM     23  O   UNL d   1       2.292   2.260   4.210  0.00  0.00    -0.262 OA
BRANCH  21  24
ATOM     24  C   UNL d   1       4.073   0.224   2.881  0.00  0.00     0.036 A 
ATOM     25  C   UNL d   1       4.945  -0.099   1.836  0.00  0.00     0.055 A 
ATOM     26  C   UNL d   1       6.147  -0.772   2.089  0.00  0.00     0.058 A 
ATOM     27 CL   UNL d   1       7.191  -1.080   0.746  0.00  0.00    -0.082 Cl
ATOM     28  C   UNL d   1       6.452  -1.180   3.388  0.00  0.00     0.055 A 
ATOM     29  C   UNL d   1       5.600  -0.826   4.441  0.00  0.00     0.028 A 
ATOM     30 CL   UNL d   1       7.828  -2.161   3.748  0.00  0.00    -0.083 Cl
ATOM     31  C   UNL d   1       4.428  -0.093   4.193  0.00  0.00     0.031 A 
ENDBRANCH  21  24
ENDBRANCH   1  20
TORSDOF 7
