REMARK  5 active torsions:
REMARK  status: ('A' for Active; 'I' for Inactive)
REMARK    1  A    between atoms: S_10  and  C_3 
REMARK    2  A    between atoms: C_4  and  C_5 
REMARK    3  A    between atoms: C_9  and  C_14 
REMARK    4  A    between atoms: C_11  and  C_9 
REMARK    5  A    between atoms: C_14  and  S_10 
ROOT
ATOM      1  N   UNL d   1      -1.125   0.935  -0.378  0.00  0.00    -0.336 N 
ATOM      2  HN  UNL d   1      -1.886   1.607  -0.472  1.00  0.00     0.168 HD
ATOM      3  C   UNL d   1       0.054   1.284   0.159  0.00  0.00     0.144 A 
ATOM      4  C   UNL d   1      -1.258  -0.342  -0.789  0.00  0.00     0.052 A 
ATOM      5  N   UNL d   1       1.090   0.447   0.325  0.00  0.00    -0.347 N 
ATOM      6  HN  UNL d   1       1.966   0.756   0.748  1.00  0.00     0.167 HD
ATOM      7  C   UNL d   1      -0.247  -1.273  -0.663  0.00  0.00     0.048 A 
ATOM      8  C   UNL d   1       0.915  -0.817  -0.093  0.00  0.00     0.092 A 
ENDROOT
BRANCH   3   9
ATOM      9  S   UNL d   1       0.295   2.965   0.673  0.00  0.00    -0.086 SA
BRANCH   9  10
ATOM     10  C   UNL d   1      -1.278   3.683   0.115  0.00  0.00     0.166 C 
BRANCH  10  11
ATOM     11  C   UNL d   1      -1.336   5.189   0.316  0.00  0.00     0.169 C 
ATOM     12  O   UNL d   1      -0.396   5.869   0.722  0.00  0.00    -0.291 OA
BRANCH  11  13
ATOM     13  C   UNL d   1      -2.626   5.884  -0.003  0.00  0.00     0.011 A 
ATOM     14  C   UNL d   1      -3.725   5.214  -0.561  0.00  0.00     0.018 A 
ATOM     15  C   UNL d   1      -4.920   5.901  -0.798  0.00  0.00     0.043 A 
ATOM     16  C   UNL d   1      -5.014   7.252  -0.484  0.00  0.00     0.116 A 
ATOM     17  C   UNL d   1      -3.931   7.938   0.049  0.00  0.00     0.043 A 
ATOM     18  F   UNL d   1      -6.167   7.899  -0.696  0.00  0.00    -0.206 F 
ATOM     19  C   UNL d   1      -2.735   7.255   0.287  0.00  0.00     0.018 A 
ENDBRANCH  11  13
ENDBRANCH  10  11
ENDBRANCH   9  10
ENDBRANCH   3   9
BRANCH   4  20
ATOM     20  C   UNL d   1      -2.555  -0.690  -1.390  0.00  0.00     0.031 A 
ATOM     21  S   UNL d   1      -3.500   0.517  -2.178  0.00  0.00    -0.100 SA
ATOM     22  C   UNL d   1      -4.715  -0.603  -2.606  0.00  0.00     0.050 A 
ATOM     23  C   UNL d   1      -4.432  -1.870  -2.155  0.00  0.00     0.008 A 
ATOM     24  C   UNL d   1      -3.191  -1.919  -1.453  0.00  0.00     0.021 A 
ENDBRANCH   4  20
TORSDOF 5
