REMARK  5 active torsions:
REMARK  status: ('A' for Active; 'I' for Inactive)
REMARK    1  A    between atoms: C_8  and  N_1 
REMARK    2  A    between atoms: C_6  and  C_7 
REMARK    3  A    between atoms: C_12  and  C_8 
REMARK    4  A    between atoms: C_9  and  N_10 
REMARK       I    between atoms: N_10  and  C_11 
REMARK    5  A    between atoms: C_11  and  C_12 
ROOT
ATOM      1  N   UNL d   1       6.312   1.977   0.708  0.00  0.00    -0.326 N 
ATOM      2  C   UNL d   1       5.445   1.225  -0.072  0.00  0.00     0.223 C 
ATOM      3  O   UNL d   1       5.795   0.401  -0.913  0.00  0.00    -0.273 OA
ATOM      4  H   UNL d   1       5.950   2.171   1.643  0.00  0.00     0.169 HD
ENDROOT
BRANCH   2   5
ATOM      5  C   UNL d   1       3.986   1.492   0.214  0.00  0.00     0.123 C 
BRANCH   5   6
ATOM      6  C   UNL d   1       3.271   0.238   0.697  0.00  0.00     0.145 C 
BRANCH   6   7
ATOM      7  N   UNL d   1       3.681  -0.310   1.988  0.00  0.00    -0.279 N 
ATOM      8  C   UNL d   1       4.209   0.385   3.040  0.00  0.00     0.261 A 
ATOM      9  C   UNL d   1       4.294  -0.544   4.166  0.00  0.00     0.048 A 
ATOM     10  O   UNL d   1       4.582   1.542   3.092  0.00  0.00    -0.267 OA
ATOM     11  C   UNL d   1       4.738  -0.347   5.457  0.00  0.00     0.018 A 
ATOM     12  C   UNL d   1       3.814  -1.765   3.733  0.00  0.00     0.048 A 
ATOM     13  C   UNL d   1       4.711  -1.449   6.318  0.00  0.00     0.001 A 
ATOM     14  C   UNL d   1       4.240  -2.702   5.873  0.00  0.00     0.001 A 
ATOM     15  C   UNL d   1       3.775  -2.869   4.564  0.00  0.00     0.018 A 
ATOM     16  C   UNL d   1       3.381  -1.601   2.349  0.00  0.00     0.261 A 
ATOM     17  O   UNL d   1       2.822  -2.471   1.709  0.00  0.00    -0.267 OA
ENDBRANCH   6   7
ENDBRANCH   5   6
ENDBRANCH   2   5
BRANCH   1  18
ATOM     18  C   UNL d   1       7.711   1.825   0.584  0.00  0.00     0.049 A 
ATOM     19  C   UNL d   1       8.414   1.947  -0.627  0.00  0.00     0.074 A 
ATOM     20  C   UNL d   1       9.792   1.635  -0.639  0.00  0.00     0.018 A 
ATOM     21  C   UNL d   1      10.456   1.244   0.523  0.00  0.00     0.001 A 
ATOM     22  C   UNL d   1       9.764   1.196   1.727  0.00  0.00     0.002 A 
ATOM     23  C   UNL d   1       8.403   1.503   1.761  0.00  0.00     0.030 A 
BRANCH  19  24
ATOM     24  C   UNL d   1       7.838   2.499  -1.912  0.00  0.00     0.419 C 
ATOM     25  F   UNL d   1       6.532   2.884  -1.884  0.00  0.00    -0.166 F 
ATOM     26  F   UNL d   1       8.514   3.628  -2.301  0.00  0.00    -0.166 F 
ATOM     27  F   UNL d   1       7.965   1.641  -2.965  0.00  0.00    -0.166 F 
ENDBRANCH  19  24
ENDBRANCH   1  18
TORSDOF 5
