REMARK  5 active torsions:
REMARK  status: ('A' for Active; 'I' for Inactive)
REMARK    1  A    between atoms: C_9  and  C_1 
REMARK    2  A    between atoms: C_10  and  C_2 
REMARK    3  A    between atoms: C_4  and  C_10 
REMARK    4  A    between atoms: C_15  and  C_9 
REMARK    5  A    between atoms: O_16  and  C_9 
ROOT
ATOM      1  C   UNL d   1       0.622   1.159  -0.288  0.00  0.00     0.125 C 
ATOM      2  C   UNL d   1       1.759   0.495   0.526  0.00  0.00     0.032 C 
ATOM      3  C   UNL d   1      -0.432   0.080  -0.216  0.00  0.00     0.266 C 
ATOM      4  O   UNL d   1       0.187  -1.135  -0.027  0.00  0.00    -0.321 OA
ATOM      5  C   UNL d   1       1.602  -0.940   0.057  0.00  0.00     0.184 C 
ATOM      6  O   UNL d   1      -1.632   0.194  -0.371  0.00  0.00    -0.265 OA
ENDROOT
BRANCH   1   7
ATOM      7  C   UNL d   1       0.214   2.573   0.137  0.00  0.00     0.165 C 
BRANCH   7   8
ATOM      8  C   UNL d   1      -0.829   3.309  -0.686  0.00  0.00    -0.029 A 
ATOM      9  C   UNL d   1      -2.192   3.217  -0.354  0.00  0.00     0.010 A 
ATOM     10  C   UNL d   1      -3.139   4.044  -0.959  0.00  0.00     0.001 A 
ATOM     11  C   UNL d   1      -2.740   4.961  -1.925  0.00  0.00     0.000 A 
ATOM     12  C   UNL d   1      -1.401   5.029  -2.308  0.00  0.00     0.001 A 
ATOM     13  C   UNL d   1      -0.450   4.205  -1.696  0.00  0.00     0.010 A 
ENDBRANCH   7   8
BRANCH   7  14
ATOM     14  O   UNL d   1      -0.181   2.639   1.506  0.00  0.00    -0.390 OA
ATOM     15  H   UNL d   1      -0.544   3.532   1.653  0.00  0.00     0.210 HD
ENDBRANCH   7  14
ENDBRANCH   1   7
BRANCH   2  16
ATOM     16  C   UNL d   1       1.617   0.578   2.064  0.00  0.00     0.066 C 
BRANCH  16  17
ATOM     17  C   UNL d   1       2.795   0.052   2.821  0.00  0.00     0.028 A 
ATOM     18  N   UNL d   1       2.755  -0.888   3.824  0.00  0.00    -0.350 N 
ATOM     19  C   UNL d   1       4.003  -0.952   4.382  0.00  0.00     0.182 A 
ATOM     20  C   UNL d   1       1.627  -1.655   4.292  0.00  0.00     0.156 C 
ATOM     21  N   UNL d   1       4.849  -0.157   3.769  0.00  0.00    -0.360 N 
ATOM     22  C   UNL d   1       4.110   0.478   2.810  0.00  0.00     0.114 A 
ATOM     23  HN  UNL d   1       5.842  -0.038   3.967  1.00  0.00     0.166 HD
ENDBRANCH  16  17
ENDBRANCH   2  16
TORSDOF 5
