REMARK  4 active torsions:
REMARK  status: ('A' for Active; 'I' for Inactive)
REMARK    1  A    between atoms: C_2  and  N_1 
REMARK    2  A    between atoms: C_15  and  C_4 
REMARK    3  A    between atoms: C_14  and  N_7 
REMARK    4  A    between atoms: C_17  and  C_14 
ROOT
ATOM      1  N   UNL d   1       0.054   0.977   0.049  0.00  0.00    -0.229 N 
ATOM      2  C   UNL d   1      -1.208   0.364  -0.018  0.00  0.00     0.332 C 
ATOM      3  N   UNL d   1      -1.189  -1.019  -0.143  0.00  0.00    -0.329 N 
ATOM      4  C   UNL d   1       1.270   0.348  -0.207  0.00  0.00     0.234 C 
ATOM      5  C   UNL d   1       1.183  -1.095  -0.619  0.00  0.00     0.123 C 
ATOM      6  C   UNL d   1       0.031  -1.757   0.088  0.00  0.00     0.137 C 
ATOM      7  O   UNL d   1      -2.267   0.993  -0.015  0.00  0.00    -0.246 OA
ATOM      8  O   UNL d   1       2.376   0.888  -0.131  0.00  0.00    -0.272 OA
ENDROOT
BRANCH   1   9
ATOM      9  C   UNL d   1       0.070   2.342   0.374  0.00  0.00     0.107 A 
ATOM     10  C   UNL d   1      -0.486   2.991   1.524  0.00  0.00     0.095 A 
ATOM     11  N   UNL d   1      -0.326   4.322   1.430  0.00  0.00    -0.258 N 
ATOM     12  O   UNL d   1       0.369   4.548   0.262  0.00  0.00    -0.240 OA
ATOM     13  HN  UNL d   1      -0.653   5.025   2.092  1.00  0.00     0.195 HD
ATOM     14  C   UNL d   1       0.626   3.368  -0.362  0.00  0.00     0.102 A 
ATOM     15  C   UNL d   1       1.335   3.471  -1.649  0.00  0.00     0.081 C 
BRANCH  10  16
ATOM     16  C   UNL d   1      -1.056   2.388   2.732  0.00  0.00    -0.005 A 
ATOM     17  C   UNL d   1      -0.539   1.187   3.245  0.00  0.00     0.014 A 
ATOM     18  C   UNL d   1      -1.065   0.622   4.409  0.00  0.00     0.001 A 
ATOM     19  C   UNL d   1      -2.099   1.262   5.086  0.00  0.00     0.000 A 
ATOM     20  C   UNL d   1      -2.610   2.465   4.601  0.00  0.00     0.001 A 
ATOM     21  C   UNL d   1      -2.092   3.025   3.429  0.00  0.00     0.014 A 
ENDBRANCH  10  16
ENDBRANCH   1   9
BRANCH   3  22
ATOM     22  C   UNL d   1      -2.453  -1.748  -0.210  0.00  0.00     0.166 C 
BRANCH  22  23
ATOM     23  C   UNL d   1      -2.924  -1.935  -1.633  0.00  0.00    -0.040 A 
ATOM     24  C   UNL d   1      -2.575  -3.077  -2.368  0.00  0.00     0.009 A 
ATOM     25  C   UNL d   1      -3.023  -3.240  -3.681  0.00  0.00     0.001 A 
ATOM     26  C   UNL d   1      -3.819  -2.261  -4.277  0.00  0.00     0.000 A 
ATOM     27  C   UNL d   1      -4.162  -1.117  -3.562  0.00  0.00     0.001 A 
ATOM     28  C   UNL d   1      -3.715  -0.953  -2.250  0.00  0.00     0.009 A 
ENDBRANCH  22  23
ENDBRANCH   3  22
TORSDOF 4
