REMARK  3 active torsions:
REMARK  status: ('A' for Active; 'I' for Inactive)
REMARK    1  A    between atoms: N_3  and  S_1 
REMARK    2  A    between atoms: C_6  and  S_1 
REMARK    3  A    between atoms: C_11  and  N_3 
ROOT
ATOM      1  N   UNL d   1       0.449  -1.440  -0.645  0.00  0.00    -0.281 N 
ATOM      2  H   UNL d   1      -0.478  -1.663  -0.285  0.00  0.00     0.179 HD
ENDROOT
BRANCH   1   3
ATOM      3  S   UNL d   1       0.998   0.056  -0.073  0.00  0.00     0.263 S 
ATOM      4  O   UNL d   1       2.419   0.173  -0.324  0.00  0.00    -0.200 OA
ATOM      5  O   UNL d   1       0.450   0.206   1.258  0.00  0.00    -0.200 OA
BRANCH   3   6
ATOM      6  C   UNL d   1       0.156   1.223  -1.126  0.00  0.00     0.080 A 
ATOM      7  C   UNL d   1      -1.107   1.700  -0.756  0.00  0.00     0.027 A 
ATOM      8  C   UNL d   1      -1.760   2.625  -1.573  0.00  0.00     0.025 A 
ATOM      9  C   UNL d   1      -1.147   3.071  -2.746  0.00  0.00     0.034 A 
ATOM     10  C   UNL d   1       0.118   2.604  -3.107  0.00  0.00     0.025 A 
ATOM     11 CL   UNL d   1      -1.951   4.217  -3.746  0.00  0.00    -0.084 Cl
ATOM     12  C   UNL d   1       0.780   1.685  -2.291  0.00  0.00     0.027 A 
ENDBRANCH   3   6
ENDBRANCH   1   3
BRANCH   1  13
ATOM     13  C   UNL d   1       0.738  -1.801  -1.989  0.00  0.00     0.043 A 
ATOM     14  C   UNL d   1      -0.204  -1.566  -2.987  0.00  0.00     0.048 A 
ATOM     15  C   UNL d   1       0.164  -1.873  -4.285  0.00  0.00     0.050 A 
ATOM     16  C   UNL d   1      -0.604  -1.681  -5.503  0.00  0.00     0.294 A 
ATOM     17  C   UNL d   1       1.393  -2.408  -4.612  0.00  0.00    -0.018 A 
ATOM     18  O   UNL d   1       0.176  -2.126  -6.532  0.00  0.00    -0.313 OA
ATOM     19  O   UNL d   1      -1.718  -1.204  -5.581  0.00  0.00    -0.259 OA
ATOM     20  C   UNL d   1       1.452  -2.623  -6.072  0.00  0.00     0.218 A 
ATOM     21  C   UNL d   1       2.335  -2.648  -3.628  0.00  0.00     0.012 A 
ATOM     22  C   UNL d   1       2.004  -2.326  -2.307  0.00  0.00     0.031 A 
ENDBRANCH   1  13
TORSDOF 3
