REMARK  8 active torsions:
REMARK  status: ('A' for Active; 'I' for Inactive)
REMARK    1  A    between atoms: C_2  and  S_1 
REMARK    2  A    between atoms: N_6  and  S_1 
REMARK    3  A    between atoms: N_8  and  N_6 
REMARK       I    between atoms: C_9  and  N_8 
REMARK    4  A    between atoms: C_13  and  C_9 
REMARK    5  A    between atoms: C_19  and  C_13 
REMARK    6  A    between atoms: S_17  and  C_19 
REMARK    7  A    between atoms: C_18  and  S_17 
REMARK    8  A    between atoms: O_28  and  C_21 
ROOT
ATOM      1  N   UNL d   1       1.738   1.305  -2.308  0.00  0.00    -0.220 N 
ATOM      2  H   UNL d   1       2.090   1.878  -3.081  0.00  0.00     0.200 HD
ENDROOT
BRANCH   1   3
ATOM      3  S   UNL d   1       2.785   1.115  -0.993  0.00  0.00     0.283 S 
ATOM      4  O   UNL d   1       3.694   2.240  -0.987  0.00  0.00    -0.198 OA
ATOM      5  O   UNL d   1       1.990   0.738   0.151  0.00  0.00    -0.198 OA
BRANCH   3   6
ATOM      6  C   UNL d   1       3.812  -0.291  -1.432  0.00  0.00     0.129 A 
ATOM      7  S   UNL d   1       3.796  -1.598  -0.338  0.00  0.00    -0.075 SA
ATOM      8  C   UNL d   1       4.817  -2.556  -1.325  0.00  0.00     0.017 A 
ATOM      9  C   UNL d   1       5.233  -3.879  -1.073  0.00  0.00     0.021 A 
ATOM     10  C   UNL d   1       5.202  -1.869  -2.478  0.00  0.00    -0.009 A 
ATOM     11  C   UNL d   1       6.055  -4.519  -2.002  0.00  0.00     0.025 A 
ATOM     12  C   UNL d   1       6.463  -3.853  -3.147  0.00  0.00     0.035 A 
ATOM     13  C   UNL d   1       6.051  -2.541  -3.396  0.00  0.00     0.037 A 
ATOM     14 CL   UNL d   1       7.469  -4.656  -4.288  0.00  0.00    -0.084 Cl
ATOM     15  C   UNL d   1       4.616  -0.545  -2.536  0.00  0.00    -0.020 A 
ATOM     16  C   UNL d   1       4.846   0.406  -3.668  0.00  0.00     0.051 C 
ENDBRANCH   3   6
ENDBRANCH   1   3
BRANCH   1  17
ATOM     17  N   UNL d   1       0.825   0.227  -2.645  0.00  0.00    -0.260 N 
ATOM     18  C   UNL d   1       0.526   0.037  -3.976  0.00  0.00     0.237 C 
ATOM     19  O   UNL d   1       1.008   0.735  -4.867  0.00  0.00    -0.272 OA
ATOM     20  H   UNL d   1       0.581  -0.451  -1.919  0.00  0.00     0.190 HD
BRANCH  18  21
ATOM     21  C   UNL d   1      -0.442  -1.090  -4.260  0.00  0.00     0.115 C 
BRANCH  21  22
ATOM     22  C   UNL d   1       0.150  -2.482  -4.081  0.00  0.00     0.089 C 
BRANCH  22  23
ATOM     23  S   UNL d   1       0.370  -2.957  -2.329  0.00  0.00    -0.130 SA
BRANCH  23  24
ATOM     24  C   UNL d   1       0.995  -4.609  -2.586  0.00  0.00     0.000 A 
ATOM     25  C   UNL d   1       2.339  -4.812  -2.889  0.00  0.00     0.021 A 
ATOM     26  C   UNL d   1       2.825  -6.101  -3.126  0.00  0.00     0.038 A 
ATOM     27  C   UNL d   1       1.972  -7.202  -3.070  0.00  0.00     0.068 A 
ATOM     28  C   UNL d   1       0.626  -7.004  -2.765  0.00  0.00     0.038 A 
ATOM     29  C   UNL d   1       0.141  -5.711  -2.516  0.00  0.00     0.021 A 
BRANCH  27  30
ATOM     30  O   UNL d   1       2.555  -8.392  -3.399  0.00  0.00    -0.356 OA
ATOM     31  C   UNL d   1       1.951  -9.570  -2.880  0.00  0.00     0.210 C 
ENDBRANCH  27  30
ENDBRANCH  23  24
ENDBRANCH  22  23
ENDBRANCH  21  22
ENDBRANCH  18  21
ENDBRANCH   1  17
TORSDOF 8
