REMARK  6 active torsions:
REMARK  status: ('A' for Active; 'I' for Inactive)
REMARK    1  A    between atoms: C_2  and  S_1 
REMARK    2  A    between atoms: N_4  and  S_1 
REMARK    3  A    between atoms: N_3  and  C_8 
REMARK    4  A    between atoms: C_12  and  N_4 
REMARK    5  A    between atoms: O_20  and  C_9 
REMARK    6  A    between atoms: O_21  and  C_16 
ROOT
ATOM      1  S   UNL d   1       1.221   0.346   0.223  0.00  0.00     0.266 S 
ATOM      2  O   UNL d   1       2.372  -0.231  -0.453  0.00  0.00    -0.200 OA
ATOM      3  O   UNL d   1       1.353   1.612   0.901  0.00  0.00    -0.200 OA
ENDROOT
BRANCH   1   4
ATOM      4  C   UNL d   1       0.605  -0.924   1.322  0.00  0.00     0.115 A 
ATOM      5  C   UNL d   1       0.872  -2.266   0.970  0.00  0.00     0.065 A 
ATOM      6  C   UNL d   1       0.623  -3.293   1.879  0.00  0.00     0.069 A 
ATOM      7  C   UNL d   1       0.128  -2.975   3.141  0.00  0.00     0.039 A 
ATOM      8  C   UNL d   1      -0.171  -1.653   3.479  0.00  0.00     0.041 A 
ATOM      9  C   UNL d   1       0.049  -0.612   2.570  0.00  0.00     0.091 A 
BRANCH   6  10
ATOM     10  O   UNL d   1       0.841  -4.627   1.685  0.00  0.00    -0.356 OA
ATOM     11  C   UNL d   1       1.189  -5.048   0.374  0.00  0.00     0.210 C 
ENDBRANCH   6  10
BRANCH   9  12
ATOM     12  O   UNL d   1      -0.300   0.683   2.825  0.00  0.00    -0.354 OA
ATOM     13  C   UNL d   1      -0.512   1.044   4.186  0.00  0.00     0.210 C 
ENDBRANCH   9  12
ENDBRANCH   1   4
BRANCH   1  14
ATOM     14  N   UNL d   1       0.051   0.457  -0.973  0.00  0.00    -0.281 N 
ATOM     15  H   UNL d   1       0.453   0.422  -1.909  0.00  0.00     0.179 HD
BRANCH  14  16
ATOM     16  C   UNL d   1      -1.118   1.233  -0.787  0.00  0.00     0.042 A 
ATOM     17  C   UNL d   1      -1.097   2.629  -0.876  0.00  0.00     0.032 A 
ATOM     18  C   UNL d   1      -2.301   3.346  -0.876  0.00  0.00     0.038 A 
ATOM     19  C   UNL d   1      -3.518   2.654  -0.798  0.00  0.00     0.103 A 
ATOM     20  C   UNL d   1      -3.536   1.256  -0.700  0.00  0.00     0.038 A 
ATOM     21  C   UNL d   1      -2.331   0.551  -0.703  0.00  0.00     0.032 A 
BRANCH  19  22
ATOM     22  N   UNL d   1      -4.789   3.388  -0.852  0.00  0.00    -0.116 N 
ATOM     23  O   UNL d   1      -4.741   4.617  -1.004  0.00  0.00    -0.532 OA
ATOM     24  O   UNL d   1      -5.838   2.732  -0.756  0.00  0.00    -0.532 OA
ENDBRANCH  19  22
ENDBRANCH  14  16
ENDBRANCH   1  14
TORSDOF 6
