REMARK  4 active torsions:
REMARK  status: ('A' for Active; 'I' for Inactive)
REMARK    1  A    between atoms: N_1  and  C_2 
REMARK    2  A    between atoms: C_12  and  C_22 
REMARK    3  A    between atoms: N_21  and  C_15 
REMARK    4  A    between atoms: O_25  and  C_22 
ROOT
ATOM      1  N   UNL d   1       1.442   1.137  -0.155  0.00  0.00    -0.297 N 
ATOM      2  C   UNL d   1       0.632   0.780  -1.196  0.00  0.00     0.142 A 
ATOM      3  C   UNL d   1       0.274  -0.535  -0.934  0.00  0.00     0.116 A 
ATOM      4  N   UNL d   1       0.885  -0.996   0.211  0.00  0.00    -0.346 N 
ATOM      5  HN  UNL d   1       0.810  -1.923   0.628  1.00  0.00     0.167 HD
ATOM      6  C   UNL d   1       1.586   0.027   0.647  0.00  0.00     0.188 A 
ATOM      7  C   UNL d   1      -0.646  -1.130  -1.811  0.00  0.00     0.109 A 
ATOM      8  N   UNL d   1       0.209   1.541  -2.219  0.00  0.00    -0.336 N 
ATOM      9  HN  UNL d   1       0.506   2.502  -2.386  1.00  0.00     0.168 HD
ATOM     10  N   UNL d   1      -1.114  -0.400  -2.848  0.00  0.00    -0.341 N 
ATOM     11  HN  UNL d   1      -1.791  -0.794  -3.502  1.00  0.00     0.167 HD
ATOM     12  C   UNL d   1      -0.662   0.864  -2.995  0.00  0.00     0.183 A 
ENDROOT
BRANCH   1  13
ATOM     13  C   UNL d   1       1.929   2.446   0.227  0.00  0.00     0.262 C 
ATOM     14  C   UNL d   1       2.070   3.543  -0.828  0.00  0.00     0.206 C 
ATOM     15  C   UNL d   1       0.992   4.543  -0.498  0.00  0.00     0.189 C 
ATOM     16  O   UNL d   1       3.329   4.238  -0.670  0.00  0.00    -0.344 OA
ATOM     17  O   UNL d   1       1.650   5.810  -0.372  0.00  0.00    -0.345 OA
ATOM     18  C   UNL d   1       0.415   4.134   0.854  0.00  0.00     0.179 C 
ATOM     19  C   UNL d   1       3.033   5.535  -0.159  0.00  0.00     0.158 C 
ATOM     20  C   UNL d   1       3.377   5.568   1.332  0.00  0.00     0.078 C 
ATOM     21  C   UNL d   1       3.852   6.591  -0.890  0.00  0.00     0.078 C 
ATOM     22  O   UNL d   1       1.048   2.915   1.272  0.00  0.00    -0.353 OA
BRANCH  18  23
ATOM     23  C   UNL d   1      -1.105   3.961   0.852  0.00  0.00     0.198 C 
BRANCH  23  24
ATOM     24  O   UNL d   1      -1.523   2.932  -0.031  0.00  0.00    -0.398 OA
ATOM     25  H   UNL d   1      -1.261   2.086   0.374  0.00  0.00     0.209 HD
ENDBRANCH  23  24
ENDBRANCH  18  23
ENDBRANCH   1  13
BRANCH   7  26
ATOM     26  N   UNL d   1      -1.143  -2.417  -1.636  0.00  0.00    -0.287 NA
ATOM     27  H   UNL d   1      -1.057  -2.747  -0.679  0.00  0.00     0.125 HD
ATOM     28  H   UNL d   1      -2.042  -2.535  -2.085  0.00  0.00     0.125 HD
ENDBRANCH   7  26
TORSDOF 4
