REMARK  2 active torsions:
REMARK  status: ('A' for Active; 'I' for Inactive)
REMARK    1  A    between atoms: N_7  and  C_1 
REMARK    2  A    between atoms: C_8  and  N_7 
ROOT
ATOM      1  C   UNL d   1       1.581  -0.100   0.005  0.00  0.00     0.167 A 
ATOM      2  S   UNL d   1       0.341   1.068   0.006  0.00  0.00    -0.038 SA
ATOM      3  N   UNL d   1       1.172  -1.347   0.002  0.00  0.00    -0.279 N 
ATOM      4  HN  UNL d   1       1.795  -2.155   0.001  1.00  0.00     0.189 HD
ATOM      5  N   UNL d   1      -0.205  -1.432  -0.001  0.00  0.00    -0.296 N 
ATOM      6  HN  UNL d   1      -0.722  -2.312  -0.003  1.00  0.00     0.187 HD
ATOM      7  C   UNL d   1      -0.774  -0.244   0.001  0.00  0.00     0.066 A 
ATOM      8  C   UNL d   1      -2.241  -0.019   0.000  0.00  0.00     0.078 C 
ENDROOT
BRANCH   1   9
ATOM      9  N   UNL d   1       2.858   0.389   0.008  0.00  0.00    -0.313 N 
ATOM     10  H   UNL d   1       2.973   1.393   0.010  0.00  0.00     0.170 HD
BRANCH   9  11
ATOM     11  C   UNL d   1       3.981  -0.367   0.008  0.00  0.00     0.171 C 
ATOM     12  S   UNL d   1       5.480   0.354   0.012  0.00  0.00    -0.041 SA
ATOM     13  N   UNL d   1       3.877  -1.710   0.005  0.00  0.00    -0.376 N 
ATOM     14  H   UNL d   1       2.972  -2.174   0.003  0.00  0.00     0.158 HD
ATOM     15  H   UNL d   1       4.706  -2.288   0.005  0.00  0.00     0.158 HD
ENDBRANCH   9  11
ENDBRANCH   1   9
TORSDOF 2
