REMARK  5 active torsions:
REMARK  status: ('A' for Active; 'I' for Inactive)
REMARK    1  A    between atoms: C_4  and  C_1 
REMARK       I    between atoms: N_5  and  C_4 
REMARK    2  A    between atoms: C_7  and  N_5 
REMARK    3  A    between atoms: C_7  and  C_13 
REMARK    4  A    between atoms: C_7  and  C_9 
REMARK    5  A    between atoms: O_14  and  C_9 
ROOT
ATOM      1  C   UNL d   1      -2.666   2.458  -1.214  0.00  0.00     0.270 C 
ATOM      2  N   UNL d   1      -3.587   1.432  -1.264  0.00  0.00    -0.342 N 
ATOM      3  O   UNL d   1      -2.372   3.049  -0.182  0.00  0.00    -0.266 OA
ATOM      4  H   UNL d   1      -3.618   0.915  -2.139  0.00  0.00     0.163 HD
ENDROOT
BRANCH   2   5
ATOM      5  C   UNL d   1      -4.101   0.782  -0.058  0.00  0.00     0.188 C 
BRANCH   5   6
ATOM      6  C   UNL d   1      -5.644   0.781  -0.024  0.00  0.00     0.010 C 
ATOM      7  C   UNL d   1      -6.197   2.210  -0.000  0.00  0.00     0.012 C 
ATOM      8  C   UNL d   1      -6.271  -0.005  -1.179  0.00  0.00     0.012 C 
ENDBRANCH   5   6
BRANCH   5   9
ATOM      9  C   UNL d   1      -3.547  -0.649   0.104  0.00  0.00     0.281 C 
ATOM     10  O   UNL d   1      -3.757  -1.357   1.083  0.00  0.00    -0.263 OA
BRANCH   9  11
ATOM     11  O   UNL d   1      -2.852  -1.044  -1.003  0.00  0.00    -0.325 OA
ATOM     12  C   UNL d   1      -2.337  -2.376  -0.954  0.00  0.00     0.213 C 
ENDBRANCH   9  11
ENDBRANCH   5   9
ENDBRANCH   2   5
BRANCH   1  13
ATOM     13  C   UNL d   1      -2.039   2.763  -2.500  0.00  0.00     0.124 A 
ATOM     14  N   UNL d   1      -2.335   2.079  -3.621  0.00  0.00    -0.256 N 
ATOM     15  O   UNL d   1      -1.510   2.594  -4.606  0.00  0.00    -0.242 OA
ATOM     16  HN  UNL d   1      -3.025   1.335  -3.723  1.00  0.00     0.195 HD
ATOM     17  C   UNL d   1      -0.733   3.577  -4.081  0.00  0.00     0.075 A 
ATOM     18  C   UNL d   1      -1.047   3.742  -2.757  0.00  0.00     0.071 A 
ATOM     19  C   UNL d   1       0.251   4.197  -4.986  0.00  0.00     0.079 C 
ENDBRANCH   1  13
TORSDOF 5
