REMARK  3 active torsions:
REMARK  status: ('A' for Active; 'I' for Inactive)
REMARK       I    between atoms: C_2  and  N_1 
REMARK    1  A    between atoms: C_5  and  C_2 
REMARK    2  A    between atoms: C_11  and  N_3 
REMARK    3  A    between atoms: N_4  and  C_5 
ROOT
ATOM      1  N   UNL d   1      -1.157   0.005   0.576  0.00  0.00    -0.348 N 
ATOM      2  C   UNL d   1      -2.521   0.093   0.831  0.00  0.00     0.248 C 
ATOM      3  N   UNL d   1       1.643  -0.324  -0.020  0.00  0.00    -0.378 N 
ATOM      4  C   UNL d   1      -0.656  -1.232  -0.038  0.00  0.00     0.145 C 
ATOM      5  C   UNL d   1      -0.299   1.177   0.364  0.00  0.00     0.145 C 
ATOM      6  C   UNL d   1       0.818  -1.496   0.314  0.00  0.00     0.143 C 
ATOM      7  C   UNL d   1       1.196   0.915   0.634  0.00  0.00     0.143 C 
ATOM      8  O   UNL d   1      -3.289  -0.849   0.597  0.00  0.00    -0.271 OA
ENDROOT
BRANCH   2   9
ATOM      9  C   UNL d   1      -3.080   1.352   1.532  0.00  0.00     0.374 C 
BRANCH   9  10
ATOM     10  N   UNL d   1      -2.869   2.598   0.777  0.00  0.00     0.097 N 
ATOM     11  C   UNL d   1      -3.536   2.606  -0.529  0.00  0.00     0.273 C 
ATOM     12  C   UNL d   1      -3.028   3.808  -1.322  0.00  0.00     0.030 C 
ATOM     13  C   UNL d   1      -3.287   5.118  -0.581  0.00  0.00     0.003 C 
ATOM     14  C   UNL d   1      -2.808   5.049   0.867  0.00  0.00     0.030 C 
ATOM     15  C   UNL d   1      -3.271   3.770   1.565  0.00  0.00     0.273 C 
ENDBRANCH   9  10
ENDBRANCH   2   9
BRANCH   3  16
ATOM     16  C   UNL d   1       2.684  -0.349  -0.929  0.00  0.00     0.030 A 
ATOM     17  C   UNL d   1       3.708   0.615  -0.909  0.00  0.00     0.029 A 
ATOM     18  C   UNL d   1       4.760   0.615  -1.837  0.00  0.00     0.002 A 
ATOM     19  C   UNL d   1       4.824  -0.370  -2.811  0.00  0.00     0.000 A 
ATOM     20  C   UNL d   1       3.841  -1.350  -2.851  0.00  0.00     0.002 A 
ATOM     21  C   UNL d   1       2.791  -1.334  -1.922  0.00  0.00     0.029 A 
ENDBRANCH   3  16
TORSDOF 3
