REMARK  1 active torsions:
REMARK  status: ('A' for Active; 'I' for Inactive)
REMARK    1  A    between atoms: C_10  and  C_1 
ROOT
ATOM      1  C   UNL d   1       2.933   0.627  -0.305  0.00  0.00     0.080 C 
ATOM      2  S   UNL d   1       2.186  -0.946  -0.977  0.00  0.00    -0.139 SA
ATOM      3  S   UNL d   1       1.665   1.974  -0.462  0.00  0.00    -0.139 SA
ATOM      4  C   UNL d   1      -0.358  -0.765   0.138  0.00  0.00    -0.041 A 
ATOM      5  C   UNL d   1      -0.585   0.601   0.374  0.00  0.00    -0.041 A 
ATOM      6  C   UNL d   1      -1.433  -1.566  -0.285  0.00  0.00     0.015 A 
ATOM      7  C   UNL d   1      -1.862   1.138   0.156  0.00  0.00     0.015 A 
ATOM      8  C   UNL d   1      -2.719  -1.031  -0.480  0.00  0.00    -0.056 A 
ATOM      9  C   UNL d   1      -2.933   0.341  -0.270  0.00  0.00    -0.056 A 
ATOM     10  C   UNL d   1       1.003  -1.389   0.334  0.00  0.00     0.115 C 
ATOM     11  C   UNL d   1       0.507   1.514   0.860  0.00  0.00     0.115 C 
ATOM     12  C   UNL d   1       4.051   1.009  -1.296  0.00  0.00     0.044 C 
ATOM     13  C   UNL d   1      -3.837  -1.937  -0.917  0.00  0.00     0.049 C 
ATOM     14  C   UNL d   1      -4.273   0.981  -0.492  0.00  0.00     0.049 C 
ENDROOT
BRANCH   1  15
ATOM     15  C   UNL d   1       3.552   0.480   1.100  0.00  0.00    -0.030 C 
ATOM     16  C   UNL d   1       4.137  -0.729   1.520  0.00  0.00     0.010 C 
ATOM     17  C   UNL d   1       4.479  -0.942   2.859  0.00  0.00     0.007 C 
ATOM     18  C   UNL d   1       4.278   0.061   3.809  0.00  0.00    -0.062 C 
ATOM     19  C   UNL d   1       3.866   1.320   3.377  0.00  0.00     0.007 C 
ATOM     20  C   UNL d   1       4.498  -0.223   5.264  0.00  0.00     0.048 C 
ATOM     21  C   UNL d   1       3.539   1.535   2.036  0.00  0.00     0.010 C 
ENDBRANCH   1  15
TORSDOF 1
