REMARK  5 active torsions:
REMARK  status: ('A' for Active; 'I' for Inactive)
REMARK    1  A    between atoms: C_7  and  C_1 
REMARK    2  A    between atoms: C_10  and  C_2 
REMARK    3  A    between atoms: N_6  and  C_7 
REMARK    4  A    between atoms: C_8  and  C_12 
REMARK    5  A    between atoms: C_11  and  C_8 
ROOT
ATOM      1  N   UNL d   1       3.530   0.955   0.075  0.00  0.00     0.092 N 
ATOM      2  C   UNL d   1       4.970  -1.655  -0.160  0.00  0.00     0.064 C 
ATOM      3  C   UNL d   1       4.930  -0.835   1.139  0.00  0.00     0.043 C 
ATOM      4  C   UNL d   1       4.796  -0.692  -1.332  0.00  0.00     0.043 C 
ATOM      5  C   UNL d   1       3.688   0.067   1.242  0.00  0.00     0.273 C 
ATOM      6  C   UNL d   1       3.551   0.181  -1.182  0.00  0.00     0.273 C 
ENDROOT
BRANCH   1   7
ATOM      7  C   UNL d   1       2.236   1.684   0.124  0.00  0.00     0.315 C 
BRANCH   7   8
ATOM      8  C   UNL d   1       2.156   2.762   1.165  0.00  0.00     0.016 A 
ATOM      9  C   UNL d   1       1.026   3.613   1.458  0.00  0.00     0.067 A 
ATOM     10  N   UNL d   1       1.289   4.398   2.519  0.00  0.00    -0.300 N 
ATOM     11  N   UNL d   1       2.550   4.113   2.853  0.00  0.00    -0.311 N 
ATOM     12  HN  UNL d   1       0.663   5.065   2.969  1.00  0.00     0.187 HD
ATOM     13  C   UNL d   1       3.127   3.183   2.053  0.00  0.00     0.118 A 
ATOM     14  H   UNL d   1       2.958   4.598   3.644  0.00  0.00     0.186 HD
BRANCH   9  15
ATOM     15  C   UNL d   1      -0.281   3.729   0.788  0.00  0.00    -0.007 A 
ATOM     16  C   UNL d   1      -1.420   4.092   1.531  0.00  0.00     0.017 A 
ATOM     17  C   UNL d   1      -2.660   4.270   0.909  0.00  0.00     0.043 A 
ATOM     18  C   UNL d   1      -2.769   4.082  -0.462  0.00  0.00     0.116 A 
ATOM     19  C   UNL d   1      -1.662   3.730  -1.221  0.00  0.00     0.043 A 
ATOM     20  F   UNL d   1      -3.952   4.261  -1.064  0.00  0.00    -0.206 F 
ATOM     21  C   UNL d   1      -0.419   3.566  -0.599  0.00  0.00     0.017 A 
ENDBRANCH   9  15
ENDBRANCH   7   8
ENDBRANCH   1   7
BRANCH   2  22
ATOM     22  C   UNL d   1       3.906  -2.757  -0.109  0.00  0.00     0.163 C 
ATOM     23  O   UNL d   1       2.855  -2.630   0.508  0.00  0.00    -0.292 OA
BRANCH  22  24
ATOM     24  C   UNL d   1       4.108  -4.060  -0.798  0.00  0.00     0.010 A 
ATOM     25  C   UNL d   1       3.465  -5.179  -0.238  0.00  0.00     0.018 A 
ATOM     26  C   UNL d   1       3.469  -6.405  -0.899  0.00  0.00     0.043 A 
ATOM     27  C   UNL d   1       4.114  -6.509  -2.123  0.00  0.00     0.116 A 
ATOM     28  C   UNL d   1       4.787  -5.421  -2.674  0.00  0.00     0.043 A 
ATOM     29  F   UNL d   1       4.076  -7.669  -2.790  0.00  0.00    -0.206 F 
ATOM     30  C   UNL d   1       4.796  -4.191  -2.006  0.00  0.00     0.018 A 
ENDBRANCH  22  24
ENDBRANCH   2  22
TORSDOF 5
