REMARK  2 active torsions:
REMARK  status: ('A' for Active; 'I' for Inactive)
REMARK    1  A    between atoms: S_2  and  C_1 
REMARK    2  A    between atoms: N_3  and  S_2 
ROOT
ATOM      1  C   UNL d   1      -1.130   0.359  -0.067  0.00  0.00     0.053 C 
ATOM      2  C   UNL d   1      -0.227   1.044   0.982  0.00  0.00     0.029 C 
ATOM      3  C   UNL d   1      -0.761   0.842  -1.485  0.00  0.00     0.029 C 
ATOM      4  C   UNL d   1      -0.850  -1.172   0.008  0.00  0.00     0.029 C 
ATOM      5  C   UNL d   1       0.636  -1.469  -0.279  0.00  0.00    -0.012 C 
ATOM      6  C   UNL d   1       1.255   0.760   0.695  0.00  0.00    -0.012 C 
ATOM      7  C   UNL d   1       0.730   0.565  -1.765  0.00  0.00    -0.012 C 
ATOM      8  C   UNL d   1       1.508  -0.750   0.761  0.00  0.00     0.009 C 
ATOM      9  C   UNL d   1       0.992  -0.947  -1.681  0.00  0.00     0.009 C 
ATOM     10  C   UNL d   1       1.590   1.286  -0.712  0.00  0.00     0.009 C 
ENDROOT
BRANCH   1  11
ATOM     11  S   UNL d   1      -2.921   0.621   0.344  0.00  0.00     0.101 S 
ATOM     12  O   UNL d   1      -3.724  -0.330  -0.495  0.00  0.00    -0.240 OA
BRANCH  11  13
ATOM     13  N   UNL d   1      -3.084   2.225  -0.152  0.00  0.00    -0.233 NA
ATOM     14  C   UNL d   1      -2.875   3.310   0.818  0.00  0.00     0.105 C 
ATOM     15  C   UNL d   1      -3.984   3.383   1.865  0.00  0.00     0.015 C 
ATOM     16  C   UNL d   1      -5.368   3.499   1.238  0.00  0.00     0.002 C 
ATOM     17  C   UNL d   1      -5.556   2.635  -0.009  0.00  0.00     0.015 C 
ATOM     18  C   UNL d   1      -4.315   2.566  -0.908  0.00  0.00     0.105 C 
ENDBRANCH  11  13
ENDBRANCH   1  11
TORSDOF 2
