REMARK  7 active torsions:
REMARK  status: ('A' for Active; 'I' for Inactive)
REMARK    1  A    between atoms: C_2  and  C_1 
REMARK       I    between atoms: N_8  and  C_2 
REMARK    2  A    between atoms: C_7  and  C_4 
REMARK       I    between atoms: C_5  and  N_9 
REMARK    3  A    between atoms: C_12  and  C_5 
REMARK    4  A    between atoms: N_9  and  N_8 
REMARK    5  A    between atoms: C_21  and  C_10 
REMARK    6  A    between atoms: C_22  and  C_21 
REMARK    7  A    between atoms: C_23  and  C_22 
ROOT
ATOM      1  C   UNL d   1      -0.690  -2.560   0.015  0.00  0.00     0.293 C 
ATOM      2  N   UNL d   1       0.337  -3.486   0.036  0.00  0.00    -0.261 N 
ATOM      3  O   UNL d   1      -1.865  -2.937  -0.004  0.00  0.00    -0.264 OA
ATOM      4  H   UNL d   1       1.324  -3.235   0.076  0.00  0.00     0.190 HD
ENDROOT
BRANCH   1   5
ATOM      5  C   UNL d   1      -0.318  -1.158   0.018  0.00  0.00     0.146 A 
ATOM      6  O   UNL d   1       0.998  -0.753   0.044  0.00  0.00    -0.296 OA
ATOM      7  C   UNL d   1       0.982   0.611   0.046  0.00  0.00     0.129 A 
ATOM      8  C   UNL d   1      -0.305   1.092   0.020  0.00  0.00     0.050 A 
ATOM      9  C   UNL d   1      -1.142  -0.044   0.002  0.00  0.00     0.046 A 
BRANCH   7  10
ATOM     10  C   UNL d   1       2.207   1.323   0.064  0.00  0.00    -0.041 C 
ATOM     11  C   UNL d   1       3.178   2.033   0.055  0.00  0.00    -0.099 C 
BRANCH  11  12
ATOM     12  C   UNL d   1       4.317   2.963   0.006  0.00  0.00     0.094 C 
BRANCH  12  13
ATOM     13  C   UNL d   1       5.521   2.372  -0.725  0.00  0.00     0.012 C 
BRANCH  13  14
ATOM     14  C   UNL d   1       5.245   2.095  -2.205  0.00  0.00    -0.004 C 
ATOM     15  C   UNL d   1       6.457   1.483  -2.890  0.00  0.00     0.005 C 
ENDBRANCH  13  14
ENDBRANCH  12  13
ENDBRANCH  11  12
ENDBRANCH   7  10
ENDBRANCH   1   5
BRANCH   2  16
ATOM     16  N   UNL d   1      -0.011  -4.851   0.102  0.00  0.00    -0.263 N 
ATOM     17  C   UNL d   1       0.980  -5.811   0.084  0.00  0.00     0.270 C 
ATOM     18  O   UNL d   1       2.175  -5.534   0.024  0.00  0.00    -0.266 OA
ATOM     19  H   UNL d   1      -1.003  -5.057  -0.007  0.00  0.00     0.190 HD
BRANCH  17  20
ATOM     20  C   UNL d   1       0.534  -7.238   0.125  0.00  0.00     0.033 A 
ATOM     21  C   UNL d   1       1.381  -8.217  -0.417  0.00  0.00     0.019 A 
ATOM     22  C   UNL d   1       1.028  -9.570  -0.368  0.00  0.00     0.025 A 
ATOM     23  C   UNL d   1      -0.169  -9.952   0.235  0.00  0.00     0.034 A 
ATOM     24  C   UNL d   1      -1.018  -8.991   0.782  0.00  0.00     0.025 A 
ATOM     25 CL   UNL d   1      -0.593 -11.617   0.318  0.00  0.00    -0.084 Cl
ATOM     26  C   UNL d   1      -0.669  -7.634   0.729  0.00  0.00     0.019 A 
ENDBRANCH  17  20
ENDBRANCH   2  16
TORSDOF 7
