REMARK  8 active torsions:
REMARK  status: ('A' for Active; 'I' for Inactive)
REMARK    1  A    between atoms: N_2  and  C_1 
REMARK    2  A    between atoms: N_14  and  C_1 
REMARK    3  A    between atoms: C_3  and  N_2 
REMARK    4  A    between atoms: O_18  and  C_7 
REMARK    5  A    between atoms: O_19  and  C_11 
REMARK    6  A    between atoms: C_20  and  N_14 
REMARK    7  A    between atoms: C_16  and  C_21 
REMARK    8  A    between atoms: C_21  and  C_20 
ROOT
ATOM      1  N   UNL d   1       2.426  -0.080   0.292  0.00  0.00    -0.367 N 
ATOM      2  H   UNL d   1       2.775  -0.844  -0.275  0.00  0.00     0.161 HD
ENDROOT
BRANCH   1   3
ATOM      3  C   UNL d   1       1.109  -0.233   0.637  0.00  0.00     0.167 C 
ATOM      4  S   UNL d   1       0.261  -1.507  -0.020  0.00  0.00    -0.041 SA
BRANCH   3   5
ATOM      5  N   UNL d   1       0.643   0.669   1.544  0.00  0.00    -0.362 N 
ATOM      6  H   UNL d   1       1.111   1.562   1.531  0.00  0.00     0.162 HD
BRANCH   5   7
ATOM      7  C   UNL d   1      -0.650   0.668   2.225  0.00  0.00     0.092 C 
ATOM      8  C   UNL d   1      -0.625   1.496   3.546  0.00  0.00     0.031 C 
ATOM      9  C   UNL d   1      -0.180   2.914   3.241  0.00  0.00    -0.024 C 
ATOM     10  C   UNL d   1      -2.117   1.764   3.744  0.00  0.00     0.019 C 
ATOM     11  C   UNL d   1      -1.161   3.488   2.529  0.00  0.00    -0.026 C 
ATOM     12  C   UNL d   1      -2.268   2.467   2.389  0.00  0.00     0.010 C 
ATOM     13  C   UNL d   1      -1.790   1.363   1.419  0.00  0.00     0.034 C 
ENDBRANCH   5   7
ENDBRANCH   3   5
ENDBRANCH   1   3
BRANCH   1  14
ATOM     14  C   UNL d   1       3.401   0.768   0.968  0.00  0.00     0.126 C 
BRANCH  14  15
ATOM     15  C   UNL d   1       4.855   0.509   0.556  0.00  0.00     0.058 C 
BRANCH  15  16
ATOM     16  C   UNL d   1       5.351  -0.867   0.933  0.00  0.00    -0.054 A 
ATOM     17  C   UNL d   1       5.400  -1.888  -0.029  0.00  0.00     0.046 A 
ATOM     18  C   UNL d   1       5.811  -3.192   0.296  0.00  0.00     0.102 A 
ATOM     19  C   UNL d   1       6.191  -3.469   1.621  0.00  0.00     0.101 A 
ATOM     20  C   UNL d   1       6.147  -2.446   2.579  0.00  0.00     0.040 A 
ATOM     21  C   UNL d   1       5.737  -1.155   2.243  0.00  0.00     0.010 A 
BRANCH  18  22
ATOM     22  O   UNL d   1       5.828  -4.215  -0.613  0.00  0.00    -0.353 OA
ATOM     23  C   UNL d   1       5.481  -3.922  -1.960  0.00  0.00     0.210 C 
ENDBRANCH  18  22
BRANCH  19  24
ATOM     24  O   UNL d   1       6.585  -4.669   2.155  0.00  0.00    -0.353 OA
ATOM     25  C   UNL d   1       7.118  -5.647   1.275  0.00  0.00     0.210 C 
ENDBRANCH  19  24
ENDBRANCH  15  16
ENDBRANCH  14  15
ENDBRANCH   1  14
TORSDOF 8
