REMARK  1 active torsions:
REMARK  status: ('A' for Active; 'I' for Inactive)
REMARK    1  A    between atoms: C_9  and  C_3 
ROOT
ATOM      1  N   UNL d   1      -0.274  -0.614   0.045  0.00  0.00    -0.239 N 
ATOM      2  C   UNL d   1      -0.243   0.791   0.024  0.00  0.00     0.129 A 
ATOM      3  C   UNL d   1       0.930  -1.360   0.054  0.00  0.00     0.076 A 
ATOM      4  N   UNL d   1      -1.566  -1.062   0.052  0.00  0.00    -0.296 N 
ATOM      5  HN  UNL d   1      -1.884  -2.031   0.073  1.00  0.00     0.187 HD
ATOM      6  C   UNL d   1      -1.552   1.212   0.008  0.00  0.00     0.076 A 
ATOM      7  N   UNL d   1       0.921   1.504   0.019  0.00  0.00    -0.351 N 
ATOM      8  HN  UNL d   1       0.934   2.524   0.010  1.00  0.00     0.166 HD
ATOM      9  C   UNL d   1      -2.324   0.037   0.025  0.00  0.00     0.026 A 
ATOM     10  C   UNL d   1       2.096  -0.680   0.035  0.00  0.00     0.050 A 
ATOM     11  C   UNL d   1       2.009   0.800   0.027  0.00  0.00     0.092 A 
ATOM     12  C   UNL d   1      -3.804  -0.066   0.014  0.00  0.00     0.070 C 
ENDROOT
BRANCH   3  13
ATOM     13  C   UNL d   1       0.944  -2.802   0.058  0.00  0.00     0.033 A 
ATOM     14  S   UNL d   1       2.226  -3.702   0.808  0.00  0.00    -0.100 SA
ATOM     15  C   UNL d   1       1.553  -5.205   0.377  0.00  0.00     0.050 A 
ATOM     16  C   UNL d   1       0.361  -5.062  -0.288  0.00  0.00     0.008 A 
ATOM     17  C   UNL d   1       0.014  -3.692  -0.468  0.00  0.00     0.021 A 
ENDBRANCH   3  13
TORSDOF 1
