REMARK  7 active torsions:
REMARK  status: ('A' for Active; 'I' for Inactive)
REMARK    1  A    between atoms: O_13  and  C_1 
REMARK    2  A    between atoms: O_14  and  C_2 
REMARK    3  A    between atoms: C_3  and  O_15 
REMARK    4  A    between atoms: O_16  and  C_4 
REMARK    5  A    between atoms: O_15  and  C_17 
REMARK    6  A    between atoms: C_18  and  O_16 
REMARK    7  A    between atoms: C_17  and  C_18 
ROOT
ATOM      1  C   UNL d   1      -5.083  -0.075  -0.448  0.00  0.00     0.202 C 
ENDROOT
BRANCH   1   2
ATOM      2  O   UNL d   1      -6.029  -1.145  -0.523  0.00  0.00    -0.349 OA
BRANCH   2   3
ATOM      3  C   UNL d   1      -6.204  -1.731  -1.746  0.00  0.00     0.069 A 
ATOM      4  C   UNL d   1      -6.512  -3.094  -1.727  0.00  0.00     0.039 A 
ATOM      5  C   UNL d   1      -6.731  -3.783  -2.923  0.00  0.00     0.039 A 
ATOM      6  C   UNL d   1      -6.679  -3.111  -4.144  0.00  0.00     0.068 A 
ATOM      7  C   UNL d   1      -6.377  -1.750  -4.163  0.00  0.00     0.039 A 
ATOM      8  C   UNL d   1      -6.149  -1.063  -2.965  0.00  0.00     0.039 A 
BRANCH   6   9
ATOM      9  O   UNL d   1      -6.907  -3.877  -5.254  0.00  0.00    -0.356 OA
ATOM     10  C   UNL d   1      -7.457  -3.185  -6.371  0.00  0.00     0.210 C 
ENDBRANCH   6   9
ENDBRANCH   2   3
ENDBRANCH   1   2
BRANCH   1  11
ATOM     11  C   UNL d   1      -3.670  -0.617  -0.254  0.00  0.00     0.202 C 
BRANCH  11  12
ATOM     12  O   UNL d   1      -2.752   0.479  -0.225  0.00  0.00    -0.349 OA
BRANCH  12  13
ATOM     13  C   UNL d   1      -1.434   0.131  -0.101  0.00  0.00     0.069 A 
ATOM     14  C   UNL d   1      -0.514   1.011  -0.670  0.00  0.00     0.039 A 
ATOM     15  C   UNL d   1       0.857   0.751  -0.583  0.00  0.00     0.039 A 
ATOM     16  C   UNL d   1       1.325  -0.378   0.092  0.00  0.00     0.068 A 
ATOM     17  C   UNL d   1       0.405  -1.246   0.677  0.00  0.00     0.039 A 
ATOM     18  C   UNL d   1      -0.969  -0.991   0.582  0.00  0.00     0.039 A 
BRANCH  16  19
ATOM     19  O   UNL d   1       2.685  -0.514   0.124  0.00  0.00    -0.356 OA
ATOM     20  C   UNL d   1       3.195  -1.651   0.812  0.00  0.00     0.210 C 
ENDBRANCH  16  19
ENDBRANCH  12  13
ENDBRANCH  11  12
ENDBRANCH   1  11
TORSDOF 7
