REMARK  1 active torsions:
REMARK  status: ('A' for Active; 'I' for Inactive)
REMARK       I    between atoms: C_2  and  N_1 
REMARK    1  A    between atoms: C_3  and  C_2 
ROOT
ATOM      1  N   UNL d   1       0.770   1.534   0.607  0.00  0.00    -0.307 N 
ATOM      2  C   UNL d   1       0.827   2.350   1.760  0.00  0.00     0.260 C 
ATOM      3  C   UNL d   1       1.862   1.409  -0.371  0.00  0.00     0.098 C 
ATOM      4  N   UNL d   1       0.956  -1.417  -0.199  0.00  0.00    -0.325 N 
ATOM      5  C   UNL d   1      -0.351   0.657   0.432  0.00  0.00     0.064 A 
ATOM      6  C   UNL d   1       2.268  -1.098  -0.258  0.00  0.00     0.224 C 
ATOM      7  C   UNL d   1       2.798   0.278  -0.024  0.00  0.00     0.128 C 
ATOM      8  C   UNL d   1      -0.228  -0.693   0.040  0.00  0.00     0.061 A 
ATOM      9  O   UNL d   1      -0.110   2.597   2.519  0.00  0.00    -0.267 OA
ATOM     10  O   UNL d   1       3.064  -2.018  -0.491  0.00  0.00    -0.273 OA
ATOM     11  C   UNL d   1       1.390   1.436  -1.836  0.00  0.00     0.033 C 
ATOM     12  C   UNL d   1      -1.646   1.178   0.635  0.00  0.00     0.032 A 
ATOM     13  C   UNL d   1      -1.398  -1.465  -0.118  0.00  0.00     0.032 A 
ATOM     14  C   UNL d   1      -2.791   0.400   0.457  0.00  0.00     0.002 A 
ATOM     15  C   UNL d   1      -2.667  -0.926   0.081  0.00  0.00     0.002 A 
ATOM     16  H   UNL d   1       0.840  -2.404  -0.394  0.00  0.00     0.169 HD
ENDROOT
BRANCH   2  17
ATOM     17  C   UNL d   1       2.125   2.927   2.179  0.00  0.00     0.054 A 
ATOM     18  C   UNL d   1       2.776   2.438   3.323  0.00  0.00     0.051 A 
ATOM     19  C   UNL d   1       3.986   3.005   3.735  0.00  0.00     0.048 A 
ATOM     20 CL   UNL d   1       2.160   1.119   4.253  0.00  0.00    -0.083 Cl
ATOM     21  C   UNL d   1       4.545   4.048   3.001  0.00  0.00     0.035 A 
ATOM     22  C   UNL d   1       3.892   4.556   1.877  0.00  0.00     0.025 A 
ATOM     23 CL   UNL d   1       6.054   4.718   3.483  0.00  0.00    -0.084 Cl
ATOM     24  C   UNL d   1       2.666   4.015   1.481  0.00  0.00     0.020 A 
ENDBRANCH   2  17
TORSDOF 1
