REMARK  4 active torsions:
REMARK  status: ('A' for Active; 'I' for Inactive)
REMARK    1  A    between atoms: C_22  and  N_4 
REMARK    2  A    between atoms: C_19  and  C_11 
REMARK    3  A    between atoms: C_21  and  C_17 
REMARK    4  A    between atoms: C_23  and  C_22 
ROOT
ATOM      1  C   UNL d   1      -2.523  -0.820   0.096  0.00  0.00     0.080 A 
ATOM      2  C   UNL d   1      -3.942  -1.084   0.087  0.00  0.00     0.144 A 
ATOM      3  C   UNL d   1      -0.157  -1.050   0.148  0.00  0.00     0.040 A 
ATOM      4  N   UNL d   1      -4.540  -2.098  -0.626  0.00  0.00    -0.303 N 
ATOM      5  C   UNL d   1      -1.457  -1.696   0.204  0.00  0.00     0.061 A 
ATOM      6  C   UNL d   1      -0.351   0.325   0.109  0.00  0.00     0.103 A 
ATOM      7  S   UNL d   1      -1.980   0.799   0.045  0.00  0.00    -0.064 SA
ATOM      8  N   UNL d   1      -4.774  -0.412   0.840  0.00  0.00    -0.282 N 
ATOM      9  HN  UNL d   1      -4.568   0.398   1.425  1.00  0.00     0.188 HD
ATOM     10  C   UNL d   1      -5.836  -2.123  -0.167  0.00  0.00     0.194 A 
ATOM     11  C   UNL d   1       1.207  -1.486   0.154  0.00  0.00     0.018 A 
ATOM     12  N   UNL d   1      -5.973  -1.028   0.671  0.00  0.00    -0.274 N 
ATOM     13  N   UNL d   1       1.870   0.852   0.159  0.00  0.00    -0.298 N 
ATOM     14  HN  UNL d   1       2.616   1.546   0.184  1.00  0.00     0.187 HD
ATOM     15  N   UNL d   1       0.619   1.256   0.107  0.00  0.00    -0.292 N 
ATOM     16  HN  UNL d   1       0.391   2.249   0.067  1.00  0.00     0.187 HD
ATOM     17  C   UNL d   1       2.192  -0.469   0.178  0.00  0.00     0.070 A 
ATOM     18  S   UNL d   1      -7.057  -3.212  -0.438  0.00  0.00    -0.039 SA
ATOM     19  N   UNL d   1      -1.644  -3.024   0.379  0.00  0.00    -0.397 N 
ATOM     20  H   UNL d   1      -6.792  -0.777   1.213  0.00  0.00     0.189 HD
ATOM     21  H   UNL d   1      -0.956  -3.718   0.102  0.00  0.00     0.156 HD
ATOM     22  H   UNL d   1      -2.525  -3.432   0.680  0.00  0.00     0.156 HD
ENDROOT
BRANCH   4  23
ATOM     23  C   UNL d   1      -3.924  -3.042  -1.554  0.00  0.00     0.160 C 
BRANCH  23  24
ATOM     24  C   UNL d   1      -4.565  -3.074  -2.908  0.00  0.00    -0.017 C 
ATOM     25  C   UNL d   1      -5.081  -2.034  -3.578  0.00  0.00     0.008 C 
ENDBRANCH  23  24
ENDBRANCH   4  23
BRANCH  11  26
ATOM     26  C   UNL d   1       1.524  -2.921   0.043  0.00  0.00    -0.023 A 
ATOM     27  C   UNL d   1       2.225  -3.415  -1.073  0.00  0.00     0.012 A 
ATOM     28  C   UNL d   1       2.519  -4.774  -1.198  0.00  0.00     0.001 A 
ATOM     29  C   UNL d   1       2.082  -5.673  -0.230  0.00  0.00     0.000 A 
ATOM     30  C   UNL d   1       1.397  -5.207   0.888  0.00  0.00     0.001 A 
ATOM     31  C   UNL d   1       1.157  -3.839   1.042  0.00  0.00     0.012 A 
ENDBRANCH  11  26
BRANCH  17  32
ATOM     32  C   UNL d   1       3.661  -0.709   0.186  0.00  0.00    -0.007 A 
ATOM     33  C   UNL d   1       4.518   0.094  -0.594  0.00  0.00     0.014 A 
ATOM     34  C   UNL d   1       5.895  -0.144  -0.651  0.00  0.00     0.001 A 
ATOM     35  C   UNL d   1       6.451  -1.194   0.071  0.00  0.00     0.000 A 
ATOM     36  C   UNL d   1       5.636  -1.983   0.876  0.00  0.00     0.001 A 
ATOM     37  C   UNL d   1       4.263  -1.726   0.950  0.00  0.00     0.014 A 
ENDBRANCH  17  32
TORSDOF 4
