REMARK  4 active torsions:
REMARK  status: ('A' for Active; 'I' for Inactive)
REMARK    1  A    between atoms: C_9  and  C_1 
REMARK    2  A    between atoms: C_10  and  C_1 
REMARK    3  A    between atoms: N_11  and  C_6 
REMARK    4  A    between atoms: C_12  and  C_8 
ROOT
ATOM      1  C   UNL d   1       1.393  -0.221   0.266  0.00  0.00     0.308 A 
ATOM      2  N   UNL d   1       0.777   1.105   0.053  0.00  0.00    -0.314 N 
ATOM      3  HN  UNL d   1       1.334   1.950   0.179  1.00  0.00     0.166 HD
ATOM      4  N   UNL d   1       0.410  -1.331   0.171  0.00  0.00    -0.328 N 
ATOM      5  HN  UNL d   1       0.695  -2.296   0.338  1.00  0.00     0.164 HD
ATOM      6  C   UNL d   1      -0.450   1.200  -0.287  0.00  0.00     0.226 A 
ATOM      7  O   UNL d   1      -1.293   0.162  -0.383  0.00  0.00    -0.262 OA
ATOM      8  C   UNL d   1      -0.799  -1.048  -0.124  0.00  0.00     0.160 A 
ENDROOT
BRANCH   1   9
ATOM      9  C   UNL d   1       2.495  -0.420  -0.835  0.00  0.00     0.441 C 
ATOM     10  F   UNL d   1       2.695   0.714  -1.562  0.00  0.00    -0.166 F 
ATOM     11  F   UNL d   1       3.708  -0.814  -0.408  0.00  0.00    -0.166 F 
ATOM     12  F   UNL d   1       2.102  -1.356  -1.750  0.00  0.00    -0.166 F 
ENDBRANCH   1   9
BRANCH   1  13
ATOM     13  C   UNL d   1       2.061  -0.242   1.680  0.00  0.00     0.441 C 
ATOM     14  F   UNL d   1       1.977   0.968   2.298  0.00  0.00    -0.166 F 
ATOM     15  F   UNL d   1       1.414  -1.110   2.512  0.00  0.00    -0.166 F 
ATOM     16  F   UNL d   1       3.359  -0.595   1.721  0.00  0.00    -0.166 F 
ENDBRANCH   1  13
BRANCH   6  17
ATOM     17  N   UNL d   1      -1.072   2.380  -0.637  0.00  0.00    -0.347 N 
ATOM     18  C   UNL d   1      -1.753   2.420  -1.941  0.00  0.00     0.126 C 
ATOM     19  C   UNL d   1      -2.882   3.437  -1.897  0.00  0.00     0.020 C 
ATOM     20  C   UNL d   1      -2.358   4.817  -1.514  0.00  0.00     0.003 C 
ATOM     21  C   UNL d   1      -1.515   4.761  -0.239  0.00  0.00     0.020 C 
ATOM     22  C   UNL d   1      -0.448   3.663  -0.287  0.00  0.00     0.126 C 
ENDBRANCH   6  17
BRANCH   8  23
ATOM     23  C   UNL d   1      -1.848  -2.073  -0.308  0.00  0.00     0.015 A 
ATOM     24  C   UNL d   1      -1.465  -3.334  -0.781  0.00  0.00     0.016 A 
ATOM     25  C   UNL d   1      -2.426  -4.310  -1.035  0.00  0.00     0.007 A 
ATOM     26  C   UNL d   1      -3.782  -4.046  -0.810  0.00  0.00    -0.062 A 
ATOM     27  C   UNL d   1      -4.162  -2.795  -0.308  0.00  0.00     0.007 A 
ATOM     28  C   UNL d   1      -4.800  -5.105  -1.119  0.00  0.00     0.048 C 
ATOM     29  C   UNL d   1      -3.199  -1.809  -0.061  0.00  0.00     0.016 A 
ENDBRANCH   8  23
TORSDOF 4
