REMARK  3 active torsions:
REMARK  status: ('A' for Active; 'I' for Inactive)
REMARK    1  A    between atoms: N_2  and  C_1 
REMARK    2  A    between atoms: N_3  and  C_1 
REMARK    3  A    between atoms: C_6  and  N_3 
ROOT
ATOM      1  N   UNL d   1       1.456   1.129   0.393  0.00  0.00    -0.333 N 
ATOM      2  H   UNL d   1       0.933   1.730   1.017  0.00  0.00     0.168 HD
ENDROOT
BRANCH   1   3
ATOM      3  C   UNL d   1       0.717   0.065  -0.105  0.00  0.00     0.174 C 
ATOM      4  S   UNL d   1       0.485  -0.144  -1.761  0.00  0.00    -0.041 SA
BRANCH   3   5
ATOM      5  N   UNL d   1       0.113  -0.716   0.912  0.00  0.00    -0.358 N 
ATOM      6  C   UNL d   1       0.610  -0.662   2.296  0.00  0.00     0.125 C 
ATOM      7  C   UNL d   1      -0.388  -1.065   3.381  0.00  0.00     0.020 C 
ATOM      8  C   UNL d   1      -1.775  -0.460   3.183  0.00  0.00     0.002 C 
ATOM      9  C   UNL d   1      -2.672  -1.342   2.317  0.00  0.00     0.002 C 
ATOM     10  C   UNL d   1      -2.261  -1.466   0.849  0.00  0.00     0.020 C 
ATOM     11  C   UNL d   1      -0.797  -1.836   0.605  0.00  0.00     0.125 C 
ENDBRANCH   3   5
ENDBRANCH   1   3
BRANCH   1  12
ATOM     12  C   UNL d   1       2.695   1.626  -0.064  0.00  0.00     0.034 A 
ATOM     13  C   UNL d   1       3.634   0.818  -0.710  0.00  0.00     0.037 A 
ATOM     14  C   UNL d   1       4.904   1.313  -1.063  0.00  0.00    -0.043 A 
ATOM     15  C   UNL d   1       5.895   0.390  -1.714  0.00  0.00     0.049 C 
ATOM     16  C   UNL d   1       5.208   2.651  -0.767  0.00  0.00     0.017 A 
ATOM     17  C   UNL d   1       4.274   3.463  -0.123  0.00  0.00     0.022 A 
ATOM     18 BR   UNL d   1       6.893   3.418  -1.191  0.00  0.00    -0.051 Br
ATOM     19  C   UNL d   1       3.026   2.947   0.243  0.00  0.00     0.031 A 
ENDBRANCH   1  12
TORSDOF 3
