REMARK  3 active torsions:
REMARK  status: ('A' for Active; 'I' for Inactive)
REMARK    1  A    between atoms: C_8  and  C_3 
REMARK    2  A    between atoms: O_20  and  C_15 
REMARK    3  A    between atoms: O_22  and  C_18 
ROOT
ATOM      1  C   UNL d   1      -0.025   0.705   0.095  0.00  0.00     0.024 C 
ATOM      2  C   UNL d   1      -0.058  -0.643   0.094  0.00  0.00     0.021 C 
ATOM      3  C   UNL d   1      -1.295   1.531  -0.031  0.00  0.00     0.103 C 
ATOM      4  C   UNL d   1      -2.573   0.695   0.094  0.00  0.00     0.057 C 
ATOM      5  N   UNL d   1      -1.276  -1.298   0.051  0.00  0.00    -0.362 N 
ATOM      6  C   UNL d   1      -2.508  -0.659   0.098  0.00  0.00     0.023 C 
ATOM      7  C   UNL d   1       1.272   1.427   0.218  0.00  0.00     0.159 C 
ATOM      8  C   UNL d   1      -3.813   1.400   0.186  0.00  0.00     0.098 C 
ATOM      9  N   UNL d   1      -4.816   1.971   0.276  0.00  0.00    -0.192 NA
ATOM     10  C   UNL d   1       1.194  -1.492   0.097  0.00  0.00     0.067 C 
ATOM     11  C   UNL d   1       2.452  -0.731  -0.382  0.00  0.00    -0.036 C 
ATOM     12  C   UNL d   1       2.535   0.607   0.368  0.00  0.00     0.092 C 
ATOM     13  O   UNL d   1       1.306   2.654   0.283  0.00  0.00    -0.293 OA
ATOM     14  C   UNL d   1      -3.716  -1.563   0.127  0.00  0.00     0.069 C 
ATOM     15  C   UNL d   1       2.406  -0.495  -1.908  0.00  0.00     0.015 C 
ATOM     16  C   UNL d   1       3.711  -1.559  -0.071  0.00  0.00     0.015 C 
ATOM     17  H   UNL d   1      -1.271  -2.314   0.099  0.00  0.00     0.165 HD
ENDROOT
BRANCH   3  18
ATOM     18  C   UNL d   1      -1.303   2.295  -1.358  0.00  0.00    -0.041 A 
ATOM     19  C   UNL d   1      -1.346   3.699  -1.364  0.00  0.00     0.047 A 
ATOM     20  C   UNL d   1      -1.325   4.429  -2.563  0.00  0.00     0.102 A 
ATOM     21  C   UNL d   1      -1.274   3.729  -3.783  0.00  0.00     0.101 A 
ATOM     22  C   UNL d   1      -1.239   2.328  -3.773  0.00  0.00     0.040 A 
ATOM     23  C   UNL d   1      -1.255   1.614  -2.580  0.00  0.00     0.011 A 
BRANCH  20  24
ATOM     24  O   UNL d   1      -1.344   5.798  -2.596  0.00  0.00    -0.353 OA
ATOM     25  C   UNL d   1      -1.403   6.504  -1.363  0.00  0.00     0.210 C 
ENDBRANCH  20  24
BRANCH  21  26
ATOM     26  O   UNL d   1      -1.254   4.225  -5.060  0.00  0.00    -0.353 OA
ATOM     27  C   UNL d   1      -1.278   5.630  -5.247  0.00  0.00     0.210 C 
ENDBRANCH  21  26
ENDBRANCH   3  18
TORSDOF 3
