REMARK  3 active torsions:
REMARK  status: ('A' for Active; 'I' for Inactive)
REMARK       I    between atoms: C_2  and  N_1 
REMARK    1  A    between atoms: C_5  and  C_2 
REMARK    2  A    between atoms: O_18  and  C_9 
REMARK    3  A    between atoms: O_19  and  C_12 
ROOT
ATOM      1  N   UNL d   1      -2.450   0.700  -0.295  0.00  0.00    -0.339 N 
ATOM      2  C   UNL d   1      -3.385   1.110  -1.260  0.00  0.00     0.261 C 
ATOM      3  C   UNL d   1      -0.002   0.634   0.103  0.00  0.00    -0.026 A 
ATOM      4  C   UNL d   1      -1.275   1.460   0.138  0.00  0.00     0.117 C 
ATOM      5  C   UNL d   1      -0.021  -0.761  -0.001  0.00  0.00    -0.045 A 
ATOM      6  C   UNL d   1       1.229   1.311   0.160  0.00  0.00     0.049 A 
ATOM      7  C   UNL d   1      -2.538  -0.656   0.254  0.00  0.00     0.131 C 
ATOM      8  C   UNL d   1       2.438   0.617   0.129  0.00  0.00     0.102 A 
ATOM      9  C   UNL d   1       1.198  -1.462  -0.049  0.00  0.00     0.047 A 
ATOM     10  C   UNL d   1       2.425  -0.783   0.015  0.00  0.00     0.102 A 
ATOM     11  O   UNL d   1      -4.258   0.314  -1.619  0.00  0.00    -0.267 OA
ATOM     12  C   UNL d   1      -1.329  -1.501  -0.157  0.00  0.00     0.059 C 
ATOM     13  C   UNL d   1      -1.499   2.044   1.539  0.00  0.00     0.037 C 
ENDROOT
BRANCH   2  14
ATOM     14  C   UNL d   1      -3.310   2.455  -1.844  0.00  0.00     0.072 A 
ATOM     15  S   UNL d   1      -3.835   2.650  -3.478  0.00  0.00    -0.097 SA
ATOM     16  C   UNL d   1      -3.447   4.312  -3.494  0.00  0.00     0.050 A 
ATOM     17  C   UNL d   1      -2.952   4.736  -2.284  0.00  0.00     0.009 A 
ATOM     18  C   UNL d   1      -2.931   3.683  -1.323  0.00  0.00     0.025 A 
ENDBRANCH   2  14
BRANCH   8  19
ATOM     19  O   UNL d   1       3.663   1.242   0.156  0.00  0.00    -0.353 OA
ATOM     20  C   UNL d   1       3.694   2.545   0.727  0.00  0.00     0.210 C 
ENDBRANCH   8  19
BRANCH  10  21
ATOM     21  O   UNL d   1       3.654  -1.396  -0.029  0.00  0.00    -0.353 OA
ATOM     22  C   UNL d   1       3.677  -2.813  -0.130  0.00  0.00     0.210 C 
ENDBRANCH  10  21
TORSDOF 3
