REMARK  6 active torsions:
REMARK  status: ('A' for Active; 'I' for Inactive)
REMARK    1  A    between atoms: N_3  and  C_1 
REMARK    2  A    between atoms: N_9  and  C_1 
REMARK    3  A    between atoms: C_2  and  N_3 
REMARK    4  A    between atoms: N_5  and  N_9 
REMARK    5  A    between atoms: N_11  and  C_10 
REMARK    6  A    between atoms: C_17  and  C_16 
ROOT
ATOM      1  N   UNL d   1       2.632   0.220  -0.088  0.00  0.00    -0.276 N 
ATOM      2  H   UNL d   1       3.151  -0.212   0.674  0.00  0.00     0.189 HD
ENDROOT
BRANCH   1   3
ATOM      3  N   UNL d   1       3.254   0.490  -1.269  0.00  0.00    -0.309 N 
ATOM      4  C   UNL d   1       4.494   0.121  -1.302  0.00  0.00     0.118 C 
ATOM      5  HN  UNL d   1       2.786   0.941  -2.055  1.00  0.00     0.186 HD
BRANCH   4   6
ATOM      6  C   UNL d   1       5.356   0.319  -2.482  0.00  0.00    -0.019 A 
ATOM      7  C   UNL d   1       4.839   0.837  -3.664  0.00  0.00     0.015 A 
ATOM      8  C   UNL d   1       5.684   1.032  -4.765  0.00  0.00     0.030 A 
ATOM      9  C   UNL d   1       7.052   0.716  -4.724  0.00  0.00     0.029 A 
ATOM     10  C   UNL d   1       7.534   0.179  -3.517  0.00  0.00     0.030 A 
ATOM     11  C   UNL d   1       6.703  -0.021  -2.405  0.00  0.00     0.015 A 
BRANCH   9  12
ATOM     12  N   UNL d   1       7.885   0.891  -5.816  0.00  0.00    -0.390 N 
ATOM     13  C   UNL d   1       7.371   0.949  -7.178  0.00  0.00     0.149 C 
ATOM     14  C   UNL d   1       9.282   1.277  -5.647  0.00  0.00     0.149 C 
ENDBRANCH   9  12
ENDBRANCH   4   6
ENDBRANCH   1   3
BRANCH   1  15
ATOM     15  C   UNL d   1       1.281   0.378   0.108  0.00  0.00     0.191 C 
ATOM     16  S   UNL d   1       0.670  -0.092   1.597  0.00  0.00    -0.039 SA
BRANCH  15  17
ATOM     17  N   UNL d   1       0.606   0.945  -0.951  0.00  0.00    -0.331 N 
ATOM     18  H   UNL d   1       1.182   1.599  -1.472  0.00  0.00     0.168 HD
BRANCH  17  19
ATOM     19  C   UNL d   1      -0.796   1.002  -1.135  0.00  0.00     0.057 A 
ATOM     20  C   UNL d   1      -1.590  -0.114  -0.848  0.00  0.00     0.055 A 
ATOM     21  C   UNL d   1      -2.975  -0.056  -0.989  0.00  0.00     0.036 A 
ATOM     22 CL   UNL d   1      -3.927  -1.442  -0.620  0.00  0.00    -0.084 Cl
ATOM     23  C   UNL d   1      -3.591   1.110  -1.430  0.00  0.00     0.026 A 
ATOM     24  C   UNL d   1      -2.808   2.214  -1.776  0.00  0.00     0.028 A 
ATOM     25  C   UNL d   1      -1.412   2.154  -1.654  0.00  0.00     0.060 A 
ATOM     26 CL   UNL d   1      -0.492   3.547  -2.094  0.00  0.00    -0.082 Cl
ENDBRANCH  17  19
ENDBRANCH  15  17
ENDBRANCH   1  15
TORSDOF 6
