REMARK  6 active torsions:
REMARK  status: ('A' for Active; 'I' for Inactive)
REMARK    1  A    between atoms: N_4  and  C_3 
REMARK       I    between atoms: C_5  and  N_4 
REMARK    2  A    between atoms: C_16  and  C_5 
REMARK    3  A    between atoms: C_7  and  C_17 
REMARK    4  A    between atoms: O_15  and  C_7 
REMARK    5  A    between atoms: C_18  and  C_16 
REMARK    6  A    between atoms: C_17  and  C_18 
ROOT
ATOM      1  N   UNL d   1      -2.568  -1.947  -0.026  0.00  0.00    -0.324 N 
ATOM      2  C   UNL d   1      -3.765  -1.310  -0.300  0.00  0.00     0.222 C 
ATOM      3  O   UNL d   1      -3.895  -0.124  -0.592  0.00  0.00    -0.273 OA
ATOM      4  H   UNL d   1      -2.582  -2.962  -0.042  0.00  0.00     0.169 HD
ENDROOT
BRANCH   1   5
ATOM      5  C   UNL d   1      -1.294  -1.325  -0.032  0.00  0.00     0.077 A 
ATOM      6  C   UNL d   1      -1.070   0.049   0.162  0.00  0.00     0.184 A 
ATOM      7  C   UNL d   1       0.209   0.585   0.053  0.00  0.00     0.195 A 
ATOM      8  F   UNL d   1      -2.051   0.878   0.540  0.00  0.00    -0.200 F 
ATOM      9  C   UNL d   1       1.288  -0.244  -0.211  0.00  0.00     0.158 A 
ATOM     10  F   UNL d   1       0.400   1.902   0.217  0.00  0.00    -0.199 F 
ATOM     11  F   UNL d   1       2.522   0.268  -0.317  0.00  0.00    -0.203 F 
ATOM     12  C   UNL d   1       1.104  -1.615  -0.351  0.00  0.00     0.048 A 
ATOM     13  C   UNL d   1      -0.183  -2.156  -0.256  0.00  0.00     0.036 A 
ENDBRANCH   1   5
BRANCH   2  14
ATOM     14  C   UNL d   1      -4.965  -2.241  -0.302  0.00  0.00     0.103 C 
BRANCH  14  15
ATOM     15  C   UNL d   1      -6.099  -1.684  -1.177  0.00  0.00     0.019 C 
BRANCH  15  16
ATOM     16  C   UNL d   1      -5.710  -1.509  -2.652  0.00  0.00     0.110 C 
BRANCH  16  17
ATOM     17  C   UNL d   1      -5.346  -2.820  -3.306  0.00  0.00     0.139 C 
ATOM     18  O   UNL d   1      -5.812  -3.904  -2.993  0.00  0.00    -0.650 OA
BRANCH  17  19
ATOM     19  O   UNL d   1      -4.430  -2.687  -4.291  0.00  0.00    -0.776 OA
ATOM     20  H   UNL d   1      -4.146  -1.765  -4.449  0.00  0.00     0.167 HD
ENDBRANCH  17  19
ENDBRANCH  16  17
ENDBRANCH  15  16
ENDBRANCH  14  15
ENDBRANCH   2  14
TORSDOF 6
