REMARK  4 active torsions:
REMARK  status: ('A' for Active; 'I' for Inactive)
REMARK    1  A    between atoms: S_11  and  C_1 
REMARK    2  A    between atoms: C_2  and  S_11 
REMARK    3  A    between atoms: C_10  and  C_7 
REMARK    4  A    between atoms: C_9  and  C_8 
ROOT
ATOM      1  S   UNL d   1      -1.298  -3.214  -0.183  0.00  0.00    -0.089 SA
ENDROOT
BRANCH   1   2
ATOM      2  C   UNL d   1       0.378  -3.842   0.037  0.00  0.00     0.020 A 
ATOM      3  C   UNL d   1       1.070  -4.181  -1.128  0.00  0.00     0.054 A 
ATOM      4  C   UNL d   1       2.380  -4.631  -1.034  0.00  0.00     0.118 A 
ATOM      5  N   UNL d   1       3.006  -4.754   0.166  0.00  0.00    -0.352 N 
ATOM      6  C   UNL d   1       2.341  -4.455   1.291  0.00  0.00     0.044 A 
ATOM      7  HN  UNL d   1       3.974  -5.072   0.210  1.00  0.00     0.166 HD
ATOM      8  C   UNL d   1       1.002  -4.009   1.300  0.00  0.00     0.008 A 
ATOM      9  C   UNL d   1       3.020  -4.595   2.494  0.00  0.00     0.030 A 
ATOM     10  C   UNL d   1       0.387  -3.770   2.556  0.00  0.00     0.015 A 
ATOM     11  C   UNL d   1       1.091  -3.913   3.753  0.00  0.00     0.001 A 
ATOM     12  C   UNL d   1       2.415  -4.319   3.720  0.00  0.00     0.002 A 
BRANCH   4  13
ATOM     13  C   UNL d   1       3.128  -4.985  -2.312  0.00  0.00     0.432 C 
ATOM     14  F   UNL d   1       4.426  -5.352  -2.125  0.00  0.00    -0.165 F 
ATOM     15  F   UNL d   1       2.542  -6.017  -2.987  0.00  0.00    -0.165 F 
ATOM     16  F   UNL d   1       3.158  -3.945  -3.197  0.00  0.00    -0.165 F 
ENDBRANCH   4  13
ENDBRANCH   1   2
BRANCH   1  17
ATOM     17  C   UNL d   1      -0.998  -1.438  -0.120  0.00  0.00     0.020 A 
ATOM     18  C   UNL d   1      -1.153  -0.827   1.125  0.00  0.00     0.054 A 
ATOM     19  C   UNL d   1      -0.892   0.530   1.256  0.00  0.00     0.118 A 
ATOM     20  N   UNL d   1      -0.484   1.281   0.200  0.00  0.00    -0.352 N 
ATOM     21  C   UNL d   1      -0.372   0.710  -1.008  0.00  0.00     0.044 A 
ATOM     22  HN  UNL d   1      -0.265   2.269   0.324  1.00  0.00     0.166 HD
ATOM     23  C   UNL d   1      -0.643  -0.655  -1.247  0.00  0.00     0.008 A 
ATOM     24  C   UNL d   1       0.021   1.520  -2.065  0.00  0.00     0.030 A 
ATOM     25  C   UNL d   1      -0.555  -1.132  -2.581  0.00  0.00     0.015 A 
ATOM     26  C   UNL d   1      -0.177  -0.293  -3.630  0.00  0.00     0.001 A 
ATOM     27  C   UNL d   1       0.125   1.035  -3.369  0.00  0.00     0.002 A 
BRANCH  19  28
ATOM     28  C   UNL d   1      -1.083   1.181   2.618  0.00  0.00     0.432 C 
ATOM     29  F   UNL d   1      -0.811   2.515   2.654  0.00  0.00    -0.165 F 
ATOM     30  F   UNL d   1      -2.361   1.048   3.078  0.00  0.00    -0.165 F 
ATOM     31  F   UNL d   1      -0.294   0.613   3.579  0.00  0.00    -0.165 F 
ENDBRANCH  19  28
ENDBRANCH   1  17
TORSDOF 4
