REMARK  8 active torsions:
REMARK  status: ('A' for Active; 'I' for Inactive)
REMARK    1  A    between atoms: C_2  and  S_1 
REMARK    2  A    between atoms: N_5  and  S_1 
REMARK    3  A    between atoms: O_9  and  C_3 
REMARK    4  A    between atoms: C_6  and  C_16 
REMARK    5  A    between atoms: C_7  and  C_18 
REMARK    6  A    between atoms: C_16  and  O_9 
REMARK    7  A    between atoms: O_15  and  C_14 
REMARK    8  A    between atoms: C_18  and  O_15 
ROOT
ATOM      1  C   UNL d   1       0.427  -0.676   1.514  0.00  0.00     0.114 A 
ATOM      2  C   UNL d   1      -0.189  -0.084   2.638  0.00  0.00     0.116 A 
ATOM      3  C   UNL d   1      -0.531  -0.926   3.733  0.00  0.00     0.112 A 
ATOM      4  C   UNL d   1      -1.022  -0.406   4.980  0.00  0.00     0.105 C 
ATOM      5  C   UNL d   1       0.652  -2.061   1.470  0.00  0.00     0.031 A 
ATOM      6  N   UNL d   1      -1.425   0.046   5.974  0.00  0.00    -0.191 NA
ATOM      7  C   UNL d   1      -0.354  -2.329   3.642  0.00  0.00     0.092 A 
ATOM      8  C   UNL d   1       0.275  -2.877   2.526  0.00  0.00     0.040 A 
ENDROOT
BRANCH   2   9
ATOM      9  O   UNL d   1      -0.331   1.284   2.619  0.00  0.00    -0.339 OA
BRANCH   9  10
ATOM     10  C   UNL d   1      -1.499   1.870   3.227  0.00  0.00     0.293 C 
BRANCH  10  11
ATOM     11  C   UNL d   1      -1.988   3.153   2.547  0.00  0.00     0.408 C 
ATOM     12  F   UNL d   1      -1.367   3.425   1.386  0.00  0.00    -0.169 F 
ATOM     13  F   UNL d   1      -3.318   3.070   2.291  0.00  0.00    -0.169 F 
ATOM     14  F   UNL d   1      -1.811   4.223   3.360  0.00  0.00    -0.169 F 
ENDBRANCH  10  11
ENDBRANCH   9  10
ENDBRANCH   2   9
BRANCH   7  15
ATOM     15  O   UNL d   1      -0.822  -3.101   4.683  0.00  0.00    -0.341 OA
BRANCH  15  16
ATOM     16  C   UNL d   1      -1.002  -4.503   4.404  0.00  0.00     0.293 C 
BRANCH  16  17
ATOM     17  C   UNL d   1      -1.877  -5.215   5.432  0.00  0.00     0.408 C 
ATOM     18  F   UNL d   1      -2.194  -4.442   6.489  0.00  0.00    -0.169 F 
ATOM     19  F   UNL d   1      -3.034  -5.631   4.863  0.00  0.00    -0.169 F 
ATOM     20  F   UNL d   1      -1.248  -6.318   5.903  0.00  0.00    -0.169 F 
ENDBRANCH  16  17
ENDBRANCH  15  16
ENDBRANCH   7  15
BRANCH   1  21
ATOM     21  S   UNL d   1       0.826   0.213   0.006  0.00  0.00     0.263 S 
ATOM     22  O   UNL d   1       0.050   1.431  -0.037  0.00  0.00    -0.200 OA
ATOM     23  O   UNL d   1       0.724  -0.751  -1.073  0.00  0.00    -0.200 OA
BRANCH  21  24
ATOM     24  N   UNL d   1       2.452   0.610   0.166  0.00  0.00    -0.307 N 
ATOM     25  C   UNL d   1       3.495  -0.428   0.093  0.00  0.00     0.135 C 
ATOM     26  C   UNL d   1       4.368  -0.171   1.311  0.00  0.00     0.022 C 
ATOM     27  C   UNL d   1       4.300   1.337   1.466  0.00  0.00     0.022 C 
ATOM     28  C   UNL d   1       2.855   1.669   1.108  0.00  0.00     0.135 C 
ENDBRANCH  21  24
ENDBRANCH   1  21
TORSDOF 8
