REMARK  1 active torsions:
REMARK  status: ('A' for Active; 'I' for Inactive)
REMARK    1  A    between atoms: O_13  and  C_11 
ROOT
ATOM      1  N   UNL d   1       0.046  -1.411  -0.018  0.00  0.00    -0.356 N 
ATOM      2  HN  UNL d   1       0.058  -2.431  -0.034  1.00  0.00     0.166 HD
ATOM      3  N   UNL d   1       0.006   1.403   0.016  0.00  0.00    -0.356 N 
ATOM      4  HN  UNL d   1      -0.010   2.422   0.034  1.00  0.00     0.166 HD
ATOM      5  C   UNL d   1       1.186  -0.695  -0.014  0.00  0.00     0.062 A 
ATOM      6  C   UNL d   1      -1.118  -0.717  -0.000  0.00  0.00     0.032 A 
ATOM      7  C   UNL d   1      -1.138   0.676  -0.003  0.00  0.00     0.032 A 
ATOM      8  C   UNL d   1       1.164   0.718   0.011  0.00  0.00     0.059 A 
ATOM      9  C   UNL d   1       2.412  -1.350  -0.033  0.00  0.00     0.068 A 
ATOM     10  C   UNL d   1       2.368   1.409   0.027  0.00  0.00     0.035 A 
ATOM     11  C   UNL d   1       3.620  -0.650  -0.023  0.00  0.00     0.070 A 
ATOM     12  C   UNL d   1       3.595   0.739   0.011  0.00  0.00     0.039 A 
ATOM     13  C   UNL d   1      -2.385  -1.527  -0.044  0.00  0.00     0.059 C 
ATOM     14  C   UNL d   1      -2.429   1.449   0.038  0.00  0.00     0.059 C 
ATOM     15  C   UNL d   1      -3.619  -0.727   0.366  0.00  0.00     0.006 C 
ATOM     16  C   UNL d   1      -3.641   0.611  -0.365  0.00  0.00     0.006 C 
ENDROOT
BRANCH  11  17
ATOM     17  O   UNL d   1       4.740  -1.434  -0.051  0.00  0.00    -0.356 OA
ATOM     18  C   UNL d   1       5.995  -0.764  -0.043  0.00  0.00     0.210 C 
ENDBRANCH  11  17
TORSDOF 1
