REMARK  3 active torsions:
REMARK  status: ('A' for Active; 'I' for Inactive)
REMARK    1  A    between atoms: C_14  and  N_11 
REMARK    2  A    between atoms: C_18  and  N_11 
REMARK    3  A    between atoms: C_17  and  C_14 
ROOT
ATOM      1  C   UNL d   1      -0.814   0.197  -0.036  0.00  0.00     0.160 A 
ATOM      2  C   UNL d   1      -0.977  -1.029  -0.589  0.00  0.00     0.162 A 
ATOM      3  N   UNL d   1      -2.006   0.829   0.148  0.00  0.00    -0.174 N 
ATOM      4  HN  UNL d   1      -2.158   1.781   0.482  1.00  0.00     0.186 HD
ATOM      5  N   UNL d   1       0.432   0.660   0.313  0.00  0.00    -0.287 N 
ATOM      6  N   UNL d   1       1.340  -1.391  -0.533  0.00  0.00    -0.269 N 
ATOM      7  C   UNL d   1       1.547  -0.162   0.121  0.00  0.00     0.332 A 
ATOM      8  C   UNL d   1       0.090  -1.911  -0.902  0.00  0.00     0.282 A 
ATOM      9  C   UNL d   1      -2.923  -0.054  -0.198  0.00  0.00     0.682 A 
ATOM     10  N   UNL d   1      -2.324  -1.187  -0.710  0.00  0.00    -0.182 N 
ATOM     11  N   UNL d   1      -4.272   0.050  -0.094  0.00  0.00    -0.214 N 
ATOM     12  O   UNL d   1       2.668   0.177   0.520  0.00  0.00    -0.246 OA
ATOM     13  O   UNL d   1      -0.087  -3.007  -1.425  0.00  0.00    -0.265 OA
ATOM     14  C   UNL d   1       0.594   1.907   1.031  0.00  0.00     0.163 C 
ATOM     15  C   UNL d   1       2.485  -2.237  -0.797  0.00  0.00     0.164 C 
ATOM     16  H   UNL d   1      -2.799  -1.994  -1.085  0.00  0.00     0.184 HD
ENDROOT
BRANCH  11  17
ATOM     17  C   UNL d   1      -4.893   1.379  -0.066  0.00  0.00     0.179 C 
BRANCH  17  18
ATOM     18  C   UNL d   1      -5.060   2.038   1.291  0.00  0.00    -0.040 A 
ATOM     19  C   UNL d   1      -4.526   1.536   2.483  0.00  0.00     0.009 A 
ATOM     20  C   UNL d   1      -4.754   2.187   3.700  0.00  0.00     0.001 A 
ATOM     21  C   UNL d   1      -5.514   3.357   3.744  0.00  0.00     0.000 A 
ATOM     22  C   UNL d   1      -6.024   3.892   2.566  0.00  0.00     0.001 A 
ATOM     23  C   UNL d   1      -5.795   3.240   1.351  0.00  0.00     0.009 A 
ENDBRANCH  17  18
ENDBRANCH  11  17
BRANCH  11  24
ATOM     24  C   UNL d   1      -5.133  -1.118   0.063  0.00  0.00     0.137 C 
ATOM     25  C   UNL d   1      -5.740  -1.539  -1.268  0.00  0.00     0.027 C 
ENDBRANCH  11  24
TORSDOF 3
