REMARK  4 active torsions:
REMARK  status: ('A' for Active; 'I' for Inactive)
REMARK    1  A    between atoms: C_7  and  C_1 
REMARK    2  A    between atoms: C_8  and  C_6 
REMARK    3  A    between atoms: C_17  and  C_11 
REMARK    4  A    between atoms: O_18  and  C_17 
ROOT
ATOM      1  C   UNL d   1       0.146  -1.201  -0.015  0.00  0.00     0.136 A 
ATOM      2  N   UNL d   1      -0.642  -0.084   0.058  0.00  0.00    -0.292 N 
ATOM      3  C   UNL d   1       1.442  -0.725  -0.115  0.00  0.00     0.068 A 
ATOM      4  N   UNL d   1       0.070   1.062   0.083  0.00  0.00    -0.297 N 
ATOM      5  HN  UNL d   1      -0.285   2.013   0.186  1.00  0.00     0.187 HD
ATOM      6  C   UNL d   1       1.344   0.679  -0.058  0.00  0.00     0.067 A 
ATOM      7  C   UNL d   1      -2.080   0.057   0.060  0.00  0.00     0.178 C 
ENDROOT
BRANCH   6   8
ATOM      8  C   UNL d   1       2.468   1.665  -0.159  0.00  0.00     0.033 A 
ATOM      9  S   UNL d   1       4.083   1.251  -0.526  0.00  0.00    -0.090 SA
ATOM     10  C   UNL d   1       4.585   2.890  -0.522  0.00  0.00     0.007 A 
ATOM     11  C   UNL d   1       3.544   3.729  -0.174  0.00  0.00     0.018 A 
ATOM     12  C   UNL d   1       2.320   3.025   0.018  0.00  0.00     0.022 A 
BRANCH  10  13
ATOM     13  C   UNL d   1       6.001   3.233  -0.848  0.00  0.00     0.210 C 
BRANCH  13  14
ATOM     14  O   UNL d   1       6.005   4.473  -1.546  0.00  0.00    -0.396 OA
ATOM     15  H   UNL d   1       5.437   4.353  -2.327  0.00  0.00     0.209 HD
ENDBRANCH  13  14
ENDBRANCH  10  13
ENDBRANCH   6   8
BRANCH   1  16
ATOM     16  C   UNL d   1      -0.321  -2.600  -0.015  0.00  0.00     0.434 C 
ATOM     17  F   UNL d   1      -1.639  -2.753   0.249  0.00  0.00    -0.165 F 
ATOM     18  F   UNL d   1      -0.094  -3.192  -1.216  0.00  0.00    -0.165 F 
ATOM     19  F   UNL d   1       0.342  -3.337   0.912  0.00  0.00    -0.165 F 
ENDBRANCH   1  16
TORSDOF 4
