REMARK  4 active torsions:
REMARK  status: ('A' for Active; 'I' for Inactive)
REMARK    1  A    between atoms: C_3  and  C_1 
REMARK    2  A    between atoms: O_5  and  C_1 
REMARK    3  A    between atoms: C_7  and  C_3 
REMARK    4  A    between atoms: C_4  and  C_7 
ROOT
ATOM      1  C   UNL d   1      -1.448   0.769  -0.672  0.00  0.00    -0.058 A 
ATOM      2  C   UNL d   1      -2.113   3.511  -0.601  0.00  0.00    -0.062 A 
ATOM      3  C   UNL d   1      -0.486   1.744  -0.966  0.00  0.00     0.007 A 
ATOM      4  C   UNL d   1      -2.753   1.181  -0.370  0.00  0.00     0.007 A 
ATOM      5  C   UNL d   1      -3.081   2.539  -0.333  0.00  0.00     0.007 A 
ATOM      6  C   UNL d   1      -0.814   3.102  -0.924  0.00  0.00     0.007 A 
ATOM      7  C   UNL d   1      -2.442   4.971  -0.515  0.00  0.00     0.048 C 
ENDROOT
BRANCH   1   8
ATOM      8  C   UNL d   1      -1.100  -0.701  -0.691  0.00  0.00     0.049 C 
BRANCH   8   9
ATOM      9  C   UNL d   1      -0.056  -1.070   0.364  0.00  0.00     0.114 C 
BRANCH   9  10
ATOM     10  C   UNL d   1       0.210  -2.555   0.370  0.00  0.00     0.139 C 
ATOM     11  O   UNL d   1      -0.338  -3.375  -0.350  0.00  0.00    -0.650 OA
BRANCH  10  12
ATOM     12  O   UNL d   1       1.148  -2.907   1.279  0.00  0.00    -0.776 OA
ATOM     13  H   UNL d   1       1.505  -2.156   1.790  0.00  0.00     0.167 HD
ENDBRANCH  10  12
ENDBRANCH   9  10
ENDBRANCH   8   9
ENDBRANCH   1   8
TORSDOF 4
