REMARK  1 active torsions:
REMARK  status: ('A' for Active; 'I' for Inactive)
REMARK    1  A    between atoms: C_11  and  C_3 
ROOT
ATOM      1  N   UNL d   1       0.304  -3.925   1.181  0.00  0.00    -0.353 N 
ATOM      2  HN  UNL d   1      -0.188  -4.764   0.874  1.00  0.00     0.166 HD
ATOM      3  C   UNL d   1       1.448  -4.133   1.757  0.00  0.00     0.054 C 
ATOM      4  C   UNL d   1       0.987  -1.407   3.472  0.00  0.00     0.236 C 
ATOM      5  N   UNL d   1      -0.163  -2.130   3.239  0.00  0.00    -0.223 NA
ATOM      6  C   UNL d   1       2.490  -3.156   2.244  0.00  0.00     0.007 A 
ATOM      7  C   UNL d   1       2.295  -2.020   3.058  0.00  0.00     0.039 A 
ATOM      8  C   UNL d   1      -0.352  -2.722   0.918  0.00  0.00     0.054 A 
ATOM      9  C   UNL d   1      -0.696  -1.849   1.956  0.00  0.00     0.042 A 
ATOM     10  O   UNL d   1       0.958  -0.276   3.953  0.00  0.00    -0.274 OA
ATOM     11  C   UNL d   1       3.821  -3.518   1.912  0.00  0.00     0.015 A 
ATOM     12  C   UNL d   1       3.431  -1.328   3.543  0.00  0.00     0.017 A 
ATOM     13  C   UNL d   1      -0.880  -2.486  -0.350  0.00  0.00     0.031 A 
ATOM     14  C   UNL d   1      -1.513  -0.740   1.744  0.00  0.00     0.026 A 
ATOM     15  C   UNL d   1       4.926  -2.830   2.417  0.00  0.00     0.001 A 
ATOM     16  C   UNL d   1       4.731  -1.738   3.244  0.00  0.00     0.001 A 
ATOM     17  C   UNL d   1      -1.726  -1.392  -0.573  0.00  0.00     0.002 A 
ATOM     18  C   UNL d   1      -2.044  -0.523   0.474  0.00  0.00     0.002 A 
ATOM     19  H   UNL d   1       0.021  -3.128   3.272  0.00  0.00     0.137 HD
ENDROOT
BRANCH   3  20
ATOM     20  C   UNL d   1       1.730  -5.602   1.981  0.00  0.00    -0.009 A 
ATOM     21  C   UNL d   1       1.313  -6.524   1.010  0.00  0.00     0.014 A 
ATOM     22  C   UNL d   1       1.478  -7.892   1.224  0.00  0.00     0.001 A 
ATOM     23  C   UNL d   1       2.058  -8.342   2.409  0.00  0.00     0.000 A 
ATOM     24  C   UNL d   1       2.473  -7.430   3.378  0.00  0.00     0.001 A 
ATOM     25  C   UNL d   1       2.306  -6.059   3.171  0.00  0.00     0.014 A 
ENDBRANCH   3  20
TORSDOF 1
