REMARK  3 active torsions:
REMARK  status: ('A' for Active; 'I' for Inactive)
REMARK    1  A    between atoms: C_2  and  S_1 
REMARK    2  A    between atoms: N_3  and  S_1 
REMARK    3  A    between atoms: C_4  and  N_5 
ROOT
ATOM      1  N   UNL d   1       0.226   0.005  -1.416  0.00  0.00    -0.304 N 
ATOM      2  N   UNL d   1      -2.509   0.874  -1.522  0.00  0.00    -0.214 N 
ATOM      3  C   UNL d   1      -0.116   1.395  -1.869  0.00  0.00     0.155 C 
ATOM      4  C   UNL d   1      -0.903  -0.941  -1.672  0.00  0.00     0.155 C 
ATOM      5  C   UNL d   1      -2.200  -0.463  -1.010  0.00  0.00     0.161 C 
ATOM      6  C   UNL d   1      -1.472   1.888  -1.299  0.00  0.00     0.161 C 
ENDROOT
BRANCH   1   7
ATOM      7  S   UNL d   1       1.005  -0.146   0.083  0.00  0.00     0.261 S 
ATOM      8  O   UNL d   1       0.637   0.998   0.891  0.00  0.00    -0.200 OA
ATOM      9  O   UNL d   1       0.840  -1.497   0.579  0.00  0.00    -0.200 OA
BRANCH   7  10
ATOM     10  C   UNL d   1       2.730   0.022  -0.375  0.00  0.00     0.086 A 
ATOM     11  C   UNL d   1       3.464   1.061   0.226  0.00  0.00     0.034 A 
ATOM     12  C   UNL d   1       4.826   1.250  -0.065  0.00  0.00    -0.039 A 
ATOM     13  C   UNL d   1       5.573   2.384   0.578  0.00  0.00     0.050 C 
ATOM     14  C   UNL d   1       5.443   0.379  -0.970  0.00  0.00     0.040 A 
ATOM     15  C   UNL d   1       4.720  -0.664  -1.556  0.00  0.00     0.032 A 
ATOM     16 CL   UNL d   1       7.106   0.548  -1.403  0.00  0.00    -0.084 Cl
ATOM     17  C   UNL d   1       3.356  -0.865  -1.271  0.00  0.00    -0.037 A 
ATOM     18  C   UNL d   1       2.701  -2.036  -1.948  0.00  0.00     0.050 C 
ENDBRANCH   7  10
ENDBRANCH   1   7
BRANCH   2  19
ATOM     19  C   UNL d   1      -3.831   1.265  -1.540  0.00  0.00     0.679 A 
ATOM     20  N   UNL d   1      -4.783   0.326  -1.397  0.00  0.00    -0.202 N 
ATOM     21  C   UNL d   1      -6.068   0.699  -1.538  0.00  0.00     0.107 A 
ATOM     22  HN  UNL d   1      -4.537  -0.641  -1.186  1.00  0.00     0.183 HD
ATOM     23  C   UNL d   1      -6.453   1.981  -1.825  0.00  0.00     0.035 A 
ATOM     24  C   UNL d   1      -5.424   2.879  -1.943  0.00  0.00     0.107 A 
ATOM     25  N   UNL d   1      -4.125   2.549  -1.803  0.00  0.00    -0.202 N 
ATOM     26  HN  UNL d   1      -3.390   3.251  -1.893  1.00  0.00     0.183 HD
ENDBRANCH   2  19
TORSDOF 3
