REMARK  5 active torsions:
REMARK  status: ('A' for Active; 'I' for Inactive)
REMARK    1  A    between atoms: C_2  and  C_1 
REMARK    2  A    between atoms: C_6  and  C_2 
REMARK    3  A    between atoms: C_3  and  C_14 
REMARK    4  A    between atoms: C_16  and  C_4 
REMARK    5  A    between atoms: C_15  and  C_5 
ROOT
ATOM      1  C   UNL d   1       0.970  -0.901   0.218  0.00  0.00     0.098 C 
ATOM      2  C   UNL d   1       0.326  -0.705  -0.951  0.00  0.00     0.038 C 
ATOM      3  C   UNL d   1       0.265  -1.172   1.428  0.00  0.00     0.103 C 
ATOM      4  N   UNL d   1      -0.316  -1.413   2.403  0.00  0.00    -0.191 NA
ENDROOT
BRANCH   1   5
ATOM      5  C   UNL d   1       2.475  -0.906   0.223  0.00  0.00     0.226 C 
ATOM      6  O   UNL d   1       3.088  -1.155  -0.814  0.00  0.00    -0.284 OA
BRANCH   5   7
ATOM      7  C   UNL d   1       3.153  -0.648   1.480  0.00  0.00     0.126 A 
ATOM      8  O   UNL d   1       2.549   0.163   2.402  0.00  0.00    -0.319 OA
ATOM      9  C   UNL d   1       3.350   0.211   3.493  0.00  0.00     0.142 A 
ATOM     10  C   UNL d   1       4.483  -0.538   3.287  0.00  0.00     0.027 A 
ATOM     11  C   UNL d   1       4.377  -1.063   1.974  0.00  0.00     0.043 A 
ENDBRANCH   5   7
ENDBRANCH   1   5
BRANCH   2  12
ATOM     12  C   UNL d   1      -1.139  -0.706  -1.070  0.00  0.00    -0.035 A 
ATOM     13  C   UNL d   1      -1.866   0.476  -0.890  0.00  0.00     0.013 A 
ATOM     14  C   UNL d   1      -3.265   0.457  -0.922  0.00  0.00     0.021 A 
ATOM     15  C   UNL d   1      -3.948  -0.742  -1.139  0.00  0.00     0.018 A 
ATOM     16  C   UNL d   1      -3.223  -1.922  -1.327  0.00  0.00     0.021 A 
ATOM     17  C   UNL d   1      -1.825  -1.905  -1.292  0.00  0.00     0.013 A 
BRANCH  15  18
ATOM     18  C   UNL d   1      -5.379  -0.766  -1.178  0.00  0.00    -0.061 C 
ATOM     19  C   UNL d   1      -6.581  -0.805  -1.238  0.00  0.00    -0.061 C 
BRANCH  19  20
ATOM     20  C   UNL d   1      -8.006  -0.868  -1.348  0.00  0.00     0.018 A 
ATOM     21  C   UNL d   1      -8.772   0.292  -1.229  0.00  0.00     0.020 A 
ATOM     22  C   UNL d   1     -10.162   0.231  -1.371  0.00  0.00     0.001 A 
ATOM     23  C   UNL d   1     -10.784  -0.990  -1.631  0.00  0.00     0.000 A 
ATOM     24  C   UNL d   1     -10.021  -2.152  -1.742  0.00  0.00     0.001 A 
ATOM     25  C   UNL d   1      -8.632  -2.091  -1.599  0.00  0.00     0.020 A 
ENDBRANCH  19  20
ENDBRANCH  15  18
ENDBRANCH   2  12
TORSDOF 5
