REMARK  8 active torsions:
REMARK  status: ('A' for Active; 'I' for Inactive)
REMARK    1  A    between atoms: C_3  and  C_1 
REMARK    2  A    between atoms: C_4  and  C_1 
REMARK    3  A    between atoms: N_5  and  C_2 
REMARK    4  A    between atoms: O_15  and  C_3 
REMARK    5  A    between atoms: O_14  and  C_4 
REMARK    6  A    between atoms: C_6  and  N_5 
REMARK    7  A    between atoms: C_19  and  O_14 
REMARK    8  A    between atoms: C_18  and  O_15 
ROOT
ATOM      1  C   UNL d   1       0.972  -0.077   0.050  0.00  0.00     0.129 C 
ATOM      2  C   UNL d   1       0.320   0.765   0.882  0.00  0.00     0.112 C 
ENDROOT
BRANCH   1   3
ATOM      3  C   UNL d   1       0.219  -0.939  -0.890  0.00  0.00     0.300 C 
ATOM      4  O   UNL d   1       0.680  -1.369  -1.939  0.00  0.00    -0.259 OA
BRANCH   3   5
ATOM      5  O   UNL d   1      -1.077  -1.078  -0.504  0.00  0.00    -0.318 OA
BRANCH   5   6
ATOM      6  C   UNL d   1      -1.982  -1.485  -1.542  0.00  0.00     0.174 C 
ATOM      7  C   UNL d   1      -2.435  -0.244  -2.293  0.00  0.00     0.034 C 
ENDBRANCH   5   6
ENDBRANCH   3   5
ENDBRANCH   1   3
BRANCH   1   8
ATOM      8  C   UNL d   1       2.447   0.035  -0.034  0.00  0.00     0.300 C 
ATOM      9  O   UNL d   1       3.078   1.021   0.334  0.00  0.00    -0.259 OA
BRANCH   8  10
ATOM     10  O   UNL d   1       2.988  -1.075  -0.586  0.00  0.00    -0.318 OA
BRANCH  10  11
ATOM     11  C   UNL d   1       4.303  -0.907  -1.132  0.00  0.00     0.174 C 
ATOM     12  C   UNL d   1       4.164  -0.393  -2.554  0.00  0.00     0.034 C 
ENDBRANCH  10  11
ENDBRANCH   8  10
ENDBRANCH   1   8
BRANCH   2  13
ATOM     13  N   UNL d   1       0.860   1.729   1.708  0.00  0.00    -0.365 N 
ATOM     14  H   UNL d   1       1.868   1.871   1.577  0.00  0.00     0.165 HD
BRANCH  13  15
ATOM     15  C   UNL d   1       0.225   2.695   2.504  0.00  0.00     0.035 A 
ATOM     16  C   UNL d   1      -1.156   2.730   2.740  0.00  0.00     0.053 A 
ATOM     17  C   UNL d   1      -1.709   3.704   3.575  0.00  0.00     0.037 A 
ATOM     18 CL   UNL d   1      -3.411   3.717   3.852  0.00  0.00    -0.084 Cl
ATOM     19  C   UNL d   1      -0.909   4.657   4.193  0.00  0.00     0.048 A 
ATOM     20  C   UNL d   1       0.462   4.631   3.966  0.00  0.00     0.037 A 
ATOM     21  C   UNL d   1       1.024   3.662   3.134  0.00  0.00     0.053 A 
ATOM     22 CL   UNL d   1       1.477   5.796   4.722  0.00  0.00    -0.084 Cl
ENDBRANCH  13  15
ENDBRANCH   2  13
TORSDOF 8
