REMARK  11 active torsions:
REMARK  status: ('A' for Active; 'I' for Inactive)
REMARK    1  A    between atoms: C_2  and  S_1 
REMARK    2  A    between atoms: N_4  and  S_1 
REMARK    3  A    between atoms: C_12  and  N_4 
REMARK    4  A    between atoms: C_22  and  N_4 
REMARK    5  A    between atoms: C_11  and  O_26 
REMARK       I    between atoms: N_21  and  C_11 
REMARK    6  A    between atoms: C_19  and  C_12 
REMARK    7  A    between atoms: C_16  and  C_20 
REMARK    8  A    between atoms: N_32  and  C_16 
REMARK    9  A    between atoms: O_26  and  N_17 
REMARK   10  A    between atoms: C_20  and  C_22 
REMARK   11  A    between atoms: C_31  and  N_21 
ROOT
ATOM      1  N   UNL d   1       0.855  -3.017   8.366  0.00  0.00    -0.300 N 
ENDROOT
BRANCH   1   2
ATOM      2  S   UNL d   1      -0.768  -3.028   8.876  0.00  0.00     0.263 S 
ATOM      3  O   UNL d   1      -1.411  -1.827   8.380  0.00  0.00    -0.200 OA
ATOM      4  O   UNL d   1      -1.327  -4.325   8.559  0.00  0.00    -0.200 OA
BRANCH   2   5
ATOM      5  C   UNL d   1      -0.736  -2.884  10.628  0.00  0.00     0.109 A 
ATOM      6  C   UNL d   1      -0.170  -1.770  11.288  0.00  0.00     0.090 A 
ATOM      7  N   UNL d   1       0.460  -0.718  10.740  0.00  0.00    -0.309 N 
ATOM      8  C   UNL d   1      -0.226  -1.683  12.798  0.00  0.00     0.068 A 
ATOM      9  S   UNL d   1       0.914   0.281  11.985  0.00  0.00     0.068 SA
ATOM     10  HN  UNL d   1       0.628  -0.562   9.746  1.00  0.00     0.176 HD
ATOM     11  N   UNL d   1       0.354  -0.579  13.289  0.00  0.00    -0.310 N 
ATOM     12  HN  UNL d   1       0.436  -0.318  14.272  1.00  0.00     0.176 HD
ATOM     13  C   UNL d   1      -0.841  -2.700  13.570  0.00  0.00     0.032 A 
ATOM     14  C   UNL d   1      -1.384  -3.781  12.856  0.00  0.00     0.004 A 
ATOM     15  C   UNL d   1      -1.335  -3.872  11.444  0.00  0.00     0.028 A 
ENDBRANCH   2   5
ENDBRANCH   1   2
BRANCH   1  16
ATOM     16  C   UNL d   1       1.810  -3.909   9.085  0.00  0.00     0.200 C 
BRANCH  16  17
ATOM     17  C   UNL d   1       1.555  -5.367   8.924  0.00  0.00     0.071 A 
ATOM     18  O   UNL d   1       1.600  -5.876   7.657  0.00  0.00    -0.325 OA
ATOM     19  C   UNL d   1       1.363  -7.209   7.751  0.00  0.00     0.142 A 
ATOM     20  C   UNL d   1       1.210  -7.578   9.066  0.00  0.00     0.027 A 
ATOM     21  C   UNL d   1       1.334  -6.389   9.826  0.00  0.00     0.036 A 
ENDBRANCH  16  17
ENDBRANCH   1  16
BRANCH   1  22
ATOM     22  C   UNL d   1       1.082  -3.056   6.882  0.00  0.00     0.143 C 
BRANCH  22  23
ATOM     23  C   UNL d   1       0.592  -1.843   6.110  0.00  0.00     0.092 C 
BRANCH  23  24
ATOM     24  C   UNL d   1       1.161  -0.525   6.600  0.00  0.00     0.077 C 
ATOM     25  N   UNL d   1       2.440  -0.284   6.479  0.00  0.00    -0.249 N 
ATOM     26  HN  UNL d   1       3.145  -0.928   6.118  1.00  0.00     0.196 HD
BRANCH  25  27
ATOM     27  O   UNL d   1       2.668   1.035   6.940  0.00  0.00    -0.180 OA
BRANCH  27  28
ATOM     28  C   UNL d   1       3.971   1.478   6.873  0.00  0.00     0.387 C 
ATOM     29  N   UNL d   1       4.901   0.531   6.500  0.00  0.00    -0.301 N 
ATOM     30  H   UNL d   1       4.481  -0.365   6.285  0.00  0.00     0.171 HD
ATOM     31  O   UNL d   1       4.208   2.647   7.171  0.00  0.00    -0.236 OA
BRANCH  29  32
ATOM     32  C   UNL d   1       6.302   0.701   6.424  0.00  0.00     0.037 A 
ATOM     33  C   UNL d   1       6.948   1.909   6.720  0.00  0.00     0.031 A 
ATOM     34  C   UNL d   1       8.341   2.026   6.644  0.00  0.00     0.026 A 
ATOM     35  C   UNL d   1       9.106   0.929   6.270  0.00  0.00     0.034 A 
ATOM     36  C   UNL d   1       8.486  -0.281   5.970  0.00  0.00     0.026 A 
ATOM     37 CL   UNL d   1      10.818   1.073   6.183  0.00  0.00    -0.084 Cl
ATOM     38  C   UNL d   1       7.089  -0.394   6.045  0.00  0.00     0.031 A 
ENDBRANCH  29  32
ENDBRANCH  27  28
ENDBRANCH  25  27
BRANCH  24  39
ATOM     39  N   UNL d   1       0.248   0.361   7.124  0.00  0.00    -0.291 NA
ATOM     40  H   UNL d   1      -0.550  -0.068   7.598  0.00  0.00     0.125 HD
ATOM     41  H   UNL d   1       0.669   1.104   7.671  0.00  0.00     0.125 HD
ENDBRANCH  24  39
ENDBRANCH  23  24
ENDBRANCH  22  23
ENDBRANCH   1  22
TORSDOF 11
