REMARK  5 active torsions:
REMARK  status: ('A' for Active; 'I' for Inactive)
REMARK    1  A    between atoms: C_8  and  C_2 
REMARK    2  A    between atoms: S_9  and  C_5 
REMARK    3  A    between atoms: C_19  and  S_9 
REMARK    4  A    between atoms: C_11  and  C_19 
REMARK    5  A    between atoms: O_21  and  C_11 
ROOT
ATOM      1  N   UNL d   1       0.874  -0.021   0.001  0.00  0.00    -0.315 N 
ATOM      2  C   UNL d   1       0.044   1.062  -0.222  0.00  0.00     0.134 A 
ATOM      3  N   UNL d   1      -1.176   0.599  -0.452  0.00  0.00    -0.283 N 
ATOM      4  HN  UNL d   1      -2.005   1.170  -0.615  1.00  0.00     0.188 HD
ATOM      5  C   UNL d   1       0.080  -1.127  -0.129  0.00  0.00     0.163 A 
ATOM      6  N   UNL d   1      -1.142  -0.774  -0.435  0.00  0.00    -0.278 N 
ATOM      7  HN  UNL d   1      -1.924  -1.401  -0.625  1.00  0.00     0.189 HD
ATOM      8  C   UNL d   1       2.288  -0.023   0.272  0.00  0.00     0.160 C 
ENDROOT
BRANCH   2   9
ATOM      9  C   UNL d   1       0.423   2.477  -0.211  0.00  0.00     0.010 A 
ATOM     10  C   UNL d   1      -0.377   3.417   0.457  0.00  0.00     0.029 A 
ATOM     11  C   UNL d   1      -0.023   4.783   0.486  0.00  0.00    -0.009 A 
ATOM     12  C   UNL d   1      -0.800   5.748   1.145  0.00  0.00     0.015 A 
ATOM     13  C   UNL d   1       1.150   5.225  -0.162  0.00  0.00     0.042 A 
ATOM     14  C   UNL d   1      -0.399   7.080   1.149  0.00  0.00     0.018 A 
ATOM     15  C   UNL d   1       0.774   7.406   0.495  0.00  0.00     0.088 A 
ATOM     16  N   UNL d   1       1.547   6.509  -0.153  0.00  0.00    -0.365 N 
ATOM     17  HN  UNL d   1       2.405   6.797  -0.623  1.00  0.00     0.165 HD
ATOM     18  C   UNL d   1       1.912   4.290  -0.844  0.00  0.00     0.031 A 
ATOM     19  C   UNL d   1       1.555   2.937  -0.886  0.00  0.00     0.017 A 
ENDBRANCH   2   9
BRANCH   5  20
ATOM     20  S   UNL d   1       0.662  -2.751  -0.037  0.00  0.00    -0.082 SA
BRANCH  20  21
ATOM     21  C   UNL d   1      -0.186  -3.475  -1.466  0.00  0.00     0.192 C 
BRANCH  21  22
ATOM     22  C   UNL d   1       0.302  -2.841  -2.749  0.00  0.00     0.149 C 
ATOM     23  O   UNL d   1       1.273  -3.232  -3.377  0.00  0.00    -0.649 OA
BRANCH  22  24
ATOM     24  O   UNL d   1      -0.416  -1.759  -3.140  0.00  0.00    -0.776 OA
ATOM     25  H   UNL d   1      -1.100  -1.466  -2.497  0.00  0.00     0.167 HD
ENDBRANCH  22  24
ENDBRANCH  21  22
ENDBRANCH  20  21
ENDBRANCH   5  20
TORSDOF 5
