REMARK  3 active torsions:
REMARK  status: ('A' for Active; 'I' for Inactive)
REMARK    1  A    between atoms: C_9  and  N_1 
REMARK    2  A    between atoms: C_12  and  N_2 
REMARK    3  A    between atoms: C_17  and  C_12 
ROOT
ATOM      1  N   UNL d   1       0.923  -1.398   0.077  0.00  0.00    -0.246 N 
ATOM      2  N   UNL d   1       2.106   0.690  -0.009  0.00  0.00    -0.260 N 
ATOM      3  C   UNL d   1       2.155  -0.723   0.046  0.00  0.00     0.338 A 
ATOM      4  C   UNL d   1      -0.258  -0.682   0.073  0.00  0.00     0.150 A 
ATOM      5  C   UNL d   1      -0.241   0.679   0.021  0.00  0.00     0.147 A 
ATOM      6  C   UNL d   1       0.941   1.460  -0.045  0.00  0.00     0.282 A 
ATOM      7  N   UNL d   1      -1.542  -1.151   0.113  0.00  0.00    -0.336 N 
ATOM      8  HN  UNL d   1      -1.848  -2.123   0.157  1.00  0.00     0.168 HD
ATOM      9  N   UNL d   1      -1.546   1.071   0.027  0.00  0.00    -0.345 N 
ATOM     10  C   UNL d   1      -2.299  -0.071   0.080  0.00  0.00     0.182 A 
ATOM     11  O   UNL d   1       3.239  -1.317   0.029  0.00  0.00    -0.246 OA
ATOM     12  O   UNL d   1       0.908   2.682  -0.141  0.00  0.00    -0.265 OA
ATOM     13  H   UNL d   1      -1.886   2.025  -0.003  0.00  0.00     0.167 HD
ENDROOT
BRANCH   1  14
ATOM     14  C   UNL d   1       0.855  -2.820   0.076  0.00  0.00     0.057 A 
ATOM     15  C   UNL d   1       1.394  -3.555   1.161  0.00  0.00    -0.034 A 
ATOM     16  C   UNL d   1       1.421  -4.961   1.101  0.00  0.00     0.009 A 
ATOM     17  C   UNL d   1       1.951  -2.920   2.408  0.00  0.00     0.050 C 
ATOM     18  C   UNL d   1       0.906  -5.640   0.004  0.00  0.00     0.001 A 
ATOM     19  C   UNL d   1       0.360  -4.924  -1.054  0.00  0.00     0.009 A 
ATOM     20  C   UNL d   1       0.340  -3.517  -1.046  0.00  0.00    -0.034 A 
ATOM     21  C   UNL d   1      -0.200  -2.849  -2.283  0.00  0.00     0.050 C 
ENDBRANCH   1  14
BRANCH   2  22
ATOM     22  C   UNL d   1       3.376   1.401  -0.077  0.00  0.00     0.175 C 
BRANCH  22  23
ATOM     23  C   UNL d   1       3.889   1.788   1.293  0.00  0.00    -0.040 A 
ATOM     24  C   UNL d   1       4.762   0.942   1.993  0.00  0.00     0.009 A 
ATOM     25  C   UNL d   1       5.196   1.278   3.276  0.00  0.00     0.001 A 
ATOM     26  C   UNL d   1       4.760   2.458   3.875  0.00  0.00     0.000 A 
ATOM     27  C   UNL d   1       3.901   3.312   3.186  0.00  0.00     0.001 A 
ATOM     28  C   UNL d   1       3.470   2.980   1.901  0.00  0.00     0.009 A 
ENDBRANCH  22  23
ENDBRANCH   2  22
TORSDOF 3
