REMARK  5 active torsions:
REMARK  status: ('A' for Active; 'I' for Inactive)
REMARK       I    between atoms: N_2  and  C_1 
REMARK    1  A    between atoms: C_5  and  C_1 
REMARK    2  A    between atoms: N_3  and  N_2 
REMARK    3  A    between atoms: C_4  and  N_3 
REMARK    4  A    between atoms: C_16  and  C_13 
REMARK    5  A    between atoms: C_17  and  C_16 
ROOT
ATOM      1  C   UNL d   1       0.992   0.010  -0.060  0.00  0.00     0.266 C 
ATOM      2  N   UNL d   1       0.875  -0.439  -1.363  0.00  0.00    -0.283 N 
ATOM      3  O   UNL d   1       1.665   0.986   0.260  0.00  0.00    -0.266 OA
ATOM      4  H   UNL d   1       0.556  -1.379  -1.590  0.00  0.00     0.184 HD
ENDROOT
BRANCH   1   5
ATOM      5  C   UNL d   1       0.246  -0.771   0.961  0.00  0.00     0.033 A 
ATOM      6  C   UNL d   1       0.743  -0.826   2.266  0.00  0.00     0.017 A 
ATOM      7  C   UNL d   1       0.045  -1.527   3.252  0.00  0.00     0.008 A 
ATOM      8  C   UNL d   1      -1.163  -2.171   2.950  0.00  0.00    -0.058 A 
ATOM      9  C   UNL d   1      -1.665  -2.095   1.643  0.00  0.00     0.008 A 
ATOM     10  C   UNL d   1      -0.963  -1.404   0.651  0.00  0.00     0.017 A 
BRANCH   8  11
ATOM     11  C   UNL d   1      -1.930  -2.905   4.026  0.00  0.00     0.038 C 
BRANCH  11  12
ATOM     12  C   UNL d   1      -2.181  -4.387   3.728  0.00  0.00     0.000 C 
ATOM     13  C   UNL d   1      -0.899  -5.203   3.631  0.00  0.00     0.005 C 
ENDBRANCH  11  12
ENDBRANCH   8  11
ENDBRANCH   1   5
BRANCH   2  14
ATOM     14  N   UNL d   1       1.649   0.208  -2.339  0.00  0.00    -0.200 NA
ATOM     15  H   UNL d   1       1.951   1.128  -1.998  0.00  0.00     0.153 HD
BRANCH  14  16
ATOM     16  C   UNL d   1       1.019   0.276  -3.608  0.00  0.00     0.066 A 
ATOM     17  C   UNL d   1       0.239  -0.767  -4.139  0.00  0.00     0.139 A 
ATOM     18  F   UNL d   1      -0.025  -1.860  -3.402  0.00  0.00    -0.204 F 
ATOM     19  C   UNL d   1      -0.275  -0.715  -5.435  0.00  0.00     0.044 A 
ATOM     20  C   UNL d   1      -0.002   0.386  -6.242  0.00  0.00     0.003 A 
ATOM     21  C   UNL d   1       0.789   1.423  -5.750  0.00  0.00     0.002 A 
ATOM     22  C   UNL d   1       1.307   1.361  -4.450  0.00  0.00     0.028 A 
ENDBRANCH  14  16
ENDBRANCH   2  14
TORSDOF 5
