REMARK  3 active torsions:
REMARK  status: ('A' for Active; 'I' for Inactive)
REMARK    1  A    between atoms: C_9  and  N_3 
REMARK    2  A    between atoms: C_8  and  C_9 
REMARK       I    between atoms: N_12  and  C_8 
REMARK    3  A    between atoms: C_14  and  N_12 
ROOT
ATOM      1  C   UNL d   1      -0.386   1.212   0.814  0.00  0.00     0.118 C 
ATOM      2  C   UNL d   1      -1.200  -0.010   1.058  0.00  0.00     0.269 C 
ATOM      3  N   UNL d   1      -0.942  -1.102   0.216  0.00  0.00    -0.308 N 
ATOM      4  C   UNL d   1       0.789   1.082   0.169  0.00  0.00    -0.034 C 
ATOM      5  C   UNL d   1       0.333  -1.264  -0.335  0.00  0.00     0.012 C 
ATOM      6  C   UNL d   1       1.194  -0.230  -0.306  0.00  0.00     0.033 C 
ATOM      7  C   UNL d   1      -0.912   2.454   1.256  0.00  0.00     0.105 C 
ATOM      8  N   UNL d   1      -1.327   3.494   1.570  0.00  0.00    -0.191 NA
ATOM      9  O   UNL d   1      -2.073  -0.027   1.926  0.00  0.00    -0.266 OA
ATOM     10  C   UNL d   1       1.731   2.212  -0.144  0.00  0.00     0.050 C 
ATOM     11  C   UNL d   1       0.766  -2.604  -0.864  0.00  0.00     0.068 C 
ENDROOT
BRANCH   3  12
ATOM     12  C   UNL d   1      -1.976  -2.147   0.156  0.00  0.00     0.235 C 
BRANCH  12  13
ATOM     13  C   UNL d   1      -3.299  -1.566  -0.407  0.00  0.00     0.240 C 
ATOM     14  N   UNL d   1      -4.053  -0.962   0.584  0.00  0.00    -0.326 N 
ATOM     15  H   UNL d   1      -3.596  -0.902   1.494  0.00  0.00     0.169 HD
ATOM     16  O   UNL d   1      -3.544  -1.584  -1.608  0.00  0.00    -0.271 OA
BRANCH  14  17
ATOM     17  C   UNL d   1      -5.151  -0.090   0.452  0.00  0.00     0.034 A 
ATOM     18  C   UNL d   1      -5.833   0.151  -0.737  0.00  0.00     0.029 A 
ATOM     19  C   UNL d   1      -6.864   1.098  -0.769  0.00  0.00     0.002 A 
ATOM     20  C   UNL d   1      -7.219   1.800   0.384  0.00  0.00     0.000 A 
ATOM     21  C   UNL d   1      -6.551   1.552   1.578  0.00  0.00     0.002 A 
ATOM     22  C   UNL d   1      -5.525   0.609   1.610  0.00  0.00     0.029 A 
ENDBRANCH  14  17
ENDBRANCH  12  13
ENDBRANCH   3  12
TORSDOF 3
