REMARK  2 active torsions:
REMARK  status: ('A' for Active; 'I' for Inactive)
REMARK       I    between atoms: N_2  and  C_1 
REMARK    1  A    between atoms: C_3  and  C_1 
REMARK    2  A    between atoms: C_4  and  N_2 
ROOT
ATOM      1  C   UNL d   1       1.143   0.129   0.041  0.00  0.00     0.264 C 
ATOM      2  N   UNL d   1       0.613  -0.922   0.753  0.00  0.00    -0.308 N 
ATOM      3  O   UNL d   1       2.319   0.481   0.123  0.00  0.00    -0.267 OA
ATOM      4  H   UNL d   1      -0.262  -1.325   0.445  0.00  0.00     0.170 HD
ENDROOT
BRANCH   2   5
ATOM      5  C   UNL d   1       1.283  -1.688   1.712  0.00  0.00     0.108 A 
ATOM      6  N   UNL d   1       0.772  -2.923   1.905  0.00  0.00    -0.346 N 
ATOM      7  C   UNL d   1       1.419  -3.746   2.770  0.00  0.00     0.007 A 
ATOM      8  HN  UNL d   1      -0.070  -3.228   1.418  1.00  0.00     0.167 HD
ATOM      9  C   UNL d   1       0.928  -5.158   2.882  0.00  0.00     0.068 C 
ATOM     10  C   UNL d   1       2.534  -3.348   3.499  0.00  0.00     0.025 A 
ATOM     11  C   UNL d   1       3.010  -2.056   3.331  0.00  0.00     0.006 A 
ATOM     12  C   UNL d   1       2.381  -1.215   2.418  0.00  0.00     0.049 A 
ENDBRANCH   2   5
BRANCH   1  13
ATOM     13  C   UNL d   1       0.241   0.783  -0.898  0.00  0.00     0.072 A 
ATOM     14  S   UNL d   1      -1.461   0.766  -0.707  0.00  0.00    -0.097 SA
ATOM     15  C   UNL d   1      -1.688   1.806  -2.049  0.00  0.00     0.050 A 
ATOM     16  C   UNL d   1      -0.498   2.124  -2.663  0.00  0.00     0.009 A 
ATOM     17  C   UNL d   1       0.613   1.535  -1.997  0.00  0.00     0.025 A 
ENDBRANCH   1  13
TORSDOF 2
