REMARK  3 active torsions:
REMARK  status: ('A' for Active; 'I' for Inactive)
REMARK    1  A    between atoms: C_4  and  C_1 
REMARK    2  A    between atoms: O_14  and  C_2 
REMARK    3  A    between atoms: O_18  and  C_15 
ROOT
ATOM      1  C   UNL d   1       0.760   0.754   1.099  0.00  0.00    -0.010 C 
ATOM      2  C   UNL d   1      -1.524   0.286   0.069  0.00  0.00     0.059 C 
ATOM      3  C   UNL d   1      -0.766   1.039   1.180  0.00  0.00     0.052 C 
ATOM      4  C   UNL d   1       0.982  -0.785   1.192  0.00  0.00     0.019 C 
ATOM      5  C   UNL d   1       1.234   1.208  -0.317  0.00  0.00     0.019 C 
ATOM      6  C   UNL d   1       0.480   0.463  -1.433  0.00  0.00    -0.010 C 
ATOM      7  C   UNL d   1       0.223  -1.528   0.083  0.00  0.00    -0.010 C 
ATOM      8  C   UNL d   1      -1.020   0.750  -1.306  0.00  0.00     0.042 C 
ATOM      9  C   UNL d   1      -1.276  -1.225   0.212  0.00  0.00     0.042 C 
ATOM     10  C   UNL d   1       0.727  -1.046  -1.285  0.00  0.00     0.009 C 
ENDROOT
BRANCH   1  11
ATOM     11  C   UNL d   1       1.515   1.431   2.253  0.00  0.00    -0.049 A 
ATOM     12  C   UNL d   1       1.192   1.121   3.587  0.00  0.00     0.011 A 
ATOM     13  C   UNL d   1       1.924   1.639   4.663  0.00  0.00     0.037 A 
ATOM     14  C   UNL d   1       2.995   2.495   4.429  0.00  0.00     0.068 A 
ATOM     15  C   UNL d   1       3.322   2.826   3.119  0.00  0.00     0.037 A 
ATOM     16  C   UNL d   1       2.587   2.313   2.043  0.00  0.00     0.011 A 
BRANCH  14  17
ATOM     17  O   UNL d   1       3.817   3.018   5.389  0.00  0.00    -0.356 OA
ATOM     18  C   UNL d   1       3.232   3.185   6.674  0.00  0.00     0.210 C 
ENDBRANCH  14  17
ENDBRANCH   1  11
BRANCH   2  19
ATOM     19  O   UNL d   1      -2.919   0.534   0.180  0.00  0.00    -0.390 OA
ATOM     20  H   UNL d   1      -3.063   1.490   0.085  0.00  0.00     0.210 HD
ENDBRANCH   2  19
TORSDOF 3
