REMARK  5 active torsions:
REMARK  status: ('A' for Active; 'I' for Inactive)
REMARK    1  A    between atoms: C_2  and  C_1 
REMARK    2  A    between atoms: S_8  and  C_3 
REMARK    3  A    between atoms: C_10  and  C_6 
REMARK    4  A    between atoms: C_16  and  S_8 
REMARK    5  A    between atoms: O_18  and  N_11 
ROOT
ATOM      1  C   UNL d   1       0.546   1.362   0.620  0.00  0.00     0.064 A 
ATOM      2  C   UNL d   1      -0.739   2.714   2.199  0.00  0.00     0.034 A 
ATOM      3  N   UNL d   1       0.695   3.766   0.535  0.00  0.00    -0.363 N 
ATOM      4  HN  UNL d   1       1.065   4.610   0.100  1.00  0.00     0.165 HD
ATOM      5  C   UNL d   1      -0.170   3.837   1.593  0.00  0.00     0.066 A 
ATOM      6  C   UNL d   1      -0.361   1.463   1.684  0.00  0.00     0.038 A 
ATOM      7  C   UNL d   1       1.040   2.540   0.088  0.00  0.00     0.104 A 
ENDROOT
BRANCH   2   8
ATOM      8  S   UNL d   1      -1.851   2.708   3.593  0.00  0.00    -0.088 SA
BRANCH   8   9
ATOM      9  C   UNL d   1      -3.437   2.933   2.811  0.00  0.00     0.005 A 
ATOM     10  C   UNL d   1      -4.008   1.911   2.044  0.00  0.00     0.020 A 
ATOM     11  C   UNL d   1      -5.289   2.062   1.503  0.00  0.00     0.025 A 
ATOM     12  C   UNL d   1      -6.006   3.232   1.738  0.00  0.00     0.034 A 
ATOM     13  C   UNL d   1      -5.451   4.256   2.504  0.00  0.00     0.025 A 
ATOM     14 CL   UNL d   1      -7.593   3.405   1.095  0.00  0.00    -0.084 Cl
ATOM     15  C   UNL d   1      -4.168   4.104   3.039  0.00  0.00     0.020 A 
ENDBRANCH   8   9
ENDBRANCH   2   8
BRANCH   5  16
ATOM     16  C   UNL d   1      -0.373   5.238   2.030  0.00  0.00     0.144 C 
ATOM     17  N   UNL d   1      -0.784   5.583   3.212  0.00  0.00    -0.278 N 
ATOM     18  HN  UNL d   1      -1.035   4.939   3.962  1.00  0.00     0.193 HD
BRANCH  17  19
ATOM     19  O   UNL d   1      -0.826   6.979   3.293  0.00  0.00    -0.290 OA
ATOM     20  H   UNL d   1      -1.032   7.126   4.235  0.00  0.00     0.244 HD
ENDBRANCH  17  19
ENDBRANCH   5  16
BRANCH   1  21
ATOM     21  C   UNL d   1       1.002   0.047   0.066  0.00  0.00     0.418 C 
ATOM     22  F   UNL d   1       0.389  -1.024   0.641  0.00  0.00    -0.166 F 
ATOM     23  F   UNL d   1       2.337  -0.151   0.232  0.00  0.00    -0.166 F 
ATOM     24  F   UNL d   1       0.769  -0.063  -1.270  0.00  0.00    -0.166 F 
ENDBRANCH   1  21
TORSDOF 5
