REMARK  5 active torsions:
REMARK  status: ('A' for Active; 'I' for Inactive)
REMARK       I    between atoms: N_2  and  C_1 
REMARK    1  A    between atoms: C_9  and  C_1 
REMARK    2  A    between atoms: C_4  and  N_2 
REMARK    3  A    between atoms: C_3  and  C_10 
REMARK    4  A    between atoms: O_11  and  C_3 
REMARK    5  A    between atoms: C_10  and  C_9 
ROOT
ATOM      1  C   UNL d   1       1.151  -0.080  -0.016  0.00  0.00     0.222 C 
ATOM      2  N   UNL d   1       0.418  -0.294  -1.167  0.00  0.00    -0.327 N 
ATOM      3  O   UNL d   1       2.374   0.005   0.060  0.00  0.00    -0.273 OA
ATOM      4  H   UNL d   1      -0.589  -0.131  -1.112  0.00  0.00     0.169 HD
ENDROOT
BRANCH   2   5
ATOM      5  C   UNL d   1       0.934  -0.555  -2.452  0.00  0.00     0.037 A 
ATOM      6  C   UNL d   1       2.239  -0.991  -2.680  0.00  0.00     0.071 A 
ATOM      7  C   UNL d   1       2.673  -1.216  -3.984  0.00  0.00     0.118 A 
ATOM      8  F   UNL d   1       3.924  -1.648  -4.196  0.00  0.00    -0.206 F 
ATOM      9  C   UNL d   1       1.833  -1.004  -5.071  0.00  0.00     0.042 A 
ATOM     10  C   UNL d   1       0.525  -0.584  -4.850  0.00  0.00     0.005 A 
ATOM     11  C   UNL d   1       0.072  -0.376  -3.543  0.00  0.00     0.029 A 
ENDBRANCH   2   5
BRANCH   1  12
ATOM     12  C   UNL d   1       0.297   0.106   1.225  0.00  0.00     0.113 C 
BRANCH  12  13
ATOM     13  C   UNL d   1      -0.341   1.488   1.288  0.00  0.00     0.119 C 
BRANCH  13  14
ATOM     14  C   UNL d   1      -1.621   1.548   0.489  0.00  0.00     0.139 C 
ATOM     15  O   UNL d   1      -1.958   0.718  -0.340  0.00  0.00    -0.650 OA
BRANCH  14  16
ATOM     16  O   UNL d   1      -2.357   2.651   0.750  0.00  0.00    -0.776 OA
ATOM     17  H   UNL d   1      -1.962   3.252   1.414  0.00  0.00     0.167 HD
ENDBRANCH  14  16
ENDBRANCH  13  14
ENDBRANCH  12  13
ENDBRANCH   1  12
TORSDOF 5
