REMARK  3 active torsions:
REMARK  status: ('A' for Active; 'I' for Inactive)
REMARK    1  A    between atoms: C_14  and  N_1 
REMARK    2  A    between atoms: C_7  and  N_3 
REMARK    3  A    between atoms: C_15  and  C_14 
ROOT
ATOM      1  N   UNL d   1      -0.728   1.098  -0.067  0.00  0.00    -0.265 N 
ATOM      2  C   UNL d   1      -1.411  -0.122  -0.020  0.00  0.00     0.331 A 
ATOM      3  N   UNL d   1      -0.595  -1.260   0.044  0.00  0.00    -0.303 N 
ATOM      4  C   UNL d   1       1.435  -0.035  -0.130  0.00  0.00     0.128 A 
ATOM      5  C   UNL d   1       0.657   1.223  -0.115  0.00  0.00     0.273 A 
ATOM      6  C   UNL d   1       0.775  -1.191  -0.049  0.00  0.00     0.124 A 
ATOM      7  C   UNL d   1       2.852   0.001  -0.185  0.00  0.00     0.106 C 
ATOM      8  N   UNL d   1       4.012  -0.049  -0.220  0.00  0.00    -0.191 NA
ATOM      9  O   UNL d   1      -2.641  -0.196  -0.024  0.00  0.00    -0.246 OA
ATOM     10  O   UNL d   1       1.240   2.305  -0.136  0.00  0.00    -0.266 OA
ENDROOT
BRANCH   1  11
ATOM     11  C   UNL d   1      -1.513   2.331   0.009  0.00  0.00     0.137 C 
BRANCH  11  12
ATOM     12  C   UNL d   1      -1.750   3.013  -1.342  0.00  0.00     0.016 C 
ATOM     13  C   UNL d   1      -2.669   2.230  -2.266  0.00  0.00     0.006 C 
ENDBRANCH  11  12
ENDBRANCH   1  11
BRANCH   3  14
ATOM     14  C   UNL d   1      -1.190  -2.574   0.175  0.00  0.00     0.094 A 
ATOM     15  C   UNL d   1      -1.988  -2.964   1.397  0.00  0.00     0.028 A 
ATOM     16  C   UNL d   1      -0.655  -3.598   1.155  0.00  0.00     0.028 A 
ENDBRANCH   3  14
TORSDOF 3
