REMARK  6 active torsions:
REMARK  status: ('A' for Active; 'I' for Inactive)
REMARK    1  A    between atoms: C_2  and  C_1 
REMARK       I    between atoms: N_10  and  C_2 
REMARK    2  A    between atoms: C_4  and  C_18 
REMARK    3  A    between atoms: C_22  and  N_10 
REMARK    4  A    between atoms: S_17  and  C_23 
REMARK    5  A    between atoms: C_18  and  S_17 
REMARK    6  A    between atoms: C_23  and  C_22 
ROOT
ATOM      1  C   UNL d   1       1.312   2.349   1.040  0.00  0.00     0.257 C 
ATOM      2  O   UNL d   1       1.391   2.833   2.162  0.00  0.00    -0.267 OA
ATOM      3  N   UNL d   1       1.266   3.147  -0.087  0.00  0.00    -0.356 N 
ATOM      4  H   UNL d   1       1.228   2.727  -1.010  0.00  0.00     0.162 HD
ENDROOT
BRANCH   3   5
ATOM      5  C   UNL d   1       1.203   4.591   0.007  0.00  0.00     0.133 C 
BRANCH   5   6
ATOM      6  C   UNL d   1       2.582   5.227   0.184  0.00  0.00     0.093 C 
BRANCH   6   7
ATOM      7  S   UNL d   1       2.495   7.046   0.298  0.00  0.00    -0.163 SA
BRANCH   7   8
ATOM      8  C   UNL d   1       1.615   7.201   1.888  0.00  0.00     0.114 C 
BRANCH   8   9
ATOM      9  C   UNL d   1       1.333   8.647   2.217  0.00  0.00    -0.027 A 
ATOM     10  C   UNL d   1       0.180   9.316   1.770  0.00  0.00     0.042 A 
ATOM     11  C   UNL d   1      -0.037  10.658   2.094  0.00  0.00     0.048 A 
ATOM     12 CL   UNL d   1      -1.024   8.526   0.811  0.00  0.00    -0.084 Cl
ATOM     13  C   UNL d   1       0.900  11.342   2.861  0.00  0.00     0.035 A 
ATOM     14  C   UNL d   1       2.053  10.702   3.307  0.00  0.00     0.024 A 
ATOM     15 CL   UNL d   1       0.633  12.994   3.261  0.00  0.00    -0.084 Cl
ATOM     16  C   UNL d   1       2.270   9.362   2.984  0.00  0.00     0.011 A 
ENDBRANCH   8   9
ENDBRANCH   7   8
ENDBRANCH   6   7
ENDBRANCH   5   6
ENDBRANCH   3   5
BRANCH   1  17
ATOM     17  C   UNL d   1       1.252   0.875   0.831  0.00  0.00     0.108 A 
ATOM     18  C   UNL d   1       1.228   0.014   1.931  0.00  0.00     0.135 A 
ATOM     19  F   UNL d   1       1.256   0.477   3.189  0.00  0.00    -0.205 F 
ATOM     20  C   UNL d   1       1.164  -1.373   1.765  0.00  0.00     0.043 A 
ATOM     21  C   UNL d   1       1.122  -1.924   0.486  0.00  0.00     0.006 A 
ATOM     22  C   UNL d   1       1.140  -1.082  -0.621  0.00  0.00     0.043 A 
ATOM     23  C   UNL d   1       1.204   0.301  -0.443  0.00  0.00     0.135 A 
ATOM     24  F   UNL d   1       1.214   1.064  -1.549  0.00  0.00    -0.205 F 
ENDBRANCH   1  17
TORSDOF 6
