REMARK  5 active torsions:
REMARK  status: ('A' for Active; 'I' for Inactive)
REMARK    1  A    between atoms: C_11  and  C_3 
REMARK    2  A    between atoms: C_4  and  C_13 
REMARK    3  A    between atoms: N_16  and  C_7 
REMARK    4  A    between atoms: C_13  and  N_14 
REMARK    5  A    between atoms: N_14  and  N_16 
ROOT
ATOM      1  N   UNL d   1       0.222  -2.575  -0.159  0.00  0.00    -0.280 N 
ATOM      2  H   UNL d   1      -0.727  -2.905  -0.310  0.00  0.00     0.189 HD
ENDROOT
BRANCH   1   3
ATOM      3  N   UNL d   1       1.247  -3.438   0.057  0.00  0.00    -0.309 N 
ATOM      4  HN  UNL d   1       2.141  -3.102   0.413  1.00  0.00     0.186 HD
BRANCH   3   5
ATOM      5  C   UNL d   1       1.070  -4.692  -0.197  0.00  0.00     0.126 C 
BRANCH   5   6
ATOM      6  C   UNL d   1       2.177  -5.600   0.011  0.00  0.00     0.029 A 
ATOM      7  S   UNL d   1       2.194  -7.059  -0.869  0.00  0.00    -0.088 SA
ATOM      8  C   UNL d   1       3.774  -7.463  -0.330  0.00  0.00     0.016 A 
ATOM      9  C   UNL d   1       4.549  -8.572  -0.722  0.00  0.00     0.019 A 
ATOM     10  C   UNL d   1       4.248  -6.530   0.594  0.00  0.00    -0.012 A 
ATOM     11  C   UNL d   1       5.822  -8.740  -0.170  0.00  0.00     0.001 A 
ATOM     12  C   UNL d   1       6.311  -7.837   0.761  0.00  0.00     0.001 A 
ATOM     13  C   UNL d   1       5.538  -6.741   1.147  0.00  0.00     0.013 A 
ATOM     14  C   UNL d   1       3.301  -5.456   0.813  0.00  0.00    -0.032 A 
ATOM     15  C   UNL d   1       3.572  -4.328   1.763  0.00  0.00     0.050 C 
ENDBRANCH   5   6
ENDBRANCH   3   5
ENDBRANCH   1   3
BRANCH   1  16
ATOM     16  C   UNL d   1       0.353  -1.239   0.059  0.00  0.00     0.163 A 
ATOM     17  N   UNL d   1      -0.651  -0.392  -0.014  0.00  0.00    -0.334 N 
ATOM     18  C   UNL d   1      -0.245   0.888   0.336  0.00  0.00     0.052 A 
ATOM     19  HN  UNL d   1      -1.600  -0.642  -0.290  1.00  0.00     0.168 HD
ATOM     20  C   UNL d   1       1.102   1.004   0.621  0.00  0.00     0.083 A 
ATOM     21  S   UNL d   1       1.870  -0.511   0.464  0.00  0.00    -0.062 SA
BRANCH  18  22
ATOM     22  C   UNL d   1      -1.170   2.019   0.384  0.00  0.00     0.013 A 
ATOM     23  C   UNL d   1      -2.508   1.899   0.801  0.00  0.00     0.046 A 
ATOM     24 CL   UNL d   1      -3.213   0.416   1.353  0.00  0.00    -0.083 Cl
ATOM     25  C   UNL d   1      -3.344   3.026   0.832  0.00  0.00     0.025 A 
ATOM     26  C   UNL d   1      -2.861   4.281   0.463  0.00  0.00     0.002 A 
ATOM     27  C   UNL d   1      -1.540   4.417   0.052  0.00  0.00     0.001 A 
ATOM     28  C   UNL d   1      -0.707   3.297   0.006  0.00  0.00     0.015 A 
ENDBRANCH  18  22
ENDBRANCH   1  16
TORSDOF 5
