REMARK  5 active torsions:
REMARK  status: ('A' for Active; 'I' for Inactive)
REMARK    1  A    between atoms: C_6  and  C_2 
REMARK    2  A    between atoms: C_9  and  C_6 
REMARK    3  A    between atoms: C_11  and  C_9 
REMARK    4  A    between atoms: S_10  and  C_11 
REMARK    5  A    between atoms: C_12  and  S_10 
ROOT
ATOM      1  C   UNL d   1      -4.680   0.400   0.011  0.00  0.00     0.095 C 
ENDROOT
BRANCH   1   2
ATOM      2  C   UNL d   1      -3.532  -0.598   0.081  0.00  0.00     0.167 C 
ATOM      3  O   UNL d   1      -3.760  -1.806   0.135  0.00  0.00    -0.292 OA
BRANCH   2   4
ATOM      4  C   UNL d   1      -2.186  -0.029   0.078  0.00  0.00     0.052 A 
ATOM      5  S   UNL d   1      -0.826  -1.081   0.155  0.00  0.00    -0.074 SA
ATOM      6  C   UNL d   1       0.254   0.217   0.115  0.00  0.00     0.075 A 
ATOM      7  C   UNL d   1      -0.361   1.438   0.044  0.00  0.00     0.033 A 
ATOM      8 CL   UNL d   1       1.946  -0.075   0.163  0.00  0.00    -0.076 Cl
ATOM      9  C   UNL d   1      -1.782   1.297   0.022  0.00  0.00     0.025 A 
ENDBRANCH   2   4
ENDBRANCH   1   2
BRANCH   1  10
ATOM     10  C   UNL d   1      -6.029  -0.309   0.021  0.00  0.00     0.087 C 
BRANCH  10  11
ATOM     11  S   UNL d   1      -7.367   0.930  -0.074  0.00  0.00    -0.130 SA
BRANCH  11  12
ATOM     12  C   UNL d   1      -8.856  -0.063  -0.033  0.00  0.00     0.000 A 
ATOM     13  C   UNL d   1      -8.883  -1.460   0.040  0.00  0.00     0.018 A 
ATOM     14  C   UNL d   1     -10.101  -2.149   0.075  0.00  0.00     0.001 A 
ATOM     15  C   UNL d   1     -11.304  -1.450   0.036  0.00  0.00     0.000 A 
ATOM     16  C   UNL d   1     -11.293  -0.061  -0.041  0.00  0.00     0.001 A 
ATOM     17  C   UNL d   1     -10.076   0.626  -0.076  0.00  0.00     0.018 A 
ENDBRANCH  11  12
ENDBRANCH  10  11
ENDBRANCH   1  10
TORSDOF 5
