REMARK  1 active torsions:
REMARK  status: ('A' for Active; 'I' for Inactive)
REMARK    1  A    between atoms: C_7  and  C_1 
ROOT
ATOM      1  C   UNL d   1      -2.296   0.016   0.008  0.00  0.00     0.116 A 
ATOM      2  N   UNL d   1      -1.551   0.978  -0.505  0.00  0.00    -0.340 N 
ATOM      3  HN  UNL d   1      -1.878   1.822  -0.976  1.00  0.00     0.167 HD
ATOM      4  N   UNL d   1      -1.494  -0.978   0.522  0.00  0.00    -0.340 N 
ATOM      5  C   UNL d   1      -0.247   0.611  -0.278  0.00  0.00     0.060 A 
ATOM      6  C   UNL d   1      -0.183  -0.620   0.359  0.00  0.00     0.060 A 
ATOM      7  C   UNL d   1       0.945   1.281  -0.591  0.00  0.00     0.032 A 
ATOM      8  C   UNL d   1       1.014  -1.250   0.704  0.00  0.00     0.032 A 
ATOM      9  C   UNL d   1       2.163   0.676  -0.252  0.00  0.00     0.002 A 
ATOM     10  C   UNL d   1       2.193  -0.569   0.382  0.00  0.00     0.002 A 
ATOM     11  H   UNL d   1      -1.825  -1.838   0.931  0.00  0.00     0.167 HD
ENDROOT
BRANCH   1  12
ATOM     12  C   UNL d   1      -3.759  -0.043   0.020  0.00  0.00     0.008 A 
ATOM     13  C   UNL d   1      -4.487   0.569  -1.007  0.00  0.00     0.016 A 
ATOM     14  C   UNL d   1      -5.884   0.511  -1.024  0.00  0.00     0.007 A 
ATOM     15  C   UNL d   1      -6.579  -0.148  -0.003  0.00  0.00    -0.062 A 
ATOM     16  C   UNL d   1      -5.856  -0.747   1.033  0.00  0.00     0.007 A 
ATOM     17  C   UNL d   1      -8.077  -0.202  -0.028  0.00  0.00     0.048 C 
ATOM     18  C   UNL d   1      -4.458  -0.694   1.045  0.00  0.00     0.016 A 
ENDBRANCH   1  12
TORSDOF 1
