REMARK  4 active torsions:
REMARK  status: ('A' for Active; 'I' for Inactive)
REMARK    1  A    between atoms: C_9  and  C_3 
REMARK    2  A    between atoms: C_10  and  C_7 
REMARK       I    between atoms: N_11  and  C_9 
REMARK    3  A    between atoms: C_14  and  N_11 
REMARK    4  A    between atoms: C_15  and  C_14 
ROOT
ATOM      1  C   UNL d   1       0.041  -0.883   0.088  0.00  0.00     0.030 A 
ATOM      2  C   UNL d   1      -0.139   0.463   0.003  0.00  0.00     0.024 A 
ATOM      3  C   UNL d   1      -2.266  -0.800  -0.206  0.00  0.00     0.080 A 
ATOM      4  C   UNL d   1      -1.173  -1.629  -0.008  0.00  0.00    -0.021 A 
ATOM      5  S   UNL d   1      -1.842   0.868  -0.113  0.00  0.00    -0.083 SA
ATOM      6  S   UNL d   1       1.718  -1.305   0.262  0.00  0.00    -0.092 SA
ATOM      7  C   UNL d   1       2.196   0.345   0.083  0.00  0.00    -0.008 A 
ATOM      8  C   UNL d   1       1.097   1.190   0.011  0.00  0.00     0.035 A 
ATOM      9  C   UNL d   1      -1.132  -3.115   0.043  0.00  0.00     0.051 C 
ENDROOT
BRANCH   3  10
ATOM     10  C   UNL d   1      -3.629  -1.241  -0.501  0.00  0.00     0.259 C 
ATOM     11  N   UNL d   1      -4.658  -0.397  -0.146  0.00  0.00    -0.352 N 
ATOM     12  H   UNL d   1      -4.442   0.458   0.348  0.00  0.00     0.163 HD
ATOM     13  O   UNL d   1      -3.864  -2.332  -1.021  0.00  0.00    -0.267 OA
BRANCH  11  14
ATOM     14  C   UNL d   1      -6.043  -0.788  -0.306  0.00  0.00     0.161 C 
BRANCH  14  15
ATOM     15  C   UNL d   1      -6.724  -0.956   1.028  0.00  0.00    -0.041 A 
ATOM     16  C   UNL d   1      -7.445   0.102   1.597  0.00  0.00     0.009 A 
ATOM     17  C   UNL d   1      -8.056  -0.045   2.844  0.00  0.00     0.001 A 
ATOM     18  C   UNL d   1      -7.952  -1.250   3.535  0.00  0.00     0.000 A 
ATOM     19  C   UNL d   1      -7.243  -2.313   2.978  0.00  0.00     0.001 A 
ATOM     20  C   UNL d   1      -6.630  -2.167   1.731  0.00  0.00     0.009 A 
ENDBRANCH  14  15
ENDBRANCH  11  14
ENDBRANCH   3  10
BRANCH   7  21
ATOM     21  C   UNL d   1       3.702   0.674   0.029  0.00  0.00    -0.018 C 
ATOM     22  C   UNL d   1       4.350  -0.000  -1.201  0.00  0.00     0.020 C 
ATOM     23  C   UNL d   1       3.948   2.192  -0.092  0.00  0.00     0.020 C 
ATOM     24  C   UNL d   1       4.420   0.186   1.305  0.00  0.00     0.020 C 
ENDBRANCH   7  21
TORSDOF 4
