REMARK  6 active torsions:
REMARK  status: ('A' for Active; 'I' for Inactive)
REMARK    1  A    between atoms: S_9  and  C_3 
REMARK    2  A    between atoms: C_4  and  C_10 
REMARK    3  A    between atoms: C_12  and  C_6 
REMARK    4  A    between atoms: C_21  and  S_9 
REMARK    5  A    between atoms: C_11  and  C_21 
REMARK       I    between atoms: N_13  and  C_11 
REMARK    6  A    between atoms: C_24  and  N_13 
ROOT
ATOM      1  N   UNL d   1       2.418  -2.921   3.167  0.00  0.00    -0.347 N 
ATOM      2  HN  UNL d   1       3.042  -3.167   2.399  1.00  0.00     0.167 HD
ATOM      3  C   UNL d   1       1.120  -2.598   2.937  0.00  0.00     0.091 A 
ATOM      4  C   UNL d   1       0.236  -2.264   3.967  0.00  0.00     0.078 A 
ATOM      5  C   UNL d   1       2.860  -2.908   4.450  0.00  0.00     0.079 A 
ATOM      6  C   UNL d   1      -1.140  -1.946   3.733  0.00  0.00     0.102 C 
ATOM      7  N   UNL d   1      -2.261  -1.690   3.577  0.00  0.00    -0.191 NA
ATOM      8  C   UNL d   1       0.721  -2.245   5.279  0.00  0.00     0.028 A 
ATOM      9  C   UNL d   1       2.051  -2.570   5.527  0.00  0.00     0.035 A 
ENDROOT
BRANCH   3  10
ATOM     10  S   UNL d   1       0.578  -2.668   1.227  0.00  0.00    -0.101 SA
BRANCH  10  11
ATOM     11  C   UNL d   1       2.165  -2.564   0.333  0.00  0.00     0.184 C 
BRANCH  11  12
ATOM     12  C   UNL d   1       2.958  -3.864   0.310  0.00  0.00     0.231 C 
ATOM     13  N   UNL d   1       2.209  -5.023   0.394  0.00  0.00    -0.327 N 
ATOM     14  H   UNL d   1       1.204  -4.915   0.317  0.00  0.00     0.169 HD
ATOM     15  O   UNL d   1       4.176  -3.823   0.135  0.00  0.00    -0.272 OA
BRANCH  13  16
ATOM     16  C   UNL d   1       2.694  -6.328   0.613  0.00  0.00     0.034 A 
ATOM     17  C   UNL d   1       4.014  -6.601   0.978  0.00  0.00     0.030 A 
ATOM     18  C   UNL d   1       4.422  -7.908   1.265  0.00  0.00     0.018 A 
ATOM     19  C   UNL d   1       3.518  -8.973   1.181  0.00  0.00     0.048 A 
ATOM     20  C   UNL d   1       2.199  -8.703   0.789  0.00  0.00     0.018 A 
ATOM     21  C   UNL d   1       1.789  -7.391   0.518  0.00  0.00     0.030 A 
BRANCH  19  22
ATOM     22  C   UNL d   1       3.943 -10.381   1.521  0.00  0.00     0.417 C 
ATOM     23  F   UNL d   1       5.243 -10.479   1.917  0.00  0.00    -0.166 F 
ATOM     24  F   UNL d   1       3.207 -10.912   2.537  0.00  0.00    -0.166 F 
ATOM     25  F   UNL d   1       3.806 -11.238   0.472  0.00  0.00    -0.166 F 
ENDBRANCH  19  22
ENDBRANCH  13  16
ENDBRANCH  11  12
ENDBRANCH  10  11
ENDBRANCH   3  10
BRANCH   5  26
ATOM     26  C   UNL d   1       4.282  -3.283   4.706  0.00  0.00     0.172 C 
ATOM     27  O   UNL d   1       4.726  -3.242   5.855  0.00  0.00    -0.291 OA
ATOM     28  C   UNL d   1       5.152  -3.715   3.558  0.00  0.00     0.098 C 
ENDBRANCH   5  26
TORSDOF 6
