REMARK  8 active torsions:
REMARK  status: ('A' for Active; 'I' for Inactive)
REMARK    1  A    between atoms: C_2  and  S_1 
REMARK    2  A    between atoms: N_5  and  S_1 
REMARK    3  A    between atoms: C_9  and  C_3 
REMARK    4  A    between atoms: C_4  and  N_7 
REMARK    5  A    between atoms: C_10  and  N_5 
REMARK    6  A    between atoms: C_6  and  C_11 
REMARK    7  A    between atoms: N_7  and  C_12 
REMARK    8  A    between atoms: O_26  and  C_9 
ROOT
ATOM      1  C   UNL d   1       0.684  -2.354   1.028  0.00  0.00     0.069 A 
ATOM      2  C   UNL d   1       2.055  -2.507   0.735  0.00  0.00     0.060 A 
ATOM      3  C   UNL d   1      -0.102  -3.476   1.343  0.00  0.00     0.032 A 
ATOM      4  C   UNL d   1       2.581  -3.821   0.797  0.00  0.00     0.032 A 
ATOM      5  C   UNL d   1       0.445  -4.757   1.382  0.00  0.00     0.002 A 
ATOM      6  C   UNL d   1       1.794  -4.930   1.116  0.00  0.00     0.002 A 
ENDROOT
BRANCH   1   7
ATOM      7  N   UNL d   1       0.022  -1.100   1.075  0.00  0.00    -0.278 N 
ATOM      8  H   UNL d   1      -0.407  -0.808   1.952  0.00  0.00     0.179 HD
BRANCH   7   9
ATOM      9  S   UNL d   1      -0.485  -0.258  -0.276  0.00  0.00     0.265 S 
ATOM     10  O   UNL d   1      -0.952   1.029   0.199  0.00  0.00    -0.200 OA
ATOM     11  O   UNL d   1       0.541  -0.337  -1.293  0.00  0.00    -0.200 OA
BRANCH   9  12
ATOM     12  C   UNL d   1      -1.925  -1.076  -0.915  0.00  0.00     0.101 A 
ATOM     13  C   UNL d   1      -3.012  -1.425  -0.113  0.00  0.00     0.058 A 
ATOM     14  C   UNL d   1      -4.167  -1.962  -0.709  0.00  0.00     0.041 A 
ATOM     15 CL   UNL d   1      -3.074  -1.188   1.596  0.00  0.00    -0.083 Cl
ATOM     16  C   UNL d   1      -4.267  -2.109  -2.104  0.00  0.00     0.049 A 
ATOM     17  C   UNL d   1      -3.180  -1.722  -2.897  0.00  0.00     0.018 A 
ATOM     18  C   UNL d   1      -2.016  -1.220  -2.309  0.00  0.00     0.028 A 
BRANCH  16  19
ATOM     19  C   UNL d   1      -5.529  -2.628  -2.752  0.00  0.00     0.417 C 
ATOM     20  F   UNL d   1      -6.453  -3.075  -1.858  0.00  0.00    -0.166 F 
ATOM     21  F   UNL d   1      -6.156  -1.677  -3.498  0.00  0.00    -0.166 F 
ATOM     22  F   UNL d   1      -5.289  -3.669  -3.595  0.00  0.00    -0.166 F 
ENDBRANCH  16  19
ENDBRANCH   9  12
ENDBRANCH   7   9
ENDBRANCH   1   7
BRANCH   2  23
ATOM     23  N   UNL d   1       3.009  -1.500   0.458  0.00  0.00    -0.356 N 
ATOM     24  H   UNL d   1       3.763  -1.846  -0.140  0.00  0.00     0.166 HD
BRANCH  23  25
ATOM     25  C   UNL d   1       3.281  -0.241   0.961  0.00  0.00     0.032 C 
ATOM     26  C   UNL d   1       4.374   0.493   0.646  0.00  0.00     0.050 C 
ATOM     27  C   UNL d   1       4.525   1.829   1.300  0.00  0.00     0.121 C 
ATOM     28  S   UNL d   1       3.283   1.879   2.608  0.00  0.00    -0.158 SA
ATOM     29  C   UNL d   1       2.395   0.427   1.983  0.00  0.00     0.132 C 
BRANCH  26  30
ATOM     30  C   UNL d   1       5.498   0.148  -0.259  0.00  0.00     0.291 C 
ATOM     31  O   UNL d   1       6.436   0.902  -0.462  0.00  0.00    -0.260 OA
BRANCH  30  32
ATOM     32  O   UNL d   1       5.371  -1.097  -0.791  0.00  0.00    -0.323 OA
ATOM     33  C   UNL d   1       6.446  -1.453  -1.664  0.00  0.00     0.213 C 
ENDBRANCH  30  32
ENDBRANCH  26  30
ENDBRANCH  23  25
ENDBRANCH   2  23
TORSDOF 8
