REMARK  5 active torsions:
REMARK  status: ('A' for Active; 'I' for Inactive)
REMARK    1  A    between atoms: C_7  and  C_1 
REMARK    2  A    between atoms: C_10  and  C_6 
REMARK    3  A    between atoms: C_9  and  N_12 
REMARK    4  A    between atoms: C_11  and  C_10 
REMARK       I    between atoms: N_16  and  C_11 
REMARK    5  A    between atoms: N_12  and  N_16 
ROOT
ATOM      1  C   UNL d   1      -0.248   1.135   0.187  0.00  0.00     0.156 A 
ATOM      2  N   UNL d   1       0.898   0.360   0.124  0.00  0.00    -0.321 N 
ATOM      3  HN  UNL d   1       1.871   0.661   0.184  1.00  0.00     0.169 HD
ATOM      4  N   UNL d   1      -1.380   0.422   0.043  0.00  0.00    -0.241 N 
ATOM      5  HN  UNL d   1      -2.341   0.764   0.041  1.00  0.00     0.196 HD
ATOM      6  C   UNL d   1       0.427  -0.855  -0.032  0.00  0.00     0.157 A 
ATOM      7  O   UNL d   1      -0.936  -0.889  -0.103  0.00  0.00    -0.222 OA
ENDROOT
BRANCH   6   8
ATOM      8  C   UNL d   1       1.110  -2.160  -0.099  0.00  0.00     0.191 C 
BRANCH   8   9
ATOM      9  C   UNL d   1       2.621  -2.108  -0.174  0.00  0.00     0.243 C 
ATOM     10  N   UNL d   1       3.253  -0.889  -0.229  0.00  0.00    -0.268 N 
ATOM     11  H   UNL d   1       2.776   0.006  -0.074  0.00  0.00     0.190 HD
ATOM     12  O   UNL d   1       3.272  -3.160  -0.216  0.00  0.00    -0.271 OA
BRANCH  10  13
ATOM     13  N   UNL d   1       4.653  -0.874  -0.345  0.00  0.00    -0.274 N 
ATOM     14  H   UNL d   1       5.063  -1.804  -0.404  0.00  0.00     0.189 HD
BRANCH  13  15
ATOM     15  C   UNL d   1       5.406   0.132   0.202  0.00  0.00     0.186 C 
ATOM     16  S   UNL d   1       4.808   1.490   0.971  0.00  0.00    -0.040 SA
ATOM     17  N   UNL d   1       6.758   0.020   0.057  0.00  0.00    -0.370 N 
ATOM     18  C   UNL d   1       7.505  -0.912  -0.762  0.00  0.00     0.148 C 
ATOM     19  H   UNL d   1       7.280   0.778   0.482  0.00  0.00     0.161 HD
ENDBRANCH  13  15
ENDBRANCH  10  13
ENDBRANCH   8   9
ENDBRANCH   6   8
BRANCH   1  20
ATOM     20  C   UNL d   1      -0.208   2.570   0.446  0.00  0.00     0.094 A 
ATOM     21  N   UNL d   1       1.010   3.175   0.417  0.00  0.00    -0.360 N 
ATOM     22  C   UNL d   1       1.027   4.489   0.737  0.00  0.00     0.105 A 
ATOM     23  HN  UNL d   1       1.859   2.668   0.169  1.00  0.00     0.165 HD
ATOM     24  C   UNL d   1      -0.121   5.187   1.068  0.00  0.00     0.104 A 
ATOM     25  N   UNL d   1      -1.342   4.606   1.084  0.00  0.00    -0.372 N 
ATOM     26  C   UNL d   1      -1.358   3.284   0.766  0.00  0.00     0.121 A 
ATOM     27  HN  UNL d   1      -2.190   5.122   1.317  1.00  0.00     0.164 HD
ENDBRANCH   1  20
TORSDOF 5
