REMARK  5 active torsions:
REMARK  status: ('A' for Active; 'I' for Inactive)
REMARK    1  A    between atoms: O_10  and  C_2 
REMARK    2  A    between atoms: C_14  and  O_10 
REMARK    3  A    between atoms: O_12  and  C_15 
REMARK    4  A    between atoms: C_16  and  O_12 
REMARK    5  A    between atoms: C_15  and  C_14 
ROOT
ATOM      1  C   UNL d   1       0.806   0.321  -0.017  0.00  0.00     0.101 A 
ATOM      2  C   UNL d   1      -0.053   1.419  -0.030  0.00  0.00     0.164 A 
ATOM      3  N   UNL d   1      -1.401   1.320  -0.021  0.00  0.00    -0.340 N 
ATOM      4  HN  UNL d   1      -1.995   2.149  -0.027  1.00  0.00     0.167 HD
ATOM      5  C   UNL d   1       0.251  -0.968  -0.007  0.00  0.00    -0.035 A 
ATOM      6  C   UNL d   1       2.220   0.533  -0.011  0.00  0.00     0.104 C 
ATOM      7  N   UNL d   1       3.374   0.673  -0.001  0.00  0.00    -0.191 NA
ATOM      8  C   UNL d   1      -1.931   0.071  -0.002  0.00  0.00     0.008 A 
ATOM      9  C   UNL d   1      -1.145  -1.082   0.001  0.00  0.00     0.033 A 
ATOM     10  C   UNL d   1       1.083  -2.221  -0.011  0.00  0.00     0.050 C 
ATOM     11  C   UNL d   1      -3.428  -0.030   0.012  0.00  0.00     0.068 C 
ENDROOT
BRANCH   2  12
ATOM     12  O   UNL d   1       0.538   2.667  -0.061  0.00  0.00    -0.332 OA
BRANCH  12  13
ATOM     13  C   UNL d   1      -0.354   3.782  -0.075  0.00  0.00     0.203 C 
BRANCH  13  14
ATOM     14  C   UNL d   1       0.510   5.044  -0.111  0.00  0.00     0.194 C 
BRANCH  14  15
ATOM     15  O   UNL d   1      -0.299   6.220  -0.126  0.00  0.00    -0.389 OA
BRANCH  15  16
ATOM     16  C   UNL d   1       0.512   7.396  -0.161  0.00  0.00     0.163 C 
ATOM     17  C   UNL d   1      -0.385   8.617  -0.177  0.00  0.00     0.033 C 
ENDBRANCH  15  16
ENDBRANCH  14  15
ENDBRANCH  13  14
ENDBRANCH  12  13
ENDBRANCH   2  12
TORSDOF 5
