REMARK  1 active torsions:
REMARK  status: ('A' for Active; 'I' for Inactive)
REMARK    1  A    between atoms: O_8  and  C_3 
ROOT
ATOM      1  N   UNL d   1       1.253  -1.349  -0.004  0.00  0.00    -0.336 N 
ATOM      2  HN  UNL d   1       1.283  -2.368  -0.007  1.00  0.00     0.168 HD
ATOM      3  C   UNL d   1       2.371  -0.616  -0.000  0.00  0.00     0.140 A 
ATOM      4  C   UNL d   1       0.089  -0.679  -0.005  0.00  0.00     0.044 A 
ATOM      5  C   UNL d   1       1.224   1.466   0.029  0.00  0.00    -0.045 A 
ATOM      6  C   UNL d   1       0.003   0.738   0.001  0.00  0.00    -0.003 A 
ATOM      7  C   UNL d   1       2.429   0.757   0.019  0.00  0.00     0.063 A 
ATOM      8  C   UNL d   1       1.319   2.967   0.045  0.00  0.00     0.049 C 
ATOM      9  C   UNL d   1      -1.080  -1.427  -0.015  0.00  0.00     0.030 A 
ATOM     10  C   UNL d   1      -1.283   1.330  -0.026  0.00  0.00     0.014 A 
ATOM     11  C   UNL d   1      -2.341  -0.830  -0.037  0.00  0.00     0.002 A 
ATOM     12  C   UNL d   1      -2.442   0.553  -0.048  0.00  0.00     0.001 A 
ENDROOT
BRANCH   3  13
ATOM     13  O   UNL d   1       3.511  -1.350  -0.027  0.00  0.00    -0.346 OA
ATOM     14  H   UNL d   1       3.126  -2.245  -0.056  0.00  0.00     0.219 HD
ENDBRANCH   3  13
TORSDOF 1
