REMARK  3 active torsions:
REMARK  status: ('A' for Active; 'I' for Inactive)
REMARK    1  A    between atoms: C_11  and  C_3 
REMARK    2  A    between atoms: C_12  and  C_6 
REMARK    3  A    between atoms: O_18  and  C_12 
ROOT
ATOM      1  C   UNL d   1       0.083   0.599   0.007  0.00  0.00     0.172 A 
ATOM      2  N   UNL d   1      -0.166  -0.742   0.004  0.00  0.00    -0.235 N 
ATOM      3  C   UNL d   1      -1.989   0.309   0.008  0.00  0.00     0.207 A 
ATOM      4  N   UNL d   1      -1.010   1.306   0.009  0.00  0.00    -0.316 N 
ATOM      5  HN  UNL d   1      -1.122   2.320   0.011  1.00  0.00     0.169 HD
ATOM      6  C   UNL d   1       2.086  -0.802   0.002  0.00  0.00     0.106 A 
ATOM      7  N   UNL d   1      -1.492  -0.955   0.005  0.00  0.00    -0.273 N 
ATOM      8  HN  UNL d   1      -1.998  -1.840   0.004  1.00  0.00     0.189 HD
ATOM      9  C   UNL d   1       0.960  -1.547   0.002  0.00  0.00     0.057 A 
ATOM     10  S   UNL d   1       1.780   0.944   0.005  0.00  0.00    -0.043 SA
ATOM     11  C   UNL d   1       0.831  -3.030  -0.001  0.00  0.00     0.072 C 
ENDROOT
BRANCH   3  12
ATOM     12  C   UNL d   1      -3.477   0.603   0.010  0.00  0.00     0.450 C 
ATOM     13  F   UNL d   1      -3.752   1.935   0.021  0.00  0.00    -0.163 F 
ATOM     14  F   UNL d   1      -4.099   0.090  -1.087  0.00  0.00    -0.163 F 
ATOM     15  F   UNL d   1      -4.101   0.071   1.096  0.00  0.00    -0.163 F 
ENDBRANCH   3  12
BRANCH   6  16
ATOM     16  C   UNL d   1       3.466  -1.336   0.001  0.00  0.00     0.185 C 
ATOM     17  O   UNL d   1       3.728  -2.530  -0.000  0.00  0.00    -0.646 OA
BRANCH  16  18
ATOM     18  O   UNL d   1       4.428  -0.391  -0.000  0.00  0.00    -0.772 OA
ATOM     19  H   UNL d   1       4.084   0.524   0.000  0.00  0.00     0.167 HD
ENDBRANCH  16  18
ENDBRANCH   6  16
TORSDOF 3
