REMARK  9 active torsions:
REMARK  status: ('A' for Active; 'I' for Inactive)
REMARK    1  A    between atoms: C_2  and  C_1 
REMARK    2  A    between atoms: C_5  and  C_1 
REMARK       I    between atoms: N_3  and  C_2 
REMARK       I    between atoms: C_4  and  N_3 
REMARK    3  A    between atoms: O_13  and  C_4 
REMARK    4  A    between atoms: O_14  and  C_5 
REMARK    5  A    between atoms: N_12  and  C_6 
REMARK    6  A    between atoms: C_16  and  N_12 
REMARK    7  A    between atoms: C_19  and  O_13 
REMARK    8  A    between atoms: C_20  and  O_14 
REMARK    9  A    between atoms: C_15  and  C_16 
ROOT
ATOM      1  C   UNL d   1       0.966   0.269   0.173  0.00  0.00     0.117 C 
ATOM      2  C   UNL d   1       2.309   0.122   0.150  0.00  0.00     0.080 C 
ENDROOT
BRANCH   1   3
ATOM      3  C   UNL d   1       0.208  -0.491  -0.889  0.00  0.00     0.267 C 
ATOM      4  N   UNL d   1      -1.155  -0.307  -0.897  0.00  0.00    -0.269 N 
ATOM      5  C   UNL d   1      -2.003  -0.987  -1.730  0.00  0.00     0.367 C 
ATOM      6  H   UNL d   1      -1.583  -0.043  -0.013  0.00  0.00     0.174 HD
ATOM      7  O   UNL d   1      -3.052  -1.478  -1.331  0.00  0.00    -0.238 OA
ATOM      8  O   UNL d   1       0.806  -1.220  -1.682  0.00  0.00    -0.267 OA
BRANCH   5   9
ATOM      9  O   UNL d   1      -1.560  -1.033  -3.013  0.00  0.00    -0.304 OA
BRANCH   9  10
ATOM     10  C   UNL d   1      -2.293  -1.859  -3.928  0.00  0.00     0.176 C 
ATOM     11  C   UNL d   1      -3.544  -1.171  -4.442  0.00  0.00     0.034 C 
ENDBRANCH   9  10
ENDBRANCH   5   9
ENDBRANCH   1   3
BRANCH   1  12
ATOM     12  C   UNL d   1       0.264   1.157   1.133  0.00  0.00     0.299 C 
ATOM     13  O   UNL d   1      -0.923   1.017   1.407  0.00  0.00    -0.259 OA
BRANCH  12  14
ATOM     14  O   UNL d   1       1.067   2.152   1.576  0.00  0.00    -0.318 OA
BRANCH  14  15
ATOM     15  C   UNL d   1       0.523   3.167   2.428  0.00  0.00     0.174 C 
ATOM     16  C   UNL d   1       1.170   3.064   3.795  0.00  0.00     0.034 C 
ENDBRANCH  14  15
ENDBRANCH  12  14
ENDBRANCH   1  12
BRANCH   2  17
ATOM     17  N   UNL d   1       3.292   0.718   0.931  0.00  0.00    -0.297 NA
ATOM     18  H   UNL d   1       4.057   1.028   0.325  0.00  0.00     0.127 HD
BRANCH  17  19
ATOM     19  C   UNL d   1       3.881   0.036   2.086  0.00  0.00     0.130 C 
BRANCH  19  20
ATOM     20  C   UNL d   1       5.152  -0.656   1.667  0.00  0.00    -0.042 A 
ATOM     21  C   UNL d   1       6.362   0.046   1.611  0.00  0.00     0.025 A 
ATOM     22  C   UNL d   1       7.490  -0.609   1.147  0.00  0.00     0.088 A 
ATOM     23  N   UNL d   1       7.495  -1.896   0.740  0.00  0.00    -0.375 N 
ATOM     24  C   UNL d   1       6.318  -2.556   0.796  0.00  0.00     0.088 A 
ATOM     25  HN  UNL d   1       8.346  -2.348   0.407  1.00  0.00     0.164 HD
ATOM     26  C   UNL d   1       5.136  -1.988   1.243  0.00  0.00     0.025 A 
ENDBRANCH  19  20
ENDBRANCH  17  19
ENDBRANCH   2  17
TORSDOF 9
