REMARK  3 active torsions:
REMARK  status: ('A' for Active; 'I' for Inactive)
REMARK    1  A    between atoms: N_2  and  S_1 
REMARK    2  A    between atoms: C_4  and  S_1 
REMARK    3  A    between atoms: C_3  and  N_2 
ROOT
ATOM      1  N   UNL d   1       0.476  -1.465  -0.567  0.00  0.00    -0.164 NA
ATOM      2  H   UNL d   1      -0.531  -1.298  -0.555  0.00  0.00     0.147 HD
ENDROOT
BRANCH   1   3
ATOM      3  S   UNL d   1       1.250  -0.044  -0.097  0.00  0.00     0.253 S 
ATOM      4  O   UNL d   1       0.209   0.910   0.220  0.00  0.00    -0.205 OA
ATOM      5  O   UNL d   1       2.317   0.278  -1.019  0.00  0.00    -0.205 OA
BRANCH   3   6
ATOM      6  C   UNL d   1       2.087  -0.337   1.446  0.00  0.00     0.115 A 
ATOM      7  S   UNL d   1       1.189  -1.120   2.671  0.00  0.00    -0.089 SA
ATOM      8  C   UNL d   1       2.495  -1.020   3.776  0.00  0.00     0.051 A 
ATOM      9  C   UNL d   1       3.599  -0.414   3.219  0.00  0.00     0.009 A 
ATOM     10  C   UNL d   1       3.365  -0.021   1.871  0.00  0.00     0.033 A 
ENDBRANCH   3   6
ENDBRANCH   1   3
BRANCH   1  11
ATOM     11  C   UNL d   1       0.866  -2.094  -1.742  0.00  0.00     0.117 A 
ATOM     12  N   UNL d   1      -0.033  -2.354  -2.693  0.00  0.00    -0.249 N 
ATOM     13  O   UNL d   1       0.672  -2.971  -3.713  0.00  0.00    -0.241 OA
ATOM     14  HN  UNL d   1      -1.031  -2.143  -2.673  1.00  0.00     0.196 HD
ATOM     15  C   UNL d   1       1.970  -3.123  -3.335  0.00  0.00     0.075 A 
ATOM     16  C   UNL d   1       2.140  -2.592  -2.079  0.00  0.00     0.079 A 
ATOM     17  C   UNL d   1       2.861  -3.787  -4.303  0.00  0.00     0.079 C 
ENDBRANCH   1  11
TORSDOF 3
