REMARK  7 active torsions:
REMARK  status: ('A' for Active; 'I' for Inactive)
REMARK    1  A    between atoms: N_5  and  C_1 
REMARK    2  A    between atoms: C_4  and  C_8 
REMARK    3  A    between atoms: C_6  and  C_13 
REMARK       I    between atoms: N_7  and  C_6 
REMARK    4  A    between atoms: C_14  and  N_7 
REMARK    5  A    between atoms: C_27  and  N_7 
REMARK    6  A    between atoms: C_26  and  C_14 
REMARK    7  A    between atoms: C_24  and  C_27 
ROOT
ATOM      1  N   UNL d   1      -0.365  11.295   0.705  0.00  0.00    -0.197 NA
ATOM      2  C   UNL d   1      -0.885  10.261   0.712  0.00  0.00     0.060 C 
ATOM      3  C   UNL d   1      -1.561   8.953   0.734  0.00  0.00     0.143 C 
ENDROOT
BRANCH   3   4
ATOM      4  C   UNL d   1      -1.270   8.135  -0.532  0.00  0.00     0.140 C 
BRANCH   4   5
ATOM      5  N   UNL d   1      -1.965   6.833  -0.516  0.00  0.00    -0.347 N 
ATOM      6  C   UNL d   1      -1.457   5.661   0.044  0.00  0.00     0.224 C 
ATOM      7  O   UNL d   1      -2.218   4.756   0.392  0.00  0.00    -0.273 OA
BRANCH   6   8
ATOM      8  C   UNL d   1       0.065   5.460   0.141  0.00  0.00     0.080 C 
ATOM      9  C   UNL d   1       0.462   4.535   1.303  0.00  0.00     0.029 C 
ATOM     10  C   UNL d   1       0.095   3.065   1.084  0.00  0.00     0.099 C 
ATOM     11  N   UNL d   1       0.594   2.612  -0.214  0.00  0.00    -0.255 NA
ATOM     12  C   UNL d   1       0.205   3.419  -1.375  0.00  0.00     0.099 C 
ATOM     13  C   UNL d   1       0.614   4.883  -1.168  0.00  0.00     0.029 C 
BRANCH  11  14
ATOM     14  C   UNL d   1       0.448   1.233  -0.412  0.00  0.00     0.159 A 
ATOM     15  N   UNL d   1       0.465   0.758  -1.667  0.00  0.00    -0.329 N 
ATOM     16  C   UNL d   1       0.380  -0.581  -1.871  0.00  0.00     0.120 A 
ATOM     17  HN  UNL d   1       0.542   1.397  -2.458  1.00  0.00     0.168 HD
ATOM     18  C   UNL d   1       0.276  -1.470  -0.822  0.00  0.00     0.051 A 
ATOM     19  C   UNL d   1       0.262  -0.911   0.429  0.00  0.00     0.093 A 
ATOM     20  N   UNL d   1       0.348   0.414   0.648  0.00  0.00    -0.343 N 
ATOM     21  HN  UNL d   1       0.338   0.787   1.597  1.00  0.00     0.167 HD
BRANCH  16  22
ATOM     22  C   UNL d   1       0.415  -1.104  -3.293  0.00  0.00     0.432 C 
ATOM     23  F   UNL d   1       0.471  -0.134  -4.249  0.00  0.00    -0.165 F 
ATOM     24  F   UNL d   1       1.490  -1.915  -3.523  0.00  0.00    -0.165 F 
ATOM     25  F   UNL d   1      -0.680  -1.860  -3.598  0.00  0.00    -0.165 F 
ENDBRANCH  16  22
ENDBRANCH  11  14
ENDBRANCH   6   8
BRANCH   5  26
ATOM     26  C   UNL d   1      -3.412   6.863  -0.782  0.00  0.00     0.164 C 
BRANCH  26  27
ATOM     27  C   UNL d   1      -3.769   6.423  -2.183  0.00  0.00    -0.040 A 
ATOM     28  C   UNL d   1      -4.081   5.082  -2.451  0.00  0.00     0.009 A 
ATOM     29  C   UNL d   1      -4.455   4.681  -3.736  0.00  0.00     0.001 A 
ATOM     30  C   UNL d   1      -4.513   5.615  -4.769  0.00  0.00     0.000 A 
ATOM     31  C   UNL d   1      -4.198   6.949  -4.518  0.00  0.00     0.001 A 
ATOM     32  C   UNL d   1      -3.827   7.351  -3.233  0.00  0.00     0.009 A 
ENDBRANCH  26  27
ENDBRANCH   5  26
ENDBRANCH   4   5
ENDBRANCH   3   4
TORSDOF 7
