REMARK  5 active torsions:
REMARK  status: ('A' for Active; 'I' for Inactive)
REMARK    1  A    between atoms: C_2  and  C_1 
REMARK       I    between atoms: N_5  and  C_1 
REMARK    2  A    between atoms: C_3  and  C_4 
REMARK    3  A    between atoms: O_12  and  C_3 
REMARK    4  A    between atoms: C_6  and  N_5 
REMARK    5  A    between atoms: S_11  and  C_10 
ROOT
ATOM      1  C   UNL d   1       1.182   0.528   0.341  0.00  0.00     0.245 C 
ATOM      2  N   UNL d   1       0.335   0.730  -0.730  0.00  0.00    -0.324 N 
ATOM      3  O   UNL d   1       0.884   0.470   1.529  0.00  0.00    -0.268 OA
ATOM      4  H   UNL d   1       0.738   0.724  -1.660  0.00  0.00     0.169 HD
ENDROOT
BRANCH   2   5
ATOM      5  C   UNL d   1      -1.067   0.926  -0.673  0.00  0.00     0.036 A 
ATOM      6  C   UNL d   1      -1.786   0.948   0.525  0.00  0.00     0.048 A 
ATOM      7  C   UNL d   1      -3.177   1.105   0.549  0.00  0.00     0.002 A 
ATOM      8  C   UNL d   1      -3.851   1.264  -0.666  0.00  0.00     0.018 A 
ATOM      9  C   UNL d   1      -3.146   1.275  -1.872  0.00  0.00     0.004 A 
ATOM     10  C   UNL d   1      -1.759   1.105  -1.875  0.00  0.00     0.029 A 
BRANCH   7  11
ATOM     11  S   UNL d   1      -4.158   1.106   2.048  0.00  0.00    -0.134 SA
ATOM     12  C   UNL d   1      -2.917   0.871   3.356  0.00  0.00     0.095 C 
ENDBRANCH   7  11
ENDBRANCH   2   5
BRANCH   1  13
ATOM     13  C   UNL d   1       2.603   0.383  -0.065  0.00  0.00     0.081 C 
ATOM     14  C   UNL d   1       3.536   0.276   0.895  0.00  0.00     0.086 C 
BRANCH  14  15
ATOM     15  C   UNL d   1       4.944   0.137   0.497  0.00  0.00     0.165 C 
ATOM     16  O   UNL d   1       5.327   0.089  -0.658  0.00  0.00    -0.647 OA
BRANCH  15  17
ATOM     17  O   UNL d   1       5.773   0.073   1.557  0.00  0.00    -0.773 OA
ATOM     18  H   UNL d   1       5.351   0.126   2.433  0.00  0.00     0.167 HD
ENDBRANCH  15  17
ENDBRANCH  14  15
ENDBRANCH   1  13
TORSDOF 5
