REMARK  3 active torsions:
REMARK  status: ('A' for Active; 'I' for Inactive)
REMARK    1  A    between atoms: C_2  and  S_1 
REMARK    2  A    between atoms: O_7  and  S_1 
REMARK    3  A    between atoms: C_8  and  O_7 
ROOT
ATOM      1  C   UNL d   1       0.644  -1.380  -0.564  0.00  0.00     0.135 A 
ATOM      2  S   UNL d   1      -0.602  -1.321  -1.735  0.00  0.00    -0.075 SA
ATOM      3  C   UNL d   1       1.060  -2.687  -0.327  0.00  0.00    -0.019 A 
ATOM      4  C   UNL d   1       0.356  -3.640  -1.169  0.00  0.00    -0.009 A 
ATOM      5  C   UNL d   1      -0.544  -3.009  -2.028  0.00  0.00     0.017 A 
ATOM      6  C   UNL d   1       0.472  -5.053  -1.257  0.00  0.00     0.037 A 
ATOM      7  C   UNL d   1      -1.285  -3.729  -2.988  0.00  0.00     0.021 A 
ATOM      8  C   UNL d   1      -0.267  -5.769  -2.203  0.00  0.00     0.035 A 
ATOM      9  C   UNL d   1       2.122  -3.112   0.641  0.00  0.00     0.051 C 
ATOM     10  C   UNL d   1      -1.128  -5.115  -3.069  0.00  0.00     0.025 A 
ATOM     11 CL   UNL d   1      -0.093  -7.479  -2.297  0.00  0.00    -0.084 Cl
ENDROOT
BRANCH   1  12
ATOM     12  S   UNL d   1       1.152   0.224   0.071  0.00  0.00     0.310 S 
ATOM     13  O   UNL d   1       0.940   1.186  -0.994  0.00  0.00    -0.192 OA
ATOM     14  O   UNL d   1       2.466   0.015   0.647  0.00  0.00    -0.192 OA
BRANCH  12  15
ATOM     15  O   UNL d   1       0.068   0.470   1.259  0.00  0.00    -0.227 OA
BRANCH  15  16
ATOM     16  C   UNL d   1       0.147   1.547   2.115  0.00  0.00     0.111 A 
ATOM     17  C   UNL d   1      -0.779   1.603   3.167  0.00  0.00     0.068 A 
ATOM     18 CL   UNL d   1      -1.983   0.379   3.367  0.00  0.00    -0.081 Cl
ATOM     19  C   UNL d   1      -0.752   2.655   4.090  0.00  0.00     0.026 A 
ATOM     20  C   UNL d   1       0.200   3.666   3.969  0.00  0.00     0.002 A 
ATOM     21  C   UNL d   1       1.115   3.628   2.922  0.00  0.00     0.003 A 
ATOM     22  C   UNL d   1       1.089   2.577   1.997  0.00  0.00     0.040 A 
ENDBRANCH  15  16
ENDBRANCH  12  15
ENDBRANCH   1  12
TORSDOF 3
