REMARK  3 active torsions:
REMARK  status: ('A' for Active; 'I' for Inactive)
REMARK    1  A    between atoms: C_5  and  C_1 
REMARK    2  A    between atoms: C_9  and  N_3 
REMARK    3  A    between atoms: O_15  and  C_10 
ROOT
ATOM      1  C   UNL d   1       0.408   4.984   0.028  0.00  0.00     0.032 A 
ATOM      2  C   UNL d   1      -0.115   7.736  -0.053  0.00  0.00     0.065 A 
ATOM      3  C   UNL d   1       1.123   5.824  -0.832  0.00  0.00     0.032 A 
ATOM      4  C   UNL d   1      -0.599   5.545   0.824  0.00  0.00     0.032 A 
ATOM      5  C   UNL d   1      -0.853   6.921   0.797  0.00  0.00     0.039 A 
ATOM      6  C   UNL d   1       0.867   7.197  -0.874  0.00  0.00     0.039 A 
ENDROOT
BRANCH   1   7
ATOM      7  N   UNL d   1       0.709   3.611  -0.000  0.00  0.00    -0.365 N 
ATOM      8  C   UNL d   1       0.698   2.940   1.108  0.00  0.00     0.107 C 
ATOM      9  HN  UNL d   1       0.933   3.149  -0.881  1.00  0.00     0.165 HD
BRANCH   8  10
ATOM     10  C   UNL d   1       1.026   1.535   1.124  0.00  0.00     0.020 A 
ATOM     11  S   UNL d   1       0.829   0.649   2.574  0.00  0.00    -0.101 SA
ATOM     12  C   UNL d   1       1.391  -0.793   1.844  0.00  0.00     0.050 A 
ATOM     13  C   UNL d   1       1.726  -0.604   0.522  0.00  0.00     0.008 A 
ATOM     14  C   UNL d   1       1.505   0.740   0.103  0.00  0.00     0.021 A 
ENDBRANCH   8  10
ENDBRANCH   1   7
BRANCH   2  15
ATOM     15  O   UNL d   1      -0.332   9.079  -0.117  0.00  0.00    -0.361 OA
ATOM     16  H   UNL d   1      -1.048   9.309   0.498  0.00  0.00     0.217 HD
ENDBRANCH   2  15
TORSDOF 3
