REMARK  1 active torsions:
REMARK  status: ('A' for Active; 'I' for Inactive)
REMARK    1  A    between atoms: C_8  and  N_1 
ROOT
ATOM      1  N   UNL d   1       2.417  -0.678  -0.071  0.00  0.00    -0.268 N 
ATOM      2  C   UNL d   1       1.251  -1.459  -0.082  0.00  0.00     0.266 A 
ATOM      3  C   UNL d   1       2.340   0.707  -0.035  0.00  0.00     0.087 A 
ATOM      4  N   UNL d   1       1.223   1.365   0.017  0.00  0.00    -0.345 N 
ATOM      5  HN  UNL d   1       1.224   2.383   0.064  1.00  0.00     0.167 HD
ATOM      6  C   UNL d   1      -0.025  -0.733  -0.037  0.00  0.00     0.059 A 
ATOM      7  C   UNL d   1       0.018   0.655   0.008  0.00  0.00     0.049 A 
ATOM      8  O   UNL d   1       1.214  -2.689  -0.100  0.00  0.00    -0.267 OA
ATOM      9  C   UNL d   1       3.598   1.550  -0.111  0.00  0.00     0.089 C 
ATOM     10  C   UNL d   1      -1.247  -1.419  -0.044  0.00  0.00     0.019 A 
ATOM     11  C   UNL d   1      -1.185   1.363   0.022  0.00  0.00     0.030 A 
ATOM     12  C   UNL d   1      -2.440  -0.704  -0.025  0.00  0.00     0.001 A 
ATOM     13  C   UNL d   1      -2.411   0.690   0.003  0.00  0.00     0.002 A 
ENDROOT
BRANCH   1  14
ATOM     14  C   UNL d   1       3.658  -1.381  -0.074  0.00  0.00     0.044 A 
ATOM     15  C   UNL d   1       3.932  -2.296  -1.100  0.00  0.00     0.030 A 
ATOM     16  C   UNL d   1       5.109  -3.045  -1.086  0.00  0.00     0.009 A 
ATOM     17  C   UNL d   1       6.019  -2.912  -0.033  0.00  0.00    -0.062 A 
ATOM     18  C   UNL d   1       5.748  -1.997   0.992  0.00  0.00     0.009 A 
ATOM     19  C   UNL d   1       7.240  -3.783   0.003  0.00  0.00     0.048 C 
ATOM     20  C   UNL d   1       4.577  -1.231   0.971  0.00  0.00     0.030 A 
ENDBRANCH   1  14
TORSDOF 1
