REMARK  3 active torsions:
REMARK  status: ('A' for Active; 'I' for Inactive)
REMARK    1  A    between atoms: C_8  and  N_4 
REMARK    2  A    between atoms: C_10  and  C_8 
REMARK    3  A    between atoms: O_9  and  C_10 
ROOT
ATOM      1  C   UNL d   1       0.697   1.231  -0.060  0.00  0.00     0.170 C 
ATOM      2  N   UNL d   1       1.332   0.036  -0.046  0.00  0.00    -0.342 N 
ATOM      3  N   UNL d   1      -0.655   1.188  -0.014  0.00  0.00    -0.342 N 
ATOM      4  N   UNL d   1      -0.688  -1.155   0.302  0.00  0.00     0.124 N 
ATOM      5  C   UNL d   1       0.650  -1.204  -0.263  0.00  0.00     0.399 C 
ATOM      6  C   UNL d   1      -1.386  -0.015  -0.262  0.00  0.00     0.399 C 
ATOM      7  S   UNL d   1       1.527   2.666  -0.078  0.00  0.00    -0.041 SA
ATOM      8  H   UNL d   1       2.339   0.063  -0.137  0.00  0.00     0.163 HD
ATOM      9  H   UNL d   1      -1.130   2.078  -0.094  0.00  0.00     0.163 HD
ENDROOT
BRANCH   4  10
ATOM     10  C   UNL d   1      -0.670  -1.197   1.773  0.00  0.00     0.302 C 
BRANCH  10  11
ATOM     11  C   UNL d   1      -2.057  -1.383   2.405  0.00  0.00     0.194 C 
BRANCH  11  12
ATOM     12  O   UNL d   1      -1.929  -1.532   3.817  0.00  0.00    -0.399 OA
ATOM     13  H   UNL d   1      -2.829  -1.612   4.176  0.00  0.00     0.209 HD
ENDBRANCH  11  12
ENDBRANCH  10  11
ENDBRANCH   4  10
TORSDOF 3
