REMARK  1 active torsions:
REMARK  status: ('A' for Active; 'I' for Inactive)
REMARK    1  A    between atoms: C_7  and  C_2 
ROOT
ATOM      1  N   UNL d   1      -1.157  -0.044  -0.056  0.00  0.00    -0.291 N 
ATOM      2  C   UNL d   1      -0.286  -1.083   0.005  0.00  0.00     0.136 A 
ATOM      3  C   UNL d   1      -0.404   1.093  -0.045  0.00  0.00     0.342 A 
ATOM      4  N   UNL d   1       0.965  -0.720   0.066  0.00  0.00    -0.279 N 
ATOM      5  HN  UNL d   1       1.790  -1.317   0.119  1.00  0.00     0.189 HD
ATOM      6  N   UNL d   1       0.913   0.656   0.042  0.00  0.00    -0.245 N 
ATOM      7  O   UNL d   1      -0.833   2.232  -0.110  0.00  0.00    -0.245 OA
ATOM      8  C   UNL d   1       2.092   1.476   0.039  0.00  0.00     0.183 C 
ATOM      9  H   UNL d   1      -2.158  -0.030  -0.116  0.00  0.00     0.172 HD
ENDROOT
BRANCH   2  10
ATOM     10  C   UNL d   1      -0.760  -2.474  -0.009  0.00  0.00     0.025 A 
ATOM     11  C   UNL d   1       0.163  -3.507   0.112  0.00  0.00     0.102 A 
ATOM     12  N   UNL d   1      -0.168  -4.823   0.099  0.00  0.00    -0.374 N 
ATOM     13  C   UNL d   1      -1.477  -5.120  -0.044  0.00  0.00     0.087 A 
ATOM     14  HN  UNL d   1       0.538  -5.553   0.193  1.00  0.00     0.164 HD
ATOM     15  C   UNL d   1      -2.471  -4.164  -0.171  0.00  0.00     0.018 A 
ATOM     16  C   UNL d   1      -2.106  -2.818  -0.152  0.00  0.00     0.018 A 
ENDBRANCH   2  10
TORSDOF 1
