REMARK  5 active torsions:
REMARK  status: ('A' for Active; 'I' for Inactive)
REMARK    1  A    between atoms: C_7  and  C_1 
REMARK    2  A    between atoms: C_8  and  C_2 
REMARK    3  A    between atoms: O_11  and  C_7 
REMARK    4  A    between atoms: O_10  and  C_8 
REMARK    5  A    between atoms: C_12  and  O_10 
ROOT
ATOM      1  C   UNL d   1      -0.110   1.346   0.035  0.00  0.00     0.089 A 
ATOM      2  C   UNL d   1      -1.408   0.849   0.005  0.00  0.00     0.068 A 
ATOM      3  N   UNL d   1      -0.020  -0.946  -0.025  0.00  0.00    -0.304 N 
ATOM      4  HN  UNL d   1       0.313  -1.910  -0.026  1.00  0.00     0.186 HD
ATOM      5  N   UNL d   1      -1.284  -0.511  -0.058  0.00  0.00    -0.301 N 
ATOM      6  C   UNL d   1       0.709   0.177   0.009  0.00  0.00     0.040 A 
ATOM      7  C   UNL d   1       2.193   0.092   0.010  0.00  0.00     0.071 C 
ATOM      8  H   UNL d   1      -2.023  -1.204  -0.126  0.00  0.00     0.186 HD
ENDROOT
BRANCH   2   9
ATOM      9  C   UNL d   1      -2.753   1.484  -0.011  0.00  0.00     0.235 C 
BRANCH   9  10
ATOM     10  O   UNL d   1      -3.046   1.720  -1.383  0.00  0.00    -0.345 OA
BRANCH  10  11
ATOM     11  C   UNL d   1      -4.273   2.237  -1.689  0.00  0.00     0.069 A 
ATOM     12  C   UNL d   1      -5.268   2.602  -0.782  0.00  0.00     0.037 A 
ATOM     13  C   UNL d   1      -6.486   3.115  -1.246  0.00  0.00     0.003 A 
ATOM     14  C   UNL d   1      -6.712   3.265  -2.614  0.00  0.00     0.000 A 
ATOM     15  C   UNL d   1      -5.720   2.906  -3.522  0.00  0.00     0.003 A 
ATOM     16  C   UNL d   1      -4.507   2.394  -3.059  0.00  0.00     0.037 A 
ENDBRANCH  10  11
ENDBRANCH   9  10
ENDBRANCH   2   9
BRANCH   1  17
ATOM     17  C   UNL d   1       0.347   2.727   0.071  0.00  0.00     0.297 C 
ATOM     18  O   UNL d   1       1.533   3.039   0.096  0.00  0.00    -0.259 OA
BRANCH  17  19
ATOM     19  O   UNL d   1      -0.673   3.632   0.094  0.00  0.00    -0.322 OA
ATOM     20  C   UNL d   1      -0.248   4.995   0.137  0.00  0.00     0.213 C 
ENDBRANCH  17  19
ENDBRANCH   1  17
TORSDOF 5
