REMARK  15 active torsions:
REMARK  status: ('A' for Active; 'I' for Inactive)
REMARK    1  A    between atoms: N_3  and  C_1 
REMARK    2  A    between atoms: S_5  and  C_1 
REMARK    3  A    between atoms: C_6  and  N_3 
REMARK    4  A    between atoms: C_9  and  S_5 
REMARK    5  A    between atoms: C_7  and  C_6 
REMARK    6  A    between atoms: C_11  and  C_9 
REMARK    7  A    between atoms: C_19  and  C_11 
REMARK    8  A    between atoms: C_12  and  C_13 
REMARK    9  A    between atoms: C_13  and  C_18 
REMARK   10  A    between atoms: C_14  and  C_20 
REMARK   11  A    between atoms: C_15  and  C_14 
REMARK   12  A    between atoms: C_16  and  C_15 
REMARK   13  A    between atoms: C_17  and  C_16 
REMARK   14  A    between atoms: C_18  and  C_17 
REMARK   15  A    between atoms: C_20  and  C_19 
ROOT
ATOM      1  C   UNL d   1       3.288   1.084  -1.266  0.00  0.00     0.082 C 
ENDROOT
BRANCH   1   2
ATOM      2  S   UNL d   1       2.650   0.005   0.065  0.00  0.00    -0.101 SA
BRANCH   2   3
ATOM      3  C   UNL d   1       0.931   0.164  -0.262  0.00  0.00     0.134 C 
ATOM      4  S   UNL d   1       0.081   1.592  -0.132  0.00  0.00    -0.053 SA
BRANCH   3   5
ATOM      5  N   UNL d   1       0.427  -1.047  -0.650  0.00  0.00    -0.373 N 
ATOM      6  H   UNL d   1       0.980  -1.866  -0.415  0.00  0.00     0.161 HD
BRANCH   5   7
ATOM      7  C   UNL d   1      -0.873  -1.275  -1.270  0.00  0.00     0.153 C 
BRANCH   7   8
ATOM      8  C   UNL d   1      -0.908  -2.597  -2.041  0.00  0.00     0.139 C 
ATOM      9  O   UNL d   1      -0.830  -3.712  -1.133  0.00  0.00    -0.384 OA
ATOM     10  C   UNL d   1      -1.825  -4.673  -1.508  0.00  0.00     0.168 C 
ATOM     11  C   UNL d   1      -2.349  -4.272  -2.866  0.00  0.00     0.029 C 
ATOM     12  C   UNL d   1      -2.193  -2.773  -2.837  0.00  0.00     0.035 C 
ENDBRANCH   7   8
ENDBRANCH   5   7
ENDBRANCH   3   5
ENDBRANCH   2   3
ENDBRANCH   1   2
BRANCH   1  13
ATOM     13  C   UNL d   1       4.816   1.093  -1.296  0.00  0.00     0.010 C 
BRANCH  13  14
ATOM     14  C   UNL d   1       5.336   2.028  -2.394  0.00  0.00     0.001 C 
BRANCH  14  15
ATOM     15  C   UNL d   1       6.865   2.057  -2.428  0.00  0.00     0.000 C 
BRANCH  15  16
ATOM     16  C   UNL d   1       7.388   2.991  -3.521  0.00  0.00     0.000 C 
BRANCH  16  17
ATOM     17  C   UNL d   1       8.917   3.010  -3.545  0.00  0.00     0.000 C 
BRANCH  17  18
ATOM     18  C   UNL d   1       9.444   3.946  -4.634  0.00  0.00     0.000 C 
BRANCH  18  19
ATOM     19  C   UNL d   1      10.973   3.959  -4.655  0.00  0.00     0.000 C 
BRANCH  19  20
ATOM     20  C   UNL d   1      11.505   4.892  -5.742  0.00  0.00     0.000 C 
BRANCH  20  21
ATOM     21  C   UNL d   1      13.033   4.901  -5.759  0.00  0.00    -0.000 C 
BRANCH  21  22
ATOM     22  C   UNL d   1      13.571   5.835  -6.840  0.00  0.00    -0.005 C 
ATOM     23  C   UNL d   1      15.092   5.844  -6.853  0.00  0.00     0.005 C 
ENDBRANCH  21  22
ENDBRANCH  20  21
ENDBRANCH  19  20
ENDBRANCH  18  19
ENDBRANCH  17  18
ENDBRANCH  16  17
ENDBRANCH  15  16
ENDBRANCH  14  15
ENDBRANCH  13  14
ENDBRANCH   1  13
TORSDOF 15
