REMARK  3 active torsions:
REMARK  status: ('A' for Active; 'I' for Inactive)
REMARK    1  A    between atoms: C_2  and  C_1 
REMARK    2  A    between atoms: O_7  and  C_2 
REMARK    3  A    between atoms: N_6  and  C_3 
ROOT
ATOM      1  C   UNL d   1       0.054   1.030   0.048  0.00  0.00     0.099 A 
ATOM      2  C   UNL d   1       1.313   0.395   0.007  0.00  0.00     0.025 A 
ATOM      3  C   UNL d   1      -1.112   0.256  -0.010  0.00  0.00     0.134 A 
ATOM      4  F   UNL d   1      -2.327   0.823  -0.061  0.00  0.00    -0.205 F 
ATOM      5  C   UNL d   1       0.183  -1.771  -0.018  0.00  0.00     0.005 A 
ATOM      6  C   UNL d   1       1.354  -1.010   0.021  0.00  0.00     0.024 A 
ATOM      7  C   UNL d   1      -1.052  -1.134  -0.042  0.00  0.00     0.043 A 
ENDROOT
BRANCH   1   8
ATOM      8  C   UNL d   1      -0.036   2.508   0.084  0.00  0.00     0.297 C 
ATOM      9  O   UNL d   1       0.807   3.248  -0.401  0.00  0.00    -0.259 OA
BRANCH   8  10
ATOM     10  O   UNL d   1      -1.145   2.899   0.759  0.00  0.00    -0.322 OA
ATOM     11  C   UNL d   1      -1.356   4.310   0.799  0.00  0.00     0.213 C 
ENDBRANCH   8  10
ENDBRANCH   1   8
BRANCH   2  12
ATOM     12  N   UNL d   1       2.524   1.091   0.187  0.00  0.00    -0.302 NA
ATOM     13  H   UNL d   1       2.462   2.070  -0.113  0.00  0.00     0.124 HD
ATOM     14  H   UNL d   1       3.337   0.629  -0.210  0.00  0.00     0.124 HD
ENDBRANCH   2  12
TORSDOF 3
