REMARK  8 active torsions:
REMARK  status: ('A' for Active; 'I' for Inactive)
REMARK       I    between atoms: N_2  and  C_1 
REMARK    1  A    between atoms: C_9  and  C_1 
REMARK    2  A    between atoms: C_3  and  N_2 
REMARK    3  A    between atoms: O_5  and  C_4 
REMARK    4  A    between atoms: C_12  and  O_5 
REMARK    5  A    between atoms: C_6  and  C_11 
REMARK    6  A    between atoms: O_13  and  C_6 
REMARK    7  A    between atoms: C_7  and  C_9 
REMARK    8  A    between atoms: C_11  and  C_7 
ROOT
ATOM      1  C   UNL d   1       0.313  -0.213   2.264  0.00  0.00     0.049 A 
ATOM      2  C   UNL d   1       0.551  -0.926   3.452  0.00  0.00     0.097 A 
ATOM      3  C   UNL d   1      -0.214   1.085   2.327  0.00  0.00     0.027 A 
ATOM      4  C   UNL d   1       0.195  -0.349   4.683  0.00  0.00     0.039 A 
ATOM      5  C   UNL d   1      -0.508   1.668   3.562  0.00  0.00     0.002 A 
ATOM      6  C   UNL d   1      -0.320   0.946   4.737  0.00  0.00     0.003 A 
ENDROOT
BRANCH   1   7
ATOM      7  N   UNL d   1       0.357  -0.863   1.005  0.00  0.00    -0.227 NA
ATOM      8  C   UNL d   1       1.290  -0.589   0.033  0.00  0.00     0.202 C 
ATOM      9  O   UNL d   1       0.939  -0.561  -1.149  0.00  0.00    -0.280 OA
ATOM     10  H   UNL d   1      -0.551  -0.886   0.550  0.00  0.00     0.136 HD
BRANCH   8  11
ATOM     11  C   UNL d   1       2.720  -0.302   0.454  0.00  0.00     0.106 C 
BRANCH  11  12
ATOM     12  C   UNL d   1       3.825  -0.755  -0.551  0.00  0.00    -0.031 C 
ATOM     13  C   UNL d   1       5.186  -0.532   0.143  0.00  0.00     0.016 C 
ATOM     14  C   UNL d   1       3.699  -2.267  -0.850  0.00  0.00     0.016 C 
BRANCH  12  15
ATOM     15  C   UNL d   1       3.812  -0.014  -1.910  0.00  0.00     0.119 C 
BRANCH  15  16
ATOM     16  C   UNL d   1       3.895   1.490  -1.817  0.00  0.00     0.140 C 
ATOM     17  O   UNL d   1       4.900   2.107  -1.510  0.00  0.00    -0.650 OA
BRANCH  16  18
ATOM     18  O   UNL d   1       2.721   2.107  -2.095  0.00  0.00    -0.776 OA
ATOM     19  H   UNL d   1       1.997   1.486  -2.322  0.00  0.00     0.167 HD
ENDBRANCH  16  18
ENDBRANCH  15  16
ENDBRANCH  12  15
ENDBRANCH  11  12
ENDBRANCH   8  11
ENDBRANCH   1   7
BRANCH   2  20
ATOM     20  O   UNL d   1       1.035  -2.213   3.337  0.00  0.00    -0.309 OA
BRANCH  20  21
ATOM     21  C   UNL d   1       1.735  -2.766   4.386  0.00  0.00     0.076 A 
ATOM     22  C   UNL d   1       1.423  -4.085   4.720  0.00  0.00     0.037 A 
ATOM     23  C   UNL d   1       2.099  -4.722   5.761  0.00  0.00     0.003 A 
ATOM     24  C   UNL d   1       3.096  -4.045   6.463  0.00  0.00     0.000 A 
ATOM     25  C   UNL d   1       3.429  -2.736   6.114  0.00  0.00     0.003 A 
ATOM     26  C   UNL d   1       2.762  -2.101   5.063  0.00  0.00     0.037 A 
ENDBRANCH  20  21
ENDBRANCH   2  20
TORSDOF 8
