REMARK  5 active torsions:
REMARK  status: ('A' for Active; 'I' for Inactive)
REMARK    1  A    between atoms: C_7  and  C_1 
REMARK    2  A    between atoms: C_6  and  C_2 
REMARK    3  A    between atoms: C_14  and  C_5 
REMARK       I    between atoms: N_13  and  C_7 
REMARK    4  A    between atoms: C_8  and  C_15 
REMARK    5  A    between atoms: C_15  and  N_13 
ROOT
ATOM      1  C   UNL d   1       1.133   0.556   0.070  0.00  0.00     0.073 A 
ATOM      2  C   UNL d   1       0.900  -0.691  -0.500  0.00  0.00     0.175 A 
ATOM      3  O   UNL d   1      -0.415  -1.053  -0.311  0.00  0.00    -0.304 OA
ATOM      4  C   UNL d   1      -0.128   0.962   0.602  0.00  0.00     0.058 A 
ATOM      5  C   UNL d   1      -1.034  -0.044   0.361  0.00  0.00     0.087 A 
ENDROOT
BRANCH   1   6
ATOM      6  C   UNL d   1       2.349   1.366   0.086  0.00  0.00     0.254 C 
ATOM      7  N   UNL d   1       3.535   0.673   0.117  0.00  0.00    -0.353 N 
ATOM      8  H   UNL d   1       3.542  -0.336   0.138  0.00  0.00     0.163 HD
ATOM      9  O   UNL d   1       2.292   2.589   0.108  0.00  0.00    -0.268 OA
BRANCH   7  10
ATOM     10  C   UNL d   1       4.818   1.319  -0.024  0.00  0.00     0.162 C 
BRANCH  10  11
ATOM     11  C   UNL d   1       5.649   1.036   1.191  0.00  0.00    -0.022 A 
ATOM     12  C   UNL d   1       6.587  -0.065   1.367  0.00  0.00    -0.009 A 
ATOM     13  C   UNL d   1       7.232   0.009   2.609  0.00  0.00     0.015 A 
ATOM     14  C   UNL d   1       6.944  -1.147   0.516  0.00  0.00     0.037 A 
ATOM     15  C   UNL d   1       8.202  -0.934   3.010  0.00  0.00     0.021 A 
ATOM     16  S   UNL d   1       6.697   1.361   3.525  0.00  0.00    -0.101 SA
ATOM     17  C   UNL d   1       8.526  -1.983   2.149  0.00  0.00     0.025 A 
ATOM     18  C   UNL d   1       7.901  -2.086   0.918  0.00  0.00     0.035 A 
ATOM     19 CL   UNL d   1       8.311  -3.389  -0.131  0.00  0.00    -0.084 Cl
ATOM     20  C   UNL d   1       5.628   1.856   2.303  0.00  0.00     0.060 A 
ENDBRANCH  10  11
ENDBRANCH   7  10
ENDBRANCH   1   6
BRANCH   2  21
ATOM     21  C   UNL d   1       1.724  -1.652  -1.277  0.00  0.00     0.440 C 
ATOM     22  F   UNL d   1       2.985  -1.196  -1.506  0.00  0.00    -0.164 F 
ATOM     23  F   UNL d   1       1.873  -2.832  -0.622  0.00  0.00    -0.164 F 
ATOM     24  F   UNL d   1       1.193  -1.931  -2.493  0.00  0.00    -0.164 F 
ENDBRANCH   2  21
BRANCH   5  25
ATOM     25  C   UNL d   1      -2.465  -0.182   0.635  0.00  0.00    -0.002 A 
ATOM     26  C   UNL d   1      -3.298  -1.000  -0.142  0.00  0.00     0.016 A 
ATOM     27  C   UNL d   1      -4.687  -0.985   0.043  0.00  0.00     0.024 A 
ATOM     28  C   UNL d   1      -5.251  -0.166   1.019  0.00  0.00     0.034 A 
ATOM     29  C   UNL d   1      -4.436   0.607   1.839  0.00  0.00     0.024 A 
ATOM     30 CL   UNL d   1      -6.960  -0.084   1.196  0.00  0.00    -0.084 Cl
ATOM     31  C   UNL d   1      -3.051   0.594   1.649  0.00  0.00     0.016 A 
ENDBRANCH   5  25
TORSDOF 5
