REMARK  7 active torsions:
REMARK  status: ('A' for Active; 'I' for Inactive)
REMARK    1  A    between atoms: C_5  and  C_1 
REMARK    2  A    between atoms: C_2  and  C_4 
REMARK    3  A    between atoms: C_3  and  C_8 
REMARK    4  A    between atoms: N_10  and  C_7 
REMARK       I    between atoms: C_9  and  N_10 
REMARK    5  A    between atoms: C_25  and  C_9 
REMARK    6  A    between atoms: S_14  and  C_25 
REMARK    7  A    between atoms: C_26  and  S_14 
ROOT
ATOM      1  C   UNL d   1       1.895  -4.788   0.369  0.00  0.00     0.231 C 
ATOM      2  N   UNL d   1       1.108  -4.379   1.437  0.00  0.00    -0.326 N 
ATOM      3  O   UNL d   1       2.391  -4.058  -0.485  0.00  0.00    -0.272 OA
ATOM      4  H   UNL d   1       0.919  -5.075   2.149  0.00  0.00     0.169 HD
ENDROOT
BRANCH   2   5
ATOM      5  C   UNL d   1       0.665  -3.060   1.671  0.00  0.00     0.036 A 
ATOM      6  C   UNL d   1       0.710  -2.090   0.672  0.00  0.00     0.045 A 
ATOM      7  C   UNL d   1       0.464  -0.744   0.948  0.00  0.00     0.050 A 
ATOM      8  C   UNL d   1       0.066  -0.381   2.238  0.00  0.00     0.032 A 
ATOM      9  C   UNL d   1      -0.081  -1.351   3.245  0.00  0.00     0.050 A 
ATOM     10  C   UNL d   1       0.217  -2.698   2.948  0.00  0.00     0.045 A 
BRANCH   7  11
ATOM     11  C   UNL d   1       0.717   0.263  -0.143  0.00  0.00     0.417 C 
ATOM     12  F   UNL d   1       0.563   1.553   0.266  0.00  0.00    -0.166 F 
ATOM     13  F   UNL d   1      -0.110   0.103  -1.211  0.00  0.00    -0.166 F 
ATOM     14  F   UNL d   1       1.986   0.179  -0.632  0.00  0.00    -0.166 F 
ENDBRANCH   7  11
BRANCH   9  15
ATOM     15  C   UNL d   1      -0.494  -0.942   4.642  0.00  0.00     0.417 C 
ATOM     16  F   UNL d   1      -0.686   0.397   4.781  0.00  0.00    -0.166 F 
ATOM     17  F   UNL d   1      -1.659  -1.527   5.036  0.00  0.00    -0.166 F 
ATOM     18  F   UNL d   1       0.434  -1.283   5.577  0.00  0.00    -0.166 F 
ENDBRANCH   9  15
ENDBRANCH   2   5
BRANCH   1  19
ATOM     19  C   UNL d   1       2.249  -6.272   0.344  0.00  0.00     0.182 C 
BRANCH  19  20
ATOM     20  S   UNL d   1       0.918  -7.287   1.062  0.00  0.00    -0.121 SA
BRANCH  20  21
ATOM     21  C   UNL d   1       1.582  -8.919   0.823  0.00  0.00     0.001 A 
ATOM     22  C   UNL d   1       1.799  -9.716   1.951  0.00  0.00     0.034 A 
ATOM     23  C   UNL d   1       2.202 -11.054   1.822  0.00  0.00     0.049 A 
ATOM     24  C   UNL d   1       2.379 -11.586   0.536  0.00  0.00     0.016 A 
ATOM     25  C   UNL d   1       2.172 -10.791  -0.593  0.00  0.00     0.002 A 
ATOM     26  C   UNL d   1       1.778  -9.460  -0.450  0.00  0.00     0.018 A 
BRANCH  23  27
ATOM     27  C   UNL d   1       2.417 -11.916   3.040  0.00  0.00     0.417 C 
ATOM     28  F   UNL d   1       2.220 -11.255   4.215  0.00  0.00    -0.166 F 
ATOM     29  F   UNL d   1       1.583 -12.991   3.072  0.00  0.00    -0.166 F 
ATOM     30  F   UNL d   1       3.681 -12.417   3.104  0.00  0.00    -0.166 F 
ENDBRANCH  23  27
ENDBRANCH  20  21
ENDBRANCH  19  20
ENDBRANCH   1  19
TORSDOF 7
