REMARK  20 active torsions:
REMARK  status: ('A' for Active; 'I' for Inactive)
REMARK       I    between atoms: N_2  and  C_1 
REMARK    1  A    between atoms: C_8  and  C_1 
REMARK    2  A    between atoms: C_5  and  N_2 
REMARK       I    between atoms: C_3  and  N_7 
REMARK    3  A    between atoms: O_15  and  C_3 
REMARK    4  A    between atoms: O_9  and  C_4 
REMARK    5  A    between atoms: C_5  and  C_4 
REMARK    6  A    between atoms: C_11  and  C_5 
REMARK       I    between atoms: C_6  and  N_17 
REMARK    7  A    between atoms: O_16  and  C_6 
REMARK    8  A    between atoms: C_8  and  N_7 
REMARK    9  A    between atoms: C_25  and  C_8 
REMARK   10  A    between atoms: C_18  and  O_9 
REMARK   11  A    between atoms: C_21  and  C_11 
REMARK   12  A    between atoms: C_19  and  O_15 
REMARK   13  A    between atoms: C_20  and  O_16 
REMARK   14  A    between atoms: N_17  and  C_26 
REMARK   15  A    between atoms: C_22  and  C_18 
REMARK   16  A    between atoms: C_23  and  C_19 
REMARK   17  A    between atoms: C_24  and  C_20 
REMARK   18  A    between atoms: C_35  and  C_25 
REMARK   19  A    between atoms: C_26  and  C_36 
REMARK   20  A    between atoms: C_36  and  C_35 
ROOT
ATOM      1  C   UNL d   1       2.186   0.874  -0.663  0.00  0.00     0.179 C 
ENDROOT
BRANCH   1   2
ATOM      2  C   UNL d   1       1.731   2.335  -0.836  0.00  0.00     0.035 C 
BRANCH   2   3
ATOM      3  C   UNL d   1       1.409   3.050   0.480  0.00  0.00     0.004 C 
BRANCH   3   4
ATOM      4  C   UNL d   1       0.810   4.433   0.223  0.00  0.00     0.020 C 
BRANCH   4   5
ATOM      5  C   UNL d   1       0.401   5.110   1.531  0.00  0.00     0.125 C 
BRANCH   5   6
ATOM      6  N   UNL d   1      -0.215   6.395   1.297  0.00  0.00    -0.337 N 
ATOM      7  C   UNL d   1      -1.490   6.507   0.831  0.00  0.00     0.360 C 
ATOM      8  O   UNL d   1      -2.279   5.581   0.719  0.00  0.00    -0.239 OA
ATOM      9  H   UNL d   1       0.357   7.223   1.204  0.00  0.00     0.164 HD
BRANCH   7  10
ATOM     10  O   UNL d   1      -1.707   7.784   0.445  0.00  0.00    -0.299 OA
BRANCH  10  11
ATOM     11  C   UNL d   1      -2.872   7.984  -0.361  0.00  0.00     0.219 C 
BRANCH  11  12
ATOM     12  C   UNL d   1      -3.953   8.714   0.393  0.00  0.00    -0.034 A 
ATOM     13  C   UNL d   1      -4.006  10.115   0.388  0.00  0.00     0.009 A 
ATOM     14  C   UNL d   1      -5.056  10.785   1.017  0.00  0.00     0.001 A 
ATOM     15  C   UNL d   1      -6.054  10.063   1.669  0.00  0.00     0.000 A 
ATOM     16  C   UNL d   1      -5.992   8.672   1.710  0.00  0.00     0.001 A 
ATOM     17  C   UNL d   1      -4.943   7.999   1.081  0.00  0.00     0.009 A 
ENDBRANCH  11  12
ENDBRANCH  10  11
ENDBRANCH   7  10
ENDBRANCH   5   6
ENDBRANCH   4   5
ENDBRANCH   3   4
ENDBRANCH   2   3
ENDBRANCH   1   2
BRANCH   1  18
ATOM     18  C   UNL d   1       3.568   0.806   0.042  0.00  0.00     0.241 C 
ATOM     19  N   UNL d   1       3.499   0.936   1.419  0.00  0.00    -0.345 N 
ATOM     20  H   UNL d   1       2.616   0.748   1.880  0.00  0.00     0.163 HD
ATOM     21  O   UNL d   1       4.633   0.706  -0.556  0.00  0.00    -0.271 OA
BRANCH  19  22
ATOM     22  C   UNL d   1       4.693   0.983   2.271  0.00  0.00     0.188 C 
BRANCH  22  23
ATOM     23  C   UNL d   1       4.537   2.000   3.423  0.00  0.00     0.074 C 
BRANCH  23  24
ATOM     24  C   UNL d   1       3.280   1.888   4.262  0.00  0.00    -0.056 A 
ATOM     25  C   UNL d   1       3.051   0.787   5.096  0.00  0.00     0.007 A 
ATOM     26  C   UNL d   1       1.888   0.711   5.867  0.00  0.00     0.001 A 
ATOM     27  C   UNL d   1       0.948   1.739   5.826  0.00  0.00     0.000 A 
ATOM     28  C   UNL d   1       1.177   2.853   5.024  0.00  0.00     0.001 A 
ATOM     29  C   UNL d   1       2.337   2.929   4.253  0.00  0.00     0.007 A 
ENDBRANCH  23  24
ENDBRANCH  22  23
BRANCH  22  30
ATOM     30  C   UNL d   1       5.195  -0.381   2.773  0.00  0.00     0.282 C 
ATOM     31  O   UNL d   1       6.083  -0.502   3.611  0.00  0.00    -0.263 OA
BRANCH  30  32
ATOM     32  O   UNL d   1       4.607  -1.419   2.116  0.00  0.00    -0.315 OA
BRANCH  32  33
ATOM     33  C   UNL d   1       5.252  -2.691   2.274  0.00  0.00     0.217 C 
BRANCH  33  34
ATOM     34  C   UNL d   1       4.228  -3.791   2.408  0.00  0.00    -0.034 A 
ATOM     35  C   UNL d   1       4.378  -4.990   1.695  0.00  0.00     0.009 A 
ATOM     36  C   UNL d   1       3.474  -6.040   1.871  0.00  0.00     0.001 A 
ATOM     37  C   UNL d   1       2.416  -5.905   2.767  0.00  0.00     0.000 A 
ATOM     38  C   UNL d   1       2.261  -4.723   3.488  0.00  0.00     0.001 A 
ATOM     39  C   UNL d   1       3.164  -3.673   3.314  0.00  0.00     0.009 A 
ENDBRANCH  33  34
ENDBRANCH  32  33
ENDBRANCH  30  32
ENDBRANCH  22  30
ENDBRANCH  19  22
ENDBRANCH   1  18
BRANCH   1  40
ATOM     40  N   UNL d   1       2.180   0.057  -1.881  0.00  0.00    -0.324 N 
ATOM     41  C   UNL d   1       1.672   0.405  -3.097  0.00  0.00     0.361 C 
ATOM     42  O   UNL d   1       1.473   1.536  -3.507  0.00  0.00    -0.238 OA
ATOM     43  H   UNL d   1       2.329  -0.936  -1.771  0.00  0.00     0.165 HD
BRANCH  41  44
ATOM     44  O   UNL d   1       1.353  -0.728  -3.771  0.00  0.00    -0.299 OA
BRANCH  44  45
ATOM     45  C   UNL d   1       0.582  -0.532  -4.971  0.00  0.00     0.219 C 
BRANCH  45  46
ATOM     46  C   UNL d   1      -0.912  -0.565  -4.713  0.00  0.00    -0.034 A 
ATOM     47  C   UNL d   1      -1.782   0.145  -5.557  0.00  0.00     0.009 A 
ATOM     48  C   UNL d   1      -3.164   0.094  -5.368  0.00  0.00     0.001 A 
ATOM     49  C   UNL d   1      -3.700  -0.677  -4.338  0.00  0.00     0.000 A 
ATOM     50  C   UNL d   1      -2.850  -1.398  -3.499  0.00  0.00     0.001 A 
ATOM     51  C   UNL d   1      -1.467  -1.347  -3.689  0.00  0.00     0.009 A 
ENDBRANCH  45  46
ENDBRANCH  44  45
ENDBRANCH  41  44
ENDBRANCH   1  40
TORSDOF 20
