REMARK  6 active torsions:
REMARK  status: ('A' for Active; 'I' for Inactive)
REMARK    1  A    between atoms: C_8  and  N_3 
REMARK    2  A    between atoms: C_9  and  C_5 
REMARK    3  A    between atoms: N_11  and  C_8 
REMARK    4  A    between atoms: C_19  and  N_11 
REMARK    5  A    between atoms: C_21  and  C_19 
REMARK    6  A    between atoms: C_20  and  C_21 
ROOT
ATOM      1  C   UNL d   1       0.756  -0.846  -0.043  0.00  0.00     0.153 A 
ATOM      2  N   UNL d   1       0.824   0.546  -0.012  0.00  0.00    -0.330 N 
ATOM      3  N   UNL d   1       1.784  -1.625  -0.118  0.00  0.00    -0.313 N 
ATOM      4  HN  UNL d   1       2.699  -1.178  -0.182  1.00  0.00     0.170 HD
ATOM      5  C   UNL d   1      -0.418   1.186   0.031  0.00  0.00     0.052 A 
ATOM      6  S   UNL d   1      -0.965  -1.314   0.070  0.00  0.00    -0.063 SA
ATOM      7  C   UNL d   1      -1.476   0.358   0.061  0.00  0.00     0.083 A 
ATOM      8  C   UNL d   1       2.099   1.241   0.022  0.00  0.00     0.158 C 
ENDROOT
BRANCH   3   9
ATOM      9  C   UNL d   1       1.763  -2.989  -0.120  0.00  0.00     0.173 C 
ATOM     10  S   UNL d   1       0.930  -4.046  -1.121  0.00  0.00    -0.041 SA
BRANCH   9  11
ATOM     11  N   UNL d   1       2.693  -3.561   0.719  0.00  0.00    -0.367 N 
ATOM     12  H   UNL d   1       2.711  -4.572   0.716  0.00  0.00     0.161 HD
BRANCH  11  13
ATOM     13  C   UNL d   1       3.365  -2.833   1.782  0.00  0.00     0.126 C 
BRANCH  13  14
ATOM     14  C   UNL d   1       4.495  -3.609   2.455  0.00  0.00     0.058 C 
BRANCH  14  15
ATOM     15  C   UNL d   1       5.059  -2.789   3.592  0.00  0.00    -0.057 A 
ATOM     16  C   UNL d   1       4.506  -2.885   4.877  0.00  0.00     0.007 A 
ATOM     17  C   UNL d   1       4.953  -2.051   5.903  0.00  0.00     0.001 A 
ATOM     18  C   UNL d   1       5.955  -1.115   5.656  0.00  0.00     0.000 A 
ATOM     19  C   UNL d   1       6.516  -1.016   4.384  0.00  0.00     0.001 A 
ATOM     20  C   UNL d   1       6.071  -1.849   3.356  0.00  0.00     0.007 A 
ENDBRANCH  14  15
ENDBRANCH  13  14
ENDBRANCH  11  13
ENDBRANCH   9  11
ENDBRANCH   3   9
BRANCH   5  21
ATOM     21  C   UNL d   1      -0.539   2.645   0.056  0.00  0.00    -0.009 A 
ATOM     22  C   UNL d   1      -0.716   3.319   1.273  0.00  0.00     0.015 A 
ATOM     23  C   UNL d   1      -0.800   4.713   1.306  0.00  0.00     0.024 A 
ATOM     24  C   UNL d   1      -0.712   5.440   0.119  0.00  0.00     0.034 A 
ATOM     25  C   UNL d   1      -0.548   4.783  -1.099  0.00  0.00     0.024 A 
ATOM     26 CL   UNL d   1      -0.798   7.157   0.162  0.00  0.00    -0.084 Cl
ATOM     27  C   UNL d   1      -0.464   3.388  -1.133  0.00  0.00     0.015 A 
ENDBRANCH   5  21
TORSDOF 6
