REMARK  3 active torsions:
REMARK  status: ('A' for Active; 'I' for Inactive)
REMARK    1  A    between atoms: N_9  and  C_6 
REMARK    2  A    between atoms: C_10  and  N_9 
REMARK    3  A    between atoms: C_12  and  C_10 
ROOT
ATOM      1  N   UNL d   1       1.854  -1.249   1.505  0.00  0.00    -0.408 N 
ATOM      2  C   UNL d   1       1.630  -2.635   1.905  0.00  0.00     0.081 C 
ATOM      3  C   UNL d   1       0.679  -0.762   0.797  0.00  0.00     0.081 C 
ATOM      4  C   UNL d   1       0.464  -2.633   2.928  0.00  0.00     0.060 C 
ATOM      5  C   UNL d   1       0.109  -0.259   2.227  0.00  0.00     0.060 C 
ATOM      6  C   UNL d   1       0.241  -1.209   3.470  0.00  0.00     0.224 C 
ATOM      7  C   UNL d   1       0.704  -2.022  -0.163  0.00  0.00     0.027 C 
ATOM      8  C   UNL d   1       1.193  -3.246   0.598  0.00  0.00     0.027 C 
ATOM      9  C   UNL d   1       3.150  -0.897   0.971  0.00  0.00     0.144 C 
ENDROOT
BRANCH   6  10
ATOM     10  N   UNL d   1       1.337  -0.946   4.421  0.00  0.00     0.092 N 
ATOM     11  H   UNL d   1       1.282  -1.590   5.207  0.00  0.00     0.316 HD
BRANCH  10  12
ATOM     12  C   UNL d   1       1.469   0.413   4.920  0.00  0.00     0.308 C 
BRANCH  12  13
ATOM     13  C   UNL d   1       2.713   0.576   5.770  0.00  0.00    -0.030 A 
ATOM     14  C   UNL d   1       3.907  -0.107   5.471  0.00  0.00     0.009 A 
ATOM     15  C   UNL d   1       5.062   0.098   6.221  0.00  0.00     0.001 A 
ATOM     16  C   UNL d   1       5.053   1.008   7.277  0.00  0.00     0.000 A 
ATOM     17  C   UNL d   1       3.887   1.712   7.575  0.00  0.00     0.001 A 
ATOM     18  C   UNL d   1       2.728   1.500   6.825  0.00  0.00     0.009 A 
ENDBRANCH  12  13
ENDBRANCH  10  12
ENDBRANCH   6  10
TORSDOF 3
