REMARK  6 active torsions:
REMARK  status: ('A' for Active; 'I' for Inactive)
REMARK    1  A    between atoms: C_9  and  C_3 
REMARK    2  A    between atoms: C_8  and  C_7 
REMARK    3  A    between atoms: C_14  and  C_9 
REMARK    4  A    between atoms: O_13  and  C_15 
REMARK    5  A    between atoms: C_16  and  O_13 
REMARK    6  A    between atoms: C_24  and  C_16 
ROOT
ATOM      1  N   UNL d   1       1.219  -1.038  -0.539  0.00  0.00    -0.297 N 
ATOM      2  HN  UNL d   1       1.743  -1.900  -0.691  1.00  0.00     0.187 HD
ATOM      3  C   UNL d   1      -0.270   1.362  -0.124  0.00  0.00     0.018 A 
ATOM      4  N   UNL d   1       1.035  -0.124  -1.537  0.00  0.00    -0.266 N 
ATOM      5  C   UNL d   1       0.366   1.071  -1.435  0.00  0.00     0.266 A 
ATOM      6  C   UNL d   1      -0.114   0.464   0.861  0.00  0.00     0.045 A 
ATOM      7  C   UNL d   1       0.691  -0.752   0.615  0.00  0.00     0.059 A 
ATOM      8  O   UNL d   1       0.281   1.855  -2.375  0.00  0.00    -0.266 OA
ATOM      9  H   UNL d   1       1.468  -0.340  -2.429  0.00  0.00     0.190 HD
ENDROOT
BRANCH   3  10
ATOM     10  C   UNL d   1      -1.062   2.648  -0.031  0.00  0.00     0.083 C 
BRANCH  10  11
ATOM     11  C   UNL d   1      -1.714   2.874   1.321  0.00  0.00    -0.054 A 
ATOM     12  C   UNL d   1      -1.015   3.534   2.339  0.00  0.00     0.010 A 
ATOM     13  C   UNL d   1      -1.512   3.548   3.644  0.00  0.00     0.037 A 
ATOM     14  C   UNL d   1      -2.703   2.885   3.958  0.00  0.00     0.069 A 
ATOM     15  C   UNL d   1      -3.450   2.308   2.931  0.00  0.00     0.037 A 
ATOM     16  C   UNL d   1      -2.958   2.296   1.620  0.00  0.00     0.010 A 
BRANCH  14  17
ATOM     17  O   UNL d   1      -3.201   2.730   5.234  0.00  0.00    -0.347 OA
BRANCH  17  18
ATOM     18  C   UNL d   1      -2.181   2.723   6.239  0.00  0.00     0.214 C 
BRANCH  18  19
ATOM     19  C   UNL d   1      -2.625   2.220   7.596  0.00  0.00    -0.034 A 
ATOM     20  C   UNL d   1      -3.669   1.304   7.769  0.00  0.00     0.009 A 
ATOM     21  C   UNL d   1      -3.933   0.769   9.035  0.00  0.00     0.001 A 
ATOM     22  C   UNL d   1      -3.156   1.137  10.134  0.00  0.00     0.000 A 
ATOM     23  C   UNL d   1      -2.125   2.055   9.977  0.00  0.00     0.001 A 
ATOM     24  C   UNL d   1      -1.861   2.592   8.717  0.00  0.00     0.009 A 
ENDBRANCH  18  19
ENDBRANCH  17  18
ENDBRANCH  14  17
ENDBRANCH  10  11
ENDBRANCH   3  10
BRANCH   7  25
ATOM     25  C   UNL d   1       0.851  -1.686   1.767  0.00  0.00    -0.008 A 
ATOM     26  C   UNL d   1       0.940  -3.061   1.521  0.00  0.00     0.014 A 
ATOM     27  C   UNL d   1       1.060  -3.959   2.586  0.00  0.00     0.007 A 
ATOM     28  C   UNL d   1       1.102  -3.495   3.908  0.00  0.00    -0.062 A 
ATOM     29  C   UNL d   1       1.037  -2.120   4.149  0.00  0.00     0.007 A 
ATOM     30  C   UNL d   1       1.234  -4.468   5.042  0.00  0.00     0.048 C 
ATOM     31  C   UNL d   1       0.921  -1.220   3.087  0.00  0.00     0.014 A 
ENDBRANCH   7  25
TORSDOF 6
