REMARK  7 active torsions:
REMARK  status: ('A' for Active; 'I' for Inactive)
REMARK    1  A    between atoms: C_2  and  C_1 
REMARK       I    between atoms: N_8  and  C_2 
REMARK    2  A    between atoms: O_18  and  C_3 
REMARK    3  A    between atoms: C_4  and  C_5 
REMARK       I    between atoms: C_5  and  N_9 
REMARK    4  A    between atoms: O_21  and  C_6 
REMARK    5  A    between atoms: O_20  and  C_7 
REMARK    6  A    between atoms: N_9  and  N_8 
REMARK    7  A    between atoms: N_19  and  C_12 
ROOT
ATOM      1  C   UNL d   1       0.744   5.011  -0.250  0.00  0.00     0.270 C 
ATOM      2  N   UNL d   1       0.833   4.237   0.892  0.00  0.00    -0.263 N 
ATOM      3  O   UNL d   1       1.121   4.622  -1.351  0.00  0.00    -0.266 OA
ATOM      4  H   UNL d   1       0.745   4.622   1.829  0.00  0.00     0.190 HD
ENDROOT
BRANCH   2   5
ATOM      5  N   UNL d   1       1.474   2.992   0.789  0.00  0.00    -0.263 N 
ATOM      6  C   UNL d   1       1.964   2.412   1.944  0.00  0.00     0.272 C 
ATOM      7  O   UNL d   1       1.875   3.012   3.025  0.00  0.00    -0.266 OA
ATOM      8  H   UNL d   1       1.610   2.638  -0.159  0.00  0.00     0.190 HD
BRANCH   6   9
ATOM      9  C   UNL d   1       2.555   1.033   1.875  0.00  0.00     0.056 A 
ATOM     10  C   UNL d   1       3.174   0.481   3.021  0.00  0.00     0.021 A 
ATOM     11  C   UNL d   1       3.645  -0.840   2.977  0.00  0.00     0.026 A 
ATOM     12  C   UNL d   1       3.465  -1.629   1.843  0.00  0.00     0.026 A 
ATOM     13  C   UNL d   1       2.851  -1.083   0.723  0.00  0.00     0.035 A 
ATOM     14  C   UNL d   1       2.396   0.238   0.727  0.00  0.00     0.042 A 
ATOM     15 CL   UNL d   1       2.641  -2.055  -0.684  0.00  0.00    -0.084 Cl
BRANCH  10  16
ATOM     16  N   UNL d   1       3.543   1.264   4.134  0.00  0.00    -0.302 NA
ATOM     17  H   UNL d   1       2.980   2.121   4.200  0.00  0.00     0.124 HD
ATOM     18  H   UNL d   1       3.570   0.760   5.014  0.00  0.00     0.124 HD
ENDBRANCH  10  16
ENDBRANCH   6   9
ENDBRANCH   2   5
BRANCH   1  19
ATOM     19  C   UNL d   1       0.140   6.359  -0.097  0.00  0.00     0.039 A 
ATOM     20  C   UNL d   1       0.632   7.389  -0.897  0.00  0.00     0.057 A 
ATOM     21  C   UNL d   1       0.053   8.671  -0.859  0.00  0.00     0.105 A 
ATOM     22  C   UNL d   1      -1.044   8.931  -0.010  0.00  0.00     0.135 A 
ATOM     23  C   UNL d   1      -1.505   7.887   0.835  0.00  0.00     0.105 A 
ATOM     24  C   UNL d   1      -0.913   6.614   0.771  0.00  0.00     0.057 A 
BRANCH  21  25
ATOM     25  O   UNL d   1       0.610   9.700  -1.583  0.00  0.00    -0.353 OA
ATOM     26  C   UNL d   1       1.183   9.341  -2.839  0.00  0.00     0.210 C 
ENDBRANCH  21  25
BRANCH  22  27
ATOM     27  O   UNL d   1      -1.719  10.114   0.085  0.00  0.00    -0.351 OA
ATOM     28  C   UNL d   1      -1.535  11.152  -0.868  0.00  0.00     0.210 C 
ENDBRANCH  22  27
BRANCH  23  29
ATOM     29  O   UNL d   1      -2.501   7.913   1.781  0.00  0.00    -0.353 OA
ATOM     30  C   UNL d   1      -3.380   9.021   1.883  0.00  0.00     0.210 C 
ENDBRANCH  23  29
ENDBRANCH   1  19
TORSDOF 7
