REMARK  3 active torsions:
REMARK  status: ('A' for Active; 'I' for Inactive)
REMARK    1  A    between atoms: C_4  and  C_1 
REMARK    2  A    between atoms: N_7  and  C_4 
REMARK    3  A    between atoms: C_8  and  N_7 
ROOT
ATOM      1  C   UNL d   1       3.592   0.125   0.182  0.00  0.00     0.119 C 
ATOM      2  S   UNL d   1       4.445  -0.435   1.515  0.00  0.00    -0.059 SA
ENDROOT
BRANCH   1   3
ATOM      3  C   UNL d   1       2.141   0.108   0.196  0.00  0.00     0.050 A 
ATOM      4  S   UNL d   1       1.304  -1.381   0.312  0.00  0.00    -0.086 SA
ATOM      5  C   UNL d   1      -0.234  -0.631   0.198  0.00  0.00     0.016 A 
ATOM      6  C   UNL d   1      -1.490  -1.269   0.212  0.00  0.00     0.019 A 
ATOM      7  C   UNL d   1      -0.118   0.755   0.080  0.00  0.00    -0.012 A 
ATOM      8  C   UNL d   1      -2.647  -0.497   0.088  0.00  0.00     0.001 A 
ATOM      9  C   UNL d   1      -2.559   0.881  -0.044  0.00  0.00     0.001 A 
ATOM     10  C   UNL d   1      -1.313   1.510  -0.045  0.00  0.00     0.013 A 
ATOM     11  C   UNL d   1       1.265   1.185   0.113  0.00  0.00    -0.030 A 
ATOM     12  C   UNL d   1       1.663   2.629   0.051  0.00  0.00     0.050 C 
ENDBRANCH   1   3
BRANCH   1  13
ATOM     13  N   UNL d   1       4.301   0.753  -0.819  0.00  0.00    -0.345 N 
ATOM     14  H   UNL d   1       5.245   1.016  -0.544  0.00  0.00     0.167 HD
BRANCH  13  15
ATOM     15  C   UNL d   1       3.899   1.198  -2.099  0.00  0.00     0.055 A 
ATOM     16  C   UNL d   1       4.617   2.240  -2.712  0.00  0.00     0.060 A 
ATOM     17 CL   UNL d   1       5.955   2.992  -1.912  0.00  0.00    -0.082 Cl
ATOM     18  C   UNL d   1       4.238   2.733  -3.963  0.00  0.00     0.026 A 
ATOM     19  C   UNL d   1       3.155   2.167  -4.633  0.00  0.00     0.002 A 
ATOM     20  C   UNL d   1       2.463   1.105  -4.056  0.00  0.00     0.002 A 
ATOM     21  C   UNL d   1       2.835   0.619  -2.799  0.00  0.00     0.031 A 
ENDBRANCH  13  15
ENDBRANCH   1  13
TORSDOF 3
