REMARK  6 active torsions:
REMARK  status: ('A' for Active; 'I' for Inactive)
REMARK    1  A    between atoms: N_4  and  N_1 
REMARK    2  A    between atoms: C_7  and  N_4 
REMARK    3  A    between atoms: N_13  and  C_7 
REMARK    4  A    between atoms: C_16  and  N_13 
REMARK    5  A    between atoms: C_14  and  C_15 
REMARK    6  A    between atoms: C_15  and  C_16 
ROOT
ATOM      1  C   UNL d   1      -1.167   1.150   3.299  0.00  0.00     0.182 C 
ATOM      2  S   UNL d   1      -1.010   0.068   2.038  0.00  0.00    -0.040 SA
ENDROOT
BRANCH   1   3
ATOM      3  N   UNL d   1      -0.281   2.152   3.634  0.00  0.00    -0.293 N 
ATOM      4  H   UNL d   1      -0.454   2.692   4.476  0.00  0.00     0.183 HD
BRANCH   3   5
ATOM      5  N   UNL d   1       0.627   2.717   2.701  0.00  0.00    -0.199 NA
ATOM      6  C   UNL d   1       0.799   4.180   2.905  0.00  0.00     0.151 C 
ATOM      7  S   UNL d   1       1.649   4.352   4.537  0.00  0.00    -0.144 SA
ATOM      8  C   UNL d   1       1.746   4.621   1.773  0.00  0.00     0.108 C 
ATOM      9  C   UNL d   1       2.478   2.735   4.307  0.00  0.00     0.108 C 
ATOM     10  C   UNL d   1       2.027   2.271   2.903  0.00  0.00     0.151 C 
ATOM     11  S   UNL d   1       2.945   3.247   1.631  0.00  0.00    -0.144 SA
ENDBRANCH   3   5
ENDBRANCH   1   3
BRANCH   1  12
ATOM     12  N   UNL d   1      -2.279   1.060   4.102  0.00  0.00    -0.366 N 
ATOM     13  H   UNL d   1      -2.963   0.387   3.775  0.00  0.00     0.161 HD
BRANCH  12  14
ATOM     14  C   UNL d   1      -2.708   2.094   5.034  0.00  0.00     0.128 C 
BRANCH  14  15
ATOM     15  C   UNL d   1      -4.073   1.859   5.668  0.00  0.00     0.076 C 
BRANCH  15  16
ATOM     16  C   UNL d   1      -4.335   2.971   6.654  0.00  0.00     0.010 A 
ATOM     17  N   UNL d   1      -4.337   4.233   6.157  0.00  0.00    -0.369 N 
ATOM     18  C   UNL d   1      -4.475   5.252   7.032  0.00  0.00     0.088 A 
ATOM     19  HN  UNL d   1      -4.237   4.406   5.157  1.00  0.00     0.165 HD
ATOM     20  C   UNL d   1      -4.620   5.076   8.395  0.00  0.00     0.017 A 
ATOM     21  C   UNL d   1      -4.634   3.776   8.890  0.00  0.00     0.003 A 
ATOM     22  C   UNL d   1      -4.491   2.704   8.012  0.00  0.00     0.025 A 
ENDBRANCH  15  16
ENDBRANCH  14  15
ENDBRANCH  12  14
ENDBRANCH   1  12
TORSDOF 6
