REMARK  2 active torsions:
REMARK  status: ('A' for Active; 'I' for Inactive)
REMARK    1  A    between atoms: N_9  and  C_3 
REMARK    2  A    between atoms: C_7  and  C_4 
ROOT
ATOM      1  N   UNL d   1       0.527   1.472   0.200  0.00  0.00    -0.350 N 
ATOM      2  HN  UNL d   1      -0.169   2.205   0.333  1.00  0.00     0.166 HD
ATOM      3  C   UNL d   1       2.470  -0.531  -0.095  0.00  0.00     0.045 A 
ATOM      4  C   UNL d   1       1.843   1.794   0.128  0.00  0.00     0.119 A 
ATOM      5  C   UNL d   1       0.138   0.182   0.097  0.00  0.00     0.067 A 
ATOM      6  C   UNL d   1       1.079  -0.861  -0.070  0.00  0.00     0.019 A 
ATOM      7  C   UNL d   1       2.825   0.817   0.005  0.00  0.00     0.064 A 
ATOM      8  C   UNL d   1      -1.226  -0.154   0.136  0.00  0.00     0.061 A 
ATOM      9 CL   UNL d   1      -2.436   1.075   0.334  0.00  0.00    -0.082 Cl
ATOM     10  C   UNL d   1       0.592  -2.180  -0.261  0.00  0.00     0.016 A 
ATOM     11  C   UNL d   1      -0.765  -2.487  -0.211  0.00  0.00     0.003 A 
ATOM     12  C   UNL d   1      -1.679  -1.468  -0.005  0.00  0.00     0.026 A 
ENDROOT
BRANCH   3  13
ATOM     13  N   UNL d   1       3.443  -1.519  -0.287  0.00  0.00    -0.376 N 
ATOM     14  C   UNL d   1       4.736  -1.175  -0.915  0.00  0.00     0.149 C 
ATOM     15  C   UNL d   1       5.368  -2.463  -1.472  0.00  0.00     0.187 C 
ATOM     16  O   UNL d   1       5.533  -3.462  -0.448  0.00  0.00    -0.388 OA
ATOM     17  C   UNL d   1       4.267  -3.772   0.166  0.00  0.00     0.187 C 
ATOM     18  C   UNL d   1       3.633  -2.515   0.795  0.00  0.00     0.149 C 
ENDBRANCH   3  13
BRANCH   4  19
ATOM     19  C   UNL d   1       2.261   3.257   0.157  0.00  0.00     0.432 C 
ATOM     20  F   UNL d   1       1.228   4.144   0.122  0.00  0.00    -0.165 F 
ATOM     21  F   UNL d   1       2.986   3.570   1.271  0.00  0.00    -0.165 F 
ATOM     22  F   UNL d   1       3.065   3.586  -0.899  0.00  0.00    -0.165 F 
ENDBRANCH   4  19
TORSDOF 2
