REMARK  6 active torsions:
REMARK  status: ('A' for Active; 'I' for Inactive)
REMARK    1  A    between atoms: C_2  and  C_1 
REMARK    2  A    between atoms: C_3  and  C_2 
REMARK    3  A    between atoms: C_4  and  C_3 
REMARK    4  A    between atoms: N_7  and  C_4 
REMARK    5  A    between atoms: C_9  and  C_4 
REMARK    6  A    between atoms: C_10  and  N_7 
ROOT
ATOM      1  C   UNL d   1      -1.716   0.087  -2.084  0.00  0.00     0.100 C 
ENDROOT
BRANCH   1   2
ATOM      2  C   UNL d   1      -0.802   1.288  -2.359  0.00  0.00     0.103 C 
BRANCH   2   3
ATOM      3  C   UNL d   1       0.079   1.624  -1.174  0.00  0.00     0.133 C 
ATOM      4  O   UNL d   1       1.261   1.304  -1.130  0.00  0.00    -0.298 OA
BRANCH   3   5
ATOM      5  C   UNL d   1      -0.543   2.422  -0.073  0.00  0.00     0.055 A 
ATOM      6  C   UNL d   1       0.248   3.487   0.651  0.00  0.00     0.013 A 
ATOM      7  C   UNL d   1      -0.102   2.210   1.358  0.00  0.00     0.013 A 
ENDBRANCH   3   5
ENDBRANCH   2   3
ENDBRANCH   1   2
BRANCH   1   8
ATOM      8  N   UNL d   1      -2.795   0.460  -1.143  0.00  0.00    -0.284 NA
ATOM      9  H   UNL d   1      -3.710   0.430  -1.598  0.00  0.00     0.128 HD
BRANCH   8  10
ATOM     10  C   UNL d   1      -2.896  -0.263   0.060  0.00  0.00     0.008 C 
ATOM     11  C   UNL d   1      -3.437   0.385   1.176  0.00  0.00     0.024 C 
ATOM     12  C   UNL d   1      -3.519  -0.260   2.415  0.00  0.00     0.008 C 
ATOM     13  C   UNL d   1      -3.104  -1.588   2.549  0.00  0.00    -0.062 C 
ATOM     14  C   UNL d   1      -2.671  -2.272   1.413  0.00  0.00     0.008 C 
ATOM     15  C   UNL d   1      -3.057  -2.240   3.897  0.00  0.00     0.048 C 
ATOM     16  C   UNL d   1      -2.596  -1.622   0.178  0.00  0.00     0.024 C 
ENDBRANCH   8  10
ENDBRANCH   1   8
BRANCH   1  17
ATOM     17  C   UNL d   1      -2.358  -0.433  -3.369  0.00  0.00    -0.040 A 
ATOM     18  C   UNL d   1      -2.243  -1.790  -3.714  0.00  0.00     0.009 A 
ATOM     19  C   UNL d   1      -2.858  -2.293  -4.862  0.00  0.00     0.001 A 
ATOM     20  C   UNL d   1      -3.598  -1.445  -5.685  0.00  0.00     0.000 A 
ATOM     21  C   UNL d   1      -3.723  -0.097  -5.359  0.00  0.00     0.001 A 
ATOM     22  C   UNL d   1      -3.111   0.407  -4.211  0.00  0.00     0.009 A 
ENDBRANCH   1  17
TORSDOF 6
