REMARK  3 active torsions:
REMARK  status: ('A' for Active; 'I' for Inactive)
REMARK    1  A    between atoms: N_2  and  C_1 
REMARK    2  A    between atoms: N_3  and  C_1 
REMARK    3  A    between atoms: C_4  and  N_3 
ROOT
ATOM      1  C   UNL d   1       0.984  -0.217  -0.568  0.00  0.00     0.170 C 
ATOM      2  S   UNL d   1       2.408  -0.974  -1.016  0.00  0.00    -0.041 SA
ENDROOT
BRANCH   1   3
ATOM      3  N   UNL d   1       0.615   1.021  -1.029  0.00  0.00    -0.358 N 
ATOM      4  C   UNL d   1       0.333   2.120  -0.107  0.00  0.00     0.125 C 
ATOM      5  C   UNL d   1       1.023   3.404  -0.556  0.00  0.00     0.024 C 
ATOM      6  C   UNL d   1       0.560   3.764  -1.973  0.00  0.00    -0.015 C 
ATOM      7  C   UNL d   1       0.957   2.629  -2.926  0.00  0.00     0.024 C 
ATOM      8  C   UNL d   1       1.131   5.105  -2.426  0.00  0.00     0.010 C 
ATOM      9  C   UNL d   1       0.419   1.276  -2.459  0.00  0.00     0.125 C 
ENDBRANCH   1   3
BRANCH   1  10
ATOM     10  N   UNL d   1       0.180  -0.854   0.324  0.00  0.00    -0.362 N 
ATOM     11  H   UNL d   1       0.557  -1.765   0.573  0.00  0.00     0.162 HD
BRANCH  10  12
ATOM     12  C   UNL d   1      -1.247  -0.686   0.547  0.00  0.00     0.088 C 
ATOM     13  C   UNL d   1      -2.163  -1.351  -0.515  0.00  0.00     0.009 C 
ATOM     14  C   UNL d   1      -3.497  -1.390   0.240  0.00  0.00     0.011 C 
ATOM     15  C   UNL d   1      -1.867  -2.857  -0.660  0.00  0.00     0.007 C 
ATOM     16  C   UNL d   1      -2.924  -2.210   1.397  0.00  0.00    -0.012 C 
ATOM     17  C   UNL d   1      -1.736  -1.343   1.858  0.00  0.00     0.030 C 
ATOM     18  C   UNL d   1      -2.380  -3.445   0.662  0.00  0.00     0.005 C 
ENDBRANCH  10  12
ENDBRANCH   1  10
TORSDOF 3
