REMARK  5 active torsions:
REMARK  status: ('A' for Active; 'I' for Inactive)
REMARK    1  A    between atoms: C_6  and  N_1 
REMARK    2  A    between atoms: N_9  and  C_5 
REMARK       I    between atoms: C_10  and  N_9 
REMARK    3  A    between atoms: C_15  and  C_10 
REMARK    4  A    between atoms: C_16  and  C_19 
REMARK    5  A    between atoms: O_18  and  C_19 
ROOT
ATOM      1  N   UNL d   1      -1.459  -3.393  -0.005  0.00  0.00    -0.282 N 
ATOM      2  C   UNL d   1      -1.822  -4.718   0.284  0.00  0.00     0.330 A 
ATOM      3  N   UNL d   1      -3.125  -5.116   0.048  0.00  0.00    -0.294 N 
ATOM      4  HN  UNL d   1      -3.416  -6.077   0.227  1.00  0.00     0.172 HD
ATOM      5  C   UNL d   1      -3.964  -4.249  -0.404  0.00  0.00     0.113 A 
ATOM      6  C   UNL d   1      -2.406  -2.479  -0.409  0.00  0.00     0.102 A 
ATOM      7  C   UNL d   1      -3.670  -2.830  -0.623  0.00  0.00     0.066 A 
ATOM      8  O   UNL d   1      -1.001  -5.515   0.733  0.00  0.00    -0.246 OA
ENDROOT
BRANCH   5   9
ATOM      9  N   UNL d   1      -5.236  -4.700  -0.679  0.00  0.00    -0.309 N 
ATOM     10  C   UNL d   1      -6.208  -4.086  -1.458  0.00  0.00     0.257 C 
ATOM     11  O   UNL d   1      -6.033  -3.070  -2.129  0.00  0.00    -0.267 OA
ATOM     12  H   UNL d   1      -5.387  -5.661  -0.402  0.00  0.00     0.170 HD
BRANCH  10  13
ATOM     13  C   UNL d   1      -7.533  -4.747  -1.548  0.00  0.00     0.032 A 
ATOM     14  C   UNL d   1      -8.117  -5.412  -0.466  0.00  0.00     0.017 A 
ATOM     15  C   UNL d   1      -9.412  -5.926  -0.591  0.00  0.00     0.001 A 
ATOM     16  C   UNL d   1     -10.117  -5.780  -1.788  0.00  0.00     0.000 A 
ATOM     17  C   UNL d   1      -9.536  -5.120  -2.868  0.00  0.00     0.001 A 
ATOM     18  C   UNL d   1      -8.249  -4.601  -2.746  0.00  0.00     0.017 A 
ENDBRANCH  10  13
ENDBRANCH   5   9
BRANCH   1  19
ATOM     19  C   UNL d   1      -0.086  -2.981   0.304  0.00  0.00     0.232 C 
ATOM     20  O   UNL d   1       0.059  -1.551   0.158  0.00  0.00    -0.359 OA
ATOM     21  C   UNL d   1       0.912  -1.268  -0.966  0.00  0.00     0.147 C 
ATOM     22  C   UNL d   1       1.183  -2.584  -1.675  0.00  0.00     0.038 C 
ATOM     23  C   UNL d   1       0.988  -3.603  -0.583  0.00  0.00     0.057 C 
BRANCH  21  24
ATOM     24  C   UNL d   1       0.261  -0.231  -1.884  0.00  0.00     0.196 C 
BRANCH  24  25
ATOM     25  O   UNL d   1       1.102   0.067  -2.990  0.00  0.00    -0.398 OA
ATOM     26  H   UNL d   1       0.595   0.648  -3.583  0.00  0.00     0.209 HD
ENDBRANCH  24  25
ENDBRANCH  21  24
ENDBRANCH   1  19
TORSDOF 5
