REMARK  4 active torsions:
REMARK  status: ('A' for Active; 'I' for Inactive)
REMARK    1  A    between atoms: S_6  and  C_1 
REMARK    2  A    between atoms: C_12  and  S_6 
REMARK       I    between atoms: N_8  and  C_9 
REMARK    3  A    between atoms: C_10  and  N_8 
REMARK    4  A    between atoms: C_9  and  C_12 
ROOT
ATOM      1  C   UNL d   1       1.629   3.747  -0.117  0.00  0.00     0.182 C 
ENDROOT
BRANCH   1   2
ATOM      2  C   UNL d   1       1.437   5.205  -0.521  0.00  0.00     0.231 C 
ATOM      3  N   UNL d   1       0.816   5.971   0.452  0.00  0.00    -0.325 N 
ATOM      4  H   UNL d   1       0.624   5.538   1.350  0.00  0.00     0.169 HD
ATOM      5  O   UNL d   1       1.783   5.604  -1.631  0.00  0.00    -0.272 OA
BRANCH   3   6
ATOM      6  C   UNL d   1       0.422   7.333   0.369  0.00  0.00     0.056 A 
ATOM      7  C   UNL d   1      -0.182   7.928   1.494  0.00  0.00     0.060 A 
ATOM      8 CL   UNL d   1      -0.445   7.020   2.946  0.00  0.00    -0.082 Cl
ATOM      9  C   UNL d   1      -0.592   9.264   1.473  0.00  0.00     0.026 A 
ATOM     10  C   UNL d   1      -0.408  10.028   0.323  0.00  0.00     0.002 A 
ATOM     11  C   UNL d   1       0.182   9.452  -0.799  0.00  0.00     0.002 A 
ATOM     12  C   UNL d   1       0.594   8.114  -0.778  0.00  0.00     0.031 A 
ENDBRANCH   3   6
ENDBRANCH   1   2
BRANCH   1  13
ATOM     13  S   UNL d   1       3.399   3.310  -0.163  0.00  0.00    -0.117 SA
BRANCH  13  14
ATOM     14  C   UNL d   1       3.263   1.506  -0.298  0.00  0.00     0.048 A 
ATOM     15  C   UNL d   1       3.401   0.869  -1.558  0.00  0.00     0.074 A 
ATOM     16  C   UNL d   1       3.352  -0.533  -1.647  0.00  0.00     0.058 A 
ATOM     17 CL   UNL d   1       3.617   1.803  -3.011  0.00  0.00    -0.081 Cl
ATOM     18 CL   UNL d   1       3.515  -1.384  -3.146  0.00  0.00    -0.082 Cl
ATOM     19  C   UNL d   1       3.167  -1.308  -0.503  0.00  0.00     0.051 A 
ATOM     20  C   UNL d   1       3.025  -0.695   0.740  0.00  0.00     0.058 A 
ATOM     21  C   UNL d   1       3.073   0.706   0.855  0.00  0.00     0.074 A 
ATOM     22 CL   UNL d   1       2.793  -1.738   2.102  0.00  0.00    -0.082 Cl
ATOM     23 CL   UNL d   1       2.895   1.434   2.427  0.00  0.00    -0.081 Cl
ENDBRANCH  13  14
ENDBRANCH   1  13
TORSDOF 4
