REMARK  5 active torsions:
REMARK  status: ('A' for Active; 'I' for Inactive)
REMARK    1  A    between atoms: O_2  and  S_1 
REMARK    2  A    between atoms: C_9  and  S_1 
REMARK    3  A    between atoms: C_3  and  O_2 
REMARK    4  A    between atoms: C_10  and  C_4 
REMARK    5  A    between atoms: C_8  and  N_6 
ROOT
ATOM      1  C   UNL d   1      -4.816   4.818  -0.235  0.00  0.00     0.123 A 
ATOM      2  C   UNL d   1      -3.491   4.729   0.217  0.00  0.00     0.017 A 
ATOM      3  C   UNL d   1      -5.402   6.104  -0.271  0.00  0.00     0.071 A 
ATOM      4  C   UNL d   1      -4.694   7.257   0.085  0.00  0.00     0.050 A 
ATOM      5  C   UNL d   1      -2.778   5.896   0.568  0.00  0.00     0.039 A 
ATOM      6  C   UNL d   1      -3.373   7.148   0.481  0.00  0.00     0.036 A 
ATOM      7 CL   UNL d   1      -7.049   6.325  -0.767  0.00  0.00    -0.081 Cl
ATOM      8 CL   UNL d   1      -2.466   8.557   0.859  0.00  0.00    -0.084 Cl
ENDROOT
BRANCH   2   9
ATOM      9  C   UNL d   1      -2.684   3.527   0.458  0.00  0.00     0.102 C 
ATOM     10  N   UNL d   1      -2.204   2.618  -0.326  0.00  0.00    -0.365 N 
ATOM     11  HN  UNL d   1      -1.626   1.914   0.134  1.00  0.00     0.165 HD
BRANCH  10  12
ATOM     12  C   UNL d   1      -2.354   2.453  -1.702  0.00  0.00     0.038 A 
ATOM     13  C   UNL d   1      -2.743   3.462  -2.588  0.00  0.00     0.037 A 
ATOM     14  C   UNL d   1      -2.904   3.224  -3.961  0.00  0.00    -0.054 A 
ATOM     15  C   UNL d   1      -3.442   4.331  -4.823  0.00  0.00     0.049 C 
ATOM     16  C   UNL d   1      -2.529   1.981  -4.490  0.00  0.00    -0.056 A 
ATOM     17  C   UNL d   1      -2.124   0.965  -3.613  0.00  0.00     0.016 A 
ATOM     18  C   UNL d   1      -2.505   1.730  -5.970  0.00  0.00     0.049 C 
ATOM     19  C   UNL d   1      -2.047   1.185  -2.230  0.00  0.00    -0.035 A 
ATOM     20  C   UNL d   1      -1.588   0.041  -1.360  0.00  0.00     0.050 C 
ENDBRANCH  10  12
ENDBRANCH   2   9
BRANCH   1  21
ATOM     21  O   UNL d   1      -5.599   3.842  -0.803  0.00  0.00    -0.226 OA
BRANCH  21  22
ATOM     22  S   UNL d   1      -5.726   2.286  -0.356  0.00  0.00     0.303 S 
ATOM     23  O   UNL d   1      -4.964   2.059   0.849  0.00  0.00    -0.193 OA
ATOM     24  O   UNL d   1      -5.608   1.451  -1.530  0.00  0.00    -0.193 OA
BRANCH  22  25
ATOM     25  C   UNL d   1      -7.430   2.110   0.167  0.00  0.00     0.087 A 
ATOM     26  C   UNL d   1      -8.456   2.835  -0.449  0.00  0.00     0.029 A 
ATOM     27  C   UNL d   1      -9.754   2.737   0.060  0.00  0.00     0.044 A 
ATOM     28  C   UNL d   1     -10.009   1.923   1.161  0.00  0.00     0.116 A 
ATOM     29  C   UNL d   1      -8.995   1.179   1.757  0.00  0.00     0.044 A 
ATOM     30  F   UNL d   1     -11.249   1.857   1.663  0.00  0.00    -0.206 F 
ATOM     31  C   UNL d   1      -7.699   1.270   1.256  0.00  0.00     0.029 A 
ENDBRANCH  22  25
ENDBRANCH  21  22
ENDBRANCH   1  21
TORSDOF 5
