REMARK  2 active torsions:
REMARK  status: ('A' for Active; 'I' for Inactive)
REMARK       I    between atoms: N_3  and  C_1 
REMARK    1  A    between atoms: C_6  and  C_1 
REMARK    2  A    between atoms: C_5  and  N_4 
ROOT
ATOM      1  C   UNL d   1       0.965  -0.016   0.060  0.00  0.00     0.277 C 
ATOM      2  N   UNL d   1       0.288   0.239  -1.135  0.00  0.00    -0.343 N 
ATOM      3  N   UNL d   1      -0.513   1.221  -3.685  0.00  0.00    -0.377 N 
ATOM      4  C   UNL d   1       0.765  -0.399  -2.372  0.00  0.00     0.146 C 
ATOM      5  C   UNL d   1      -0.948   1.031  -1.275  0.00  0.00     0.146 C 
ATOM      6  C   UNL d   1       0.818   0.599  -3.549  0.00  0.00     0.143 C 
ATOM      7  C   UNL d   1      -0.904   1.982  -2.488  0.00  0.00     0.143 C 
ATOM      8  O   UNL d   1       2.061  -0.572   0.040  0.00  0.00    -0.265 OA
ENDROOT
BRANCH   3   9
ATOM      9  C   UNL d   1      -1.117   1.441  -4.917  0.00  0.00     0.044 A 
ATOM     10  C   UNL d   1      -1.297   0.409  -5.892  0.00  0.00     0.017 A 
ATOM     11  C   UNL d   1      -1.952   0.746  -7.103  0.00  0.00     0.046 A 
ATOM     12  C   UNL d   1      -0.912  -0.946  -5.719  0.00  0.00     0.018 A 
ATOM     13  C   UNL d   1      -2.131  -0.221  -8.084  0.00  0.00     0.054 A 
ATOM     14  N   UNL d   1      -2.442   1.964  -7.360  0.00  0.00    -0.365 N 
ATOM     15  C   UNL d   1      -1.686  -1.526  -7.907  0.00  0.00     0.036 A 
ATOM     16  C   UNL d   1      -1.080  -1.900  -6.721  0.00  0.00     0.025 A 
ATOM     17 CL   UNL d   1      -1.907  -2.688  -9.155  0.00  0.00    -0.084 Cl
ATOM     18  C   UNL d   1      -2.291   2.911  -6.420  0.00  0.00     0.090 A 
ATOM     19  HN  UNL d   1      -2.914   2.167  -8.241  1.00  0.00     0.165 HD
ATOM     20  C   UNL d   1      -1.641   2.705  -5.220  0.00  0.00     0.047 A 
ENDBRANCH   3   9
BRANCH   1  21
ATOM     21  C   UNL d   1       0.382   0.415   1.320  0.00  0.00     0.142 A 
ATOM     22  O   UNL d   1      -0.977   0.454   1.500  0.00  0.00    -0.317 OA
ATOM     23  C   UNL d   1      -1.206   0.883   2.767  0.00  0.00     0.143 A 
ATOM     24  C   UNL d   1      -0.020   1.095   3.425  0.00  0.00     0.027 A 
ATOM     25  C   UNL d   1       1.003   0.769   2.504  0.00  0.00     0.045 A 
ENDBRANCH   1  21
TORSDOF 2
