REMARK  8 active torsions:
REMARK  status: ('A' for Active; 'I' for Inactive)
REMARK    1  A    between atoms: S_16  and  C_2 
REMARK    2  A    between atoms: C_19  and  C_3 
REMARK    3  A    between atoms: C_10  and  C_11 
REMARK    4  A    between atoms: C_12  and  S_17 
REMARK    5  A    between atoms: C_25  and  S_16 
REMARK    6  A    between atoms: S_17  and  C_19 
REMARK    7  A    between atoms: C_18  and  C_25 
REMARK       I    between atoms: N_20  and  C_18 
REMARK    8  A    between atoms: C_28  and  N_20 
ROOT
ATOM      1  N   UNL d   1       1.057   0.083  -0.138  0.00  0.00    -0.319 N 
ATOM      2  C   UNL d   1       0.247   1.124  -0.518  0.00  0.00     0.162 C 
ATOM      3  C   UNL d   1       0.217  -1.001   0.039  0.00  0.00     0.109 C 
ATOM      4  N   UNL d   1      -1.007   0.769  -0.375  0.00  0.00    -0.278 N 
ATOM      5  HN  UNL d   1      -1.821   1.370  -0.505  1.00  0.00     0.189 HD
ATOM      6  N   UNL d   1      -1.028  -0.560  -0.017  0.00  0.00    -0.286 N 
ATOM      7  HN  UNL d   1      -1.865  -1.112   0.173  1.00  0.00     0.188 HD
ATOM      8  C   UNL d   1       2.487   0.105   0.021  0.00  0.00     0.159 C 
ENDROOT
BRANCH   3   9
ATOM      9  C   UNL d   1       0.622  -2.446   0.072  0.00  0.00     0.157 C 
BRANCH   9  10
ATOM     10  S   UNL d   1       1.470  -2.961   1.604  0.00  0.00    -0.121 SA
BRANCH  10  11
ATOM     11  C   UNL d   1       2.011  -4.633   1.165  0.00  0.00     0.015 A 
ATOM     12  C   UNL d   1       3.389  -4.817   1.003  0.00  0.00     0.053 A 
ATOM     13  C   UNL d   1       3.888  -6.092   0.744  0.00  0.00     0.118 A 
ATOM     14  N   UNL d   1       3.065  -7.166   0.635  0.00  0.00    -0.352 N 
ATOM     15  C   UNL d   1       1.747  -7.008   0.810  0.00  0.00     0.044 A 
ATOM     16  HN  UNL d   1       3.448  -8.087   0.422  1.00  0.00     0.166 HD
ATOM     17  C   UNL d   1       1.147  -5.756   1.086  0.00  0.00     0.007 A 
ATOM     18  C   UNL d   1       0.952  -8.143   0.729  0.00  0.00     0.030 A 
ATOM     19  C   UNL d   1      -0.255  -5.723   1.286  0.00  0.00     0.015 A 
ATOM     20  C   UNL d   1      -1.032  -6.877   1.195  0.00  0.00     0.001 A 
ATOM     21  C   UNL d   1      -0.426  -8.093   0.914  0.00  0.00     0.002 A 
BRANCH  13  22
ATOM     22  C   UNL d   1       5.391  -6.293   0.596  0.00  0.00     0.432 C 
ATOM     23  F   UNL d   1       5.771  -7.582   0.377  0.00  0.00    -0.165 F 
ATOM     24  F   UNL d   1       5.908  -5.572  -0.442  0.00  0.00    -0.165 F 
ATOM     25  F   UNL d   1       6.082  -5.884   1.700  0.00  0.00    -0.165 F 
ENDBRANCH  13  22
ENDBRANCH  10  11
ENDBRANCH   9  10
ENDBRANCH   3   9
BRANCH   2  26
ATOM     26  S   UNL d   1       0.828   2.613  -1.205  0.00  0.00    -0.083 SA
BRANCH  26  27
ATOM     27  C   UNL d   1      -0.737   3.503  -1.456  0.00  0.00     0.185 C 
BRANCH  27  28
ATOM     28  C   UNL d   1      -0.603   4.821  -2.215  0.00  0.00     0.227 C 
ATOM     29  N   UNL d   1       0.342   4.894  -3.220  0.00  0.00    -0.357 N 
ATOM     30  H   UNL d   1       0.890   4.068  -3.427  0.00  0.00     0.162 HD
ATOM     31  O   UNL d   1      -1.379   5.750  -1.990  0.00  0.00    -0.273 OA
BRANCH  29  32
ATOM     32  C   UNL d   1       0.420   6.046  -4.117  0.00  0.00     0.076 C 
ATOM     33  C   UNL d   1       1.849   6.272  -4.602  0.00  0.00     0.032 C 
ATOM     34  C   UNL d   1      -0.522   5.876  -5.310  0.00  0.00     0.032 C 
ENDBRANCH  29  32
ENDBRANCH  27  28
ENDBRANCH  26  27
ENDBRANCH   2  26
TORSDOF 8
