REMARK  4 active torsions:
REMARK  status: ('A' for Active; 'I' for Inactive)
REMARK    1  A    between atoms: C_3  and  S_1 
REMARK    2  A    between atoms: N_9  and  S_1 
REMARK       I    between atoms: C_2  and  N_4 
REMARK    3  A    between atoms: C_11  and  C_2 
REMARK    4  A    between atoms: N_4  and  C_8 
ROOT
ATOM      1  C   UNL d   1       0.930   1.532   0.658  0.00  0.00     0.076 A 
ATOM      2  C   UNL d   1       0.050   1.554   1.743  0.00  0.00     0.054 A 
ATOM      3  C   UNL d   1      -0.503   2.757   2.179  0.00  0.00     0.036 A 
ATOM      4  C   UNL d   1       1.284   2.701  -0.008  0.00  0.00     0.025 A 
ATOM      5  C   UNL d   1       0.741   3.912   0.428  0.00  0.00     0.004 A 
ATOM      6  C   UNL d   1      -0.146   3.938   1.514  0.00  0.00     0.029 A 
ENDROOT
BRANCH   3   7
ATOM      7  N   UNL d   1      -1.386   2.848   3.277  0.00  0.00    -0.327 N 
ATOM      8  C   UNL d   1      -1.886   1.791   4.026  0.00  0.00     0.226 C 
ATOM      9  O   UNL d   1      -1.723   0.602   3.771  0.00  0.00    -0.273 OA
ATOM     10  H   UNL d   1      -1.702   3.779   3.520  0.00  0.00     0.169 HD
BRANCH   8  11
ATOM     11  C   UNL d   1      -2.722   2.241   5.235  0.00  0.00     0.078 C 
ATOM     12  C   UNL d   1      -1.926   3.121   6.209  0.00  0.00     0.014 C 
ATOM     13  C   UNL d   1      -0.874   2.325   6.980  0.00  0.00     0.001 C 
ATOM     14  C   UNL d   1      -1.495   1.151   7.728  0.00  0.00     0.000 C 
ATOM     15  C   UNL d   1      -2.308   0.252   6.803  0.00  0.00     0.001 C 
ATOM     16  C   UNL d   1      -3.333   1.041   5.983  0.00  0.00     0.014 C 
ENDBRANCH   8  11
ENDBRANCH   3   7
BRANCH   1  17
ATOM     17  S   UNL d   1       1.601  -0.031   0.185  0.00  0.00     0.239 S 
ATOM     18  O   UNL d   1       2.175  -0.664   1.351  0.00  0.00    -0.206 OA
ATOM     19  O   UNL d   1       2.330   0.117  -1.052  0.00  0.00    -0.206 OA
BRANCH  17  20
ATOM     20  N   UNL d   1       0.222  -0.905  -0.204  0.00  0.00    -0.225 NA
ATOM     21  H   UNL d   1       0.030  -1.609   0.509  0.00  0.00     0.136 HD
ATOM     22  H   UNL d   1       0.295  -1.273  -1.151  0.00  0.00     0.136 HD
ENDBRANCH  17  20
ENDBRANCH   1  17
TORSDOF 4
