REMARK  4 active torsions:
REMARK  status: ('A' for Active; 'I' for Inactive)
REMARK    1  A    between atoms: N_2  and  C_1 
REMARK    2  A    between atoms: N_3  and  C_1 
REMARK       I    between atoms: C_4  and  N_3 
REMARK    3  A    between atoms: O_9  and  C_4 
REMARK    4  A    between atoms: C_15  and  O_9 
ROOT
ATOM      1  C   UNL d   1       0.946   0.050   0.076  0.00  0.00     0.179 C 
ATOM      2  S   UNL d   1       2.543   0.145   0.603  0.00  0.00    -0.041 SA
ENDROOT
BRANCH   1   3
ATOM      3  N   UNL d   1       0.176  -1.132   0.137  0.00  0.00    -0.349 N 
ATOM      4  C   UNL d   1       0.377  -2.079   1.272  0.00  0.00     0.083 C 
ATOM      5  C   UNL d   1       0.546  -3.517   0.778  0.00  0.00     0.025 C 
ATOM      6  C   UNL d   1      -0.742  -1.942   2.311  0.00  0.00     0.032 C 
ATOM      7  C   UNL d   1      -0.609  -3.947  -0.106  0.00  0.00     0.004 C 
ATOM      8  C   UNL d   1      -0.762  -2.977  -1.266  0.00  0.00     0.025 C 
ATOM      9  C   UNL d   1      -0.912  -1.502  -0.827  0.00  0.00     0.083 C 
ATOM     10  C   UNL d   1      -1.006  -0.689  -2.130  0.00  0.00     0.032 C 
ENDBRANCH   1   3
BRANCH   1  11
ATOM     11  N   UNL d   1       0.252   1.137  -0.426  0.00  0.00    -0.279 N 
ATOM     12  C   UNL d   1       0.781   2.345  -0.805  0.00  0.00     0.366 C 
ATOM     13  O   UNL d   1       1.829   2.516  -1.412  0.00  0.00    -0.238 OA
ATOM     14  H   UNL d   1      -0.692   1.214  -0.080  0.00  0.00     0.173 HD
BRANCH  12  15
ATOM     15  O   UNL d   1      -0.089   3.338  -0.485  0.00  0.00    -0.304 OA
BRANCH  15  16
ATOM     16  C   UNL d   1       0.465   4.662  -0.587  0.00  0.00     0.176 C 
ATOM     17  C   UNL d   1       1.098   5.012   0.748  0.00  0.00     0.034 C 
ENDBRANCH  15  16
ENDBRANCH  12  15
ENDBRANCH   1  11
TORSDOF 4
