REMARK  8 active torsions:
REMARK  status: ('A' for Active; 'I' for Inactive)
REMARK    1  A    between atoms: C_2  and  C_1 
REMARK       I    between atoms: N_11  and  C_2 
REMARK    2  A    between atoms: C_6  and  C_4 
REMARK    3  A    between atoms: C_18  and  C_7 
REMARK    4  A    between atoms: N_9  and  N_11 
REMARK    5  A    between atoms: C_15  and  C_13 
REMARK    6  A    between atoms: O_17  and  C_16 
REMARK    7  A    between atoms: C_23  and  C_18 
REMARK    8  A    between atoms: C_24  and  C_23 
ROOT
ATOM      1  C   UNL d   1      -0.663  -2.516   0.017  0.00  0.00     0.293 C 
ATOM      2  N   UNL d   1       0.383  -3.438   0.038  0.00  0.00    -0.265 N 
ATOM      3  O   UNL d   1      -1.847  -2.855   0.006  0.00  0.00    -0.264 OA
ATOM      4  H   UNL d   1       1.346  -3.124   0.047  0.00  0.00     0.190 HD
ENDROOT
BRANCH   1   5
ATOM      5  C   UNL d   1      -0.285  -1.113   0.010  0.00  0.00     0.146 A 
ATOM      6  O   UNL d   1       1.030  -0.701   0.013  0.00  0.00    -0.296 OA
ATOM      7  C   UNL d   1       1.004   0.665  -0.001  0.00  0.00     0.129 A 
ATOM      8  C   UNL d   1      -0.287   1.137  -0.010  0.00  0.00     0.050 A 
ATOM      9  C   UNL d   1      -1.116  -0.004  -0.005  0.00  0.00     0.046 A 
BRANCH   7  10
ATOM     10  C   UNL d   1       2.229   1.385  -0.008  0.00  0.00    -0.041 C 
ATOM     11  C   UNL d   1       3.201   2.096  -0.005  0.00  0.00    -0.099 C 
BRANCH  11  12
ATOM     12  C   UNL d   1       4.341   3.024   0.029  0.00  0.00     0.094 C 
BRANCH  12  13
ATOM     13  C   UNL d   1       4.370   3.984  -1.164  0.00  0.00     0.012 C 
BRANCH  13  14
ATOM     14  C   UNL d   1       3.170   4.935  -1.215  0.00  0.00    -0.004 C 
ATOM     15  C   UNL d   1       3.253   5.879  -2.406  0.00  0.00     0.005 C 
ENDBRANCH  13  14
ENDBRANCH  12  13
ENDBRANCH  11  12
ENDBRANCH   7  10
ENDBRANCH   1   5
BRANCH   2  16
ATOM     16  N   UNL d   1       0.066  -4.767   0.044  0.00  0.00    -0.308 N 
ATOM     17  C   UNL d   1       1.023  -5.637   0.061  0.00  0.00     0.118 C 
ATOM     18  HN  UNL d   1      -0.908  -5.069   0.036  1.00  0.00     0.186 HD
BRANCH  17  19
ATOM     19  C   UNL d   1       0.707  -7.088   0.066  0.00  0.00    -0.017 A 
ATOM     20  C   UNL d   1      -0.631  -7.509   0.035  0.00  0.00     0.049 A 
ATOM     21  C   UNL d   1      -0.944  -8.868   0.009  0.00  0.00     0.069 A 
ATOM     22  C   UNL d   1       0.089  -9.806   0.058  0.00  0.00     0.037 A 
ATOM     23  C   UNL d   1       1.424  -9.393   0.096  0.00  0.00     0.004 A 
ATOM     24  C   UNL d   1       1.737  -8.031   0.088  0.00  0.00     0.013 A 
BRANCH  21  25
ATOM     25  O   UNL d   1      -2.205  -9.394  -0.075  0.00  0.00    -0.356 OA
ATOM     26  C   UNL d   1      -3.271  -8.462  -0.241  0.00  0.00     0.210 C 
ENDBRANCH  21  25
ENDBRANCH  17  19
ENDBRANCH   2  16
TORSDOF 8
