REMARK  4 active torsions:
REMARK  status: ('A' for Active; 'I' for Inactive)
REMARK    1  A    between atoms: C_2  and  C_1 
REMARK    2  A    between atoms: C_3  and  C_2 
REMARK    3  A    between atoms: N_9  and  C_4 
REMARK    4  A    between atoms: C_10  and  N_9 
ROOT
ATOM      1  C   UNL d   1       0.983  -0.107  -0.094  0.00  0.00     0.106 C 
ATOM      2  C   UNL d   1       0.328   0.661   0.815  0.00  0.00     0.116 C 
ATOM      3  C   UNL d   1       0.253  -0.853  -1.131  0.00  0.00     0.104 C 
ATOM      4  N   UNL d   1      -0.327  -1.434  -1.950  0.00  0.00    -0.191 NA
ENDROOT
BRANCH   1   5
ATOM      5  C   UNL d   1       2.498  -0.126  -0.036  0.00  0.00     0.175 C 
ATOM      6  O   UNL d   1       3.155   0.515   0.781  0.00  0.00    -0.291 OA
BRANCH   5   7
ATOM      7  C   UNL d   1       3.178  -1.025  -1.022  0.00  0.00     0.061 A 
ATOM      8  C   UNL d   1       4.011  -2.182  -0.518  0.00  0.00     0.013 A 
ATOM      9  C   UNL d   1       4.679  -1.014  -1.182  0.00  0.00     0.013 A 
ENDBRANCH   5   7
ENDBRANCH   1   5
BRANCH   2  10
ATOM     10  N   UNL d   1      -1.041   0.755   0.950  0.00  0.00    -0.351 N 
ATOM     11  H   UNL d   1      -1.601  -0.036   0.636  0.00  0.00     0.166 HD
BRANCH  10  12
ATOM     12  C   UNL d   1      -1.798   1.535   1.821  0.00  0.00     0.104 A 
ATOM     13  N   UNL d   1      -3.010   1.032   2.136  0.00  0.00    -0.352 N 
ATOM     14  C   UNL d   1      -3.793   1.746   2.976  0.00  0.00     0.089 A 
ATOM     15  HN  UNL d   1      -3.326   0.141   1.752  1.00  0.00     0.166 HD
ATOM     16  C   UNL d   1      -3.434   2.971   3.505  0.00  0.00     0.017 A 
ATOM     17  C   UNL d   1      -2.197   3.492   3.154  0.00  0.00     0.005 A 
ATOM     18  C   UNL d   1      -1.364   2.762   2.308  0.00  0.00     0.048 A 
ENDBRANCH  10  12
ENDBRANCH   2  10
TORSDOF 4
