REMARK  4 active torsions:
REMARK  status: ('A' for Active; 'I' for Inactive)
REMARK    1  A    between atoms: C_7  and  C_1 
REMARK    2  A    between atoms: C_10  and  C_3 
REMARK       I    between atoms: N_11  and  C_7 
REMARK       I    between atoms: C_8  and  N_12 
REMARK    3  A    between atoms: C_9  and  C_8 
REMARK    4  A    between atoms: N_12  and  N_11 
ROOT
ATOM      1  C   UNL d   1      -0.285  -2.593   0.046  0.00  0.00     0.279 C 
ATOM      2  N   UNL d   1       0.851  -3.378   0.179  0.00  0.00    -0.262 N 
ATOM      3  O   UNL d   1      -1.383  -3.137  -0.085  0.00  0.00    -0.265 OA
ATOM      4  H   UNL d   1       1.786  -3.009   0.344  0.00  0.00     0.190 HD
ENDROOT
BRANCH   1   5
ATOM      5  C   UNL d   1      -0.113  -1.149   0.068  0.00  0.00     0.098 A 
ATOM      6  S   UNL d   1       1.418  -0.377   0.156  0.00  0.00    -0.064 SA
ATOM      7  C   UNL d   1       0.664   1.173   0.071  0.00  0.00     0.085 A 
ATOM      8  N   UNL d   1      -0.652   1.129   0.034  0.00  0.00    -0.352 N 
ATOM      9  C   UNL d   1      -1.105  -0.181   0.004  0.00  0.00     0.029 A 
ATOM     10  HN  UNL d   1      -1.257   1.950   0.029  1.00  0.00     0.166 HD
ATOM     11  C   UNL d   1      -2.573  -0.405  -0.099  0.00  0.00     0.070 C 
BRANCH   7  12
ATOM     12  C   UNL d   1       1.442   2.429   0.068  0.00  0.00    -0.002 A 
ATOM     13  C   UNL d   1       0.857   3.597   0.602  0.00  0.00     0.024 A 
ATOM     14  C   UNL d   1       1.567   4.789   0.569  0.00  0.00    -0.022 A 
ATOM     15  C   UNL d   1       1.217   6.122   1.111  0.00  0.00     0.068 C 
ATOM     16  C   UNL d   1       2.836   4.842   0.022  0.00  0.00     0.075 A 
ATOM     17  C   UNL d   1       2.309   6.953   0.434  0.00  0.00     0.180 C 
ATOM     18  O   UNL d   1       3.410   6.085   0.072  0.00  0.00    -0.350 OA
ATOM     19  C   UNL d   1       3.446   3.725  -0.508  0.00  0.00     0.038 A 
ATOM     20  C   UNL d   1       2.739   2.516  -0.489  0.00  0.00     0.017 A 
ENDBRANCH   7  12
ENDBRANCH   1   5
BRANCH   2  21
ATOM     21  N   UNL d   1       0.700  -4.776   0.165  0.00  0.00    -0.263 N 
ATOM     22  C   UNL d   1       1.799  -5.582   0.402  0.00  0.00     0.271 C 
ATOM     23  O   UNL d   1       2.915  -5.114   0.605  0.00  0.00    -0.266 OA
ATOM     24  H   UNL d   1      -0.230  -5.124  -0.066  0.00  0.00     0.190 HD
BRANCH  22  25
ATOM     25  C   UNL d   1       1.533  -7.060   0.411  0.00  0.00     0.044 A 
ATOM     26  C   UNL d   1       2.473  -8.004  -0.103  0.00  0.00    -0.010 A 
ATOM     27  C   UNL d   1       2.151  -9.387  -0.010  0.00  0.00    -0.025 A 
ATOM     28  C   UNL d   1       3.708  -7.677  -0.716  0.00  0.00     0.013 A 
ATOM     29  C   UNL d   1       3.041 -10.360  -0.493  0.00  0.00     0.012 A 
ATOM     30  C   UNL d   1       0.939  -9.793   0.567  0.00  0.00     0.012 A 
ATOM     31  C   UNL d   1       4.252 -10.000  -1.077  0.00  0.00     0.001 A 
ATOM     32  C   UNL d   1       4.584  -8.659  -1.192  0.00  0.00     0.001 A 
ATOM     33  C   UNL d   1       0.034  -8.860   1.063  0.00  0.00     0.002 A 
ATOM     34  C   UNL d   1       0.330  -7.502   0.995  0.00  0.00     0.018 A 
ENDBRANCH  22  25
ENDBRANCH   2  21
TORSDOF 4
