REMARK  6 active torsions:
REMARK  status: ('A' for Active; 'I' for Inactive)
REMARK    1  A    between atoms: C_14  and  N_1 
REMARK    2  A    between atoms: S_12  and  C_7 
REMARK    3  A    between atoms: C_17  and  S_12 
REMARK    4  A    between atoms: C_15  and  C_17 
REMARK    5  A    between atoms: O_18  and  C_15 
REMARK    6  A    between atoms: C_21  and  O_18 
ROOT
ATOM      1  N   UNL d   1      -1.501  -1.064  -0.046  0.00  0.00    -0.239 N 
ATOM      2  C   UNL d   1      -0.189  -0.580  -0.013  0.00  0.00     0.142 A 
ATOM      3  N   UNL d   1      -2.400  -0.032  -0.111  0.00  0.00    -0.302 N 
ATOM      4  HN  UNL d   1      -3.417  -0.095  -0.162  1.00  0.00     0.186 HD
ATOM      5  C   UNL d   1      -0.279   0.802  -0.028  0.00  0.00     0.060 A 
ATOM      6  C   UNL d   1      -1.655   1.071  -0.093  0.00  0.00     0.126 A 
ATOM      7  C   UNL d   1       0.913   1.520   0.018  0.00  0.00     0.086 A 
ATOM      8  N   UNL d   1       0.968  -1.279   0.034  0.00  0.00    -0.336 N 
ATOM      9  HN  UNL d   1       1.014  -2.298   0.045  1.00  0.00     0.168 HD
ATOM     10  N   UNL d   1       2.091   0.862   0.058  0.00  0.00    -0.346 N 
ATOM     11  HN  UNL d   1       2.978   1.365   0.084  1.00  0.00     0.167 HD
ATOM     12  C   UNL d   1       2.049  -0.483   0.063  0.00  0.00     0.183 A 
ENDROOT
BRANCH   7  13
ATOM     13  S   UNL d   1       0.872   3.289   0.064  0.00  0.00    -0.101 SA
BRANCH  13  14
ATOM     14  C   UNL d   1       2.395   3.679  -0.864  0.00  0.00     0.191 C 
BRANCH  14  15
ATOM     15  C   UNL d   1       2.399   3.027  -2.231  0.00  0.00     0.268 C 
ATOM     16  O   UNL d   1       1.412   2.820  -2.925  0.00  0.00    -0.264 OA
BRANCH  15  17
ATOM     17  O   UNL d   1       3.676   2.688  -2.573  0.00  0.00    -0.321 OA
BRANCH  17  18
ATOM     18  C   UNL d   1       3.798   1.708  -3.613  0.00  0.00     0.174 C 
ATOM     19  C   UNL d   1       4.319   2.325  -4.895  0.00  0.00     0.034 C 
ENDBRANCH  17  18
ENDBRANCH  15  17
ENDBRANCH  14  15
ENDBRANCH  13  14
ENDBRANCH   7  13
BRANCH   1  20
ATOM     20  C   UNL d   1      -1.983  -2.409  -0.015  0.00  0.00     0.058 A 
ATOM     21  C   UNL d   1      -1.125  -3.508   0.115  0.00  0.00     0.031 A 
ATOM     22  C   UNL d   1      -1.644  -4.807   0.151  0.00  0.00     0.002 A 
ATOM     23  C   UNL d   1      -3.018  -5.023   0.056  0.00  0.00     0.000 A 
ATOM     24  C   UNL d   1      -3.880  -3.939  -0.074  0.00  0.00     0.002 A 
ATOM     25  C   UNL d   1      -3.369  -2.640  -0.108  0.00  0.00     0.031 A 
ENDBRANCH   1  20
TORSDOF 6
