REMARK  5 active torsions:
REMARK  status: ('A' for Active; 'I' for Inactive)
REMARK    1  A    between atoms: C_3  and  C_1 
REMARK       I    between atoms: C_2  and  N_5 
REMARK       I    between atoms: N_7  and  C_2 
REMARK       I    between atoms: N_6  and  C_3 
REMARK    2  A    between atoms: N_5  and  C_4 
REMARK    3  A    between atoms: C_13  and  N_6 
REMARK    4  A    between atoms: C_14  and  N_7 
REMARK    5  A    between atoms: C_8  and  C_13 
ROOT
ATOM      1  C   UNL d   1       1.345  -0.977   0.942  0.00  0.00     0.058 C 
ATOM      2  C   UNL d   1       0.675  -2.165   0.633  0.00  0.00     0.052 C 
ATOM      3  C   UNL d   1       0.682   0.244   0.733  0.00  0.00     0.019 C 
ATOM      4  C   UNL d   1      -0.704  -2.137   0.341  0.00  0.00     0.030 C 
ATOM      5  C   UNL d   1      -0.666   0.272   0.362  0.00  0.00     0.001 C 
ATOM      6  C   UNL d   1      -1.378  -0.919   0.237  0.00  0.00     0.002 C 
ENDROOT
BRANCH   2   7
ATOM      7  N   UNL d   1       1.411  -3.170   0.025  0.00  0.00    -0.308 N 
ATOM      8  C   UNL d   1       1.688  -4.449   0.253  0.00  0.00     0.325 C 
ATOM      9  N   UNL d   1       1.559  -5.117   1.393  0.00  0.00    -0.309 N 
ATOM     10  O   UNL d   1       2.277  -5.053  -0.661  0.00  0.00    -0.247 OA
ATOM     11  H   UNL d   1       2.050  -5.996   1.240  0.00  0.00     0.170 HD
ATOM     12  H   UNL d   1       1.814  -2.887  -0.865  0.00  0.00     0.170 HD
BRANCH   9  13
ATOM     13  C   UNL d   1       1.067  -4.993   2.698  0.00  0.00     0.036 A 
ATOM     14  C   UNL d   1       0.206  -4.017   3.185  0.00  0.00     0.029 A 
ATOM     15  C   UNL d   1      -0.187  -4.018   4.535  0.00  0.00     0.002 A 
ATOM     16  C   UNL d   1       0.279  -4.999   5.404  0.00  0.00     0.000 A 
ATOM     17  C   UNL d   1       1.123  -5.988   4.931  0.00  0.00     0.002 A 
ATOM     18  C   UNL d   1       1.505  -5.984   3.590  0.00  0.00     0.029 A 
ENDBRANCH   9  13
ENDBRANCH   2   7
BRANCH   1  19
ATOM     19  C   UNL d   1       2.761  -0.944   1.423  0.00  0.00     0.253 C 
ATOM     20  N   UNL d   1       3.234  -1.981   2.235  0.00  0.00    -0.356 N 
ATOM     21  H   UNL d   1       2.688  -2.823   2.360  0.00  0.00     0.162 HD
ATOM     22  O   UNL d   1       3.455   0.030   1.119  0.00  0.00    -0.268 OA
BRANCH  20  23
ATOM     23  C   UNL d   1       4.638  -1.969   2.609  0.00  0.00     0.127 C 
BRANCH  23  24
ATOM     24  C   UNL d   1       5.106  -2.880   3.707  0.00  0.00     0.003 A 
ATOM     25  C   UNL d   1       4.993  -4.381   3.606  0.00  0.00     0.007 A 
ATOM     26  C   UNL d   1       4.251  -3.644   4.688  0.00  0.00     0.007 A 
ENDBRANCH  23  24
ENDBRANCH  20  23
ENDBRANCH   1  19
TORSDOF 5
