REMARK  4 active torsions:
REMARK  status: ('A' for Active; 'I' for Inactive)
REMARK       I    between atoms: N_2  and  C_1 
REMARK    1  A    between atoms: C_5  and  C_1 
REMARK    2  A    between atoms: N_3  and  N_2 
REMARK    3  A    between atoms: C_6  and  N_3 
REMARK    4  A    between atoms: O_12  and  C_7 
ROOT
ATOM      1  N   UNL d   1       0.444   2.195   1.163  0.00  0.00    -0.203 NA
ATOM      2  H   UNL d   1       1.464   2.325   1.105  0.00  0.00     0.153 HD
ENDROOT
BRANCH   1   3
ATOM      3  N   UNL d   1       0.139   0.816   1.117  0.00  0.00    -0.287 N 
ATOM      4  C   UNL d   1       1.049  -0.012   0.475  0.00  0.00     0.236 C 
ATOM      5  O   UNL d   1       2.176   0.402   0.175  0.00  0.00    -0.272 OA
ATOM      6  H   UNL d   1      -0.848   0.596   1.170  0.00  0.00     0.184 HD
BRANCH   4   7
ATOM      7  C   UNL d   1       0.574  -1.459   0.203  0.00  0.00     0.079 C 
ATOM      8  C   UNL d   1       0.392  -1.874  -1.283  0.00  0.00     0.014 C 
ATOM      9  C   UNL d   1      -0.733  -2.816  -0.817  0.00  0.00     0.002 C 
ATOM     10  C   UNL d   1      -0.904  -1.891   0.403  0.00  0.00     0.014 C 
ENDBRANCH   4   7
ENDBRANCH   1   3
BRANCH   1  11
ATOM     11  C   UNL d   1      -0.062   2.844   2.316  0.00  0.00     0.027 A 
ATOM     12  C   UNL d   1      -0.225   2.211   3.554  0.00  0.00     0.028 A 
ATOM     13  C   UNL d   1      -0.748   2.905   4.653  0.00  0.00     0.038 A 
ATOM     14  C   UNL d   1      -1.096   4.249   4.527  0.00  0.00     0.068 A 
ATOM     15  C   UNL d   1      -0.844   4.912   3.329  0.00  0.00     0.038 A 
ATOM     16  C   UNL d   1      -0.324   4.217   2.234  0.00  0.00     0.028 A 
BRANCH  14  17
ATOM     17  O   UNL d   1      -1.644   5.012   5.522  0.00  0.00    -0.356 OA
ATOM     18  C   UNL d   1      -2.505   4.309   6.413  0.00  0.00     0.210 C 
ENDBRANCH  14  17
ENDBRANCH   1  11
TORSDOF 4
