REMARK  4 active torsions:
REMARK  status: ('A' for Active; 'I' for Inactive)
REMARK    1  A    between atoms: N_2  and  S_1 
REMARK    2  A    between atoms: C_3  and  S_1 
REMARK    3  A    between atoms: C_4  and  N_2 
REMARK       I    between atoms: C_8  and  N_9 
REMARK    4  A    between atoms: N_9  and  C_10 
ROOT
ATOM      1  C   UNL d   1       0.928   2.153   1.759  0.00  0.00     0.048 A 
ATOM      2  C   UNL d   1       2.218   2.134   2.306  0.00  0.00    -0.033 A 
ATOM      3  C   UNL d   1       1.386   3.356   4.263  0.00  0.00     0.035 A 
ATOM      4  C   UNL d   1       2.427   2.725   3.567  0.00  0.00     0.038 A 
ATOM      5  C   UNL d   1      -0.117   2.761   2.457  0.00  0.00     0.033 A 
ATOM      6  C   UNL d   1       0.112   3.358   3.700  0.00  0.00     0.032 A 
ATOM      7  C   UNL d   1       3.391   1.509   1.602  0.00  0.00     0.050 C 
ENDROOT
BRANCH   1   8
ATOM      8  N   UNL d   1       0.650   1.569   0.490  0.00  0.00    -0.280 N 
ATOM      9  H   UNL d   1       0.074   2.116  -0.147  0.00  0.00     0.179 HD
BRANCH   8  10
ATOM     10  S   UNL d   1       0.302  -0.081   0.382  0.00  0.00     0.263 S 
ATOM     11  O   UNL d   1       1.329  -0.848   1.052  0.00  0.00    -0.200 OA
ATOM     12  O   UNL d   1      -0.034  -0.329  -1.004  0.00  0.00    -0.200 OA
BRANCH  10  13
ATOM     13  C   UNL d   1      -1.203  -0.247   1.319  0.00  0.00     0.080 A 
ATOM     14  C   UNL d   1      -2.437  -0.093   0.675  0.00  0.00     0.027 A 
ATOM     15  C   UNL d   1      -3.618  -0.232   1.409  0.00  0.00     0.025 A 
ATOM     16  C   UNL d   1      -3.557  -0.533   2.771  0.00  0.00     0.034 A 
ATOM     17  C   UNL d   1      -2.326  -0.711   3.405  0.00  0.00     0.025 A 
ATOM     18 CL   UNL d   1      -5.012  -0.692   3.674  0.00  0.00    -0.084 Cl
ATOM     19  C   UNL d   1      -1.142  -0.578   2.676  0.00  0.00     0.027 A 
ENDBRANCH  10  13
ENDBRANCH   8  10
ENDBRANCH   1   8
BRANCH   3  20
ATOM     20  N   UNL d   1       1.708   3.972   5.490  0.00  0.00    -0.327 N 
ATOM     21  C   UNL d   1       0.862   4.695   6.311  0.00  0.00     0.218 C 
ATOM     22  O   UNL d   1      -0.335   4.897   6.136  0.00  0.00    -0.274 OA
ATOM     23  C   UNL d   1       1.555   5.267   7.525  0.00  0.00     0.117 C 
ATOM     24  H   UNL d   1       2.675   3.900   5.779  0.00  0.00     0.169 HD
ENDBRANCH   3  20
TORSDOF 4
