REMARK  4 active torsions:
REMARK  status: ('A' for Active; 'I' for Inactive)
REMARK    1  A    between atoms: C_2  and  C_1 
REMARK       I    between atoms: N_6  and  C_1 
REMARK       I    between atoms: C_3  and  N_4 
REMARK    2  A    between atoms: C_9  and  C_3 
REMARK    3  A    between atoms: N_4  and  C_5 
REMARK    4  A    between atoms: C_10  and  N_6 
ROOT
ATOM      1  C   UNL d   1       0.370  -0.940  -0.780  0.00  0.00     0.059 A 
ATOM      2  C   UNL d   1       0.952  -2.194  -0.492  0.00  0.00     0.050 A 
ATOM      3  C   UNL d   1      -0.760  -0.885  -1.618  0.00  0.00     0.019 A 
ATOM      4  C   UNL d   1       0.333  -3.360  -0.967  0.00  0.00     0.030 A 
ATOM      5  C   UNL d   1      -1.353  -2.055  -2.095  0.00  0.00     0.001 A 
ATOM      6  C   UNL d   1      -0.818  -3.293  -1.752  0.00  0.00     0.002 A 
ENDROOT
BRANCH   1   7
ATOM      7  C   UNL d   1       0.999   0.326  -0.274  0.00  0.00     0.258 C 
ATOM      8  N   UNL d   1       0.159   1.423  -0.182  0.00  0.00    -0.323 N 
ATOM      9  H   UNL d   1      -0.833   1.259  -0.286  0.00  0.00     0.169 HD
ATOM     10  O   UNL d   1       2.173   0.303   0.078  0.00  0.00    -0.267 OA
BRANCH   8  11
ATOM     11  C   UNL d   1       0.518   2.732   0.199  0.00  0.00     0.035 A 
ATOM     12  C   UNL d   1       1.837   3.166   0.363  0.00  0.00     0.031 A 
ATOM     13  C   UNL d   1       2.108   4.473   0.783  0.00  0.00     0.021 A 
ATOM     14  C   UNL d   1       1.059   5.353   1.029  0.00  0.00     0.011 A 
ATOM     15  C   UNL d   1      -0.258   4.947   0.835  0.00  0.00     0.021 A 
ATOM     16 BR   UNL d   1       1.421   7.103   1.641  0.00  0.00    -0.051 Br
ATOM     17  C   UNL d   1      -0.526   3.641   0.414  0.00  0.00     0.031 A 
ENDBRANCH   8  11
ENDBRANCH   1   7
BRANCH   2  18
ATOM     18  N   UNL d   1       2.138  -2.285   0.281  0.00  0.00    -0.322 N 
ATOM     19  C   UNL d   1       3.136  -3.213   0.043  0.00  0.00     0.256 C 
ATOM     20  O   UNL d   1       3.154  -4.038  -0.864  0.00  0.00    -0.267 OA
ATOM     21  H   UNL d   1       2.452  -1.411   0.710  0.00  0.00     0.169 HD
BRANCH  19  22
ATOM     22  C   UNL d   1       4.317  -3.115   0.934  0.00  0.00     0.032 A 
ATOM     23  C   UNL d   1       4.160  -3.013   2.321  0.00  0.00     0.017 A 
ATOM     24  C   UNL d   1       5.288  -3.027   3.145  0.00  0.00     0.001 A 
ATOM     25  C   UNL d   1       6.564  -3.129   2.587  0.00  0.00     0.000 A 
ATOM     26  C   UNL d   1       6.719  -3.216   1.203  0.00  0.00     0.001 A 
ATOM     27  C   UNL d   1       5.596  -3.217   0.375  0.00  0.00     0.017 A 
ENDBRANCH  19  22
ENDBRANCH   2  18
TORSDOF 4
