REMARK  3 active torsions:
REMARK  status: ('A' for Active; 'I' for Inactive)
REMARK    1  A    between atoms: C_4  and  C_1 
REMARK    2  A    between atoms: C_2  and  C_3 
REMARK       I    between atoms: C_3  and  N_6 
REMARK       I    between atoms: N_5  and  C_4 
REMARK    3  A    between atoms: N_6  and  N_5 
ROOT
ATOM      1  C   UNL d   1      -0.067   2.563  -0.997  0.00  0.00     0.271 C 
ATOM      2  N   UNL d   1       0.381   3.698  -0.361  0.00  0.00    -0.263 N 
ATOM      3  O   UNL d   1       0.700   1.727  -1.472  0.00  0.00    -0.266 OA
ATOM      4  H   UNL d   1      -0.231   4.416   0.026  0.00  0.00     0.190 HD
ENDROOT
BRANCH   2   5
ATOM      5  N   UNL d   1       1.753   3.903  -0.213  0.00  0.00    -0.263 N 
ATOM      6  C   UNL d   1       2.199   5.175   0.078  0.00  0.00     0.271 C 
ATOM      7  O   UNL d   1       1.413   6.123   0.149  0.00  0.00    -0.266 OA
ATOM      8  H   UNL d   1       2.361   3.098  -0.365  0.00  0.00     0.190 HD
BRANCH   6   9
ATOM      9  C   UNL d   1       3.648   5.381   0.384  0.00  0.00     0.055 A 
ATOM     10  C   UNL d   1       4.689   4.469   0.154  0.00  0.00     0.049 A 
ATOM     11 CL   UNL d   1       4.496   2.956  -0.659  0.00  0.00    -0.083 Cl
ATOM     12  C   UNL d   1       5.995   4.772   0.575  0.00  0.00     0.025 A 
ATOM     13  C   UNL d   1       6.280   5.980   1.210  0.00  0.00     0.002 A 
ATOM     14  C   UNL d   1       5.265   6.905   1.415  0.00  0.00     0.001 A 
ATOM     15  C   UNL d   1       3.964   6.608   1.004  0.00  0.00     0.019 A 
ENDBRANCH   6   9
ENDBRANCH   2   5
BRANCH   1  16
ATOM     16  C   UNL d   1      -1.542   2.389  -1.140  0.00  0.00     0.055 A 
ATOM     17  C   UNL d   1      -2.505   2.864  -0.238  0.00  0.00     0.049 A 
ATOM     18 CL   UNL d   1      -2.127   3.698   1.228  0.00  0.00    -0.083 Cl
ATOM     19  C   UNL d   1      -3.869   2.635  -0.484  0.00  0.00     0.025 A 
ATOM     20  C   UNL d   1      -4.279   1.927  -1.614  0.00  0.00     0.002 A 
ATOM     21  C   UNL d   1      -3.329   1.437  -2.504  0.00  0.00     0.001 A 
ATOM     22  C   UNL d   1      -1.970   1.664  -2.267  0.00  0.00     0.019 A 
ENDBRANCH   1  16
TORSDOF 3
