REMARK  0 active torsions:
REMARK  status: ('A' for Active; 'I' for Inactive)
ROOT
ATOM      1  C   UNL d   1      -1.185   0.882  -0.001  0.00  0.00     0.027 A 
ATOM      2  C   UNL d   1       1.187   0.883   0.000  0.00  0.00     0.027 A 
ATOM      3  C   UNL d   1       0.001   1.768  -0.001  0.00  0.00     0.194 A 
ATOM      4  C   UNL d   1      -0.721  -0.446  -0.001  0.00  0.00    -0.011 A 
ATOM      5  C   UNL d   1       0.725  -0.445  -0.000  0.00  0.00    -0.011 A 
ATOM      6  C   UNL d   1      -1.630  -1.490  -0.000  0.00  0.00     0.014 A 
ATOM      7  C   UNL d   1       1.635  -1.488  -0.001  0.00  0.00     0.014 A 
ATOM      8  C   UNL d   1      -2.524   1.218  -0.001  0.00  0.00     0.035 A 
ATOM      9  C   UNL d   1       2.526   1.221   0.001  0.00  0.00     0.035 A 
ATOM     10  O   UNL d   1       0.000   2.980  -0.001  0.00  0.00    -0.287 OA
ATOM     11  C   UNL d   1      -3.432   0.161  -0.001  0.00  0.00     0.011 A 
ATOM     12  C   UNL d   1       3.435   0.164   0.001  0.00  0.00     0.011 A 
ATOM     13  C   UNL d   1       3.001  -1.176  -0.000  0.00  0.00     0.020 A 
ATOM     14  C   UNL d   1      -2.996  -1.179  -0.000  0.00  0.00     0.020 A 
ATOM     15 BR   UNL d   1      -5.288   0.526  -0.002  0.00  0.00    -0.051 Br
ATOM     16 BR   UNL d   1       5.291   0.531   0.002  0.00  0.00    -0.051 Br
ENDROOT
TORSDOF 0
