REMARK  4 active torsions:
REMARK  status: ('A' for Active; 'I' for Inactive)
REMARK    1  A    between atoms: C_15  and  C_3 
REMARK    2  A    between atoms: C_11  and  C_4 
REMARK    3  A    between atoms: C_16  and  C_9 
REMARK    4  A    between atoms: C_10  and  C_15 
ROOT
ATOM      1  N   UNL d   1       1.298  -1.155  -0.017  0.00  0.00    -0.297 N 
ATOM      2  HN  UNL d   1       1.850  -2.012  -0.004  1.00  0.00     0.187 HD
ATOM      3  C   UNL d   1      -0.241   1.232  -0.040  0.00  0.00     0.018 A 
ATOM      4  N   UNL d   1      -0.065  -1.183  -0.097  0.00  0.00    -0.266 N 
ATOM      5  C   UNL d   1      -0.897  -0.092  -0.146  0.00  0.00     0.266 A 
ATOM      6  C   UNL d   1       1.094   1.286   0.060  0.00  0.00     0.045 A 
ATOM      7  C   UNL d   1       1.858   0.015   0.041  0.00  0.00     0.059 A 
ATOM      8  O   UNL d   1      -2.112  -0.203  -0.275  0.00  0.00    -0.266 OA
ATOM      9  H   UNL d   1      -0.493  -2.100  -0.174  0.00  0.00     0.190 HD
ENDROOT
BRANCH   3  10
ATOM     10  C   UNL d   1      -1.101   2.460  -0.126  0.00  0.00     0.090 C 
BRANCH  10  11
ATOM     11  C   UNL d   1      -1.616   3.004   1.177  0.00  0.00    -0.012 A 
ATOM     12  S   UNL d   1      -0.685   4.116   2.086  0.00  0.00    -0.093 SA
ATOM     13  C   UNL d   1      -1.913   4.313   3.273  0.00  0.00     0.022 A 
ATOM     14  C   UNL d   1      -3.005   3.517   2.975  0.00  0.00     0.021 A 
ATOM     15  C   UNL d   1      -2.830   2.756   1.781  0.00  0.00     0.016 A 
BRANCH  13  16
ATOM     16  C   UNL d   1      -1.745   5.207   4.400  0.00  0.00     0.021 A 
ATOM     17  S   UNL d   1      -2.600   4.966   5.874  0.00  0.00    -0.101 SA
ATOM     18  C   UNL d   1      -1.873   6.324   6.611  0.00  0.00     0.050 A 
ATOM     19  C   UNL d   1      -1.005   6.967   5.762  0.00  0.00     0.008 A 
ATOM     20  C   UNL d   1      -0.931   6.325   4.490  0.00  0.00     0.021 A 
ENDBRANCH  13  16
ENDBRANCH  10  11
ENDBRANCH   3  10
BRANCH   7  21
ATOM     21  C   UNL d   1       3.347   0.123   0.103  0.00  0.00    -0.008 A 
ATOM     22  C   UNL d   1       4.078  -0.914   0.694  0.00  0.00     0.014 A 
ATOM     23  C   UNL d   1       5.471  -0.831   0.787  0.00  0.00     0.007 A 
ATOM     24  C   UNL d   1       6.152   0.286   0.287  0.00  0.00    -0.062 A 
ATOM     25  C   UNL d   1       5.422   1.308  -0.328  0.00  0.00     0.007 A 
ATOM     26  C   UNL d   1       7.645   0.369   0.400  0.00  0.00     0.048 C 
ATOM     27  C   UNL d   1       4.031   1.224  -0.428  0.00  0.00     0.014 A 
ENDBRANCH   7  21
TORSDOF 4
