REMARK  5 active torsions:
REMARK  status: ('A' for Active; 'I' for Inactive)
REMARK    1  A    between atoms: C_6  and  N_1 
REMARK    2  A    between atoms: C_9  and  C_2 
REMARK    3  A    between atoms: C_7  and  C_8 
REMARK    4  A    between atoms: O_16  and  C_7 
REMARK    5  A    between atoms: C_20  and  O_16 
ROOT
ATOM      1  N   UNL d   1       2.510  -0.051   0.018  0.00  0.00    -0.345 N 
ATOM      2  C   UNL d   1       1.624   1.125   0.059  0.00  0.00     0.359 C 
ATOM      3  N   UNL d   1       0.260   0.638   0.306  0.00  0.00     0.122 N 
ATOM      4  C   UNL d   1       1.663  -1.252   0.028  0.00  0.00     0.161 C 
ATOM      5  C   UNL d   1       0.263  -0.696  -0.315  0.00  0.00     0.244 C 
ATOM      6  C   UNL d   1      -0.885   1.442  -0.064  0.00  0.00     0.276 C 
ATOM      7  C   UNL d   1      -0.930  -1.494   0.188  0.00  0.00     0.037 C 
ATOM      8  C   UNL d   1      -2.165   0.705   0.366  0.00  0.00     0.030 C 
ATOM      9  C   UNL d   1      -2.213  -0.732  -0.169  0.00  0.00     0.004 C 
ENDROOT
BRANCH   1  10
ATOM     10  C   UNL d   1       3.876  -0.035   0.043  0.00  0.00     0.032 A 
ATOM     11  C   UNL d   1       4.592   1.031   0.610  0.00  0.00     0.030 A 
ATOM     12  C   UNL d   1       5.988   1.074   0.597  0.00  0.00     0.020 A 
ATOM     13  C   UNL d   1       6.707   0.046  -0.012  0.00  0.00     0.039 A 
ATOM     14  C   UNL d   1       6.027  -1.029  -0.577  0.00  0.00     0.020 A 
ATOM     15  C   UNL d   1       4.630  -1.064  -0.541  0.00  0.00     0.030 A 
BRANCH  13  16
ATOM     16  C   UNL d   1       8.183   0.016   0.009  0.00  0.00     0.293 C 
ATOM     17  O   UNL d   1       8.833  -1.012  -0.022  0.00  0.00    -0.259 OA
BRANCH  16  18
ATOM     18  O   UNL d   1       8.666   1.278   0.138  0.00  0.00    -0.318 OA
BRANCH  18  19
ATOM     19  C   UNL d   1      10.013   1.369   0.619  0.00  0.00     0.174 C 
ATOM     20  C   UNL d   1       9.941   1.452   2.133  0.00  0.00     0.034 C 
ENDBRANCH  18  19
ENDBRANCH  16  18
ENDBRANCH  13  16
ENDBRANCH   1  10
BRANCH   2  21
ATOM     21  C   UNL d   1       1.800   1.956  -1.222  0.00  0.00    -0.006 A 
ATOM     22  C   UNL d   1       2.123   1.365  -2.460  0.00  0.00     0.011 A 
ATOM     23  C   UNL d   1       2.314   2.140  -3.604  0.00  0.00     0.001 A 
ATOM     24  C   UNL d   1       2.170   3.522  -3.537  0.00  0.00     0.000 A 
ATOM     25  C   UNL d   1       1.839   4.128  -2.327  0.00  0.00     0.001 A 
ATOM     26  C   UNL d   1       1.656   3.353  -1.178  0.00  0.00     0.011 A 
ENDBRANCH   2  21
TORSDOF 5
