REMARK  4 active torsions:
REMARK  status: ('A' for Active; 'I' for Inactive)
REMARK    1  A    between atoms: C_8  and  N_1 
REMARK    2  A    between atoms: C_11  and  C_2 
REMARK    3  A    between atoms: C_9  and  C_12 
REMARK    4  A    between atoms: O_23  and  N_14 
ROOT
ATOM      1  N   UNL d   1       1.800   5.844  -0.049  0.00  0.00    -0.243 N 
ATOM      2  C   UNL d   1       0.497   4.069   0.048  0.00  0.00     0.097 A 
ATOM      3  N   UNL d   1       2.568   4.732  -0.051  0.00  0.00    -0.235 N 
ATOM      4  HN  UNL d   1       3.587   4.723  -0.087  1.00  0.00     0.209 HD
ATOM      5  C   UNL d   1       0.456   5.462   0.052  0.00  0.00     0.062 A 
ATOM      6  N   UNL d   1       1.802   3.666  -0.000  0.00  0.00    -0.282 N 
ATOM      7  HN  UNL d   1       2.127   2.699   0.003  1.00  0.00     0.188 HD
ATOM      8  C   UNL d   1      -0.699   6.394   0.036  0.00  0.00     0.073 C 
ENDROOT
BRANCH   1   9
ATOM      9  C   UNL d   1       2.425   7.131  -0.065  0.00  0.00     0.080 A 
ATOM     10  C   UNL d   1       1.825   8.214   0.609  0.00  0.00     0.049 A 
ATOM     11  C   UNL d   1       2.451   9.477   0.680  0.00  0.00     0.050 A 
ATOM     12  C   UNL d   1       3.692   9.655   0.061  0.00  0.00     0.018 A 
ATOM     13  C   UNL d   1       4.295   8.595  -0.612  0.00  0.00     0.027 A 
ATOM     14  C   UNL d   1       3.675   7.339  -0.681  0.00  0.00     0.062 A 
ATOM     15 CL   UNL d   1       4.511   6.177  -1.659  0.00  0.00    -0.082 Cl
BRANCH  11  16
ATOM     16  C   UNL d   1       1.828  10.626   1.441  0.00  0.00     0.417 C 
ATOM     17  F   UNL d   1       0.620  10.320   1.988  0.00  0.00    -0.166 F 
ATOM     18  F   UNL d   1       2.611  11.049   2.470  0.00  0.00    -0.166 F 
ATOM     19  F   UNL d   1       1.618  11.717   0.654  0.00  0.00    -0.166 F 
ENDBRANCH  11  16
ENDBRANCH   1   9
BRANCH   2  20
ATOM     20  C   UNL d   1      -0.575   3.073   0.059  0.00  0.00     0.058 C 
ATOM     21  N   UNL d   1      -1.807   3.494   0.102  0.00  0.00    -0.271 N 
ATOM     22  HN  UNL d   1      -2.077   4.477   0.144  1.00  0.00     0.194 HD
ATOM     23  C   UNL d   1      -0.215   1.602   0.003  0.00  0.00     0.072 C 
BRANCH  21  24
ATOM     24  O   UNL d   1      -2.716   2.428   0.085  0.00  0.00    -0.290 OA
ATOM     25  H   UNL d   1      -3.580   2.881   0.096  0.00  0.00     0.244 HD
ENDBRANCH  21  24
ENDBRANCH   2  20
TORSDOF 4
