REMARK  1 active torsions:
REMARK  status: ('A' for Active; 'I' for Inactive)
REMARK    1  A    between atoms: C_8  and  C_2 
ROOT
ATOM      1  N   UNL d   1      -0.796   1.232   0.006  0.00  0.00    -0.292 N 
ATOM      2  C   UNL d   1       1.325  -0.007  -0.005  0.00  0.00     0.127 A 
ATOM      3  C   UNL d   1      -1.492   0.016   0.004  0.00  0.00     0.197 A 
ATOM      4  N   UNL d   1       0.686  -1.132  -0.013  0.00  0.00    -0.291 N 
ATOM      5  HN  UNL d   1       1.202  -2.012  -0.007  1.00  0.00     0.187 HD
ATOM      6  C   UNL d   1       0.588   1.306  -0.059  0.00  0.00     0.278 A 
ATOM      7  N   UNL d   1      -0.688  -1.142  -0.028  0.00  0.00    -0.271 N 
ATOM      8  S   UNL d   1      -3.185  -0.060   0.031  0.00  0.00    -0.039 SA
ATOM      9  O   UNL d   1       1.219   2.349  -0.184  0.00  0.00    -0.265 OA
ATOM     10  C   UNL d   1      -1.443   2.544   0.010  0.00  0.00     0.162 C 
ATOM     11  C   UNL d   1      -1.215  -2.518  -0.033  0.00  0.00     0.180 C 
ENDROOT
BRANCH   2  12
ATOM     12  C   UNL d   1       2.818  -0.024   0.026  0.00  0.00    -0.001 A 
ATOM     13  C   UNL d   1       3.499  -1.069  -0.613  0.00  0.00     0.039 A 
ATOM     14  C   UNL d   1       4.899  -1.095  -0.631  0.00  0.00     0.056 A 
ATOM     15 CL   UNL d   1       5.668  -2.403  -1.459  0.00  0.00    -0.083 Cl
ATOM     16  C   UNL d   1       5.627  -0.081  -0.000  0.00  0.00     0.055 A 
ATOM     17  C   UNL d   1       4.951   0.945   0.663  0.00  0.00     0.026 A 
ATOM     18 CL   UNL d   1       7.354  -0.033  -0.003  0.00  0.00    -0.083 Cl
ATOM     19  C   UNL d   1       3.553   0.969   0.686  0.00  0.00     0.016 A 
ENDBRANCH   2  12
TORSDOF 1
