REMARK  8 active torsions:
REMARK  status: ('A' for Active; 'I' for Inactive)
REMARK    1  A    between atoms: C_4  and  C_1 
REMARK    2  A    between atoms: C_5  and  O_17 
REMARK       I    between atoms: N_8  and  C_5 
REMARK    3  A    between atoms: C_19  and  N_8 
REMARK    4  A    between atoms: O_17  and  C_24 
REMARK    5  A    between atoms: C_22  and  C_18 
REMARK    6  A    between atoms: S_21  and  C_22 
REMARK    7  A    between atoms: C_23  and  S_21 
REMARK    8  A    between atoms: C_24  and  C_23 
ROOT
ATOM      1  N   UNL d   1       0.833  -1.266  -2.022  0.00  0.00    -0.352 N 
ATOM      2  HN  UNL d   1       1.795  -0.940  -1.924  1.00  0.00     0.166 HD
ATOM      3  C   UNL d   1       0.060  -1.480  -0.919  0.00  0.00     0.117 A 
ATOM      4  C   UNL d   1       0.309  -1.490  -3.241  0.00  0.00     0.043 A 
ATOM      5  C   UNL d   1      -1.013  -1.935  -3.424  0.00  0.00    -0.009 A 
ATOM      6  C   UNL d   1      -1.254  -1.930  -1.020  0.00  0.00     0.035 A 
ATOM      7  C   UNL d   1      -1.518  -2.152  -4.721  0.00  0.00     0.021 A 
ATOM      8  C   UNL d   1      -1.793  -2.158  -2.282  0.00  0.00     0.016 A 
ATOM      9  C   UNL d   1       1.092  -1.282  -4.367  0.00  0.00     0.031 A 
ATOM     10  C   UNL d   1      -0.717  -1.932  -5.850  0.00  0.00    -0.048 A 
ATOM     11  C   UNL d   1       0.599  -1.499  -5.658  0.00  0.00     0.010 A 
ENDROOT
BRANCH  10  12
ATOM     12  C   UNL d   1      -1.237  -2.227  -7.236  0.00  0.00     0.112 C 
BRANCH  12  13
ATOM     13  S   UNL d   1      -0.986  -3.986  -7.635  0.00  0.00    -0.162 SA
BRANCH  13  14
ATOM     14  C   UNL d   1      -1.600  -4.002  -9.354  0.00  0.00     0.101 C 
BRANCH  14  15
ATOM     15  C   UNL d   1      -1.403  -5.388  -9.982  0.00  0.00     0.191 C 
BRANCH  15  16
ATOM     16  O   UNL d   1      -0.025  -5.809 -10.014  0.00  0.00    -0.303 OA
BRANCH  16  17
ATOM     17  C   UNL d   1       0.763  -5.201 -10.928  0.00  0.00     0.365 C 
ATOM     18  N   UNL d   1       2.080  -5.562 -10.936  0.00  0.00    -0.303 N 
ATOM     19  H   UNL d   1       2.597  -5.012 -11.610  0.00  0.00     0.171 HD
ATOM     20  O   UNL d   1       0.359  -4.347 -11.718  0.00  0.00    -0.238 OA
BRANCH  18  21
ATOM     21  C   UNL d   1       2.832  -6.464 -10.160  0.00  0.00     0.036 A 
ATOM     22  C   UNL d   1       2.307  -7.333  -9.202  0.00  0.00     0.029 A 
ATOM     23  C   UNL d   1       3.158  -8.147  -8.442  0.00  0.00     0.002 A 
ATOM     24  C   UNL d   1       4.537  -8.106  -8.637  0.00  0.00     0.000 A 
ATOM     25  C   UNL d   1       5.069  -7.270  -9.613  0.00  0.00     0.002 A 
ATOM     26  C   UNL d   1       4.219  -6.462 -10.373  0.00  0.00     0.029 A 
ENDBRANCH  18  21
ENDBRANCH  16  17
ENDBRANCH  15  16
ENDBRANCH  14  15
ENDBRANCH  13  14
ENDBRANCH  12  13
ENDBRANCH  10  12
BRANCH   3  27
ATOM     27  C   UNL d   1       0.641  -1.221   0.465  0.00  0.00     0.432 C 
ATOM     28  F   UNL d   1       1.920  -0.750   0.465  0.00  0.00    -0.165 F 
ATOM     29  F   UNL d   1       0.659  -2.344   1.243  0.00  0.00    -0.165 F 
ATOM     30  F   UNL d   1      -0.089  -0.306   1.171  0.00  0.00    -0.165 F 
ENDBRANCH   3  27
TORSDOF 8
