REMARK  6 active torsions:
REMARK  status: ('A' for Active; 'I' for Inactive)
REMARK    1  A    between atoms: C_2  and  C_1 
REMARK    2  A    between atoms: C_11  and  C_2 
REMARK    3  A    between atoms: N_5  and  C_3 
REMARK    4  A    between atoms: N_4  and  C_12 
REMARK       I    between atoms: C_6  and  N_5 
REMARK    5  A    between atoms: C_8  and  C_6 
REMARK    6  A    between atoms: C_12  and  C_8 
ROOT
ATOM      1  C   UNL d   1       1.605   1.715  -0.851  0.00  0.00     0.043 A 
ATOM      2  C   UNL d   1       2.647   0.783  -0.696  0.00  0.00     0.049 A 
ATOM      3  C   UNL d   1       0.266   1.291  -0.805  0.00  0.00     0.041 A 
ATOM      4  C   UNL d   1       2.318  -0.582  -0.612  0.00  0.00     0.032 A 
ATOM      5  C   UNL d   1      -0.037  -0.057  -0.648  0.00  0.00     0.035 A 
ATOM      6  C   UNL d   1       0.984  -0.999  -0.565  0.00  0.00     0.026 A 
ATOM      7 CL   UNL d   1      -1.677  -0.560  -0.540  0.00  0.00    -0.084 Cl
ENDROOT
BRANCH   2   8
ATOM      8  N   UNL d   1       4.012   1.087  -0.563  0.00  0.00    -0.326 N 
ATOM      9  C   UNL d   1       4.676   1.960   0.259  0.00  0.00     0.223 C 
ATOM     10  O   UNL d   1       5.909   1.968   0.169  0.00  0.00    -0.273 OA
ATOM     11  H   UNL d   1       4.669   0.394  -0.910  0.00  0.00     0.169 HD
BRANCH   9  12
ATOM     12  C   UNL d   1       3.998   2.825   1.318  0.00  0.00     0.133 C 
BRANCH  12  13
ATOM     13  C   UNL d   1       3.070   2.008   2.207  0.00  0.00     0.282 C 
BRANCH  13  14
ATOM     14  N   UNL d   1       2.428   2.622   3.374  0.00  0.00     0.093 N 
ATOM     15  C   UNL d   1       3.242   3.486   4.242  0.00  0.00     0.303 C 
ATOM     16  C   UNL d   1       4.184   2.756   5.234  0.00  0.00     0.146 C 
ATOM     17  C   UNL d   1       4.678   3.726   6.302  0.00  0.00     0.041 C 
ATOM     18  O   UNL d   1       3.526   1.676   5.929  0.00  0.00    -0.378 OA
ATOM     19  C   UNL d   1       2.909   0.784   4.992  0.00  0.00     0.146 C 
ATOM     20  C   UNL d   1       1.827   1.551   4.206  0.00  0.00     0.303 C 
ATOM     21  C   UNL d   1       2.326  -0.413   5.726  0.00  0.00     0.041 C 
ENDBRANCH  13  14
ENDBRANCH  12  13
ENDBRANCH   9  12
ENDBRANCH   2   8
BRANCH   1  22
ATOM     22  C   UNL d   1       1.801   3.166  -1.011  0.00  0.00     0.194 C 
ATOM     23  O   UNL d   1       1.191   3.909  -0.239  0.00  0.00    -0.287 OA
BRANCH  22  24
ATOM     24  C   UNL d   1       2.639   3.760  -2.072  0.00  0.00     0.015 A 
ATOM     25  C   UNL d   1       3.215   5.016  -1.823  0.00  0.00     0.015 A 
ATOM     26  C   UNL d   1       3.932   5.670  -2.822  0.00  0.00     0.001 A 
ATOM     27  C   UNL d   1       4.061   5.082  -4.078  0.00  0.00     0.000 A 
ATOM     28  C   UNL d   1       3.486   3.831  -4.329  0.00  0.00     0.001 A 
ATOM     29  C   UNL d   1       2.781   3.165  -3.326  0.00  0.00     0.015 A 
ENDBRANCH  22  24
ENDBRANCH   1  22
TORSDOF 6
