REMARK  3 active torsions:
REMARK  status: ('A' for Active; 'I' for Inactive)
REMARK    1  A    between atoms: N_2  and  C_5 
REMARK    2  A    between atoms: C_8  and  C_7 
REMARK    3  A    between atoms: O_19  and  C_9 
ROOT
ATOM      1  C   UNL d   1      -0.213  -0.650  -0.074  0.00  0.00     0.058 A 
ATOM      2  N   UNL d   1      -1.671   1.284  -0.018  0.00  0.00    -0.351 N 
ATOM      3  HN  UNL d   1      -1.778   2.298   0.014  1.00  0.00     0.166 HD
ATOM      4  C   UNL d   1       1.162  -1.060  -0.101  0.00  0.00     0.124 A 
ATOM      5  C   UNL d   1      -0.448   0.738  -0.030  0.00  0.00     0.048 A 
ATOM      6  C   UNL d   1      -2.767   0.484  -0.049  0.00  0.00     0.119 A 
ATOM      7  C   UNL d   1      -1.383  -1.473  -0.094  0.00  0.00     0.085 A 
ATOM      8  C   UNL d   1      -2.653  -0.898  -0.082  0.00  0.00     0.072 A 
ATOM      9  C   UNL d   1       2.247  -0.158  -0.075  0.00  0.00    -0.028 A 
ATOM     10  C   UNL d   1       0.617   1.624   0.001  0.00  0.00     0.031 A 
ATOM     11  C   UNL d   1       1.946   1.200  -0.017  0.00  0.00     0.011 A 
ATOM     12  C   UNL d   1       3.697  -0.556  -0.097  0.00  0.00     0.050 C 
ENDROOT
BRANCH   6  13
ATOM     13  C   UNL d   1      -4.154   1.111  -0.043  0.00  0.00     0.432 C 
ATOM     14  F   UNL d   1      -4.159   2.472  -0.089  0.00  0.00    -0.165 F 
ATOM     15  F   UNL d   1      -4.911   0.701  -1.104  0.00  0.00    -0.165 F 
ATOM     16  F   UNL d   1      -4.872   0.770   1.067  0.00  0.00    -0.165 F 
ENDBRANCH   6  13
BRANCH   7  17
ATOM     17  O   UNL d   1      -1.183  -2.829  -0.100  0.00  0.00    -0.355 OA
ATOM     18  C   UNL d   1      -2.304  -3.684  -0.301  0.00  0.00     0.210 C 
ENDBRANCH   7  17
BRANCH   4  19
ATOM     19  N   UNL d   1       1.472  -2.474  -0.189  0.00  0.00    -0.114 N 
ATOM     20  O   UNL d   1       1.619  -3.084   0.880  0.00  0.00    -0.532 OA
ATOM     21  O   UNL d   1       1.646  -2.938  -1.323  0.00  0.00    -0.532 OA
ENDBRANCH   4  19
TORSDOF 3
