REMARK  5 active torsions:
REMARK  status: ('A' for Active; 'I' for Inactive)
REMARK       I    between atoms: N_2  and  C_1 
REMARK    1  A    between atoms: C_3  and  C_1 
REMARK    2  A    between atoms: C_4  and  N_2 
REMARK    3  A    between atoms: N_6  and  C_3 
REMARK    4  A    between atoms: C_16  and  N_6 
REMARK    5  A    between atoms: C_8  and  C_16 
ROOT
ATOM      1  C   UNL d   1       1.239   0.071   0.103  0.00  0.00     0.283 C 
ATOM      2  N   UNL d   1       2.261  -0.324  -0.741  0.00  0.00    -0.318 N 
ATOM      3  O   UNL d   1       0.917   1.202   0.403  0.00  0.00    -0.265 OA
ATOM      4  H   UNL d   1       2.267  -1.294  -1.049  0.00  0.00     0.169 HD
ENDROOT
BRANCH   1   5
ATOM      5  C   UNL d   1       0.473  -1.122   0.670  0.00  0.00     0.165 C 
ATOM      6  S   UNL d   1      -1.147  -1.257   0.325  0.00  0.00    -0.055 SA
BRANCH   5   7
ATOM      7  N   UNL d   1       1.142  -2.079   1.394  0.00  0.00    -0.372 N 
ATOM      8  H   UNL d   1       0.571  -2.856   1.705  0.00  0.00     0.161 HD
BRANCH   7   9
ATOM      9  C   UNL d   1       2.439  -1.911   2.031  0.00  0.00     0.166 C 
BRANCH   9  10
ATOM     10  C   UNL d   1       3.403  -2.899   1.456  0.00  0.00    -0.000 A 
ATOM     11  S   UNL d   1       4.826  -2.354   0.669  0.00  0.00    -0.105 SA
ATOM     12  C   UNL d   1       5.354  -3.950   0.367  0.00  0.00     0.050 A 
ATOM     13  C   UNL d   1       4.477  -4.886   0.865  0.00  0.00     0.008 A 
ATOM     14  C   UNL d   1       3.353  -4.281   1.498  0.00  0.00     0.017 A 
ENDBRANCH   9  10
ENDBRANCH   7   9
ENDBRANCH   5   7
ENDBRANCH   1   5
BRANCH   2  15
ATOM     15  C   UNL d   1       3.132   0.558  -1.408  0.00  0.00     0.074 A 
ATOM     16  C   UNL d   1       3.639   0.158  -2.650  0.00  0.00     0.146 A 
ATOM     17  C   UNL d   1       4.448   1.005  -3.404  0.00  0.00     0.086 A 
ATOM     18  F   UNL d   1       3.289  -1.030  -3.159  0.00  0.00    -0.204 F 
ATOM     19  C   UNL d   1       4.796   2.238  -2.872  0.00  0.00     0.119 A 
ATOM     20  C   UNL d   1       4.357   2.634  -1.610  0.00  0.00     0.044 A 
ATOM     21  F   UNL d   1       5.581   3.062  -3.582  0.00  0.00    -0.206 F 
ATOM     22  C   UNL d   1       3.509   1.794  -0.882  0.00  0.00     0.036 A 
ENDBRANCH   2  15
TORSDOF 5
