REMARK  4 active torsions:
REMARK  status: ('A' for Active; 'I' for Inactive)
REMARK    1  A    between atoms: C_3  and  N_1 
REMARK    2  A    between atoms: C_2  and  N_9 
REMARK    3  A    between atoms: N_9  and  N_4 
REMARK    4  A    between atoms: C_12  and  C_13 
ROOT
ATOM      1  N   UNL d   1       1.486   4.564  -2.270  0.00  0.00    -0.309 N 
ATOM      2  HN  UNL d   1       2.024   3.698  -2.280  1.00  0.00     0.186 HD
ATOM      3  C   UNL d   1       0.433   4.699  -1.533  0.00  0.00     0.118 C 
ENDROOT
BRANCH   3   4
ATOM      4  C   UNL d   1      -0.018   3.566  -0.697  0.00  0.00    -0.017 A 
ATOM      5  C   UNL d   1       0.708   2.369  -0.715  0.00  0.00     0.048 A 
ATOM      6  C   UNL d   1       0.269   1.287   0.051  0.00  0.00     0.103 A 
ATOM      7  C   UNL d   1      -0.883   1.397   0.841  0.00  0.00     0.036 A 
ATOM      8  C   UNL d   1      -1.597   2.599   0.858  0.00  0.00     0.003 A 
ATOM      9  C   UNL d   1      -1.167   3.686   0.088  0.00  0.00     0.013 A 
BRANCH   6  10
ATOM     10  N   UNL d   1       1.019   0.026   0.012  0.00  0.00    -0.116 N 
ATOM     11  O   UNL d   1       2.025  -0.027  -0.707  0.00  0.00    -0.532 OA
ATOM     12  O   UNL d   1       0.599  -0.912   0.703  0.00  0.00    -0.532 OA
ENDBRANCH   6  10
ENDBRANCH   3   4
BRANCH   1  13
ATOM     13  N   UNL d   1       1.842   5.633  -3.033  0.00  0.00    -0.277 N 
ATOM     14  H   UNL d   1       1.290   6.485  -3.037  0.00  0.00     0.189 HD
BRANCH  13  15
ATOM     15  C   UNL d   1       2.949   5.560  -3.839  0.00  0.00     0.184 C 
ATOM     16  S   UNL d   1       3.431   6.811  -4.813  0.00  0.00    -0.040 SA
ATOM     17  N   UNL d   1       3.627   4.388  -3.783  0.00  0.00    -0.375 N 
ATOM     18  H   UNL d   1       3.254   3.670  -3.174  0.00  0.00     0.158 HD
ATOM     19  H   UNL d   1       4.451   4.216  -4.339  0.00  0.00     0.158 HD
ENDBRANCH  13  15
ENDBRANCH   1  13
TORSDOF 4
