REMARK  5 active torsions:
REMARK  status: ('A' for Active; 'I' for Inactive)
REMARK    1  A    between atoms: N_3  and  C_1 
REMARK    2  A    between atoms: N_9  and  C_1 
REMARK    3  A    between atoms: C_2  and  C_4 
REMARK    4  A    between atoms: C_6  and  N_5 
REMARK    5  A    between atoms: C_22  and  N_9 
ROOT
ATOM      1  N   UNL d   1       0.456   0.210  -1.249  0.00  0.00    -0.357 N 
ATOM      2  N   UNL d   1      -1.383   0.433  -3.533  0.00  0.00    -0.268 NA
ATOM      3  C   UNL d   1      -0.401   1.390  -1.460  0.00  0.00     0.140 C 
ATOM      4  C   UNL d   1      -1.694   1.109  -2.255  0.00  0.00     0.116 C 
ATOM      5  C   UNL d   1       0.243  -1.399  -3.164  0.00  0.00     0.035 C 
ATOM      6  C   UNL d   1       1.089  -0.360  -2.438  0.00  0.00     0.126 C 
ATOM      7  C   UNL d   1      -1.220  -1.027  -3.388  0.00  0.00     0.098 C 
ENDROOT
BRANCH   1   8
ATOM      8  C   UNL d   1       0.982  -0.056   0.009  0.00  0.00     0.170 C 
ATOM      9  S   UNL d   1       0.658  -1.487   0.800  0.00  0.00    -0.041 SA
BRANCH   8  10
ATOM     10  N   UNL d   1       1.730   0.993   0.489  0.00  0.00    -0.363 N 
ATOM     11  H   UNL d   1       2.040   1.631  -0.228  0.00  0.00     0.162 HD
BRANCH  10  12
ATOM     12  C   UNL d   1       2.194   1.262   1.869  0.00  0.00     0.083 C 
ATOM     13  C   UNL d   1       1.033   1.798   2.723  0.00  0.00     0.025 C 
ATOM     14  C   UNL d   1       0.471   3.140   2.244  0.00  0.00     0.002 C 
ATOM     15  C   UNL d   1       0.861   4.359   3.079  0.00  0.00     0.000 C 
ATOM     16  C   UNL d   1       2.341   4.748   3.098  0.00  0.00     0.000 C 
ATOM     17  C   UNL d   1       3.235   3.794   3.890  0.00  0.00     0.000 C 
ATOM     18  C   UNL d   1       3.991   2.717   3.101  0.00  0.00     0.002 C 
ATOM     19  C   UNL d   1       3.402   2.209   1.785  0.00  0.00     0.025 C 
ENDBRANCH  10  12
ENDBRANCH   8  10
ENDBRANCH   1   8
BRANCH   2  20
ATOM     20  C   UNL d   1      -2.212   0.784  -4.606  0.00  0.00     0.082 A 
ATOM     21  N   UNL d   1      -3.448   1.292  -4.396  0.00  0.00    -0.356 N 
ATOM     22  C   UNL d   1      -4.191   1.651  -5.474  0.00  0.00     0.105 A 
ATOM     23  HN  UNL d   1      -3.813   1.403  -3.450  1.00  0.00     0.166 HD
ATOM     24  C   UNL d   1      -3.752   1.548  -6.791  0.00  0.00     0.063 A 
ATOM     25  C   UNL d   1      -2.465   1.042  -7.000  0.00  0.00     0.021 A 
ATOM     26  C   UNL d   1      -1.699   0.651  -5.900  0.00  0.00     0.043 A 
BRANCH  24  27
ATOM     27  C   UNL d   1      -4.605   1.975  -7.934  0.00  0.00     0.418 C 
ATOM     28  F   UNL d   1      -5.845   2.402  -7.562  0.00  0.00    -0.166 F 
ATOM     29  F   UNL d   1      -4.058   3.000  -8.650  0.00  0.00    -0.166 F 
ATOM     30  F   UNL d   1      -4.816   0.974  -8.835  0.00  0.00    -0.166 F 
ENDBRANCH  24  27
ENDBRANCH   2  20
TORSDOF 5
