REMARK  5 active torsions:
REMARK  status: ('A' for Active; 'I' for Inactive)
REMARK    1  A    between atoms: N_2  and  C_5 
REMARK    2  A    between atoms: C_6  and  C_3 
REMARK       I    between atoms: N_8  and  C_6 
REMARK    3  A    between atoms: C_10  and  N_8 
REMARK    4  A    between atoms: C_15  and  C_11 
REMARK    5  A    between atoms: C_21  and  C_15 
ROOT
ATOM      1  C   UNL d   1      -3.735  -0.209  -1.174  0.00  0.00     0.272 C 
ATOM      2  N   UNL d   1      -4.368  -1.184  -0.414  0.00  0.00    -0.321 N 
ATOM      3  O   UNL d   1      -2.570  -0.268  -1.558  0.00  0.00    -0.266 OA
ATOM      4  H   UNL d   1      -5.354  -1.239  -0.631  0.00  0.00     0.169 HD
ENDROOT
BRANCH   1   5
ATOM      5  C   UNL d   1      -4.604   0.900  -1.549  0.00  0.00     0.102 A 
ATOM      6  N   UNL d   1      -4.193   1.913  -2.394  0.00  0.00    -0.349 N 
ATOM      7  C   UNL d   1      -5.239   2.764  -2.700  0.00  0.00     0.076 A 
ATOM      8  H   UNL d   1      -3.259   1.980  -2.788  0.00  0.00     0.166 HD
ATOM      9  C   UNL d   1      -5.322   3.875  -3.565  0.00  0.00     0.130 A 
ATOM     10  C   UNL d   1      -6.338   2.320  -1.964  0.00  0.00    -0.005 A 
ATOM     11  C   UNL d   1      -6.576   4.503  -3.709  0.00  0.00     0.038 A 
ATOM     12  C   UNL d   1      -7.686   4.057  -2.994  0.00  0.00     0.003 A 
ATOM     13  C   UNL d   1      -7.572   2.984  -2.104  0.00  0.00     0.014 A 
ATOM     14  C   UNL d   1      -5.910   1.203  -1.197  0.00  0.00     0.049 A 
BRANCH   9  15
ATOM     15  N   UNL d   1      -4.178   4.402  -4.321  0.00  0.00    -0.113 N 
ATOM     16  O   UNL d   1      -3.083   3.842  -4.152  0.00  0.00    -0.532 OA
ATOM     17  O   UNL d   1      -4.367   5.364  -5.074  0.00  0.00    -0.532 OA
ENDBRANCH   9  15
ENDBRANCH   1   5
BRANCH   2  18
ATOM     18  C   UNL d   1      -3.768  -2.444  -0.195  0.00  0.00     0.041 A 
ATOM     19  C   UNL d   1      -2.923  -2.723   0.896  0.00  0.00    -0.028 A 
ATOM     20  C   UNL d   1      -2.476  -4.061   1.034  0.00  0.00     0.010 A 
ATOM     21  C   UNL d   1      -2.846  -5.067   0.142  0.00  0.00     0.001 A 
ATOM     22  C   UNL d   1      -3.698  -4.774  -0.912  0.00  0.00     0.002 A 
ATOM     23  C   UNL d   1      -4.167  -3.472  -1.069  0.00  0.00     0.030 A 
BRANCH  19  24
ATOM     24  C   UNL d   1      -2.515  -1.769   2.024  0.00  0.00     0.016 C 
ATOM     25  C   UNL d   1      -3.200  -0.402   2.113  0.00  0.00     0.015 C 
BRANCH  24  26
ATOM     26  C   UNL d   1      -0.980  -1.611   2.166  0.00  0.00     0.004 C 
ATOM     27  C   UNL d   1      -0.282  -1.007   0.957  0.00  0.00     0.006 C 
ENDBRANCH  24  26
ENDBRANCH  19  24
ENDBRANCH   2  18
TORSDOF 5
