REMARK  6 active torsions:
REMARK  status: ('A' for Active; 'I' for Inactive)
REMARK    1  A    between atoms: C_3  and  S_1 
REMARK    2  A    between atoms: N_4  and  S_1 
REMARK    3  A    between atoms: C_2  and  C_6 
REMARK    4  A    between atoms: C_6  and  N_4 
REMARK    5  A    between atoms: O_11  and  C_5 
REMARK    6  A    between atoms: C_17  and  O_11 
ROOT
ATOM      1  C   UNL d   1       0.983  -1.147  -2.559  0.00  0.00     0.175 C 
ENDROOT
BRANCH   1   2
ATOM      2  C   UNL d   1       0.366  -2.365  -3.232  0.00  0.00     0.016 A 
ATOM      3  C   UNL d   1       1.188  -3.290  -3.917  0.00  0.00     0.085 A 
ATOM      4  C   UNL d   1       0.620  -4.330  -4.679  0.00  0.00     0.038 A 
ATOM      5  C   UNL d   1      -0.753  -4.531  -4.698  0.00  0.00     0.004 A 
ATOM      6  C   UNL d   1      -1.575  -3.659  -4.000  0.00  0.00     0.024 A 
ATOM      7  C   UNL d   1      -1.029  -2.571  -3.306  0.00  0.00     0.044 A 
ATOM      8 CL   UNL d   1      -2.184  -1.502  -2.583  0.00  0.00    -0.084 Cl
BRANCH   3   9
ATOM      9  O   UNL d   1       2.564  -3.118  -3.869  0.00  0.00    -0.310 OA
BRANCH   9  10
ATOM     10  C   UNL d   1       3.352  -4.249  -3.943  0.00  0.00     0.076 A 
ATOM     11  C   UNL d   1       4.401  -4.247  -4.865  0.00  0.00     0.037 A 
ATOM     12  C   UNL d   1       5.183  -5.393  -5.028  0.00  0.00     0.003 A 
ATOM     13  C   UNL d   1       4.925  -6.532  -4.264  0.00  0.00     0.000 A 
ATOM     14  C   UNL d   1       3.905  -6.518  -3.312  0.00  0.00     0.003 A 
ATOM     15  C   UNL d   1       3.132  -5.370  -3.135  0.00  0.00     0.037 A 
ENDBRANCH   9  10
ENDBRANCH   3   9
ENDBRANCH   1   2
BRANCH   1  16
ATOM     16  N   UNL d   1       0.377  -0.797  -1.275  0.00  0.00    -0.311 N 
ATOM     17  H   UNL d   1      -0.580  -1.095  -1.095  0.00  0.00     0.172 HD
BRANCH  16  18
ATOM     18  S   UNL d   1       0.776   0.631  -0.506  0.00  0.00     0.259 S 
ATOM     19  O   UNL d   1      -0.096   0.740   0.640  0.00  0.00    -0.201 OA
ATOM     20  O   UNL d   1       2.218   0.661  -0.373  0.00  0.00    -0.201 OA
BRANCH  18  21
ATOM     21  C   UNL d   1       0.305   1.921  -1.640  0.00  0.00     0.080 A 
ATOM     22  C   UNL d   1       1.270   2.842  -2.076  0.00  0.00     0.035 A 
ATOM     23  C   UNL d   1       0.846   3.896  -2.866  0.00  0.00    -0.021 A 
ATOM     24  C   UNL d   1       1.622   5.005  -3.468  0.00  0.00     0.068 C 
ATOM     25  C   UNL d   1      -0.484   4.020  -3.240  0.00  0.00     0.075 A 
ATOM     26  C   UNL d   1       0.461   5.924  -3.851  0.00  0.00     0.180 C 
ATOM     27  O   UNL d   1      -0.734   5.122  -4.015  0.00  0.00    -0.350 OA
ATOM     28  C   UNL d   1      -1.445   3.109  -2.845  0.00  0.00     0.039 A 
ATOM     29  C   UNL d   1      -1.047   2.055  -2.015  0.00  0.00     0.028 A 
ENDBRANCH  18  21
ENDBRANCH  16  18
ENDBRANCH   1  16
TORSDOF 6
