REMARK  3 active torsions:
REMARK  status: ('A' for Active; 'I' for Inactive)
REMARK    1  A    between atoms: C_5  and  C_2 
REMARK    2  A    between atoms: C_12  and  C_7 
REMARK    3  A    between atoms: C_11  and  C_13 
ROOT
ATOM      1  C   UNL d   1      -0.025   0.725   0.096  0.00  0.00     0.026 C 
ATOM      2  C   UNL d   1      -1.276   1.568  -0.097  0.00  0.00     0.127 C 
ATOM      3  C   UNL d   1      -0.065  -0.618   0.121  0.00  0.00     0.021 C 
ATOM      4  C   UNL d   1      -2.566   0.737   0.044  0.00  0.00     0.059 C 
ATOM      5  N   UNL d   1      -1.287  -1.268   0.099  0.00  0.00    -0.362 N 
ATOM      6  C   UNL d   1      -2.512  -0.616   0.099  0.00  0.00     0.023 C 
ATOM      7  C   UNL d   1       1.277   1.445   0.185  0.00  0.00     0.159 C 
ATOM      8  C   UNL d   1      -3.808   1.438   0.080  0.00  0.00     0.098 C 
ATOM      9  N   UNL d   1      -4.816   2.015   0.145  0.00  0.00    -0.192 NA
ATOM     10  C   UNL d   1       1.181  -1.477   0.117  0.00  0.00     0.067 C 
ATOM     11  C   UNL d   1       2.440  -0.720  -0.372  0.00  0.00    -0.036 C 
ATOM     12  C   UNL d   1       2.527   0.619   0.375  0.00  0.00     0.092 C 
ATOM     13  O   UNL d   1       1.319   2.671   0.183  0.00  0.00    -0.293 OA
ATOM     14  C   UNL d   1      -3.748  -1.482   0.126  0.00  0.00     0.069 C 
ATOM     15  C   UNL d   1       2.387  -0.487  -1.899  0.00  0.00     0.015 C 
ATOM     16  C   UNL d   1       3.700  -1.546  -0.065  0.00  0.00     0.015 C 
ATOM     17  H   UNL d   1      -1.291  -2.285   0.087  0.00  0.00     0.165 HD
ENDROOT
BRANCH   2  18
ATOM     18  C   UNL d   1      -1.239   2.284  -1.423  0.00  0.00     0.067 A 
ATOM     19  O   UNL d   1      -1.036   1.496  -2.517  0.00  0.00    -0.313 OA
ATOM     20  C   UNL d   1      -1.156   2.276  -3.620  0.00  0.00     0.086 A 
ATOM     21  C   UNL d   1      -1.319   3.593  -3.230  0.00  0.00     0.040 A 
ATOM     22  C   UNL d   1      -1.353   3.599  -1.812  0.00  0.00     0.036 A 
BRANCH  20  23
ATOM     23  C   UNL d   1      -1.008   1.594  -4.900  0.00  0.00     0.013 A 
ATOM     24  C   UNL d   1      -1.432   0.272  -5.155  0.00  0.00     0.060 A 
ATOM     25  C   UNL d   1      -1.152  -0.292  -6.425  0.00  0.00     0.017 A 
ATOM     26  C   UNL d   1      -0.504   0.430  -7.426  0.00  0.00     0.001 A 
ATOM     27  C   UNL d   1      -0.125   1.741  -7.184  0.00  0.00     0.001 A 
ATOM     28  C   UNL d   1      -0.373   2.313  -5.936  0.00  0.00     0.015 A 
BRANCH  24  29
ATOM     29  C   UNL d   1      -2.202  -0.625  -4.206  0.00  0.00     0.418 C 
ATOM     30  F   UNL d   1      -2.636  -0.107  -3.031  0.00  0.00    -0.166 F 
ATOM     31  F   UNL d   1      -3.345  -1.096  -4.797  0.00  0.00    -0.166 F 
ATOM     32  F   UNL d   1      -1.492  -1.748  -3.881  0.00  0.00    -0.166 F 
ENDBRANCH  24  29
ENDBRANCH  20  23
ENDBRANCH   2  18
TORSDOF 3
