REMARK  2 active torsions:
REMARK  status: ('A' for Active; 'I' for Inactive)
REMARK    1  A    between atoms: C_7  and  N_3 
REMARK    2  A    between atoms: C_8  and  C_7 
ROOT
ATOM      1  C   UNL d   1      -0.764  -2.413   0.025  0.00  0.00     0.167 C 
ENDROOT
BRANCH   1   2
ATOM      2  N   UNL d   1      -0.387  -1.196   0.722  0.00  0.00    -0.347 N 
ATOM      3  C   UNL d   1      -0.133   0.013   0.140  0.00  0.00     0.182 A 
ATOM      4  N   UNL d   1       0.283   0.894   1.022  0.00  0.00    -0.361 N 
ATOM      5  C   UNL d   1       0.297   0.227   2.219  0.00  0.00     0.106 A 
ATOM      6  HN  UNL d   1       0.541   1.866   0.851  1.00  0.00     0.166 HD
ATOM      7  C   UNL d   1      -0.111  -1.076   2.057  0.00  0.00     0.109 A 
ENDBRANCH   1   2
BRANCH   1   8
ATOM      8  C   UNL d   1      -2.260  -2.591  -0.035  0.00  0.00    -0.040 A 
ATOM      9  C   UNL d   1      -2.997  -2.091  -1.119  0.00  0.00     0.009 A 
ATOM     10  C   UNL d   1      -4.381  -2.266  -1.176  0.00  0.00     0.001 A 
ATOM     11  C   UNL d   1      -5.043  -2.939  -0.151  0.00  0.00     0.000 A 
ATOM     12  C   UNL d   1      -4.323  -3.435   0.934  0.00  0.00     0.001 A 
ATOM     13  C   UNL d   1      -2.939  -3.260   0.994  0.00  0.00     0.009 A 
ENDBRANCH   1   8
TORSDOF 2
