REMARK  1 active torsions:
REMARK  status: ('A' for Active; 'I' for Inactive)
REMARK    1  A    between atoms: O_7  and  C_4 
ROOT
ATOM      1  C   UNL d   1       1.066   0.982  -0.008  0.00  0.00    -0.044 A 
ATOM      2  C   UNL d   1      -0.011   0.118  -0.009  0.00  0.00    -0.011 A 
ATOM      3  C   UNL d   1      -1.216   0.789  -0.009  0.00  0.00    -0.018 A 
ATOM      4  C   UNL d   1      -0.979   2.261  -0.011  0.00  0.00     0.156 A 
ATOM      5  C   UNL d   1       0.587   2.396   0.011  0.00  0.00     0.076 A 
ATOM      6  C   UNL d   1       0.104  -1.249  -0.006  0.00  0.00    -0.025 A 
ATOM      7  C   UNL d   1       2.368   0.502  -0.005  0.00  0.00     0.008 A 
ATOM      8  C   UNL d   1      -2.420   0.097  -0.007  0.00  0.00     0.011 A 
ATOM      9  C   UNL d   1       2.520  -0.897  -0.003  0.00  0.00     0.001 A 
ATOM     10  C   UNL d   1      -2.336  -1.308  -0.005  0.00  0.00     0.002 A 
ATOM     11  C   UNL d   1       1.411  -1.768  -0.003  0.00  0.00     0.012 A 
ATOM     12  C   UNL d   1      -1.097  -1.981  -0.004  0.00  0.00     0.012 A 
ENDROOT
BRANCH   4  13
ATOM     13  O   UNL d   1      -1.524   2.833  -1.192  0.00  0.00    -0.391 OA
ATOM     14  H   UNL d   1      -1.151   2.332  -1.938  0.00  0.00     0.210 HD
ENDBRANCH   4  13
TORSDOF 1
