REMARK  3 active torsions:
REMARK  status: ('A' for Active; 'I' for Inactive)
REMARK    1  A    between atoms: C_5  and  C_1 
REMARK    2  A    between atoms: C_6  and  C_2 
REMARK       I    between atoms: N_9  and  C_5 
REMARK    3  A    between atoms: C_12  and  N_9 
ROOT
ATOM      1  C   UNL d   1      -0.312  -1.130   0.169  0.00  0.00     0.093 A 
ATOM      2  C   UNL d   1      -1.599  -0.478   0.314  0.00  0.00     0.085 A 
ATOM      3  N   UNL d   1      -1.434   0.856   0.276  0.00  0.00    -0.259 N 
ATOM      4  HN  UNL d   1      -2.169   1.557   0.368  1.00  0.00     0.195 HD
ATOM      5  O   UNL d   1      -0.107   1.100   0.092  0.00  0.00    -0.241 OA
ATOM      6  C   UNL d   1       0.575  -0.067   0.059  0.00  0.00     0.090 A 
ATOM      7  C   UNL d   1       2.044   0.097  -0.015  0.00  0.00     0.080 C 
ENDROOT
BRANCH   1   8
ATOM      8  C   UNL d   1       0.041  -2.549   0.226  0.00  0.00     0.261 C 
ATOM      9  N   UNL d   1       1.242  -2.880  -0.384  0.00  0.00    -0.323 N 
ATOM     10  H   UNL d   1       1.630  -2.202  -1.022  0.00  0.00     0.169 HD
ATOM     11  O   UNL d   1      -0.670  -3.365   0.798  0.00  0.00    -0.267 OA
BRANCH   9  12
ATOM     12  C   UNL d   1       2.014  -4.046  -0.174  0.00  0.00     0.038 A 
ATOM     13  C   UNL d   1       1.645  -5.087   0.684  0.00  0.00     0.075 A 
ATOM     14  C   UNL d   1       2.520  -6.152   0.906  0.00  0.00     0.157 A 
ATOM     15  F   UNL d   1       2.159  -7.133   1.743  0.00  0.00    -0.203 F 
ATOM     16  C   UNL d   1       3.759  -6.190   0.283  0.00  0.00     0.154 A 
ATOM     17  C   UNL d   1       4.136  -5.176  -0.588  0.00  0.00     0.048 A 
ATOM     18  F   UNL d   1       4.608  -7.199   0.523  0.00  0.00    -0.203 F 
ATOM     19  C   UNL d   1       3.259  -4.108  -0.819  0.00  0.00     0.032 A 
ENDBRANCH   9  12
ENDBRANCH   1   8
BRANCH   2  20
ATOM     20  C   UNL d   1      -2.957  -1.009   0.533  0.00  0.00     0.015 A 
ATOM     21  C   UNL d   1      -4.101  -0.466  -0.095  0.00  0.00     0.046 A 
ATOM     22 CL   UNL d   1      -4.036   0.780  -1.300  0.00  0.00    -0.083 Cl
ATOM     23  C   UNL d   1      -5.386  -0.940   0.215  0.00  0.00     0.025 A 
ATOM     24  C   UNL d   1      -5.557  -1.982   1.121  0.00  0.00     0.002 A 
ATOM     25  C   UNL d   1      -4.445  -2.538   1.739  0.00  0.00     0.001 A 
ATOM     26  C   UNL d   1      -3.166  -2.036   1.470  0.00  0.00     0.015 A 
ENDBRANCH   2  20
TORSDOF 3
