REMARK  6 active torsions:
REMARK  status: ('A' for Active; 'I' for Inactive)
REMARK    1  A    between atoms: C_3  and  C_1 
REMARK    2  A    between atoms: C_7  and  C_2 
REMARK       I    between atoms: N_6  and  C_3 
REMARK    3  A    between atoms: C_11  and  N_6 
REMARK    4  A    between atoms: C_15  and  N_6 
REMARK    5  A    between atoms: C_18  and  C_11 
REMARK    6  A    between atoms: N_14  and  C_13 
ROOT
ATOM      1  C   UNL d   1      -0.026  -2.427  -0.515  0.00  0.00     0.259 C 
ATOM      2  N   UNL d   1      -0.751  -3.640  -0.423  0.00  0.00    -0.340 N 
ATOM      3  O   UNL d   1       1.199  -2.393  -0.543  0.00  0.00    -0.267 OA
ENDROOT
BRANCH   1   4
ATOM      4  C   UNL d   1      -0.777  -1.180  -0.487  0.00  0.00     0.092 C 
ATOM      5  C   UNL d   1      -0.683  -0.000  -1.300  0.00  0.00     0.085 C 
ATOM      6  N   UNL d   1      -1.622   0.885  -0.916  0.00  0.00    -0.259 N 
ATOM      7  O   UNL d   1      -2.212   0.387   0.206  0.00  0.00    -0.241 OA
ATOM      8  HN  UNL d   1      -1.849   1.766  -1.378  1.00  0.00     0.195 HD
ATOM      9  C   UNL d   1      -1.696  -0.830   0.487  0.00  0.00     0.090 C 
ATOM     10  C   UNL d   1      -2.238  -1.473   1.701  0.00  0.00     0.080 C 
BRANCH   5  11
ATOM     11  C   UNL d   1       0.132   0.325  -2.485  0.00  0.00     0.015 A 
ATOM     12  C   UNL d   1       0.640   1.625  -2.710  0.00  0.00     0.046 A 
ATOM     13 CL   UNL d   1       0.665   2.862  -1.494  0.00  0.00    -0.083 Cl
ATOM     14  C   UNL d   1       1.190   1.976  -3.951  0.00  0.00     0.025 A 
ATOM     15  C   UNL d   1       1.278   1.035  -4.972  0.00  0.00     0.002 A 
ATOM     16  C   UNL d   1       0.855  -0.271  -4.740  0.00  0.00     0.001 A 
ATOM     17  C   UNL d   1       0.291  -0.626  -3.507  0.00  0.00     0.015 A 
ENDBRANCH   5  11
ENDBRANCH   1   4
BRANCH   2  18
ATOM     18  C   UNL d   1       0.031  -4.863  -0.133  0.00  0.00     0.165 C 
BRANCH  18  19
ATOM     19  C   UNL d   1       0.597  -5.548  -1.353  0.00  0.00    -0.040 C 
ATOM     20  C   UNL d   1       1.880  -5.233  -1.804  0.00  0.00     0.011 C 
ATOM     21  C   UNL d   1       2.334  -5.696  -3.043  0.00  0.00     0.030 C 
ATOM     22  C   UNL d   1       1.523  -6.471  -3.881  0.00  0.00     0.029 C 
ATOM     23  C   UNL d   1       0.293  -6.889  -3.355  0.00  0.00     0.030 C 
ATOM     24  C   UNL d   1      -0.155  -6.456  -2.101  0.00  0.00     0.011 C 
BRANCH  22  25
ATOM     25  N   UNL d   1       1.843  -6.732  -5.214  0.00  0.00    -0.390 N 
ATOM     26  C   UNL d   1       2.848  -5.895  -5.861  0.00  0.00     0.149 C 
ATOM     27  C   UNL d   1       1.791  -8.118  -5.669  0.00  0.00     0.149 C 
ENDBRANCH  22  25
ENDBRANCH  18  19
ENDBRANCH   2  18
BRANCH   2  28
ATOM     28  C   UNL d   1      -2.172  -3.755  -0.852  0.00  0.00     0.079 C 
ATOM     29  C   UNL d   1      -2.339  -3.841  -2.370  0.00  0.00     0.032 C 
ATOM     30  C   UNL d   1      -2.964  -4.843  -0.125  0.00  0.00     0.032 C 
ENDBRANCH   2  28
TORSDOF 6
