REMARK  5 active torsions:
REMARK  status: ('A' for Active; 'I' for Inactive)
REMARK    1  A    between atoms: C_3  and  C_5 
REMARK    2  A    between atoms: C_4  and  C_6 
REMARK    3  A    between atoms: O_7  and  C_4 
REMARK    4  A    between atoms: C_15  and  O_7 
REMARK       I    between atoms: C_8  and  N_9 
REMARK    5  A    between atoms: N_9  and  C_16 
ROOT
ATOM      1  C   UNL d   1      -1.326  -2.475  -0.069  0.00  0.00     0.315 C 
ATOM      2  O   UNL d   1      -0.718  -1.555  -0.599  0.00  0.00    -0.257 OA
ENDROOT
BRANCH   1   3
ATOM      3  C   UNL d   1      -0.626  -3.703   0.422  0.00  0.00     0.109 A 
ATOM      4  N   UNL d   1      -1.312  -4.607   1.172  0.00  0.00    -0.347 N 
ATOM      5  C   UNL d   1      -0.622  -5.685   1.656  0.00  0.00     0.117 A 
ATOM      6  HN  UNL d   1      -2.306  -4.485   1.367  1.00  0.00     0.166 HD
ATOM      7  C   UNL d   1       0.738  -5.875   1.387  0.00  0.00     0.034 A 
ATOM      8  C   UNL d   1       1.417  -4.943   0.612  0.00  0.00     0.005 A 
ATOM      9  C   UNL d   1       0.729  -3.838   0.125  0.00  0.00     0.036 A 
BRANCH   5  10
ATOM     10  C   UNL d   1      -1.322  -6.713   2.542  0.00  0.00     0.432 C 
ATOM     11  F   UNL d   1      -2.644  -6.472   2.753  0.00  0.00    -0.165 F 
ATOM     12  F   UNL d   1      -1.248  -7.976   2.027  0.00  0.00    -0.165 F 
ATOM     13  F   UNL d   1      -0.754  -6.794   3.781  0.00  0.00    -0.165 F 
ENDBRANCH   5  10
ENDBRANCH   1   3
BRANCH   1  14
ATOM     14  O   UNL d   1      -2.689  -2.544   0.184  0.00  0.00    -0.274 OA
BRANCH  14  15
ATOM     15  C   UNL d   1      -3.495  -1.409  -0.050  0.00  0.00     0.079 A 
ATOM     16  C   UNL d   1      -3.332  -0.548  -1.133  0.00  0.00     0.039 A 
ATOM     17  C   UNL d   1      -4.136   0.595  -1.238  0.00  0.00     0.032 A 
ATOM     18  C   UNL d   1      -5.122   0.871  -0.280  0.00  0.00     0.034 A 
ATOM     19  C   UNL d   1      -5.325  -0.044   0.754  0.00  0.00     0.032 A 
ATOM     20  C   UNL d   1      -4.516  -1.182   0.870  0.00  0.00     0.039 A 
BRANCH  18  21
ATOM     21  N   UNL d   1      -5.831   2.087  -0.411  0.00  0.00    -0.328 N 
ATOM     22  C   UNL d   1      -6.781   2.599   0.454  0.00  0.00     0.218 C 
ATOM     23  O   UNL d   1      -7.237   2.052   1.453  0.00  0.00    -0.274 OA
ATOM     24  C   UNL d   1      -7.252   3.984   0.076  0.00  0.00     0.117 C 
ATOM     25  H   UNL d   1      -5.567   2.666  -1.199  0.00  0.00     0.169 HD
ENDBRANCH  18  21
ENDBRANCH  14  15
ENDBRANCH   1  14
TORSDOF 5
