REMARK  3 active torsions:
REMARK  status: ('A' for Active; 'I' for Inactive)
REMARK    1  A    between atoms: C_16  and  N_2 
REMARK    2  A    between atoms: C_17  and  C_13 
REMARK    3  A    between atoms: C_21  and  C_16 
ROOT
ATOM      1  C   UNL d   1      -0.533  -1.191   0.179  0.00  0.00     0.105 A 
ATOM      2  N   UNL d   1       0.766  -0.764   0.097  0.00  0.00    -0.284 N 
ATOM      3  C   UNL d   1      -1.004  -2.531   0.250  0.00  0.00     0.193 A 
ATOM      4  N   UNL d   1       0.867   0.590   0.035  0.00  0.00    -0.301 N 
ATOM      5  HN  UNL d   1       1.718   1.147  -0.035  1.00  0.00     0.187 HD
ATOM      6  C   UNL d   1      -1.302  -0.046   0.182  0.00  0.00     0.063 A 
ATOM      7  C   UNL d   1      -2.322  -4.188   0.608  0.00  0.00     0.181 A 
ATOM      8  O   UNL d   1      -2.238  -2.829   0.764  0.00  0.00    -0.271 OA
ATOM      9  N   UNL d   1      -0.385  -3.607  -0.191  0.00  0.00    -0.276 N 
ATOM     10  HN  UNL d   1       0.543  -3.645  -0.613  1.00  0.00     0.189 HD
ATOM     11  N   UNL d   1      -1.238  -4.675   0.029  0.00  0.00    -0.277 N 
ATOM     12  HN  UNL d   1      -1.063  -5.651  -0.209  1.00  0.00     0.189 HD
ATOM     13  C   UNL d   1      -0.396   1.033   0.084  0.00  0.00     0.036 A 
ATOM     14  C   UNL d   1      -3.456  -4.958   1.025  0.00  0.00     0.057 A 
ATOM     15  S   UNL d   1      -4.763  -4.224   1.860  0.00  0.00    -0.098 SA
ATOM     16  C   UNL d   1      -3.674  -6.313   0.845  0.00  0.00     0.024 A 
ATOM     17  C   UNL d   1      -5.614  -5.701   1.972  0.00  0.00     0.050 A 
ATOM     18  C   UNL d   1      -4.923  -6.739   1.390  0.00  0.00     0.009 A 
ENDROOT
BRANCH   2  19
ATOM     19  C   UNL d   1       1.986  -1.552  -0.044  0.00  0.00     0.187 C 
BRANCH  19  20
ATOM     20  C   UNL d   1       2.660  -1.901   1.267  0.00  0.00    -0.038 A 
ATOM     21  C   UNL d   1       2.907  -3.245   1.593  0.00  0.00     0.012 A 
ATOM     22  C   UNL d   1       3.657  -3.576   2.723  0.00  0.00     0.043 A 
ATOM     23  C   UNL d   1       4.162  -2.566   3.534  0.00  0.00     0.116 A 
ATOM     24  C   UNL d   1       3.911  -1.229   3.248  0.00  0.00     0.043 A 
ATOM     25  F   UNL d   1       4.915  -2.883   4.596  0.00  0.00    -0.206 F 
ATOM     26  C   UNL d   1       3.161  -0.897   2.115  0.00  0.00     0.012 A 
ENDBRANCH  19  20
ENDBRANCH   2  19
BRANCH  13  27
ATOM     27  C   UNL d   1      -0.740   2.513   0.027  0.00  0.00    -0.007 C 
ATOM     28  C   UNL d   1      -1.526   2.917   1.291  0.00  0.00     0.021 C 
ATOM     29  C   UNL d   1       0.519   3.400  -0.060  0.00  0.00     0.021 C 
ATOM     30  C   UNL d   1      -1.613   2.805  -1.212  0.00  0.00     0.021 C 
ENDBRANCH  13  27
TORSDOF 3
