REMARK  2 active torsions:
REMARK  status: ('A' for Active; 'I' for Inactive)
REMARK       I    between atoms: N_4  and  C_1 
REMARK       I    between atoms: N_6  and  C_1 
REMARK    1  A    between atoms: N_2  and  N_4 
REMARK    2  A    between atoms: C_8  and  C_7 
ROOT
ATOM      1  N   UNL d   1      -0.629   2.862  -1.781  0.00  0.00    -0.307 N 
ATOM      2  HN  UNL d   1      -1.096   3.766  -1.849  1.00  0.00     0.186 HD
ATOM      3  C   UNL d   1       0.427   2.569  -2.471  0.00  0.00     0.118 C 
ENDROOT
BRANCH   1   4
ATOM      4  N   UNL d   1      -1.070   1.866  -0.954  0.00  0.00    -0.252 N 
ATOM      5  C   UNL d   1      -2.174   2.019  -0.154  0.00  0.00     0.332 C 
ATOM      6  O   UNL d   1      -2.604   1.129   0.568  0.00  0.00    -0.246 OA
ATOM      7  N   UNL d   1      -2.752   3.243  -0.226  0.00  0.00    -0.351 N 
ATOM      8  H   UNL d   1      -2.486   3.796  -1.029  0.00  0.00     0.160 HD
ATOM      9  H   UNL d   1      -3.655   3.368   0.204  0.00  0.00     0.160 HD
ATOM     10  H   UNL d   1      -0.603   0.968  -0.915  0.00  0.00     0.191 HD
ENDBRANCH   1   4
BRANCH   3  11
ATOM     11  C   UNL d   1       1.037   3.543  -3.399  0.00  0.00    -0.019 A 
ATOM     12  C   UNL d   1       0.498   4.826  -3.541  0.00  0.00     0.014 A 
ATOM     13  C   UNL d   1       1.090   5.738  -4.418  0.00  0.00     0.024 A 
ATOM     14  C   UNL d   1       2.217   5.363  -5.148  0.00  0.00     0.034 A 
ATOM     15  C   UNL d   1       2.758   4.084  -5.009  0.00  0.00     0.024 A 
ATOM     16 CL   UNL d   1       2.946   6.486  -6.227  0.00  0.00    -0.084 Cl
ATOM     17  C   UNL d   1       2.168   3.169  -4.132  0.00  0.00     0.014 A 
ENDBRANCH   3  11
TORSDOF 2
