REMARK  8 active torsions:
REMARK  status: ('A' for Active; 'I' for Inactive)
REMARK    1  A    between atoms: C_2  and  S_1 
REMARK    2  A    between atoms: N_4  and  S_1 
REMARK    3  A    between atoms: S_3  and  C_14 
REMARK    4  A    between atoms: C_13  and  S_3 
REMARK    5  A    between atoms: C_10  and  N_4 
REMARK    6  A    between atoms: C_14  and  C_21 
REMARK    7  A    between atoms: S_20  and  C_17 
REMARK    8  A    between atoms: C_21  and  S_20 
ROOT
ATOM      1  C   UNL d   1       0.905  -2.496  -0.957  0.00  0.00     0.039 A 
ATOM      2  C   UNL d   1       2.259  -2.606  -1.310  0.00  0.00     0.022 A 
ATOM      3  C   UNL d   1      -0.037  -3.390  -1.489  0.00  0.00     0.026 A 
ATOM      4  C   UNL d   1       2.617  -3.555  -2.284  0.00  0.00     0.020 A 
ATOM      5  C   UNL d   1       0.339  -4.335  -2.441  0.00  0.00     0.002 A 
ATOM      6  C   UNL d   1       1.664  -4.405  -2.854  0.00  0.00     0.001 A 
ENDROOT
BRANCH   1   7
ATOM      7  N   UNL d   1       0.449  -1.471  -0.064  0.00  0.00    -0.180 NA
ATOM      8  H   UNL d   1      -0.110  -1.846   0.704  0.00  0.00     0.146 HD
BRANCH   7   9
ATOM      9  S   UNL d   1      -0.469  -0.201  -0.726  0.00  0.00     0.250 S 
ATOM     10  O   UNL d   1      -1.332  -0.716  -1.766  0.00  0.00    -0.205 OA
ATOM     11  O   UNL d   1      -1.036   0.462   0.429  0.00  0.00    -0.205 OA
BRANCH   9  12
ATOM     12  C   UNL d   1       0.484   0.984  -1.498  0.00  0.00     0.130 A 
ATOM     13  C   UNL d   1       1.137   0.899  -2.707  0.00  0.00     0.097 A 
ATOM     14  O   UNL d   1       1.679   2.112  -3.002  0.00  0.00    -0.241 OA
ATOM     15  C   UNL d   1       1.368  -0.139  -3.727  0.00  0.00     0.081 C 
ATOM     16  N   UNL d   1       1.408   3.003  -1.987  0.00  0.00    -0.264 N 
ATOM     17  C   UNL d   1       0.700   2.322  -1.076  0.00  0.00     0.054 A 
ATOM     18  HN  UNL d   1       1.690   3.983  -1.939  1.00  0.00     0.194 HD
ATOM     19  C   UNL d   1       0.268   3.021   0.159  0.00  0.00     0.072 C 
ENDBRANCH   9  12
ENDBRANCH   7   9
ENDBRANCH   1   7
BRANCH   2  20
ATOM     20  S   UNL d   1       3.587  -1.579  -0.687  0.00  0.00    -0.127 SA
BRANCH  20  21
ATOM     21  C   UNL d   1       3.327  -1.506   1.131  0.00  0.00     0.095 C 
BRANCH  21  22
ATOM     22  C   UNL d   1       3.155  -2.807   1.907  0.00  0.00     0.156 C 
BRANCH  22  23
ATOM     23  S   UNL d   1       4.630  -3.808   1.936  0.00  0.00     0.176 S 
ATOM     24  O   UNL d   1       4.881  -4.321   0.604  0.00  0.00    -0.223 OA
ATOM     25  O   UNL d   1       5.646  -3.084   2.671  0.00  0.00    -0.223 OA
BRANCH  23  26
ATOM     26  C   UNL d   1       4.188  -5.232   2.926  0.00  0.00     0.059 A 
ATOM     27  C   UNL d   1       3.503  -6.290   2.319  0.00  0.00     0.025 A 
ATOM     28  C   UNL d   1       3.273  -7.468   3.037  0.00  0.00     0.025 A 
ATOM     29  C   UNL d   1       3.734  -7.584   4.348  0.00  0.00     0.034 A 
ATOM     30  C   UNL d   1       4.421  -6.530   4.952  0.00  0.00     0.025 A 
ATOM     31 CL   UNL d   1       3.477  -9.048   5.215  0.00  0.00    -0.084 Cl
ATOM     32  C   UNL d   1       4.655  -5.349   4.240  0.00  0.00     0.025 A 
ENDBRANCH  23  26
ENDBRANCH  22  23
ENDBRANCH  21  22
ENDBRANCH  20  21
ENDBRANCH   2  20
TORSDOF 8
