REMARK  7 active torsions:
REMARK  status: ('A' for Active; 'I' for Inactive)
REMARK    1  A    between atoms: C_3  and  C_1 
REMARK    2  A    between atoms: O_15  and  C_2 
REMARK       I    between atoms: N_11  and  C_3 
REMARK    3  A    between atoms: O_18  and  C_4 
REMARK    4  A    between atoms: O_17  and  C_5 
REMARK    5  A    between atoms: N_6  and  N_11 
REMARK    6  A    between atoms: N_16  and  C_8 
REMARK    7  A    between atoms: C_12  and  C_14 
ROOT
ATOM      1  N   UNL d   1      -1.183   5.844  -0.833  0.00  0.00    -0.308 N 
ATOM      2  HN  UNL d   1      -1.710   6.482  -1.429  1.00  0.00     0.186 HD
ATOM      3  C   UNL d   1      -1.788   5.038  -0.023  0.00  0.00     0.118 C 
ENDROOT
BRANCH   1   4
ATOM      4  N   UNL d   1       0.175   5.816  -0.866  0.00  0.00    -0.266 N 
ATOM      5  C   UNL d   1       0.823   6.719  -1.700  0.00  0.00     0.271 C 
ATOM      6  O   UNL d   1       0.256   7.537  -2.422  0.00  0.00    -0.266 OA
ATOM      7  H   UNL d   1       0.681   5.246  -0.200  0.00  0.00     0.190 HD
BRANCH   5   8
ATOM      8  C   UNL d   1       2.317   6.680  -1.688  0.00  0.00     0.054 A 
ATOM      9  C   UNL d   1       3.046   7.868  -1.916  0.00  0.00     0.021 A 
ATOM     10  C   UNL d   1       4.448   7.807  -1.891  0.00  0.00     0.024 A 
ATOM     11  C   UNL d   1       5.111   6.590  -1.740  0.00  0.00     0.002 A 
ATOM     12  C   UNL d   1       4.384   5.412  -1.576  0.00  0.00     0.001 A 
ATOM     13  C   UNL d   1       2.988   5.456  -1.547  0.00  0.00     0.019 A 
BRANCH   9  14
ATOM     14  N   UNL d   1       2.433   9.138  -1.938  0.00  0.00    -0.302 NA
ATOM     15  H   UNL d   1       1.451   9.063  -2.237  0.00  0.00     0.124 HD
ATOM     16  H   UNL d   1       2.933   9.823  -2.496  0.00  0.00     0.124 HD
ENDBRANCH   9  14
ENDBRANCH   5   8
ENDBRANCH   1   4
BRANCH   3  17
ATOM     17  C   UNL d   1      -3.264   5.060   0.065  0.00  0.00    -0.014 A 
ATOM     18  C   UNL d   1      -3.988   5.983  -0.689  0.00  0.00     0.052 A 
ATOM     19  C   UNL d   1      -5.387   6.017  -0.635  0.00  0.00     0.105 A 
ATOM     20  C   UNL d   1      -6.083   5.119   0.209  0.00  0.00     0.135 A 
ATOM     21  C   UNL d   1      -5.333   4.213   1.000  0.00  0.00     0.105 A 
ATOM     22  C   UNL d   1      -3.930   4.185   0.909  0.00  0.00     0.052 A 
BRANCH  19  23
ATOM     23  O   UNL d   1      -6.085   6.969  -1.338  0.00  0.00    -0.353 OA
ATOM     24  C   UNL d   1      -5.522   7.368  -2.587  0.00  0.00     0.210 C 
ENDBRANCH  19  23
BRANCH  20  25
ATOM     25  O   UNL d   1      -7.446   5.036   0.330  0.00  0.00    -0.351 OA
ATOM     26  C   UNL d   1      -8.300   5.793  -0.513  0.00  0.00     0.210 C 
ENDBRANCH  20  25
BRANCH  21  27
ATOM     27  O   UNL d   1      -5.781   3.291   1.915  0.00  0.00    -0.353 OA
ATOM     28  C   UNL d   1      -7.172   3.142   2.152  0.00  0.00     0.210 C 
ENDBRANCH  21  27
ENDBRANCH   3  17
TORSDOF 7
