REMARK  2 active torsions:
REMARK  status: ('A' for Active; 'I' for Inactive)
REMARK    1  A    between atoms: C_5  and  N_1 
REMARK    2  A    between atoms: C_11  and  N_3 
ROOT
ATOM      1  N   UNL d   1       0.061   0.963   0.190  0.00  0.00    -0.232 N 
ATOM      2  C   UNL d   1      -1.196   0.351   0.055  0.00  0.00     0.332 C 
ATOM      3  N   UNL d   1      -1.180  -1.038  -0.076  0.00  0.00    -0.329 N 
ATOM      4  C   UNL d   1       1.287   0.301   0.093  0.00  0.00     0.234 C 
ATOM      5  C   UNL d   1       1.214  -1.110  -0.417  0.00  0.00     0.123 C 
ATOM      6  C   UNL d   1       0.030  -1.779   0.225  0.00  0.00     0.137 C 
ATOM      7  O   UNL d   1      -2.252   0.984   0.009  0.00  0.00    -0.246 OA
ATOM      8  O   UNL d   1       2.379   0.788   0.389  0.00  0.00    -0.272 OA
ENDROOT
BRANCH   1   9
ATOM      9  C   UNL d   1       0.088   2.377   0.419  0.00  0.00     0.068 A 
ATOM     10  C   UNL d   1       0.712   3.269  -0.472  0.00  0.00     0.061 A 
ATOM     11 CL   UNL d   1       1.368   2.755  -1.991  0.00  0.00    -0.082 Cl
ATOM     12  C   UNL d   1       0.719   4.643  -0.204  0.00  0.00     0.026 A 
ATOM     13  C   UNL d   1       0.107   5.138   0.947  0.00  0.00     0.002 A 
ATOM     14  C   UNL d   1      -0.529   4.265   1.826  0.00  0.00     0.002 A 
ATOM     15  C   UNL d   1      -0.548   2.893   1.561  0.00  0.00     0.032 A 
ENDBRANCH   1   9
BRANCH   3  16
ATOM     16  C   UNL d   1      -2.439  -1.763  -0.342  0.00  0.00     0.080 C 
ATOM     17  C   UNL d   1      -2.396  -2.448  -1.709  0.00  0.00     0.032 C 
ATOM     18  C   UNL d   1      -2.796  -2.751   0.768  0.00  0.00     0.032 C 
ENDBRANCH   3  16
TORSDOF 2
