REMARK  7 active torsions:
REMARK  status: ('A' for Active; 'I' for Inactive)
REMARK    1  A    between atoms: C_14  and  C_5 
REMARK    2  A    between atoms: N_7  and  C_9 
REMARK    3  A    between atoms: N_8  and  C_13 
REMARK    4  A    between atoms: O_23  and  C_14 
REMARK    5  A    between atoms: C_25  and  O_23 
REMARK    6  A    between atoms: O_24  and  C_26 
REMARK    7  A    between atoms: C_26  and  C_25 
ROOT
ATOM      1  C   UNL d   1      -0.665   0.850  -0.010  0.00  0.00     0.006 A 
ATOM      2  C   UNL d   1      -1.139  -0.486  -0.059  0.00  0.00     0.029 A 
ATOM      3  C   UNL d   1       1.219  -0.548  -0.042  0.00  0.00     0.028 A 
ATOM      4  C   UNL d   1       0.800   0.799  -0.012  0.00  0.00    -0.010 A 
ATOM      5  C   UNL d   1      -1.616   1.867   0.018  0.00  0.00     0.053 A 
ATOM      6  C   UNL d   1       0.019  -1.395  -0.061  0.00  0.00     0.194 A 
ATOM      7  C   UNL d   1      -3.405   0.167  -0.089  0.00  0.00     0.104 A 
ATOM      8  C   UNL d   1      -2.472  -0.863  -0.094  0.00  0.00     0.052 A 
ATOM      9  C   UNL d   1      -2.989   1.511  -0.031  0.00  0.00     0.054 A 
ATOM     10  C   UNL d   1       2.537  -0.967  -0.086  0.00  0.00     0.052 A 
ATOM     11  C   UNL d   1       3.505   0.036  -0.101  0.00  0.00     0.103 A 
ATOM     12  C   UNL d   1       1.778   1.780  -0.029  0.00  0.00     0.016 A 
ATOM     13  O   UNL d   1      -0.017  -2.605  -0.082  0.00  0.00    -0.287 OA
ATOM     14  C   UNL d   1       3.135   1.400  -0.067  0.00  0.00     0.037 A 
ENDROOT
BRANCH   5  15
ATOM     15  C   UNL d   1      -1.295   3.300   0.261  0.00  0.00     0.294 C 
ATOM     16  O   UNL d   1      -0.380   3.691   0.963  0.00  0.00    -0.259 OA
BRANCH  15  17
ATOM     17  O   UNL d   1      -2.280   4.075  -0.258  0.00  0.00    -0.315 OA
BRANCH  17  18
ATOM     18  C   UNL d   1      -2.746   5.093   0.636  0.00  0.00     0.205 C 
BRANCH  18  19
ATOM     19  C   UNL d   1      -2.387   6.501   0.192  0.00  0.00     0.193 C 
BRANCH  19  20
ATOM     20  O   UNL d   1      -2.970   7.396   1.141  0.00  0.00    -0.394 OA
ATOM     21  C   UNL d   1      -2.713   8.758   0.837  0.00  0.00     0.201 C 
ENDBRANCH  19  20
ENDBRANCH  18  19
ENDBRANCH  17  18
ENDBRANCH  15  17
ENDBRANCH   5  15
BRANCH   7  22
ATOM     22  N   UNL d   1      -4.839  -0.145  -0.120  0.00  0.00    -0.116 N 
ATOM     23  O   UNL d   1      -5.169  -1.337  -0.158  0.00  0.00    -0.532 OA
ATOM     24  O   UNL d   1      -5.633   0.809  -0.106  0.00  0.00    -0.532 OA
ENDBRANCH   7  22
BRANCH  11  25
ATOM     25  N   UNL d   1       4.926  -0.329  -0.175  0.00  0.00    -0.116 N 
ATOM     26  O   UNL d   1       5.207  -1.534  -0.244  0.00  0.00    -0.532 OA
ATOM     27  O   UNL d   1       5.757   0.589  -0.172  0.00  0.00    -0.532 OA
ENDBRANCH  11  25
TORSDOF 7
