REMARK  0 active torsions:
REMARK  status: ('A' for Active; 'I' for Inactive)
ROOT
ATOM      1  C   UNL d   1      -1.061   0.844   0.002  0.00  0.00     0.192 A 
ATOM      2  C   UNL d   1       0.370   0.492   0.004  0.00  0.00     0.048 A 
ATOM      3  C   UNL d   1      -2.020  -0.288   0.033  0.00  0.00     0.011 A 
ATOM      4  C   UNL d   1      -1.514  -1.528   0.008  0.00  0.00     0.153 A 
ATOM      5  O   UNL d   1      -0.184  -1.871  -0.037  0.00  0.00    -0.321 OA
ATOM      6  C   UNL d   1       0.735  -0.852  -0.016  0.00  0.00     0.089 A 
ATOM      7  O   UNL d   1      -1.429   2.012  -0.019  0.00  0.00    -0.287 OA
ATOM      8  C   UNL d   1       1.350   1.490   0.034  0.00  0.00     0.018 A 
ATOM      9  C   UNL d   1      -3.484  -0.004   0.091  0.00  0.00     0.054 C 
ATOM     10  C   UNL d   1       2.084  -1.208  -0.012  0.00  0.00     0.038 A 
ATOM     11  C   UNL d   1       2.699   1.133   0.044  0.00  0.00     0.001 A 
ATOM     12  C   UNL d   1       3.065  -0.214   0.020  0.00  0.00     0.003 A 
ENDROOT
TORSDOF 0
