REMARK  3 active torsions:
REMARK  status: ('A' for Active; 'I' for Inactive)
REMARK    1  A    between atoms: N_5  and  C_1 
REMARK       I    between atoms: C_2  and  N_5 
REMARK    2  A    between atoms: C_6  and  C_2 
REMARK    3  A    between atoms: O_13  and  C_11 
ROOT
ATOM      1  C   UNL d   1       1.230   3.172   0.034  0.00  0.00     0.272 C 
ATOM      2  N   UNL d   1       0.795   3.508   1.291  0.00  0.00    -0.154 N 
ATOM      3  O   UNL d   1       0.620   3.294  -1.024  0.00  0.00    -0.267 OA
ATOM      4  H   UNL d   1       1.272   3.186   2.118  0.00  0.00     0.187 HD
ENDROOT
BRANCH   1   5
ATOM      5  C   UNL d   1       2.565   2.513  -0.013  0.00  0.00     0.066 A 
ATOM      6  C   UNL d   1       2.837   1.562  -1.006  0.00  0.00     0.081 A 
ATOM      7  C   UNL d   1       4.068   0.910  -1.042  0.00  0.00     0.037 A 
ATOM      8  C   UNL d   1       5.050   1.224  -0.103  0.00  0.00     0.003 A 
ATOM      9  C   UNL d   1       4.805   2.195   0.867  0.00  0.00     0.001 A 
ATOM     10  C   UNL d   1       3.567   2.842   0.913  0.00  0.00     0.020 A 
BRANCH   6  11
ATOM     11  O   UNL d   1       1.936   1.220  -1.979  0.00  0.00    -0.360 OA
ATOM     12  H   UNL d   1       1.210   1.886  -1.961  0.00  0.00     0.217 HD
ENDBRANCH   6  11
ENDBRANCH   1   5
BRANCH   2  13
ATOM     13  C   UNL d   1      -0.349   4.194   1.573  0.00  0.00     0.700 A 
ATOM     14  N   UNL d   1      -1.155   4.782   0.645  0.00  0.00    -0.185 N 
ATOM     15  C   UNL d   1      -2.095   5.342   1.367  0.00  0.00     0.215 A 
ATOM     16  HN  UNL d   1      -1.051   4.787  -0.369  1.00  0.00     0.185 HD
ATOM     17  N   UNL d   1      -1.861   5.090   2.679  0.00  0.00    -0.281 N 
ATOM     18  N   UNL d   1      -0.736   4.375   2.840  0.00  0.00    -0.131 N 
ATOM     19  H   UNL d   1      -2.399   5.367   3.493  0.00  0.00     0.188 HD
ATOM     20  HN  UNL d   1      -0.293   4.054   3.701  1.00  0.00     0.205 HD
ENDBRANCH   2  13
TORSDOF 3
