REMARK  2 active torsions:
REMARK  status: ('A' for Active; 'I' for Inactive)
REMARK    1  A    between atoms: C_6  and  N_1 
REMARK    2  A    between atoms: C_10  and  C_6 
ROOT
ATOM      1  N   UNL d   1       1.564  -0.999  -0.004  0.00  0.00    -0.272 N 
ATOM      2  C   UNL d   1       1.368  -0.182  -1.090  0.00  0.00     0.374 A 
ATOM      3  C   UNL d   1       1.251  -0.288   1.122  0.00  0.00     0.146 A 
ATOM      4  O   UNL d   1       0.918   1.089  -0.692  0.00  0.00    -0.257 OA
ATOM      5  C   UNL d   1       0.862   0.955   0.680  0.00  0.00     0.125 A 
ATOM      6  N   UNL d   1       1.272  -0.692   2.398  0.00  0.00    -0.350 N 
ATOM      7  HN  UNL d   1       1.570  -1.626   2.680  1.00  0.00     0.166 HD
ATOM      8  O   UNL d   1       1.537  -0.483  -2.262  0.00  0.00    -0.237 OA
ATOM      9  C   UNL d   1       0.452   1.909   1.582  0.00  0.00     0.043 A 
ATOM     10  C   UNL d   1       0.863   0.250   3.282  0.00  0.00     0.090 A 
ATOM     11  C   UNL d   1       0.450   1.541   2.929  0.00  0.00     0.020 A 
ENDROOT
BRANCH   1  12
ATOM     12  C   UNL d   1       2.065  -2.344  -0.010  0.00  0.00     0.174 C 
BRANCH  12  13
ATOM     13  C   UNL d   1       3.575  -2.381   0.026  0.00  0.00    -0.040 A 
ATOM     14  C   UNL d   1       4.257  -2.408   1.250  0.00  0.00     0.009 A 
ATOM     15  C   UNL d   1       5.652  -2.345   1.285  0.00  0.00     0.001 A 
ATOM     16  C   UNL d   1       6.376  -2.255   0.098  0.00  0.00     0.000 A 
ATOM     17  C   UNL d   1       5.710  -2.250  -1.126  0.00  0.00     0.001 A 
ATOM     18  C   UNL d   1       4.316  -2.313  -1.163  0.00  0.00     0.009 A 
ENDBRANCH  12  13
ENDBRANCH   1  12
TORSDOF 2
