REMARK  3 active torsions:
REMARK  status: ('A' for Active; 'I' for Inactive)
REMARK       I    between atoms: N_2  and  C_1 
REMARK       I    between atoms: N_4  and  C_1 
REMARK    1  A    between atoms: C_8  and  N_2 
REMARK    2  A    between atoms: C_3  and  C_6 
REMARK    3  A    between atoms: C_6  and  N_4 
ROOT
ATOM      1  C   UNL d   1       0.937   0.092  -0.076  0.00  0.00     0.320 C 
ATOM      2  N   UNL d   1       2.312   0.008  -0.131  0.00  0.00    -0.309 N 
ATOM      3  N   UNL d   1       0.357  -1.157  -0.055  0.00  0.00    -0.339 N 
ATOM      4  O   UNL d   1       0.268   1.117  -0.084  0.00  0.00    -0.247 OA
ATOM      5  H   UNL d   1       2.682  -0.908  -0.332  0.00  0.00     0.170 HD
ATOM      6  H   UNL d   1       0.880  -1.877   0.419  0.00  0.00     0.164 HD
ENDROOT
BRANCH   2   7
ATOM      7  C   UNL d   1       3.218   1.088  -0.170  0.00  0.00     0.036 A 
ATOM      8  C   UNL d   1       2.847   2.415   0.068  0.00  0.00     0.031 A 
ATOM      9  C   UNL d   1       3.785   3.447  -0.028  0.00  0.00     0.026 A 
ATOM     10  C   UNL d   1       5.105   3.156  -0.353  0.00  0.00     0.034 A 
ATOM     11  C   UNL d   1       5.498   1.837  -0.568  0.00  0.00     0.026 A 
ATOM     12 CL   UNL d   1       6.252   4.429  -0.496  0.00  0.00    -0.084 Cl
ATOM     13  C   UNL d   1       4.557   0.805  -0.470  0.00  0.00     0.031 A 
ENDBRANCH   2   7
BRANCH   3  14
ATOM     14  C   UNL d   1      -1.083  -1.247   0.063  0.00  0.00     0.166 C 
BRANCH  14  15
ATOM     15  C   UNL d   1      -1.579  -2.599  -0.352  0.00  0.00    -0.002 A 
ATOM     16  C   UNL d   1      -1.751  -3.616   0.588  0.00  0.00     0.124 A 
ATOM     17  F   UNL d   1      -1.475  -3.385   1.880  0.00  0.00    -0.205 F 
ATOM     18  C   UNL d   1      -2.200  -4.879   0.214  0.00  0.00     0.043 A 
ATOM     19  C   UNL d   1      -2.479  -5.143  -1.127  0.00  0.00     0.003 A 
ATOM     20  C   UNL d   1      -2.305  -4.142  -2.083  0.00  0.00     0.001 A 
ATOM     21  C   UNL d   1      -1.853  -2.877  -1.700  0.00  0.00     0.012 A 
ENDBRANCH  14  15
ENDBRANCH   3  14
TORSDOF 3
