REMARK  4 active torsions:
REMARK  status: ('A' for Active; 'I' for Inactive)
REMARK    1  A    between atoms: C_2  and  C_1 
REMARK    2  A    between atoms: O_3  and  C_1 
REMARK    3  A    between atoms: C_9  and  O_3 
REMARK    4  A    between atoms: C_10  and  C_5 
ROOT
ATOM      1  C   UNL d   1      -3.771  -0.998   0.835  0.00  0.00    -0.054 A 
ATOM      2  C   UNL d   1      -2.973  -1.120  -0.312  0.00  0.00     0.010 A 
ATOM      3  C   UNL d   1      -3.105  -0.841   2.067  0.00  0.00     0.010 A 
ATOM      4  C   UNL d   1      -0.952  -0.776   0.966  0.00  0.00     0.079 A 
ATOM      5  C   UNL d   1      -1.709  -0.719   2.134  0.00  0.00     0.038 A 
ATOM      6  C   UNL d   1      -1.582  -0.981  -0.256  0.00  0.00     0.038 A 
ENDROOT
BRANCH   4   7
ATOM      7  O   UNL d   1       0.432  -0.513   1.084  0.00  0.00    -0.275 OA
BRANCH   7   8
ATOM      8  C   UNL d   1       1.339  -1.084   0.203  0.00  0.00     0.298 C 
ATOM      9  O   UNL d   1       1.111  -1.963  -0.618  0.00  0.00    -0.259 OA
BRANCH   8  10
ATOM     10  C   UNL d   1       2.689  -0.473   0.349  0.00  0.00     0.041 A 
ATOM     11  C   UNL d   1       3.693  -0.903  -0.534  0.00  0.00     0.041 A 
ATOM     12  C   UNL d   1       4.973  -0.359  -0.458  0.00  0.00     0.035 A 
ATOM     13 CL   UNL d   1       6.193  -0.892  -1.549  0.00  0.00    -0.084 Cl
ATOM     14  C   UNL d   1       5.270   0.614   0.491  0.00  0.00     0.024 A 
ATOM     15  C   UNL d   1       4.280   1.048   1.373  0.00  0.00     0.003 A 
ATOM     16  C   UNL d   1       2.991   0.509   1.304  0.00  0.00     0.018 A 
ENDBRANCH   8  10
ENDBRANCH   7   8
ENDBRANCH   4   7
BRANCH   1  17
ATOM     17  C   UNL d   1      -5.302  -1.044   0.788  0.00  0.00     0.018 C 
ATOM     18  C   UNL d   1      -5.947  -1.153  -0.614  0.00  0.00     0.009 C 
ATOM     19  C   UNL d   1      -5.851   0.136  -1.438  0.00  0.00     0.001 C 
ATOM     20  C   UNL d   1      -6.346   1.365  -0.684  0.00  0.00     0.000 C 
ATOM     21  C   UNL d   1      -5.798   1.462   0.736  0.00  0.00     0.001 C 
ATOM     22  C   UNL d   1      -5.963   0.154   1.508  0.00  0.00     0.009 C 
ENDBRANCH   1  17
TORSDOF 4
