REMARK  6 active torsions:
REMARK  status: ('A' for Active; 'I' for Inactive)
REMARK    1  A    between atoms: N_7  and  C_1 
REMARK    2  A    between atoms: N_8  and  C_1 
REMARK    3  A    between atoms: N_2  and  N_8 
REMARK    4  A    between atoms: C_4  and  C_13 
REMARK    5  A    between atoms: C_13  and  N_7 
REMARK    6  A    between atoms: C_14  and  C_12 
ROOT
ATOM      1  N   UNL d   1       2.251   0.236   0.096  0.00  0.00    -0.277 N 
ATOM      2  H   UNL d   1       2.730  -0.647   0.242  0.00  0.00     0.189 HD
ENDROOT
BRANCH   1   3
ATOM      3  N   UNL d   1       2.949   1.401  -0.051  0.00  0.00    -0.309 N 
ATOM      4  C   UNL d   1       4.236   1.306   0.026  0.00  0.00     0.118 C 
ATOM      5  HN  UNL d   1       2.482   2.294  -0.212  1.00  0.00     0.186 HD
BRANCH   4   6
ATOM      6  C   UNL d   1       5.086   2.505  -0.119  0.00  0.00    -0.019 A 
ATOM      7  C   UNL d   1       4.506   3.761  -0.339  0.00  0.00     0.014 A 
ATOM      8  C   UNL d   1       5.317   4.889  -0.470  0.00  0.00     0.024 A 
ATOM      9  C   UNL d   1       6.702   4.758  -0.382  0.00  0.00     0.034 A 
ATOM     10  C   UNL d   1       7.283   3.506  -0.166  0.00  0.00     0.024 A 
ATOM     11 CL   UNL d   1       7.703   6.148  -0.539  0.00  0.00    -0.084 Cl
ATOM     12  C   UNL d   1       6.474   2.373  -0.034  0.00  0.00     0.014 A 
ENDBRANCH   4   6
ENDBRANCH   1   3
BRANCH   1  13
ATOM     13  C   UNL d   1       0.880   0.228  -0.067  0.00  0.00     0.186 C 
ATOM     14  S   UNL d   1       0.037  -1.206   0.003  0.00  0.00    -0.040 SA
BRANCH  13  15
ATOM     15  N   UNL d   1       0.359   1.475  -0.279  0.00  0.00    -0.360 N 
ATOM     16  H   UNL d   1       1.095   2.164  -0.415  0.00  0.00     0.162 HD
BRANCH  15  17
ATOM     17  C   UNL d   1      -0.948   1.790  -0.810  0.00  0.00     0.187 C 
BRANCH  17  18
ATOM     18  C   UNL d   1      -1.130   3.263  -0.820  0.00  0.00     0.070 A 
ATOM     19  O   UNL d   1      -0.173   4.003  -1.458  0.00  0.00    -0.325 OA
ATOM     20  C   UNL d   1      -0.545   5.305  -1.360  0.00  0.00     0.142 A 
ATOM     21  C   UNL d   1      -1.729   5.417  -0.671  0.00  0.00     0.027 A 
ATOM     22  C   UNL d   1      -2.107   4.098  -0.319  0.00  0.00     0.036 A 
ENDBRANCH  17  18
ENDBRANCH  15  17
ENDBRANCH  13  15
ENDBRANCH   1  13
TORSDOF 6
