REMARK  3 active torsions:
REMARK  status: ('A' for Active; 'I' for Inactive)
REMARK    1  A    between atoms: N_2  and  S_1 
REMARK    2  A    between atoms: C_12  and  S_1 
REMARK    3  A    between atoms: C_6  and  C_5 
ROOT
ATOM      1  N   UNL d   1       0.334   1.548   0.040  0.00  0.00    -0.188 N 
ATOM      2  N   UNL d   1       1.027   2.664  -0.332  0.00  0.00    -0.284 N 
ATOM      3  HN  UNL d   1       1.931   2.715  -0.802  1.00  0.00     0.188 HD
ATOM      4  C   UNL d   1       0.242   3.676   0.065  0.00  0.00     0.067 A 
ATOM      5  C   UNL d   1      -0.923   1.841   0.511  0.00  0.00     0.132 A 
ATOM      6  C   UNL d   1      -0.997   3.212   0.568  0.00  0.00     0.052 A 
ENDROOT
BRANCH   1   7
ATOM      7  S   UNL d   1       0.919  -0.084  -0.042  0.00  0.00     0.282 S 
ATOM      8  O   UNL d   1      -0.144  -0.915   0.494  0.00  0.00    -0.198 OA
ATOM      9  O   UNL d   1       2.247  -0.063   0.543  0.00  0.00    -0.198 OA
BRANCH   7  10
ATOM     10  C   UNL d   1       1.080  -0.425  -1.772  0.00  0.00     0.081 A 
ATOM     11  C   UNL d   1       1.976   0.322  -2.544  0.00  0.00     0.027 A 
ATOM     12  C   UNL d   1       2.134   0.019  -3.899  0.00  0.00     0.025 A 
ATOM     13  C   UNL d   1       1.411  -1.030  -4.467  0.00  0.00     0.034 A 
ATOM     14  C   UNL d   1       0.530  -1.785  -3.693  0.00  0.00     0.025 A 
ATOM     15 CL   UNL d   1       1.616  -1.403  -6.134  0.00  0.00    -0.084 Cl
ATOM     16  C   UNL d   1       0.364  -1.486  -2.338  0.00  0.00     0.027 A 
ENDBRANCH   7  10
ENDBRANCH   1   7
BRANCH   4  17
ATOM     17  C   UNL d   1       0.676   5.113  -0.007  0.00  0.00     0.034 A 
ATOM     18  S   UNL d   1      -0.243   6.417   0.617  0.00  0.00    -0.081 SA
ATOM     19  C   UNL d   1       0.962   7.533   0.210  0.00  0.00     0.052 A 
ATOM     20 BR   UNL d   1       0.833   9.361   0.599  0.00  0.00    -0.043 Br
ATOM     21  C   UNL d   1       2.036   6.964  -0.425  0.00  0.00     0.028 A 
ATOM     22  C   UNL d   1       1.870   5.548  -0.550  0.00  0.00     0.023 A 
ENDBRANCH   4  17
TORSDOF 3
