REMARK  4 active torsions:
REMARK  status: ('A' for Active; 'I' for Inactive)
REMARK    1  A    between atoms: C_8  and  S_1 
REMARK    2  A    between atoms: N_19  and  S_1 
REMARK    3  A    between atoms: S_2  and  C_7 
REMARK    4  A    between atoms: N_18  and  S_2 
ROOT
ATOM      1  C   UNL d   1      -1.985   5.069  -2.624  0.00  0.00    -0.041 A 
ATOM      2  C   UNL d   1      -1.036   3.121  -1.711  0.00  0.00    -0.041 A 
ATOM      3  C   UNL d   1      -0.341   4.241  -1.204  0.00  0.00    -0.019 A 
ATOM      4  C   UNL d   1      -0.923   5.439  -1.767  0.00  0.00    -0.019 A 
ATOM      5  C   UNL d   1      -2.423   7.363  -3.070  0.00  0.00     0.074 A 
ATOM      6  C   UNL d   1       0.362   1.680  -0.436  0.00  0.00     0.074 A 
ATOM      7  C   UNL d   1      -2.129   3.562  -2.664  0.00  0.00     0.078 A 
ATOM      8  C   UNL d   1      -0.699   1.834  -1.337  0.00  0.00     0.033 A 
ATOM      9  C   UNL d   1      -2.743   6.018  -3.288  0.00  0.00     0.033 A 
ATOM     10  C   UNL d   1      -0.598   6.772  -1.572  0.00  0.00     0.014 A 
ATOM     11  C   UNL d   1       0.706   4.084  -0.309  0.00  0.00     0.014 A 
ATOM     12  C   UNL d   1       1.060   2.788   0.081  0.00  0.00     0.026 A 
ATOM     13  C   UNL d   1      -1.355   7.742  -2.234  0.00  0.00     0.026 A 
ENDROOT
BRANCH   5  14
ATOM     14  S   UNL d   1      -3.370   8.617  -3.880  0.00  0.00     0.239 S 
ATOM     15  O   UNL d   1      -2.594   9.833  -3.949  0.00  0.00    -0.206 OA
ATOM     16  O   UNL d   1      -4.027   8.049  -5.034  0.00  0.00    -0.206 OA
BRANCH  14  17
ATOM     17  N   UNL d   1      -4.579   8.901  -2.750  0.00  0.00    -0.225 NA
ATOM     18  H   UNL d   1      -4.516   9.859  -2.405  0.00  0.00     0.136 HD
ATOM     19  H   UNL d   1      -5.487   8.657  -3.143  0.00  0.00     0.136 HD
ENDBRANCH  14  17
ENDBRANCH   5  14
BRANCH   6  20
ATOM     20  S   UNL d   1       0.871   0.048   0.017  0.00  0.00     0.239 S 
ATOM     21  O   UNL d   1       0.186  -0.914  -0.820  0.00  0.00    -0.206 OA
ATOM     22  O   UNL d   1       0.901  -0.051   1.452  0.00  0.00    -0.206 OA
BRANCH  20  23
ATOM     23  N   UNL d   1       2.468   0.021  -0.507  0.00  0.00    -0.225 NA
ATOM     24  H   UNL d   1       2.532  -0.419  -1.423  0.00  0.00     0.136 HD
ATOM     25  H   UNL d   1       3.043  -0.433   0.205  0.00  0.00     0.136 HD
ENDBRANCH  20  23
ENDBRANCH   6  20
TORSDOF 4
