REMARK  12 active torsions:
REMARK  status: ('A' for Active; 'I' for Inactive)
REMARK    1  A    between atoms: O_6  and  C_1 
REMARK    2  A    between atoms: C_23  and  N_2 
REMARK    3  A    between atoms: C_7  and  O_6 
REMARK    4  A    between atoms: C_9  and  C_7 
REMARK       I    between atoms: C_8  and  N_18 
REMARK    5  A    between atoms: C_10  and  C_8 
REMARK    6  A    between atoms: O_29  and  C_11 
REMARK    7  A    between atoms: O_30  and  C_12 
REMARK    8  A    between atoms: O_34  and  C_14 
REMARK    9  A    between atoms: O_32  and  C_15 
REMARK   10  A    between atoms: O_33  and  C_16 
REMARK   11  A    between atoms: O_31  and  C_17 
REMARK   12  A    between atoms: N_18  and  C_28 
ROOT
ATOM      1  C   UNL d   1       0.481   0.118   1.521  0.00  0.00     0.175 C 
ATOM      2  N   UNL d   1       0.829  -0.665   0.423  0.00  0.00    -0.234 N 
ATOM      3  N   UNL d   1      -0.135  -0.644  -0.536  0.00  0.00    -0.296 N 
ATOM      4  HN  UNL d   1      -0.182  -1.210  -1.384  1.00  0.00     0.187 HD
ATOM      5  C   UNL d   1      -0.646   0.813   1.130  0.00  0.00     0.084 C 
ATOM      6  C   UNL d   1      -1.006   0.280  -0.124  0.00  0.00     0.026 C 
ATOM      7  C   UNL d   1      -2.201   0.595  -0.942  0.00  0.00     0.070 C 
ENDROOT
BRANCH   2   8
ATOM      8  C   UNL d   1       1.992  -1.465   0.245  0.00  0.00     0.059 A 
ATOM      9  C   UNL d   1       1.984  -2.512  -0.685  0.00  0.00     0.034 A 
ATOM     10  C   UNL d   1       3.116  -3.319  -0.839  0.00  0.00     0.032 A 
ATOM     11  C   UNL d   1       4.277  -3.064  -0.099  0.00  0.00     0.035 A 
ATOM     12  C   UNL d   1       4.284  -2.005   0.804  0.00  0.00     0.032 A 
ATOM     13  C   UNL d   1       3.153  -1.208   0.976  0.00  0.00     0.034 A 
BRANCH  11  14
ATOM     14  N   UNL d   1       5.393  -3.893  -0.322  0.00  0.00    -0.323 N 
ATOM     15  C   UNL d   1       6.645  -3.766   0.252  0.00  0.00     0.256 C 
ATOM     16  O   UNL d   1       6.996  -2.941   1.088  0.00  0.00    -0.267 OA
ATOM     17  H   UNL d   1       5.234  -4.675  -0.944  0.00  0.00     0.169 HD
BRANCH  15  18
ATOM     18  C   UNL d   1       7.630  -4.796  -0.165  0.00  0.00     0.037 A 
ATOM     19  C   UNL d   1       7.638  -5.327  -1.457  0.00  0.00     0.057 A 
ATOM     20  C   UNL d   1       8.511  -6.367  -1.788  0.00  0.00     0.105 A 
ATOM     21  C   UNL d   1       9.395  -6.864  -0.804  0.00  0.00     0.135 A 
ATOM     22  C   UNL d   1       9.421  -6.282   0.484  0.00  0.00     0.105 A 
ATOM     23  C   UNL d   1       8.549  -5.238   0.786  0.00  0.00     0.057 A 
BRANCH  20  24
ATOM     24  O   UNL d   1       8.562  -6.921  -3.041  0.00  0.00    -0.353 OA
ATOM     25  C   UNL d   1       7.645  -6.457  -4.024  0.00  0.00     0.210 C 
ENDBRANCH  20  24
BRANCH  21  26
ATOM     26  O   UNL d   1      10.321  -7.859  -1.025  0.00  0.00    -0.351 OA
ATOM     27  C   UNL d   1       9.858  -8.990  -1.756  0.00  0.00     0.210 C 
ENDBRANCH  21  26
BRANCH  22  28
ATOM     28  O   UNL d   1      10.315  -6.800   1.391  0.00  0.00    -0.353 OA
ATOM     29  C   UNL d   1      10.096  -6.470   2.760  0.00  0.00     0.210 C 
ENDBRANCH  22  28
ENDBRANCH  15  18
ENDBRANCH  11  14
ENDBRANCH   2   8
BRANCH   1  30
ATOM     30  O   UNL d   1       1.168   0.047   2.660  0.00  0.00    -0.256 OA
BRANCH  30  31
ATOM     31  C   UNL d   1       0.562   0.329   3.830  0.00  0.00     0.300 C 
ATOM     32  O   UNL d   1      -0.578   0.747   4.005  0.00  0.00    -0.259 OA
BRANCH  31  33
ATOM     33  C   UNL d   1       1.474   0.041   4.971  0.00  0.00     0.045 A 
ATOM     34  C   UNL d   1       2.522  -0.884   4.896  0.00  0.00     0.057 A 
ATOM     35  C   UNL d   1       3.285  -1.209   6.035  0.00  0.00     0.105 A 
ATOM     36  C   UNL d   1       3.002  -0.581   7.271  0.00  0.00     0.135 A 
ATOM     37  C   UNL d   1       1.990   0.404   7.319  0.00  0.00     0.105 A 
ATOM     38  C   UNL d   1       1.218   0.680   6.185  0.00  0.00     0.057 A 
BRANCH  35  39
ATOM     39  O   UNL d   1       4.301  -2.128   6.004  0.00  0.00    -0.353 OA
ATOM     40  C   UNL d   1       4.630  -2.767   4.777  0.00  0.00     0.210 C 
ENDBRANCH  35  39
BRANCH  36  41
ATOM     41  O   UNL d   1       3.612  -0.843   8.471  0.00  0.00    -0.351 OA
ATOM     42  C   UNL d   1       4.457  -1.969   8.630  0.00  0.00     0.210 C 
ENDBRANCH  36  41
BRANCH  37  43
ATOM     43  O   UNL d   1       1.592   1.132   8.414  0.00  0.00    -0.353 OA
ATOM     44  C   UNL d   1       2.580   1.433   9.392  0.00  0.00     0.210 C 
ENDBRANCH  37  43
ENDBRANCH  31  33
ENDBRANCH  30  31
ENDBRANCH   1  30
TORSDOF 12
