REMARK  5 active torsions:
REMARK  status: ('A' for Active; 'I' for Inactive)
REMARK    1  A    between atoms: C_2  and  N_1 
REMARK    2  A    between atoms: N_5  and  C_3 
REMARK    3  A    between atoms: C_9  and  N_4 
REMARK    4  A    between atoms: C_8  and  N_5 
REMARK    5  A    between atoms: C_15  and  C_9 
ROOT
ATOM      1  N   UNL d   1       1.591   0.790   0.681  0.00  0.00     0.092 N 
ATOM      2  C   UNL d   1       2.665  -1.937   0.063  0.00  0.00     0.085 C 
ATOM      3  C   UNL d   1       2.053  -1.620   1.425  0.00  0.00     0.055 C 
ATOM      4  C   UNL d   1       3.352  -0.652  -0.422  0.00  0.00     0.055 C 
ATOM      5  C   UNL d   1       1.190  -0.362   1.486  0.00  0.00     0.275 C 
ATOM      6  C   UNL d   1       2.377   0.522  -0.520  0.00  0.00     0.275 C 
ENDROOT
BRANCH   2   7
ATOM      7  N   UNL d   1       1.750  -2.454  -0.990  0.00  0.00    -0.383 N 
ATOM      8  H   UNL d   1       1.385  -1.707  -1.578  0.00  0.00     0.160 HD
BRANCH   7   9
ATOM      9  C   UNL d   1       0.823  -3.478  -0.858  0.00  0.00     0.061 C 
ATOM     10  C   UNL d   1       0.822  -4.525   0.073  0.00  0.00     0.129 C 
ATOM     11  C   UNL d   1      -0.287  -5.350   0.295  0.00  0.00     0.038 C 
ATOM     12  C   UNL d   1      -1.329  -5.335  -0.620  0.00  0.00     0.003 C 
ATOM     13  C   UNL d   1      -1.217  -4.524  -1.746  0.00  0.00     0.002 C 
ATOM     14  C   UNL d   1      -0.175  -3.595  -1.849  0.00  0.00     0.032 C 
BRANCH  10  15
ATOM     15  N   UNL d   1       2.093  -5.127   0.420  0.00  0.00    -0.113 N 
ATOM     16  O   UNL d   1       2.579  -5.912  -0.404  0.00  0.00    -0.532 OA
ATOM     17  O   UNL d   1       2.547  -4.885   1.547  0.00  0.00    -0.532 OA
ENDBRANCH  10  15
ENDBRANCH   7   9
ENDBRANCH   2   7
BRANCH   1  18
ATOM     18  C   UNL d   1       0.462   1.727   0.441  0.00  0.00     0.311 C 
BRANCH  18  19
ATOM     19  C   UNL d   1      -0.602   1.230  -0.532  0.00  0.00    -0.030 A 
ATOM     20  C   UNL d   1      -1.663   0.420  -0.095  0.00  0.00     0.009 A 
ATOM     21  C   UNL d   1      -2.528  -0.181  -1.011  0.00  0.00     0.001 A 
ATOM     22  C   UNL d   1      -2.371   0.052  -2.375  0.00  0.00     0.000 A 
ATOM     23  C   UNL d   1      -1.369   0.910  -2.820  0.00  0.00     0.001 A 
ATOM     24  C   UNL d   1      -0.498   1.504  -1.904  0.00  0.00     0.009 A 
ENDBRANCH  18  19
ENDBRANCH   1  18
TORSDOF 5
