REMARK  4 active torsions:
REMARK  status: ('A' for Active; 'I' for Inactive)
REMARK    1  A    between atoms: C_4  and  S_1 
REMARK    2  A    between atoms: N_7  and  S_1 
REMARK       I    between atoms: C_2  and  N_3 
REMARK    3  A    between atoms: C_9  and  C_2 
REMARK    4  A    between atoms: N_3  and  C_12 
ROOT
ATOM      1  C   UNL d   1       1.101  -0.637   1.784  0.00  0.00     0.074 A 
ATOM      2  C   UNL d   1       0.736   0.007   2.969  0.00  0.00     0.027 A 
ATOM      3  C   UNL d   1       0.980  -2.019   1.664  0.00  0.00     0.027 A 
ATOM      4  C   UNL d   1       0.199  -2.144   3.967  0.00  0.00     0.034 A 
ATOM      5  C   UNL d   1       0.274  -0.749   4.055  0.00  0.00     0.031 A 
ATOM      6  C   UNL d   1       0.529  -2.764   2.755  0.00  0.00     0.031 A 
ENDROOT
BRANCH   4   7
ATOM      7  N   UNL d   1      -0.210  -2.868   5.112  0.00  0.00    -0.327 N 
ATOM      8  C   UNL d   1       0.002  -4.223   5.311  0.00  0.00     0.226 C 
ATOM      9  O   UNL d   1       0.679  -4.930   4.567  0.00  0.00    -0.273 OA
ATOM     10  H   UNL d   1      -0.537  -2.328   5.903  0.00  0.00     0.169 HD
BRANCH   8  11
ATOM     11  C   UNL d   1      -0.595  -4.787   6.608  0.00  0.00     0.078 C 
ATOM     12  C   UNL d   1      -0.302  -6.295   6.726  0.00  0.00     0.014 C 
ATOM     13  C   UNL d   1      -1.126  -7.132   5.743  0.00  0.00     0.001 C 
ATOM     14  C   UNL d   1      -2.618  -6.854   5.874  0.00  0.00     0.000 C 
ATOM     15  C   UNL d   1      -2.937  -5.365   5.783  0.00  0.00     0.001 C 
ATOM     16  C   UNL d   1      -2.102  -4.537   6.759  0.00  0.00     0.014 C 
ENDBRANCH   8  11
ENDBRANCH   4   7
BRANCH   1  17
ATOM     17  S   UNL d   1       1.742   0.290   0.423  0.00  0.00     0.239 S 
ATOM     18  O   UNL d   1       1.956   1.658   0.836  0.00  0.00    -0.206 OA
ATOM     19  O   UNL d   1       1.004  -0.058  -0.766  0.00  0.00    -0.206 OA
BRANCH  17  20
ATOM     20  N   UNL d   1       3.279  -0.364   0.237  0.00  0.00    -0.225 NA
ATOM     21  H   UNL d   1       3.987   0.321   0.502  0.00  0.00     0.136 HD
ATOM     22  H   UNL d   1       3.390  -0.731  -0.709  0.00  0.00     0.136 HD
ENDBRANCH  17  20
ENDBRANCH   1  17
TORSDOF 4
