REMARK  10 active torsions:
REMARK  status: ('A' for Active; 'I' for Inactive)
REMARK    1  A    between atoms: C_9  and  C_1 
REMARK    2  A    between atoms: S_13  and  C_5 
REMARK       I    between atoms: C_8  and  N_10 
REMARK    3  A    between atoms: O_14  and  C_8 
REMARK    4  A    between atoms: C_9  and  N_10 
REMARK    5  A    between atoms: C_16  and  C_9 
REMARK    6  A    between atoms: C_11  and  C_20 
REMARK       I    between atoms: N_12  and  C_11 
REMARK    7  A    between atoms: C_17  and  N_12 
REMARK    8  A    between atoms: C_20  and  S_13 
REMARK    9  A    between atoms: C_19  and  O_14 
REMARK   10  A    between atoms: C_21  and  C_16 
ROOT
ATOM      1  C   UNL d   1      -0.731  -1.117   1.195  0.00  0.00     0.164 A 
ATOM      2  O   UNL d   1       0.517  -0.560   1.280  0.00  0.00    -0.270 OA
ATOM      3  N   UNL d   1      -1.606  -0.512   1.975  0.00  0.00    -0.279 N 
ATOM      4  HN  UNL d   1      -2.601  -0.720   2.056  1.00  0.00     0.189 HD
ATOM      5  C   UNL d   1       0.349   0.377   2.256  0.00  0.00     0.203 A 
ATOM      6  N   UNL d   1      -0.904   0.459   2.660  0.00  0.00    -0.272 N 
ATOM      7  HN  UNL d   1      -1.282   1.113   3.345  1.00  0.00     0.189 HD
ENDROOT
BRANCH   1   8
ATOM      8  C   UNL d   1      -0.843  -2.415   0.447  0.00  0.00     0.167 C 
BRANCH   8   9
ATOM      9  N   UNL d   1      -0.071  -3.396   1.218  0.00  0.00    -0.324 N 
ATOM     10  C   UNL d   1       1.275  -3.584   1.190  0.00  0.00     0.362 C 
ATOM     11  O   UNL d   1       1.806  -4.368   1.968  0.00  0.00    -0.238 OA
ATOM     12  H   UNL d   1      -0.526  -3.854   1.996  0.00  0.00     0.165 HD
BRANCH  10  13
ATOM     13  O   UNL d   1       1.914  -2.863   0.237  0.00  0.00    -0.294 OA
BRANCH  13  14
ATOM     14  C   UNL d   1       3.344  -3.063  -0.003  0.00  0.00     0.061 C 
ATOM     15  C   UNL d   1       3.605  -4.503  -0.457  0.00  0.00     0.046 C 
ATOM     16  C   UNL d   1       3.702  -2.099  -1.148  0.00  0.00     0.046 C 
ATOM     17  C   UNL d   1       4.191  -2.694   1.220  0.00  0.00     0.046 C 
ENDBRANCH  13  14
ENDBRANCH  10  13
ENDBRANCH   8   9
BRANCH   8  18
ATOM     18  C   UNL d   1      -2.335  -2.822   0.313  0.00  0.00     0.072 C 
BRANCH  18  19
ATOM     19  C   UNL d   1      -2.709  -4.152  -0.318  0.00  0.00    -0.056 A 
ATOM     20  C   UNL d   1      -1.783  -5.121  -0.724  0.00  0.00     0.007 A 
ATOM     21  C   UNL d   1      -2.210  -6.361  -1.209  0.00  0.00     0.001 A 
ATOM     22  C   UNL d   1      -3.568  -6.646  -1.319  0.00  0.00     0.000 A 
ATOM     23  C   UNL d   1      -4.504  -5.686  -0.948  0.00  0.00     0.001 A 
ATOM     24  C   UNL d   1      -4.079  -4.453  -0.450  0.00  0.00     0.007 A 
ENDBRANCH  18  19
ENDBRANCH   8  18
ENDBRANCH   1   8
BRANCH   5  25
ATOM     25  S   UNL d   1       1.686   1.243   2.946  0.00  0.00    -0.075 SA
BRANCH  25  26
ATOM     26  C   UNL d   1       0.936   1.756   4.517  0.00  0.00     0.185 C 
BRANCH  26  27
ATOM     27  C   UNL d   1       1.925   2.279   5.548  0.00  0.00     0.228 C 
ATOM     28  N   UNL d   1       3.262   2.246   5.220  0.00  0.00    -0.352 N 
ATOM     29  H   UNL d   1       3.499   1.797   4.341  0.00  0.00     0.163 HD
ATOM     30  O   UNL d   1       1.514   2.692   6.632  0.00  0.00    -0.273 OA
BRANCH  28  31
ATOM     31  C   UNL d   1       4.362   2.636   6.115  0.00  0.00     0.022 C 
ATOM     32  C   UNL d   1       4.387   1.740   7.364  0.00  0.00     0.037 C 
ATOM     33  C   UNL d   1       5.694   2.462   5.358  0.00  0.00     0.037 C 
ATOM     34  C   UNL d   1       4.238   4.113   6.526  0.00  0.00     0.037 C 
ENDBRANCH  28  31
ENDBRANCH  26  27
ENDBRANCH  25  26
ENDBRANCH   5  25
TORSDOF 10
