REMARK  8 active torsions:
REMARK  status: ('A' for Active; 'I' for Inactive)
REMARK    1  A    between atoms: C_4  and  C_1 
REMARK    2  A    between atoms: C_15  and  C_5 
REMARK    3  A    between atoms: C_6  and  C_8 
REMARK    4  A    between atoms: O_14  and  N_10 
REMARK    5  A    between atoms: C_12  and  C_16 
REMARK    6  A    between atoms: N_31  and  C_12 
REMARK    7  A    between atoms: C_13  and  O_14 
REMARK    8  A    between atoms: C_17  and  C_13 
ROOT
ATOM      1  C   UNL d   1       8.706   3.952  -3.375  0.00  0.00    -0.009 A 
ATOM      2  C   UNL d   1       6.822   4.171  -1.265  0.00  0.00     0.004 A 
ATOM      3  C   UNL d   1       7.579   3.123  -3.331  0.00  0.00     0.014 A 
ATOM      4  C   UNL d   1       8.863   4.915  -2.368  0.00  0.00     0.014 A 
ATOM      5  C   UNL d   1       6.651   3.221  -2.281  0.00  0.00     0.015 A 
ATOM      6  C   UNL d   1       7.932   5.022  -1.325  0.00  0.00     0.015 A 
ENDROOT
BRANCH   1   7
ATOM      7  C   UNL d   1       9.672   3.815  -4.461  0.00  0.00     0.050 C 
ATOM      8  N   UNL d   1       9.309   3.313  -5.706  0.00  0.00    -0.349 N 
ATOM      9  C   UNL d   1      10.304   3.430  -6.562  0.00  0.00     0.087 C 
ATOM     10  HN  UNL d   1       8.399   2.909  -5.926  1.00  0.00     0.166 HD
ATOM     11  S   UNL d   1      11.783   3.987  -5.865  0.00  0.00    -0.081 SA
ATOM     12  C   UNL d   1      11.006   4.160  -4.353  0.00  0.00     0.082 C 
BRANCH   9  13
ATOM     13  C   UNL d   1      10.215   3.151  -8.002  0.00  0.00     0.028 A 
ATOM     14  C   UNL d   1       9.102   3.482  -8.796  0.00  0.00     0.063 A 
ATOM     15  C   UNL d   1       9.126   3.143 -10.168  0.00  0.00     0.034 A 
ATOM     16  C   UNL d   1      10.238   2.524 -10.707  0.00  0.00     0.088 A 
ATOM     17  N   UNL d   1      11.319   2.206  -9.978  0.00  0.00    -0.374 N 
ATOM     18  C   UNL d   1      11.278   2.515  -8.658  0.00  0.00     0.102 A 
ATOM     19  HN  UNL d   1      12.132   1.753 -10.397  1.00  0.00     0.164 HD
BRANCH  14  20
ATOM     20  C   UNL d   1       7.859   4.201  -8.323  0.00  0.00     0.418 C 
ATOM     21  F   UNL d   1       7.877   4.749  -7.085  0.00  0.00    -0.166 F 
ATOM     22  F   UNL d   1       7.568   5.252  -9.152  0.00  0.00    -0.166 F 
ATOM     23  F   UNL d   1       6.760   3.398  -8.374  0.00  0.00    -0.166 F 
ENDBRANCH  14  20
ENDBRANCH   9  13
ENDBRANCH   1   7
BRANCH   2  24
ATOM     24  C   UNL d   1       5.848   4.300  -0.118  0.00  0.00     0.109 C 
ATOM     25  N   UNL d   1       6.078   5.224   0.771  0.00  0.00    -0.246 N 
ATOM     26  HN  UNL d   1       6.886   5.846   0.744  1.00  0.00     0.196 HD
BRANCH  25  27
ATOM     27  O   UNL d   1       5.086   5.269   1.776  0.00  0.00    -0.193 OA
BRANCH  27  28
ATOM     28  C   UNL d   1       5.405   6.237   2.690  0.00  0.00     0.315 C 
ATOM     29  O   UNL d   1       6.406   6.946   2.713  0.00  0.00    -0.257 OA
BRANCH  28  30
ATOM     30  C   UNL d   1       4.331   6.365   3.719  0.00  0.00     0.041 A 
ATOM     31  C   UNL d   1       4.516   7.307   4.748  0.00  0.00     0.019 A 
ATOM     32  C   UNL d   1       3.542   7.487   5.736  0.00  0.00     0.025 A 
ATOM     33  C   UNL d   1       2.374   6.732   5.699  0.00  0.00     0.034 A 
ATOM     34  C   UNL d   1       2.174   5.794   4.686  0.00  0.00     0.025 A 
ATOM     35 CL   UNL d   1       1.171   6.956   6.907  0.00  0.00    -0.084 Cl
ATOM     36  C   UNL d   1       3.150   5.610   3.697  0.00  0.00     0.019 A 
ENDBRANCH  28  30
ENDBRANCH  27  28
ENDBRANCH  25  27
BRANCH  24  37
ATOM     37  N   UNL d   1       4.762   3.458  -0.047  0.00  0.00    -0.286 NA
ATOM     38  H   UNL d   1       4.077   3.771   0.630  0.00  0.00     0.125 HD
ATOM     39  H   UNL d   1       4.337   3.188  -0.925  0.00  0.00     0.125 HD
ENDBRANCH  24  37
ENDBRANCH   2  24
TORSDOF 8
