REMARK  8 active torsions:
REMARK  status: ('A' for Active; 'I' for Inactive)
REMARK    1  A    between atoms: N_6  and  C_1 
REMARK    2  A    between atoms: N_12  and  C_1 
REMARK    3  A    between atoms: C_2  and  C_4 
REMARK    4  A    between atoms: C_3  and  C_5 
REMARK    5  A    between atoms: C_7  and  N_6 
REMARK    6  A    between atoms: C_22  and  N_12 
REMARK    7  A    between atoms: C_23  and  N_12 
REMARK    8  A    between atoms: C_21  and  C_22 
ROOT
ATOM      1  N   UNL d   1      -0.454  -2.460  -2.796  0.00  0.00    -0.197 NA
ATOM      2  C   UNL d   1       0.482  -1.845  -2.503  0.00  0.00     0.060 C 
ATOM      3  C   UNL d   1       1.668  -1.061  -2.118  0.00  0.00     0.143 C 
ENDROOT
BRANCH   3   4
ATOM      4  C   UNL d   1       1.324   0.388  -1.736  0.00  0.00     0.139 C 
BRANCH   4   5
ATOM      5  N   UNL d   1       0.318   0.493  -0.655  0.00  0.00    -0.357 N 
BRANCH   5   6
ATOM      6  C   UNL d   1       0.665   0.016   0.634  0.00  0.00     0.174 C 
ATOM      7  S   UNL d   1       2.195   0.196   1.311  0.00  0.00    -0.041 SA
BRANCH   6   8
ATOM      8  N   UNL d   1      -0.378  -0.611   1.281  0.00  0.00    -0.333 N 
ATOM      9  H   UNL d   1      -1.290  -0.217   1.108  0.00  0.00     0.168 HD
BRANCH   8  10
ATOM     10  C   UNL d   1      -0.416  -1.826   1.998  0.00  0.00     0.035 A 
ATOM     11  C   UNL d   1      -1.658  -2.150   2.552  0.00  0.00     0.045 A 
ATOM     12  C   UNL d   1      -1.909  -3.415   3.100  0.00  0.00     0.050 A 
ATOM     13  C   UNL d   1      -0.871  -4.352   3.139  0.00  0.00     0.032 A 
ATOM     14  C   UNL d   1       0.385  -4.052   2.584  0.00  0.00     0.050 A 
ATOM     15  C   UNL d   1       0.611  -2.771   2.037  0.00  0.00     0.045 A 
BRANCH  12  16
ATOM     16  C   UNL d   1      -3.313  -3.757   3.530  0.00  0.00     0.417 C 
ATOM     17  F   UNL d   1      -3.493  -5.076   3.806  0.00  0.00    -0.166 F 
ATOM     18  F   UNL d   1      -3.704  -3.076   4.641  0.00  0.00    -0.166 F 
ATOM     19  F   UNL d   1      -4.225  -3.450   2.564  0.00  0.00    -0.166 F 
ENDBRANCH  12  16
BRANCH  14  20
ATOM     20  C   UNL d   1       1.448  -5.123   2.480  0.00  0.00     0.417 C 
ATOM     21  F   UNL d   1       0.968  -6.375   2.728  0.00  0.00    -0.166 F 
ATOM     22  F   UNL d   1       2.001  -5.185   1.236  0.00  0.00    -0.166 F 
ATOM     23  F   UNL d   1       2.480  -4.940   3.345  0.00  0.00    -0.166 F 
ENDBRANCH  14  20
ENDBRANCH   8  10
ENDBRANCH   6   8
ENDBRANCH   5   6
BRANCH   5  24
ATOM     24  C   UNL d   1      -1.079   0.643  -1.124  0.00  0.00     0.120 C 
ATOM     25  C   UNL d   1      -1.814   1.797  -0.451  0.00  0.00     0.026 C 
ENDBRANCH   5  24
ENDBRANCH   4   5
ENDBRANCH   3   4
TORSDOF 8
