REMARK  7 active torsions:
REMARK  status: ('A' for Active; 'I' for Inactive)
REMARK    1  A    between atoms: C_2  and  C_1 
REMARK       I    between atoms: N_14  and  C_2 
REMARK    2  A    between atoms: C_6  and  C_4 
REMARK    3  A    between atoms: C_19  and  C_7 
REMARK    4  A    between atoms: C_8  and  C_13 
REMARK    5  A    between atoms: N_9  and  N_14 
REMARK    6  A    between atoms: C_20  and  C_19 
REMARK    7  A    between atoms: C_21  and  C_20 
ROOT
ATOM      1  C   UNL d   1      -0.714  -2.489   0.018  0.00  0.00     0.293 C 
ATOM      2  N   UNL d   1       0.330  -3.410   0.018  0.00  0.00    -0.265 N 
ATOM      3  O   UNL d   1      -1.899  -2.822   0.021  0.00  0.00    -0.264 OA
ATOM      4  H   UNL d   1       1.292  -3.088   0.012  0.00  0.00     0.190 HD
ENDROOT
BRANCH   1   5
ATOM      5  C   UNL d   1      -0.324  -1.091   0.013  0.00  0.00     0.146 A 
ATOM      6  O   UNL d   1       0.996  -0.697   0.011  0.00  0.00    -0.296 OA
ATOM      7  C   UNL d   1       0.987   0.668   0.006  0.00  0.00     0.129 A 
ATOM      8  C   UNL d   1      -0.296   1.159   0.004  0.00  0.00     0.050 A 
ATOM      9  C   UNL d   1      -1.140   0.029   0.008  0.00  0.00     0.046 A 
BRANCH   7  10
ATOM     10  C   UNL d   1       2.220   1.371   0.004  0.00  0.00    -0.041 C 
ATOM     11  C   UNL d   1       3.199   2.065   0.004  0.00  0.00    -0.099 C 
BRANCH  11  12
ATOM     12  C   UNL d   1       4.358   2.974   0.010  0.00  0.00     0.094 C 
BRANCH  12  13
ATOM     13  C   UNL d   1       5.451   2.461   0.945  0.00  0.00     0.012 C 
BRANCH  13  14
ATOM     14  C   UNL d   1       6.672   3.381   0.956  0.00  0.00    -0.004 C 
ATOM     15  C   UNL d   1       7.752   2.848   1.884  0.00  0.00     0.005 C 
ENDBRANCH  13  14
ENDBRANCH  12  13
ENDBRANCH  11  12
ENDBRANCH   7  10
ENDBRANCH   1   5
BRANCH   2  16
ATOM     16  N   UNL d   1       0.020  -4.745   0.019  0.00  0.00    -0.308 N 
ATOM     17  C   UNL d   1       0.994  -5.597   0.022  0.00  0.00     0.126 C 
ATOM     18  HN  UNL d   1      -0.951  -5.059   0.017  1.00  0.00     0.186 HD
BRANCH  17  19
ATOM     19  C   UNL d   1       0.706  -7.014   0.017  0.00  0.00     0.021 A 
ATOM     20  S   UNL d   1       1.993  -8.141   0.017  0.00  0.00    -0.101 SA
ATOM     21  C   UNL d   1       0.916  -9.473  -0.005  0.00  0.00     0.050 A 
ATOM     22  C   UNL d   1      -0.401  -9.071  -0.008  0.00  0.00     0.008 A 
ATOM     23  C   UNL d   1      -0.522  -7.650   0.009  0.00  0.00     0.021 A 
ENDBRANCH  17  19
ENDBRANCH   2  16
TORSDOF 7
