REMARK  5 active torsions:
REMARK  status: ('A' for Active; 'I' for Inactive)
REMARK    1  A    between atoms: N_4  and  C_1 
REMARK    2  A    between atoms: S_5  and  C_2 
REMARK    3  A    between atoms: S_6  and  C_3 
REMARK    4  A    between atoms: C_7  and  S_5 
REMARK    5  A    between atoms: C_8  and  S_6 
ROOT
ATOM      1  C   UNL d   1      -0.119  -1.607   0.046  0.00  0.00     0.170 A 
ATOM      2  C   UNL d   1       1.100  -0.973  -0.053  0.00  0.00     0.112 A 
ATOM      3  C   UNL d   1      -1.257  -0.831   0.102  0.00  0.00     0.112 A 
ATOM      4  N   UNL d   1       1.187   0.378  -0.079  0.00  0.00    -0.345 N 
ATOM      5  HN  UNL d   1       2.088   0.853  -0.133  1.00  0.00     0.167 HD
ATOM      6  N   UNL d   1      -1.186   0.520   0.051  0.00  0.00    -0.345 N 
ATOM      7  HN  UNL d   1      -2.026   1.099   0.073  1.00  0.00     0.167 HD
ATOM      8  C   UNL d   1       0.036   1.060  -0.030  0.00  0.00     0.182 A 
ENDROOT
BRANCH   2   9
ATOM      9  S   UNL d   1       2.667  -1.824  -0.091  0.00  0.00    -0.063 SA
BRANCH   9  10
ATOM     10  C   UNL d   1       3.075  -1.815  -1.808  0.00  0.00     0.047 A 
ATOM     11  S   UNL d   1       2.067  -1.284  -3.088  0.00  0.00    -0.095 SA
ATOM     12  C   UNL d   1       3.252  -1.637  -4.269  0.00  0.00     0.051 A 
ATOM     13  C   UNL d   1       4.390  -2.172  -3.712  0.00  0.00     0.009 A 
ATOM     14  C   UNL d   1       4.284  -2.280  -2.295  0.00  0.00     0.027 A 
ENDBRANCH   9  10
ENDBRANCH   2   9
BRANCH   1  15
ATOM     15  N   UNL d   1      -0.199  -3.027   0.093  0.00  0.00    -0.110 N 
ATOM     16  O   UNL d   1       0.084  -3.572   1.166  0.00  0.00    -0.532 OA
ATOM     17  O   UNL d   1      -0.549  -3.607  -0.944  0.00  0.00    -0.532 OA
ENDBRANCH   1  15
BRANCH   3  18
ATOM     18  S   UNL d   1      -2.913  -1.492   0.155  0.00  0.00    -0.063 SA
BRANCH  18  19
ATOM     19  C   UNL d   1      -3.344  -1.340   1.860  0.00  0.00     0.047 A 
ATOM     20  S   UNL d   1      -2.299  -0.871   3.132  0.00  0.00    -0.095 SA
ATOM     21  C   UNL d   1      -3.537  -1.013   4.304  0.00  0.00     0.051 A 
ATOM     22  C   UNL d   1      -4.724  -1.431   3.748  0.00  0.00     0.009 A 
ATOM     23  C   UNL d   1      -4.609  -1.623   2.341  0.00  0.00     0.027 A 
ENDBRANCH  18  19
ENDBRANCH   3  18
TORSDOF 5
