REMARK  3 active torsions:
REMARK  status: ('A' for Active; 'I' for Inactive)
REMARK    1  A    between atoms: C_5  and  C_1 
REMARK    2  A    between atoms: C_6  and  C_2 
REMARK       I    between atoms: N_9  and  C_5 
REMARK    3  A    between atoms: N_12  and  N_9 
ROOT
ATOM      1  C   UNL d   1      -0.141  -1.174   0.213  0.00  0.00     0.094 A 
ATOM      2  C   UNL d   1      -1.418  -0.537   0.393  0.00  0.00     0.085 A 
ATOM      3  N   UNL d   1      -1.253   0.793   0.492  0.00  0.00    -0.259 N 
ATOM      4  HN  UNL d   1      -1.982   1.482   0.676  1.00  0.00     0.195 HD
ATOM      5  O   UNL d   1       0.076   1.049   0.297  0.00  0.00    -0.241 OA
ATOM      6  C   UNL d   1       0.746  -0.115   0.127  0.00  0.00     0.090 A 
ATOM      7  C   UNL d   1       2.196   0.032  -0.117  0.00  0.00     0.080 C 
ENDROOT
BRANCH   1   8
ATOM      8  C   UNL d   1       0.172  -2.589   0.103  0.00  0.00     0.271 C 
ATOM      9  N   UNL d   1       1.417  -2.932   0.638  0.00  0.00    -0.286 N 
ATOM     10  H   UNL d   1       1.932  -2.240   1.169  0.00  0.00     0.184 HD
ATOM     11  O   UNL d   1      -0.617  -3.393  -0.381  0.00  0.00    -0.266 OA
BRANCH   9  12
ATOM     12  N   UNL d   1       1.946  -4.243   0.671  0.00  0.00    -0.237 NA
ATOM     13  C   UNL d   1       1.194  -5.135   1.552  0.00  0.00     0.135 C 
ATOM     14  C   UNL d   1       2.130  -4.823  -0.659  0.00  0.00     0.135 C 
ENDBRANCH   9  12
ENDBRANCH   1   8
BRANCH   2  15
ATOM     15  C   UNL d   1      -2.756  -1.113   0.591  0.00  0.00     0.015 A 
ATOM     16  C   UNL d   1      -3.919  -0.552   0.024  0.00  0.00     0.046 A 
ATOM     17 CL   UNL d   1      -3.891   0.741  -1.129  0.00  0.00    -0.083 Cl
ATOM     18  C   UNL d   1      -5.186  -1.054   0.357  0.00  0.00     0.025 A 
ATOM     19  C   UNL d   1      -5.313  -2.131   1.230  0.00  0.00     0.002 A 
ATOM     20  C   UNL d   1      -4.173  -2.721   1.765  0.00  0.00     0.001 A 
ATOM     21  C   UNL d   1      -2.907  -2.212   1.454  0.00  0.00     0.015 A 
ENDBRANCH   2  15
TORSDOF 3
