REMARK  7 active torsions:
REMARK  status: ('A' for Active; 'I' for Inactive)
REMARK    1  A    between atoms: C_5  and  S_1 
REMARK    2  A    between atoms: N_7  and  S_1 
REMARK    3  A    between atoms: N_3  and  C_2 
REMARK    4  A    between atoms: S_8  and  C_6 
REMARK    5  A    between atoms: C_10  and  N_7 
REMARK    6  A    between atoms: C_14  and  S_8 
REMARK    7  A    between atoms: N_20  and  C_19 
ROOT
ATOM      1  C   UNL d   1      -2.456   1.230  -0.068  0.00  0.00    -0.085 C 
ATOM      2  C   UNL d   1      -1.685   0.663  -1.198  0.00  0.00     0.103 C 
ATOM      3  C   UNL d   1      -3.110   1.850   0.732  0.00  0.00     0.015 C 
ATOM      4  C   UNL d   1      -2.074  -0.794  -1.522  0.00  0.00     0.045 C 
ATOM      5  C   UNL d   1      -2.067   1.563  -2.419  0.00  0.00     0.045 C 
ATOM      6  C   UNL d   1      -1.495  -1.271  -2.858  0.00  0.00     0.004 C 
ATOM      7  C   UNL d   1      -1.667   1.044  -3.799  0.00  0.00     0.004 C 
ATOM      8  C   UNL d   1      -2.027  -0.421  -4.002  0.00  0.00     0.000 C 
ENDROOT
BRANCH   2   9
ATOM      9  N   UNL d   1      -0.232   0.792  -0.948  0.00  0.00    -0.294 N 
ATOM     10  H   UNL d   1       0.371   0.880  -1.764  0.00  0.00     0.174 HD
BRANCH   9  11
ATOM     11  S   UNL d   1       0.582   0.099   0.353  0.00  0.00     0.260 S 
ATOM     12  O   UNL d   1      -0.076  -1.114   0.774  0.00  0.00    -0.200 OA
ATOM     13  O   UNL d   1       1.975   0.102  -0.023  0.00  0.00    -0.200 OA
BRANCH  11  14
ATOM     14  C   UNL d   1       0.409   1.297   1.657  0.00  0.00     0.082 C 
ATOM     15  C   UNL d   1       1.189   2.450   1.622  0.00  0.00     0.062 C 
ATOM     16  C   UNL d   1       0.923   3.462   2.555  0.00  0.00     0.121 C 
ATOM     17  C   UNL d   1      -0.073   3.347   3.539  0.00  0.00     0.038 C 
ATOM     18  C   UNL d   1      -0.743   2.116   3.630  0.00  0.00     0.023 C 
ATOM     19  C   UNL d   1      -0.498   1.091   2.701  0.00  0.00     0.027 C 
BRANCH  16  20
ATOM     20  N   UNL d   1       1.689   4.680   2.412  0.00  0.00    -0.114 N 
ATOM     21  O   UNL d   1       2.831   4.675   2.886  0.00  0.00    -0.532 OA
ATOM     22  O   UNL d   1       1.165   5.601   1.776  0.00  0.00    -0.532 OA
ENDBRANCH  16  20
BRANCH  17  23
ATOM     23  S   UNL d   1      -0.755   4.732   4.442  0.00  0.00    -0.086 SA
BRANCH  23  24
ATOM     24  C   UNL d   1       0.080   4.718   6.022  0.00  0.00     0.026 A 
ATOM     25  C   UNL d   1      -0.637   4.467   7.213  0.00  0.00     0.023 A 
ATOM     26  C   UNL d   1       0.034   4.547   8.441  0.00  0.00     0.024 A 
ATOM     27  C   UNL d   1       1.361   4.975   8.504  0.00  0.00     0.002 A 
ATOM     28  C   UNL d   1       2.046   5.284   7.334  0.00  0.00     0.001 A 
ATOM     29  C   UNL d   1       1.409   5.154   6.100  0.00  0.00     0.021 A 
BRANCH  25  30
ATOM     30  N   UNL d   1      -1.952   3.954   7.195  0.00  0.00    -0.302 NA
ATOM     31  H   UNL d   1      -2.449   4.234   6.351  0.00  0.00     0.124 HD
ATOM     32  H   UNL d   1      -2.477   4.173   8.037  0.00  0.00     0.124 HD
ENDBRANCH  25  30
ENDBRANCH  23  24
ENDBRANCH  17  23
ENDBRANCH  11  14
ENDBRANCH   9  11
ENDBRANCH   2   9
TORSDOF 7
