REMARK  10 active torsions:
REMARK  status: ('A' for Active; 'I' for Inactive)
REMARK    1  A    between atoms: N_2  and  C_11 
REMARK    2  A    between atoms: N_3  and  C_10 
REMARK    3  A    between atoms: S_21  and  C_4 
REMARK    4  A    between atoms: S_20  and  C_5 
REMARK    5  A    between atoms: C_14  and  C_18 
REMARK    6  A    between atoms: C_15  and  C_19 
REMARK    7  A    between atoms: C_18  and  C_24 
REMARK    8  A    between atoms: C_19  and  C_25 
REMARK    9  A    between atoms: C_25  and  S_20 
REMARK   10  A    between atoms: C_24  and  S_21 
ROOT
ATOM      1  S   UNL d   1       1.333  -0.004  -0.016  0.00  0.00    -0.038 SA
ATOM      2  C   UNL d   1       0.098   1.164  -0.230  0.00  0.00     0.129 A 
ATOM      3  C   UNL d   1       0.107  -1.180   0.205  0.00  0.00     0.129 A 
ATOM      4  N   UNL d   1      -1.115   0.670  -0.131  0.00  0.00    -0.287 N 
ATOM      5  HN  UNL d   1      -1.964   1.228  -0.225  1.00  0.00     0.188 HD
ATOM      6  N   UNL d   1      -1.112  -0.693   0.117  0.00  0.00    -0.287 N 
ATOM      7  HN  UNL d   1      -1.957  -1.255   0.219  1.00  0.00     0.188 HD
ENDROOT
BRANCH   2   8
ATOM      8  S   UNL d   1       0.335   2.877  -0.529  0.00  0.00    -0.096 SA
BRANCH   8   9
ATOM      9  C   UNL d   1       2.124   3.025  -0.757  0.00  0.00     0.165 C 
BRANCH   9  10
ATOM     10  C   UNL d   1       2.487   4.456  -1.101  0.00  0.00     0.169 C 
ATOM     11  O   UNL d   1       2.673   4.791  -2.271  0.00  0.00    -0.291 OA
BRANCH  10  12
ATOM     12  C   UNL d   1       2.640   5.481  -0.019  0.00  0.00     0.013 A 
ATOM     13  C   UNL d   1       2.465   5.187   1.337  0.00  0.00     0.051 A 
ATOM     14  C   UNL d   1       2.573   6.214   2.290  0.00  0.00     0.103 A 
ATOM     15  C   UNL d   1       2.873   7.526   1.906  0.00  0.00     0.036 A 
ATOM     16  C   UNL d   1       3.070   7.813   0.556  0.00  0.00     0.003 A 
ATOM     17  C   UNL d   1       2.953   6.798  -0.398  0.00  0.00     0.015 A 
BRANCH  14  18
ATOM     18  N   UNL d   1       2.349   5.906   3.709  0.00  0.00    -0.116 N 
ATOM     19  O   UNL d   1       2.110   4.727   4.006  0.00  0.00    -0.532 OA
ATOM     20  O   UNL d   1       2.418   6.838   4.521  0.00  0.00    -0.532 OA
ENDBRANCH  14  18
ENDBRANCH  10  12
ENDBRANCH   9  10
ENDBRANCH   8   9
ENDBRANCH   2   8
BRANCH   3  21
ATOM     21  S   UNL d   1       0.357  -2.890   0.501  0.00  0.00    -0.096 SA
BRANCH  21  22
ATOM     22  C   UNL d   1       2.147  -3.027   0.723  0.00  0.00     0.165 C 
BRANCH  22  23
ATOM     23  C   UNL d   1       2.522  -4.456   1.057  0.00  0.00     0.169 C 
ATOM     24  O   UNL d   1       2.710  -4.800   2.224  0.00  0.00    -0.291 OA
BRANCH  23  25
ATOM     25  C   UNL d   1       2.677  -5.475  -0.032  0.00  0.00     0.013 A 
ATOM     26  C   UNL d   1       2.504  -5.170  -1.387  0.00  0.00     0.051 A 
ATOM     27  C   UNL d   1       2.617  -6.190  -2.348  0.00  0.00     0.103 A 
ATOM     28  C   UNL d   1       2.920  -7.504  -1.972  0.00  0.00     0.036 A 
ATOM     29  C   UNL d   1       3.114  -7.801  -0.625  0.00  0.00     0.003 A 
ATOM     30  C   UNL d   1       2.992  -6.794   0.337  0.00  0.00     0.015 A 
BRANCH  27  31
ATOM     31  N   UNL d   1       2.397  -5.871  -3.766  0.00  0.00    -0.116 N 
ATOM     32  O   UNL d   1       2.159  -4.690  -4.055  0.00  0.00    -0.532 OA
ATOM     33  O   UNL d   1       2.467  -6.798  -4.584  0.00  0.00    -0.532 OA
ENDBRANCH  27  31
ENDBRANCH  23  25
ENDBRANCH  22  23
ENDBRANCH  21  22
ENDBRANCH   3  21
TORSDOF 10
