REMARK  10 active torsions:
REMARK  status: ('A' for Active; 'I' for Inactive)
REMARK    1  A    between atoms: C_7  and  S_1 
REMARK    2  A    between atoms: N_18  and  S_1 
REMARK    3  A    between atoms: S_2  and  C_8 
REMARK    4  A    between atoms: N_19  and  S_2 
REMARK    5  A    between atoms: C_22  and  N_18 
REMARK    6  A    between atoms: C_23  and  N_19 
REMARK    7  A    between atoms: C_26  and  C_22 
REMARK    8  A    between atoms: C_27  and  C_23 
REMARK    9  A    between atoms: O_24  and  C_26 
REMARK   10  A    between atoms: O_25  and  C_27 
ROOT
ATOM      1  C   UNL d   1      -0.329  -1.542   3.592  0.00  0.00    -0.041 A 
ATOM      2  C   UNL d   1      -0.889  -2.619   5.620  0.00  0.00    -0.041 A 
ATOM      3  C   UNL d   1      -0.076  -2.925   3.458  0.00  0.00    -0.019 A 
ATOM      4  C   UNL d   1      -0.416  -3.585   4.702  0.00  0.00    -0.019 A 
ATOM      5  C   UNL d   1       0.490  -1.178   1.380  0.00  0.00     0.075 A 
ATOM      6  C   UNL d   1      -1.190  -4.325   7.264  0.00  0.00     0.075 A 
ATOM      7  C   UNL d   1      -0.888  -1.244   4.973  0.00  0.00     0.078 A 
ATOM      8  C   UNL d   1      -0.049  -0.653   2.563  0.00  0.00     0.033 A 
ATOM      9  C   UNL d   1      -1.285  -2.973   6.905  0.00  0.00     0.033 A 
ATOM     10  C   UNL d   1      -0.331  -4.920   5.061  0.00  0.00     0.014 A 
ATOM     11  C   UNL d   1       0.443  -3.440   2.279  0.00  0.00     0.014 A 
ATOM     12  C   UNL d   1       0.730  -2.558   1.232  0.00  0.00     0.026 A 
ATOM     13  C   UNL d   1      -0.722  -5.291   6.352  0.00  0.00     0.026 A 
ENDROOT
BRANCH   5  14
ATOM     14  S   UNL d   1       0.962  -0.067   0.073  0.00  0.00     0.241 S 
ATOM     15  O   UNL d   1       1.433  -0.845  -1.050  0.00  0.00    -0.206 OA
ATOM     16  O   UNL d   1       1.769   0.972   0.674  0.00  0.00    -0.206 OA
BRANCH  14  17
ATOM     17  N   UNL d   1      -0.498   0.646  -0.357  0.00  0.00    -0.214 NA
ATOM     18  H   UNL d   1      -0.397   1.656  -0.496  0.00  0.00     0.140 HD
BRANCH  17  19
ATOM     19  C   UNL d   1      -1.310  -0.026  -1.388  0.00  0.00     0.130 C 
BRANCH  19  20
ATOM     20  C   UNL d   1      -2.590   0.780  -1.622  0.00  0.00     0.179 C 
BRANCH  20  21
ATOM     21  O   UNL d   1      -2.256   2.100  -2.055  0.00  0.00    -0.400 OA
ATOM     22  H   UNL d   1      -3.094   2.557  -2.242  0.00  0.00     0.209 HD
ENDBRANCH  20  21
ENDBRANCH  19  20
ENDBRANCH  17  19
ENDBRANCH  14  17
ENDBRANCH   5  14
BRANCH   6  23
ATOM     23  S   UNL d   1      -1.773  -4.860   8.860  0.00  0.00     0.241 S 
ATOM     24  O   UNL d   1      -3.061  -4.235   9.071  0.00  0.00    -0.206 OA
ATOM     25  O   UNL d   1      -1.602  -6.293   8.957  0.00  0.00    -0.206 OA
BRANCH  23  26
ATOM     26  N   UNL d   1      -0.705  -4.133   9.940  0.00  0.00    -0.214 NA
ATOM     27  H   UNL d   1      -1.203  -3.790  10.768  0.00  0.00     0.140 HD
BRANCH  26  28
ATOM     28  C   UNL d   1       0.540  -4.861  10.256  0.00  0.00     0.130 C 
BRANCH  28  29
ATOM     29  C   UNL d   1       1.357  -4.063  11.276  0.00  0.00     0.179 C 
BRANCH  29  30
ATOM     30  O   UNL d   1       0.611  -3.911  12.484  0.00  0.00    -0.400 OA
ATOM     31  H   UNL d   1       1.195  -3.466  13.124  0.00  0.00     0.209 HD
ENDBRANCH  29  30
ENDBRANCH  28  29
ENDBRANCH  26  28
ENDBRANCH  23  26
ENDBRANCH   6  23
TORSDOF 10
