REMARK  5 active torsions:
REMARK  status: ('A' for Active; 'I' for Inactive)
REMARK    1  A    between atoms: C_11  and  C_2 
REMARK    2  A    between atoms: C_12  and  C_6 
REMARK    3  A    between atoms: O_22  and  C_8 
REMARK       I    between atoms: N_14  and  C_11 
REMARK       I    between atoms: C_13  and  N_15 
REMARK    4  A    between atoms: C_18  and  C_13 
REMARK    5  A    between atoms: N_15  and  N_14 
ROOT
ATOM      1  C   UNL d   1      -0.320  -0.707   0.010  0.00  0.00     0.069 A 
ATOM      2  C   UNL d   1      -1.619  -1.168   0.032  0.00  0.00     0.102 A 
ATOM      3  C   UNL d   1      -0.229   0.731   0.000  0.00  0.00     0.032 A 
ATOM      4  N   UNL d   1       0.780  -1.506   0.005  0.00  0.00    -0.350 N 
ATOM      5  HN  UNL d   1       0.740  -2.525   0.009  1.00  0.00     0.166 HD
ATOM      6  C   UNL d   1       1.960  -0.784  -0.008  0.00  0.00     0.119 A 
ATOM      7  S   UNL d   1      -2.723   0.161   0.031  0.00  0.00    -0.093 SA
ATOM      8  C   UNL d   1       0.953   1.479  -0.013  0.00  0.00     0.083 A 
ATOM      9  C   UNL d   1       2.073   0.642  -0.016  0.00  0.00     0.072 A 
ATOM     10  C   UNL d   1      -1.469   1.324   0.009  0.00  0.00     0.067 A 
ENDROOT
BRANCH   2  11
ATOM     11  C   UNL d   1      -2.165  -2.513   0.056  0.00  0.00     0.279 C 
ATOM     12  N   UNL d   1      -1.254  -3.556   0.022  0.00  0.00    -0.262 N 
ATOM     13  H   UNL d   1      -0.242  -3.420  -0.025  0.00  0.00     0.190 HD
ATOM     14  O   UNL d   1      -3.372  -2.768   0.108  0.00  0.00    -0.265 OA
BRANCH  12  15
ATOM     15  N   UNL d   1      -1.753  -4.867   0.016  0.00  0.00    -0.263 N 
ATOM     16  C   UNL d   1      -0.874  -5.929   0.026  0.00  0.00     0.270 C 
ATOM     17  O   UNL d   1       0.346  -5.794   0.008  0.00  0.00    -0.266 OA
ATOM     18  H   UNL d   1      -2.750  -4.962   0.203  0.00  0.00     0.190 HD
BRANCH  16  19
ATOM     19  C   UNL d   1      -1.491  -7.285   0.101  0.00  0.00     0.033 A 
ATOM     20  C   UNL d   1      -2.749  -7.562  -0.455  0.00  0.00     0.017 A 
ATOM     21  C   UNL d   1      -3.288  -8.848  -0.358  0.00  0.00     0.001 A 
ATOM     22  C   UNL d   1      -2.577  -9.859   0.288  0.00  0.00     0.000 A 
ATOM     23  C   UNL d   1      -1.320  -9.593   0.828  0.00  0.00     0.001 A 
ATOM     24  C   UNL d   1      -0.773  -8.310   0.729  0.00  0.00     0.017 A 
ENDBRANCH  16  19
ENDBRANCH  12  15
ENDBRANCH   2  11
BRANCH   8  25
ATOM     25  O   UNL d   1       0.926   2.838  -0.018  0.00  0.00    -0.355 OA
ATOM     26  C   UNL d   1       2.179   3.510  -0.022  0.00  0.00     0.210 C 
ENDBRANCH   8  25
BRANCH   6  27
ATOM     27  C   UNL d   1       3.283  -1.558  -0.004  0.00  0.00     0.432 C 
ATOM     28  F   UNL d   1       3.144  -2.910  -0.027  0.00  0.00    -0.165 F 
ATOM     29  F   UNL d   1       4.067  -1.240  -1.075  0.00  0.00    -0.165 F 
ATOM     30  F   UNL d   1       4.040  -1.274   1.096  0.00  0.00    -0.165 F 
ENDBRANCH   6  27
TORSDOF 5
