REMARK  3 active torsions:
REMARK  status: ('A' for Active; 'I' for Inactive)
REMARK    1  A    between atoms: C_12  and  N_11 
REMARK    2  A    between atoms: C_20  and  C_12 
REMARK    3  A    between atoms: O_21  and  C_20 
ROOT
ATOM      1  C   UNL d   1       1.054  -0.818  -0.057  0.00  0.00     0.160 A 
ATOM      2  C   UNL d   1       0.669   0.486   0.025  0.00  0.00     0.164 A 
ATOM      3  C   UNL d   1      -1.090  -0.873  -0.059  0.00  0.00     0.685 A 
ATOM      4  N   UNL d   1      -0.027  -1.654  -0.150  0.00  0.00    -0.174 N 
ATOM      5  HN  UNL d   1      -0.015  -2.668  -0.265  1.00  0.00     0.186 HD
ATOM      6  N   UNL d   1       2.386  -1.166  -0.054  0.00  0.00    -0.287 N 
ATOM      7  N   UNL d   1      -0.691   0.448   0.013  0.00  0.00    -0.174 N 
ATOM      8  N   UNL d   1       2.915   1.169   0.059  0.00  0.00    -0.269 N 
ATOM      9  C   UNL d   1       3.364  -0.164   0.004  0.00  0.00     0.332 A 
ATOM     10  C   UNL d   1       1.580   1.570   0.098  0.00  0.00     0.282 A 
ATOM     11  N   UNL d   1      -2.421  -1.188  -0.103  0.00  0.00    -0.207 N 
ATOM     12  O   UNL d   1       4.567  -0.444   0.008  0.00  0.00    -0.246 OA
ATOM     13  O   UNL d   1       1.220   2.743   0.185  0.00  0.00    -0.265 OA
ATOM     14  C   UNL d   1      -1.592   1.580   0.042  0.00  0.00     0.150 C 
ATOM     15  C   UNL d   1       2.825  -2.545  -0.102  0.00  0.00     0.163 C 
ATOM     16  C   UNL d   1       3.901   2.234   0.097  0.00  0.00     0.164 C 
ATOM     17  C   UNL d   1      -3.350  -0.139   0.345  0.00  0.00     0.144 C 
ATOM     18  C   UNL d   1      -2.999   1.171  -0.350  0.00  0.00     0.041 C 
ENDROOT
BRANCH  11  19
ATOM     19  C   UNL d   1      -2.901  -2.584  -0.394  0.00  0.00     0.063 C 
ATOM     20  C   UNL d   1      -2.334  -3.593   0.620  0.00  0.00     0.041 C 
ATOM     21  C   UNL d   1      -4.446  -2.695  -0.298  0.00  0.00     0.041 C 
BRANCH  19  22
ATOM     22  C   UNL d   1      -2.546  -2.993  -1.862  0.00  0.00     0.195 C 
BRANCH  22  23
ATOM     23  O   UNL d   1      -1.162  -3.202  -2.122  0.00  0.00    -0.398 OA
ATOM     24  H   UNL d   1      -0.668  -2.571  -1.558  0.00  0.00     0.209 HD
ENDBRANCH  22  23
ENDBRANCH  19  22
ENDBRANCH  11  19
TORSDOF 3
