REMARK  6 active torsions:
REMARK  status: ('A' for Active; 'I' for Inactive)
REMARK    1  A    between atoms: N_5  and  C_1 
REMARK    2  A    between atoms: N_7  and  N_5 
REMARK       I    between atoms: C_6  and  N_7 
REMARK    3  A    between atoms: C_13  and  C_6 
REMARK    4  A    between atoms: C_10  and  C_14 
REMARK    5  A    between atoms: O_15  and  C_10 
REMARK    6  A    between atoms: C_14  and  C_13 
ROOT
ATOM      1  C   UNL d   1       0.232  -1.170  -0.634  0.00  0.00     0.119 A 
ATOM      2  C   UNL d   1      -1.030  -0.882  -1.173  0.00  0.00     0.084 A 
ATOM      3  C   UNL d   1      -2.047  -1.883  -1.266  0.00  0.00     0.103 C 
ATOM      4  N   UNL d   1      -2.887  -2.680  -1.314  0.00  0.00    -0.191 NA
ATOM      5  N   UNL d   1       1.202  -0.218  -0.555  0.00  0.00    -0.354 N 
ATOM      6  HN  UNL d   1       2.121  -0.435  -0.169  1.00  0.00     0.166 HD
ATOM      7  C   UNL d   1      -1.302   0.414  -1.620  0.00  0.00     0.027 A 
ATOM      8  C   UNL d   1       0.911   1.025  -1.005  0.00  0.00     0.089 A 
ATOM      9  C   UNL d   1      -0.314   1.388  -1.538  0.00  0.00     0.019 A 
ENDROOT
BRANCH   1  10
ATOM     10  N   UNL d   1       0.555  -2.494  -0.241  0.00  0.00    -0.186 NA
ATOM     11  H   UNL d   1      -0.171  -2.914   0.340  0.00  0.00     0.154 HD
BRANCH  10  12
ATOM     12  N   UNL d   1       1.823  -2.599   0.372  0.00  0.00    -0.286 N 
ATOM     13  C   UNL d   1       2.423  -3.841   0.321  0.00  0.00     0.232 C 
ATOM     14  O   UNL d   1       1.895  -4.861  -0.122  0.00  0.00    -0.272 OA
ATOM     15  H   UNL d   1       2.390  -1.750   0.283  0.00  0.00     0.184 HD
BRANCH  13  16
ATOM     16  C   UNL d   1       3.835  -3.871   0.859  0.00  0.00     0.114 C 
BRANCH  16  17
ATOM     17  C   UNL d   1       4.763  -4.512  -0.160  0.00  0.00     0.119 C 
BRANCH  17  18
ATOM     18  C   UNL d   1       4.822  -3.665  -1.401  0.00  0.00     0.139 C 
ATOM     19  O   UNL d   1       5.565  -2.703  -1.524  0.00  0.00    -0.650 OA
BRANCH  18  20
ATOM     20  O   UNL d   1       3.920  -4.016  -2.342  0.00  0.00    -0.776 OA
ATOM     21  H   UNL d   1       3.307  -4.734  -2.074  0.00  0.00     0.167 HD
ENDBRANCH  18  20
ENDBRANCH  17  18
ENDBRANCH  16  17
ENDBRANCH  13  16
ENDBRANCH  10  12
ENDBRANCH   1  10
TORSDOF 6
