REMARK  7 active torsions:
REMARK  status: ('A' for Active; 'I' for Inactive)
REMARK       I    between atoms: N_2  and  C_1 
REMARK    1  A    between atoms: C_3  and  C_1 
REMARK    2  A    between atoms: C_8  and  N_2 
REMARK    3  A    between atoms: N_4  and  C_12 
REMARK    4  A    between atoms: C_7  and  C_6 
REMARK    5  A    between atoms: C_13  and  C_8 
REMARK    6  A    between atoms: O_15  and  C_11 
REMARK    7  A    between atoms: C_14  and  C_13 
ROOT
ATOM      1  C   UNL d   1       0.158   1.251  -0.179  0.00  0.00     0.034 A 
ATOM      2  C   UNL d   1       0.703   2.145  -1.106  0.00  0.00     0.046 A 
ATOM      3  C   UNL d   1       0.009   3.297  -1.481  0.00  0.00     0.032 A 
ATOM      4  C   UNL d   1      -1.101   1.501   0.382  0.00  0.00     0.017 A 
ATOM      5  C   UNL d   1      -1.812   2.636  -0.006  0.00  0.00     0.003 A 
ATOM      6  C   UNL d   1      -1.258   3.523  -0.934  0.00  0.00     0.029 A 
ENDROOT
BRANCH   1   7
ATOM      7  C   UNL d   1       0.983   0.081   0.213  0.00  0.00     0.252 C 
ATOM      8  N   UNL d   1       0.292  -1.067   0.543  0.00  0.00    -0.348 N 
ATOM      9  H   UNL d   1      -0.698  -1.089   0.338  0.00  0.00     0.163 HD
ATOM     10  O   UNL d   1       2.202   0.185   0.204  0.00  0.00    -0.268 OA
BRANCH   8  11
ATOM     11  C   UNL d   1       0.926  -2.346   0.901  0.00  0.00     0.026 C 
ATOM     12  C   UNL d   1      -0.188  -3.386   1.119  0.00  0.00     0.038 C 
ATOM     13  C   UNL d   1       1.750  -2.853  -0.311  0.00  0.00     0.038 C 
BRANCH  11  14
ATOM     14  C   UNL d   1       1.879  -2.243   2.142  0.00  0.00     0.038 C 
BRANCH  14  15
ATOM     15  C   UNL d   1       1.397  -1.739   3.546  0.00  0.00    -0.049 C 
ATOM     16  C   UNL d   1       0.451  -2.722   4.254  0.00  0.00     0.014 C 
ATOM     17  C   UNL d   1       2.650  -1.614   4.449  0.00  0.00     0.014 C 
ATOM     18  C   UNL d   1       0.734  -0.356   3.493  0.00  0.00     0.014 C 
ENDBRANCH  14  15
ENDBRANCH  11  14
ENDBRANCH   8  11
ENDBRANCH   1   7
BRANCH   3  19
ATOM     19  N   UNL d   1       0.490   4.209  -2.435  0.00  0.00    -0.365 N 
ATOM     20  C   UNL d   1       1.748   4.523  -2.427  0.00  0.00     0.102 C 
ATOM     21  HN  UNL d   1      -0.141   4.618  -3.125  1.00  0.00     0.165 HD
BRANCH  20  22
ATOM     22  C   UNL d   1       2.303   5.465  -3.419  0.00  0.00     0.012 A 
ATOM     23  C   UNL d   1       1.486   6.136  -4.338  0.00  0.00     0.077 A 
ATOM     24  C   UNL d   1       2.041   7.024  -5.252  0.00  0.00     0.037 A 
ATOM     25  C   UNL d   1       3.421   7.239  -5.263  0.00  0.00     0.003 A 
ATOM     26  C   UNL d   1       4.242   6.566  -4.356  0.00  0.00     0.001 A 
ATOM     27  C   UNL d   1       3.685   5.680  -3.431  0.00  0.00     0.015 A 
BRANCH  23  28
ATOM     28  O   UNL d   1       0.129   5.968  -4.384  0.00  0.00    -0.360 OA
ATOM     29  H   UNL d   1      -0.094   5.277  -3.716  0.00  0.00     0.217 HD
ENDBRANCH  23  28
ENDBRANCH  20  22
ENDBRANCH   3  19
TORSDOF 7
