REMARK  7 active torsions:
REMARK  status: ('A' for Active; 'I' for Inactive)
REMARK    1  A    between atoms: C_3  and  C_1 
REMARK    2  A    between atoms: N_8  and  C_2 
REMARK    3  A    between atoms: C_4  and  C_7 
REMARK       I    between atoms: C_10  and  N_8 
REMARK       I    between atoms: N_21  and  C_10 
REMARK    4  A    between atoms: C_11  and  N_22 
REMARK    5  A    between atoms: C_26  and  N_21 
REMARK    6  A    between atoms: N_22  and  C_27 
REMARK    7  A    between atoms: C_27  and  C_26 
ROOT
ATOM      1  N   UNL d   1      -0.494  -4.735   0.263  0.00  0.00    -0.306 N 
ATOM      2  C   UNL d   1       0.690  -5.384  -0.019  0.00  0.00     0.320 C 
ATOM      3  O   UNL d   1       0.749  -6.556  -0.361  0.00  0.00    -0.247 OA
ATOM      4  N   UNL d   1       1.786  -4.588   0.232  0.00  0.00    -0.342 N 
ATOM      5  H   UNL d   1      -0.421  -4.026   0.978  0.00  0.00     0.170 HD
ATOM      6  H   UNL d   1       1.628  -3.594   0.161  0.00  0.00     0.164 HD
ENDROOT
BRANCH   4   7
ATOM      7  C   UNL d   1       3.173  -5.027   0.040  0.00  0.00     0.139 C 
BRANCH   7   8
ATOM      8  C   UNL d   1       3.411  -6.545   0.031  0.00  0.00     0.113 C 
BRANCH   8   9
ATOM      9  N   UNL d   1       4.837  -6.904  -0.010  0.00  0.00    -0.277 NA
ATOM     10  H   UNL d   1       5.370  -6.485   0.749  0.00  0.00     0.129 HD
BRANCH   9  11
ATOM     11  C   UNL d   1       5.022  -8.304  -0.011  0.00  0.00     0.095 A 
ATOM     12  C   UNL d   1       6.291  -8.871  -0.084  0.00  0.00     0.086 A 
ATOM     13  C   UNL d   1       6.389 -10.277  -0.128  0.00  0.00     0.021 A 
ATOM     14  C   UNL d   1       5.248 -11.070  -0.102  0.00  0.00     0.018 A 
ATOM     15  C   UNL d   1       4.038 -10.427  -0.034  0.00  0.00     0.089 A 
ATOM     16  N   UNL d   1       3.920  -9.086   0.010  0.00  0.00    -0.356 N 
ATOM     17  HN  UNL d   1       2.995  -8.659   0.061  1.00  0.00     0.166 HD
BRANCH  12  18
ATOM     18  C   UNL d   1       7.554  -8.070  -0.153  0.00  0.00     0.420 C 
ATOM     19  F   UNL d   1       7.430  -6.734   0.085  0.00  0.00    -0.166 F 
ATOM     20  F   UNL d   1       8.473  -8.502   0.763  0.00  0.00    -0.166 F 
ATOM     21  F   UNL d   1       8.178  -8.181  -1.361  0.00  0.00    -0.166 F 
ENDBRANCH  12  18
ENDBRANCH   9  11
ENDBRANCH   8   9
ENDBRANCH   7   8
ENDBRANCH   4   7
BRANCH   1  22
ATOM     22  C   UNL d   1      -1.706  -5.418   0.205  0.00  0.00     0.077 A 
ATOM     23  C   UNL d   1      -2.150  -6.373  -0.701  0.00  0.00     0.186 A 
ATOM     24  O   UNL d   1      -3.371  -6.848  -0.286  0.00  0.00    -0.308 OA
ATOM     25  C   UNL d   1      -3.711  -6.182   0.847  0.00  0.00     0.052 A 
ATOM     26  C   UNL d   1      -4.967  -6.594   1.505  0.00  0.00     0.077 C 
ATOM     27  C   UNL d   1      -2.750  -5.247   1.152  0.00  0.00     0.064 A 
BRANCH  23  28
ATOM     28  C   UNL d   1      -1.651  -6.949  -1.980  0.00  0.00     0.441 C 
ATOM     29  F   UNL d   1      -0.617  -6.262  -2.533  0.00  0.00    -0.164 F 
ATOM     30  F   UNL d   1      -1.272  -8.249  -1.863  0.00  0.00    -0.164 F 
ATOM     31  F   UNL d   1      -2.634  -6.931  -2.930  0.00  0.00    -0.164 F 
ENDBRANCH  23  28
ENDBRANCH   1  22
TORSDOF 7
