REMARK  3 active torsions:
REMARK  status: ('A' for Active; 'I' for Inactive)
REMARK    1  A    between atoms: N_4  and  C_1 
REMARK    2  A    between atoms: N_2  and  C_9 
REMARK       I    between atoms: C_6  and  N_4 
REMARK    3  A    between atoms: C_11  and  C_6 
ROOT
ATOM      1  N   UNL d   1      -1.235  -1.250  -1.910  0.00  0.00    -0.351 N 
ATOM      2  C   UNL d   1      -2.443  -1.440  -2.555  0.00  0.00     0.252 C 
ATOM      3  O   UNL d   1      -3.530  -1.222  -2.027  0.00  0.00    -0.268 OA
ATOM      4  H   UNL d   1      -0.380  -1.502  -2.381  0.00  0.00     0.163 HD
ENDROOT
BRANCH   1   5
ATOM      5  C   UNL d   1      -1.146  -0.679  -0.572  0.00  0.00     0.101 C 
ATOM      6  C   UNL d   1       0.088  -1.174   0.245  0.00  0.00    -0.022 C 
ATOM      7  C   UNL d   1       0.121  -0.141   1.381  0.00  0.00     0.016 C 
ATOM      8  C   UNL d   1       1.418  -0.855  -0.480  0.00  0.00     0.011 C 
ATOM      9  C   UNL d   1      -0.022  -2.609   0.721  0.00  0.00     0.017 C 
ATOM     10  C   UNL d   1       0.255   1.049   0.420  0.00  0.00    -0.004 C 
ATOM     11  C   UNL d   1      -0.997   0.884  -0.508  0.00  0.00    -0.023 C 
ATOM     12  C   UNL d   1       1.561   0.661  -0.294  0.00  0.00     0.006 C 
ATOM     13  C   UNL d   1      -0.838   1.573  -1.872  0.00  0.00     0.017 C 
ATOM     14  C   UNL d   1      -2.232   1.513   0.178  0.00  0.00     0.017 C 
ENDBRANCH   1   5
BRANCH   2  15
ATOM     15  C   UNL d   1      -2.396  -1.951  -3.957  0.00  0.00     0.032 A 
ATOM     16  C   UNL d   1      -3.505  -2.663  -4.446  0.00  0.00     0.019 A 
ATOM     17  C   UNL d   1      -3.531  -3.132  -5.767  0.00  0.00     0.037 A 
ATOM     18  C   UNL d   1      -2.441  -2.878  -6.608  0.00  0.00     0.102 A 
ATOM     19  C   UNL d   1      -1.331  -2.165  -6.135  0.00  0.00     0.037 A 
ATOM     20  C   UNL d   1      -1.313  -1.700  -4.811  0.00  0.00     0.019 A 
BRANCH  18  21
ATOM     21  N   UNL d   1      -2.467  -3.348  -8.001  0.00  0.00    -0.116 N 
ATOM     22  O   UNL d   1      -3.470  -3.966  -8.383  0.00  0.00    -0.532 OA
ATOM     23  O   UNL d   1      -1.482  -3.096  -8.710  0.00  0.00    -0.532 OA
ENDBRANCH  18  21
ENDBRANCH   2  15
TORSDOF 3
