REMARK  3 active torsions:
REMARK  status: ('A' for Active; 'I' for Inactive)
REMARK    1  A    between atoms: C_7  and  C_1 
REMARK    2  A    between atoms: C_8  and  C_4 
REMARK    3  A    between atoms: O_12  and  C_7 
ROOT
ATOM      1  C   UNL d   1       0.030  -1.339  -0.037  0.00  0.00     0.098 A 
ATOM      2  N   UNL d   1      -1.321   0.485   0.120  0.00  0.00    -0.259 N 
ATOM      3  HN  UNL d   1      -2.141   1.088   0.181  1.00  0.00     0.195 HD
ATOM      4  C   UNL d   1      -1.317  -0.856   0.026  0.00  0.00     0.084 A 
ATOM      5  O   UNL d   1      -0.008   0.887   0.118  0.00  0.00    -0.241 OA
ATOM      6  C   UNL d   1       0.802  -0.195   0.022  0.00  0.00     0.091 A 
ATOM      7  C   UNL d   1       2.249   0.100  -0.046  0.00  0.00     0.080 C 
ENDROOT
BRANCH   4   8
ATOM      8  C   UNL d   1      -2.586  -1.592   0.025  0.00  0.00    -0.006 A 
ATOM      9  C   UNL d   1      -3.719  -1.040  -0.600  0.00  0.00     0.017 A 
ATOM     10  C   UNL d   1      -4.936  -1.728  -0.608  0.00  0.00     0.043 A 
ATOM     11  C   UNL d   1      -5.026  -2.967   0.011  0.00  0.00     0.116 A 
ATOM     12  C   UNL d   1      -3.926  -3.526   0.649  0.00  0.00     0.043 A 
ATOM     13  F   UNL d   1      -6.189  -3.631  -0.001  0.00  0.00    -0.206 F 
ATOM     14  C   UNL d   1      -2.710  -2.836   0.663  0.00  0.00     0.017 A 
ENDBRANCH   4   8
BRANCH   1  15
ATOM     15  C   UNL d   1       0.500  -2.698  -0.197  0.00  0.00     0.181 C 
ATOM     16  O   UNL d   1      -0.093  -3.548  -0.843  0.00  0.00    -0.646 OA
BRANCH  15  17
ATOM     17  O   UNL d   1       1.653  -2.991   0.457  0.00  0.00    -0.773 OA
ATOM     18  H   UNL d   1       1.948  -2.291   1.066  0.00  0.00     0.167 HD
ENDBRANCH  15  17
ENDBRANCH   1  15
TORSDOF 3
