REMARK  3 active torsions:
REMARK  status: ('A' for Active; 'I' for Inactive)
REMARK    1  A    between atoms: C_2  and  C_1 
REMARK    2  A    between atoms: C_16  and  N_3 
REMARK    3  A    between atoms: C_9  and  C_4 
ROOT
ATOM      1  C   UNL d   1      -0.409  -2.708  -0.067  0.00  0.00     0.065 A 
ATOM      2  C   UNL d   1      -1.173  -3.340  -1.025  0.00  0.00     0.124 A 
ATOM      3  N   UNL d   1      -0.560  -4.911   0.476  0.00  0.00    -0.271 N 
ATOM      4  HN  UNL d   1      -0.449  -5.805   0.955  1.00  0.00     0.194 HD
ATOM      5  O   UNL d   1      -1.266  -4.664  -0.688  0.00  0.00    -0.236 OA
ATOM      6  C   UNL d   1      -0.055  -3.731   0.837  0.00  0.00     0.132 A 
ENDROOT
BRANCH   1   7
ATOM      7  C   UNL d   1      -0.068  -1.269   0.013  0.00  0.00     0.153 C 
ATOM      8  N   UNL d   1       1.043  -0.692   0.606  0.00  0.00    -0.224 N 
ATOM      9  N   UNL d   1       0.774   0.620   0.800  0.00  0.00     0.001 NA
ATOM     10  N   UNL d   1      -0.343   0.859   0.131  0.00  0.00    -0.007 NA
ATOM     11  N   UNL d   1      -0.864  -0.298  -0.389  0.00  0.00    -0.269 N 
ATOM     12  HN  UNL d   1      -1.698  -0.389  -0.969  1.00  0.00     0.185 HD
BRANCH   8  13
ATOM     13  C   UNL d   1       2.322  -1.237   0.867  0.00  0.00     0.056 A 
ATOM     14  C   UNL d   1       2.797  -2.328   0.122  0.00  0.00     0.031 A 
ATOM     15  C   UNL d   1       4.060  -2.858   0.386  0.00  0.00     0.002 A 
ATOM     16  C   UNL d   1       4.854  -2.299   1.385  0.00  0.00     0.000 A 
ATOM     17  C   UNL d   1       4.398  -1.195   2.105  0.00  0.00     0.002 A 
ATOM     18  C   UNL d   1       3.140  -0.649   1.838  0.00  0.00     0.031 A 
ENDBRANCH   8  13
ENDBRANCH   1   7
BRANCH   2  19
ATOM     19  C   UNL d   1      -1.781  -2.988  -2.301  0.00  0.00     0.004 A 
ATOM     20  C   UNL d   1      -1.233  -1.980  -3.109  0.00  0.00     0.059 A 
ATOM     21  C   UNL d   1      -1.791  -1.692  -4.352  0.00  0.00     0.155 A 
ATOM     22  F   UNL d   1      -1.238  -0.735  -5.110  0.00  0.00    -0.203 F 
ATOM     23  C   UNL d   1      -2.893  -2.398  -4.812  0.00  0.00     0.154 A 
ATOM     24  C   UNL d   1      -3.453  -3.402  -4.033  0.00  0.00     0.046 A 
ATOM     25  F   UNL d   1      -3.416  -2.127  -6.015  0.00  0.00    -0.203 F 
ATOM     26  C   UNL d   1      -2.899  -3.696  -2.782  0.00  0.00     0.017 A 
ENDBRANCH   2  19
TORSDOF 3
