REMARK  4 active torsions:
REMARK  status: ('A' for Active; 'I' for Inactive)
REMARK    1  A    between atoms: C_2  and  S_1 
REMARK    2  A    between atoms: N_14  and  S_1 
REMARK    3  A    between atoms: C_6  and  C_18 
REMARK    4  A    between atoms: C_19  and  N_14 
ROOT
ATOM      1  C   UNL d   1       1.483   0.849  -5.445  0.00  0.00    -0.008 A 
ATOM      2  C   UNL d   1       0.804   0.080  -2.825  0.00  0.00     0.022 A 
ATOM      3  C   UNL d   1       2.455   0.800  -4.434  0.00  0.00     0.015 A 
ATOM      4  C   UNL d   1       0.170   0.473  -5.125  0.00  0.00     0.015 A 
ATOM      5  C   UNL d   1      -0.168   0.086  -3.823  0.00  0.00     0.025 A 
ATOM      6  C   UNL d   1       2.121   0.412  -3.131  0.00  0.00     0.025 A 
ENDROOT
BRANCH   2   7
ATOM      7  N   UNL d   1       0.465  -0.287  -1.487  0.00  0.00    -0.181 NA
ATOM      8  H   UNL d   1      -0.434   0.090  -1.184  0.00  0.00     0.146 HD
BRANCH   7   9
ATOM      9  S   UNL d   1       0.481  -1.940  -1.118  0.00  0.00     0.250 S 
ATOM     10  O   UNL d   1       0.074  -2.048   0.267  0.00  0.00    -0.205 OA
ATOM     11  O   UNL d   1      -0.229  -2.663  -2.149  0.00  0.00    -0.205 OA
BRANCH   9  12
ATOM     12  C   UNL d   1       2.087  -2.510  -1.157  0.00  0.00     0.130 A 
ATOM     13  C   UNL d   1       2.768  -3.062  -2.215  0.00  0.00     0.097 A 
ATOM     14  O   UNL d   1       4.040  -3.339  -1.815  0.00  0.00    -0.241 OA
ATOM     15  C   UNL d   1       2.467  -3.395  -3.620  0.00  0.00     0.081 C 
ATOM     16  N   UNL d   1       4.207  -2.966  -0.497  0.00  0.00    -0.264 N 
ATOM     17  C   UNL d   1       3.029  -2.466  -0.102  0.00  0.00     0.054 A 
ATOM     18  HN  UNL d   1       5.056  -3.052   0.063  1.00  0.00     0.194 HD
ATOM     19  C   UNL d   1       2.878  -1.960   1.283  0.00  0.00     0.072 C 
ENDBRANCH   9  12
ENDBRANCH   7   9
ENDBRANCH   2   7
BRANCH   1  20
ATOM     20  C   UNL d   1       1.855   1.300  -6.782  0.00  0.00     0.060 A 
ATOM     21  N   UNL d   1       3.151   1.675  -7.120  0.00  0.00    -0.335 N 
ATOM     22  C   UNL d   1       3.061   2.028  -8.370  0.00  0.00     0.147 A 
ATOM     23  HN  UNL d   1       3.980   1.675  -6.526  1.00  0.00     0.168 HD
ATOM     24  S   UNL d   1       4.167   2.653  -9.524  0.00  0.00    -0.092 SA
ATOM     25  N   UNL d   1       1.803   1.905  -8.856  0.00  0.00    -0.335 N 
ATOM     26  C   UNL d   1       2.799   3.063 -10.687  0.00  0.00     0.102 C 
ATOM     27  C   UNL d   1       1.585   2.241 -10.242  0.00  0.00     0.141 C 
ATOM     28  C   UNL d   1       1.002   1.439  -7.870  0.00  0.00     0.123 A 
ENDBRANCH   1  20
TORSDOF 4
