REMARK  11 active torsions:
REMARK  status: ('A' for Active; 'I' for Inactive)
REMARK    1  A    between atoms: C_1  and  O_8 
REMARK    2  A    between atoms: C_2  and  O_9 
REMARK    3  A    between atoms: C_3  and  N_7 
REMARK    4  A    between atoms: C_4  and  O_10 
REMARK    5  A    between atoms: C_6  and  C_15 
REMARK    6  A    between atoms: C_21  and  N_7 
REMARK    7  A    between atoms: C_11  and  O_8 
REMARK    8  A    between atoms: C_12  and  O_9 
REMARK    9  A    between atoms: C_13  and  O_10 
REMARK   10  A    between atoms: C_14  and  O_16 
REMARK   11  A    between atoms: O_16  and  C_15 
ROOT
ATOM      1  C   UNL d   1       0.874  -1.281  -0.096  0.00  0.00     0.212 C 
ATOM      2  C   UNL d   1       1.631   0.060   0.081  0.00  0.00     0.198 C 
ATOM      3  C   UNL d   1      -0.603  -1.176   0.394  0.00  0.00     0.254 C 
ATOM      4  C   UNL d   1       0.810   1.300  -0.319  0.00  0.00     0.195 C 
ATOM      5  O   UNL d   1      -1.213  -0.021  -0.189  0.00  0.00    -0.354 OA
ATOM      6  C   UNL d   1      -0.603   1.196   0.263  0.00  0.00     0.180 C 
ENDROOT
BRANCH   3   7
ATOM      7  N   UNL d   1      -1.405  -2.309  -0.063  0.00  0.00    -0.361 N 
ATOM      8  H   UNL d   1      -1.431  -2.369  -1.074  0.00  0.00     0.162 HD
BRANCH   7   9
ATOM      9  C   UNL d   1      -1.431  -3.529   0.600  0.00  0.00     0.029 A 
ATOM     10  C   UNL d   1      -1.291  -3.652   1.987  0.00  0.00     0.030 A 
ATOM     11  C   UNL d   1      -1.312  -4.902   2.617  0.00  0.00     0.021 A 
ATOM     12  C   UNL d   1      -1.513  -6.051   1.863  0.00  0.00     0.011 A 
ATOM     13  C   UNL d   1      -1.730  -5.955   0.493  0.00  0.00     0.021 A 
ATOM     14 BR   UNL d   1      -1.494  -7.742   2.704  0.00  0.00    -0.051 Br
ATOM     15  C   UNL d   1      -1.702  -4.699  -0.127  0.00  0.00     0.030 A 
ENDBRANCH   7   9
ENDBRANCH   3   7
BRANCH   1  16
ATOM     16  O   UNL d   1       1.623  -2.386   0.485  0.00  0.00    -0.309 OA
BRANCH  16  17
ATOM     17  C   UNL d   1       1.786  -2.420   1.832  0.00  0.00     0.255 C 
ATOM     18  O   UNL d   1       1.346  -1.589   2.613  0.00  0.00    -0.266 OA
ATOM     19  C   UNL d   1       2.547  -3.642   2.246  0.00  0.00     0.126 C 
ENDBRANCH  16  17
ENDBRANCH   1  16
BRANCH   2  20
ATOM     20  O   UNL d   1       2.941   0.069  -0.557  0.00  0.00    -0.311 OA
BRANCH  20  21
ATOM     21  C   UNL d   1       3.016  -0.029  -1.914  0.00  0.00     0.255 C 
ATOM     22  O   UNL d   1       2.070  -0.239  -2.658  0.00  0.00    -0.266 OA
ATOM     23  C   UNL d   1       4.418   0.210  -2.377  0.00  0.00     0.126 C 
ENDBRANCH  20  21
ENDBRANCH   2  20
BRANCH   6  24
ATOM     24  C   UNL d   1      -1.463   2.380  -0.207  0.00  0.00     0.213 C 
BRANCH  24  25
ATOM     25  O   UNL d   1      -2.787   2.322   0.358  0.00  0.00    -0.319 OA
BRANCH  25  26
ATOM     26  C   UNL d   1      -2.889   2.718   1.654  0.00  0.00     0.254 C 
ATOM     27  O   UNL d   1      -1.964   3.126   2.341  0.00  0.00    -0.266 OA
ATOM     28  C   UNL d   1      -4.306   2.606   2.128  0.00  0.00     0.126 C 
ENDBRANCH  25  26
ENDBRANCH  24  25
ENDBRANCH   6  24
BRANCH   4  29
ATOM     29  O   UNL d   1       1.461   2.473   0.230  0.00  0.00    -0.311 OA
BRANCH  29  30
ATOM     30  C   UNL d   1       2.079   3.307  -0.648  0.00  0.00     0.255 C 
ATOM     31  O   UNL d   1       2.089   3.173  -1.863  0.00  0.00    -0.266 OA
ATOM     32  C   UNL d   1       2.739   4.447   0.066  0.00  0.00     0.126 C 
ENDBRANCH  29  30
ENDBRANCH   4  29
TORSDOF 11
