REMARK  4 active torsions:
REMARK  status: ('A' for Active; 'I' for Inactive)
REMARK    1  A    between atoms: C_5  and  N_1 
REMARK    2  A    between atoms: C_3  and  C_6 
REMARK    3  A    between atoms: O_15  and  C_3 
REMARK    4  A    between atoms: C_18  and  O_15 
ROOT
ATOM      1  N   UNL d   1       6.697  -0.189   4.578  0.00  0.00    -0.191 NA
ATOM      2  C   UNL d   1       5.822  -0.145   3.818  0.00  0.00     0.099 C 
ATOM      3  C   UNL d   1       2.489  -0.027   1.105  0.00  0.00     0.030 A 
ATOM      4  C   UNL d   1       2.752   1.013   2.011  0.00  0.00     0.031 A 
ATOM      5  C   UNL d   1       3.411  -1.088   1.107  0.00  0.00     0.031 A 
ATOM      6  C   UNL d   1       4.726  -0.092   2.889  0.00  0.00     0.044 A 
ATOM      7  C   UNL d   1       4.514  -1.125   1.978  0.00  0.00     0.025 A 
ATOM      8  C   UNL d   1       3.845   0.986   2.894  0.00  0.00     0.025 A 
ENDROOT
BRANCH   3   9
ATOM      9  N   UNL d   1       1.382  -0.010   0.275  0.00  0.00    -0.381 N 
ATOM     10  C   UNL d   1       0.776   1.233  -0.209  0.00  0.00     0.123 C 
ATOM     11  C   UNL d   1      -0.693   1.281   0.211  0.00  0.00     0.034 C 
ATOM     12  C   UNL d   1      -1.454   0.037  -0.271  0.00  0.00     0.088 C 
ATOM     13  C   UNL d   1      -0.724  -1.235   0.200  0.00  0.00     0.034 C 
ATOM     14  C   UNL d   1       0.750  -1.236  -0.224  0.00  0.00     0.123 C 
BRANCH  12  15
ATOM     15  C   UNL d   1      -1.655  -0.018  -1.780  0.00  0.00     0.263 C 
ATOM     16  O   UNL d   1      -1.778  -1.067  -2.402  0.00  0.00    -0.265 OA
BRANCH  15  17
ATOM     17  O   UNL d   1      -1.744   1.218  -2.345  0.00  0.00    -0.322 OA
BRANCH  17  18
ATOM     18  C   UNL d   1      -1.968   1.216  -3.765  0.00  0.00     0.174 C 
ATOM     19  C   UNL d   1      -3.442   1.009  -4.063  0.00  0.00     0.034 C 
ENDBRANCH  17  18
ENDBRANCH  15  17
ENDBRANCH  12  15
ENDBRANCH   3   9
TORSDOF 4
