REMARK  8 active torsions:
REMARK  status: ('A' for Active; 'I' for Inactive)
REMARK    1  A    between atoms: C_4  and  C_1 
REMARK    2  A    between atoms: C_2  and  C_3 
REMARK       I    between atoms: C_3  and  N_10 
REMARK       I    between atoms: N_9  and  C_4 
REMARK    3  A    between atoms: N_11  and  C_5 
REMARK    4  A    between atoms: N_12  and  C_6 
REMARK    5  A    between atoms: C_17  and  N_9 
REMARK    6  A    between atoms: N_10  and  C_16 
REMARK    7  A    between atoms: C_15  and  C_17 
REMARK    8  A    between atoms: C_16  and  C_15 
ROOT
ATOM      1  C   UNL d   1       4.659   3.539  -0.219  0.00  0.00     0.039 C 
ENDROOT
BRANCH   1   2
ATOM      2  C   UNL d   1       3.151   3.777  -0.202  0.00  0.00     0.124 C 
BRANCH   2   3
ATOM      3  N   UNL d   1       2.415   2.538  -0.050  0.00  0.00    -0.357 N 
ATOM      4  C   UNL d   1       2.150   1.990   1.188  0.00  0.00     0.253 C 
ATOM      5  O   UNL d   1       2.525   2.496   2.240  0.00  0.00    -0.268 OA
ATOM      6  H   UNL d   1       1.988   2.100  -0.863  0.00  0.00     0.162 HD
BRANCH   4   7
ATOM      7  C   UNL d   1       1.339   0.736   1.202  0.00  0.00     0.052 A 
ATOM      8  C   UNL d   1       1.411  -0.252   0.197  0.00  0.00     0.021 A 
ATOM      9  C   UNL d   1       0.535  -1.348   0.278  0.00  0.00     0.024 A 
ATOM     10  C   UNL d   1      -0.303  -1.524   1.382  0.00  0.00     0.002 A 
ATOM     11  C   UNL d   1      -0.318  -0.580   2.403  0.00  0.00     0.001 A 
ATOM     12  C   UNL d   1       0.494   0.549   2.310  0.00  0.00     0.019 A 
BRANCH   8  13
ATOM     13  N   UNL d   1       2.185  -0.104  -0.976  0.00  0.00    -0.302 NA
ATOM     14  H   UNL d   1       3.070   0.365  -0.780  0.00  0.00     0.124 HD
ATOM     15  H   UNL d   1       2.346  -0.988  -1.453  0.00  0.00     0.124 HD
ENDBRANCH   8  13
ENDBRANCH   4   7
ENDBRANCH   2   3
ENDBRANCH   1   2
BRANCH   1  16
ATOM     16  C   UNL d   1       5.430   4.846  -0.376  0.00  0.00     0.124 C 
BRANCH  16  17
ATOM     17  N   UNL d   1       6.863   4.620  -0.362  0.00  0.00    -0.357 N 
ATOM     18  C   UNL d   1       7.756   5.675  -0.432  0.00  0.00     0.253 C 
ATOM     19  O   UNL d   1       7.391   6.842  -0.547  0.00  0.00    -0.268 OA
ATOM     20  H   UNL d   1       7.205   3.691  -0.564  0.00  0.00     0.162 HD
BRANCH  18  21
ATOM     21  C   UNL d   1       9.210   5.303  -0.427  0.00  0.00     0.058 A 
ATOM     22  C   UNL d   1      10.163   6.092  -1.107  0.00  0.00     0.041 A 
ATOM     23  C   UNL d   1      11.503   5.674  -1.102  0.00  0.00     0.030 A 
ATOM     24  C   UNL d   1      11.893   4.494  -0.465  0.00  0.00     0.002 A 
ATOM     25  C   UNL d   1      10.952   3.728   0.214  0.00  0.00     0.001 A 
ATOM     26  C   UNL d   1       9.618   4.133   0.240  0.00  0.00     0.019 A 
BRANCH  22  27
ATOM     27  N   UNL d   1       9.876   7.364  -1.622  0.00  0.00    -0.398 N 
ATOM     28  H   UNL d   1       8.875   7.571  -1.673  0.00  0.00     0.156 HD
ATOM     29  H   UNL d   1      10.409   7.653  -2.433  0.00  0.00     0.156 HD
ENDBRANCH  22  27
ENDBRANCH  18  21
ENDBRANCH  16  17
ENDBRANCH   1  16
TORSDOF 8
