REMARK  4 active torsions:
REMARK  status: ('A' for Active; 'I' for Inactive)
REMARK    1  A    between atoms: C_4  and  C_3 
REMARK    2  A    between atoms: N_10  and  C_5 
REMARK       I    between atoms: C_7  and  N_11 
REMARK       I    between atoms: N_12  and  C_7 
REMARK    3  A    between atoms: N_11  and  N_10 
REMARK    4  A    between atoms: C_14  and  N_12 
ROOT
ATOM      1  N   UNL d   1      -1.128   1.196  -0.691  0.00  0.00    -0.352 N 
ATOM      2  HN  UNL d   1      -1.194   2.167  -0.996  1.00  0.00     0.166 HD
ATOM      3  C   UNL d   1      -0.491   0.275  -1.458  0.00  0.00     0.118 A 
ATOM      4  C   UNL d   1      -0.954  -1.483   0.130  0.00  0.00     0.037 A 
ATOM      5  C   UNL d   1      -0.381  -1.054  -1.069  0.00  0.00     0.060 A 
ATOM      6  C   UNL d   1      -1.668   0.811   0.472  0.00  0.00     0.044 A 
ATOM      7  C   UNL d   1      -1.615  -0.519   0.949  0.00  0.00     0.013 A 
ATOM      8  C   UNL d   1      -2.209  -0.798   2.206  0.00  0.00     0.015 A 
ATOM      9  C   UNL d   1      -2.299   1.787   1.230  0.00  0.00     0.030 A 
ATOM     10  C   UNL d   1      -2.841   0.202   2.952  0.00  0.00     0.001 A 
ATOM     11  C   UNL d   1      -2.888   1.498   2.460  0.00  0.00     0.002 A 
ENDROOT
BRANCH   4  12
ATOM     12  N   UNL d   1      -0.824  -2.837   0.571  0.00  0.00    -0.218 NA
ATOM     13  H   UNL d   1      -1.745  -3.220   0.836  0.00  0.00     0.147 HD
BRANCH  12  14
ATOM     14  N   UNL d   1      -0.168  -3.707  -0.347  0.00  0.00    -0.172 NA
ATOM     15  C   UNL d   1      -0.782  -4.947  -0.550  0.00  0.00     0.312 C 
ATOM     16  N   UNL d   1      -0.017  -5.752  -1.375  0.00  0.00    -0.313 N 
ATOM     17  O   UNL d   1      -1.862  -5.216  -0.043  0.00  0.00    -0.252 OA
ATOM     18  H   UNL d   1       0.756  -5.298  -1.840  0.00  0.00     0.170 HD
ATOM     19  H   UNL d   1       0.834  -3.742  -0.185  0.00  0.00     0.152 HD
BRANCH  16  20
ATOM     20  C   UNL d   1      -0.236  -7.112  -1.692  0.00  0.00     0.037 A 
ATOM     21  C   UNL d   1      -1.271  -7.875  -1.148  0.00  0.00     0.053 A 
ATOM     22  C   UNL d   1      -1.369  -9.238  -1.442  0.00  0.00     0.036 A 
ATOM     23 CL   UNL d   1      -2.632 -10.174  -0.737  0.00  0.00    -0.084 Cl
ATOM     24  C   UNL d   1      -0.449  -9.853  -2.286  0.00  0.00     0.024 A 
ATOM     25  C   UNL d   1       0.567  -9.094  -2.861  0.00  0.00     0.004 A 
ATOM     26  C   UNL d   1       0.669  -7.730  -2.569  0.00  0.00     0.029 A 
ENDBRANCH  16  20
ENDBRANCH  12  14
ENDBRANCH   4  12
BRANCH   3  27
ATOM     27  C   UNL d   1       0.117   0.694  -2.787  0.00  0.00     0.432 C 
ATOM     28  F   UNL d   1      -0.033   2.013  -3.092  0.00  0.00    -0.165 F 
ATOM     29  F   UNL d   1       1.460   0.450  -2.841  0.00  0.00    -0.165 F 
ATOM     30  F   UNL d   1      -0.415   0.005  -3.840  0.00  0.00    -0.165 F 
ENDBRANCH   3  27
TORSDOF 4
