REMARK  3 active torsions:
REMARK  status: ('A' for Active; 'I' for Inactive)
REMARK    1  A    between atoms: C_9  and  N_1 
REMARK    2  A    between atoms: C_7  and  N_3 
REMARK    3  A    between atoms: C_10  and  C_9 
ROOT
ATOM      1  N   UNL d   1      -0.410   1.004  -0.046  0.00  0.00    -0.291 N 
ATOM      2  C   UNL d   1       0.875   0.540   0.043  0.00  0.00     0.150 C 
ATOM      3  N   UNL d   1       1.898   1.286  -0.224  0.00  0.00    -0.335 N 
ATOM      4  HN  UNL d   1       1.728   2.258  -0.482  1.00  0.00     0.168 HD
ATOM      5  C   UNL d   1      -1.414   0.060   0.005  0.00  0.00     0.235 C 
ATOM      6  S   UNL d   1       0.860  -1.127   0.556  0.00  0.00    -0.084 SA
ATOM      7  C   UNL d   1      -0.856  -1.336   0.056  0.00  0.00     0.185 C 
ATOM      8  O   UNL d   1      -2.618   0.287  -0.012  0.00  0.00    -0.272 OA
ENDROOT
BRANCH   1   9
ATOM      9  C   UNL d   1      -0.734   2.420  -0.095  0.00  0.00     0.199 C 
BRANCH   9  10
ATOM     10  C   UNL d   1      -0.843   2.907  -1.491  0.00  0.00     0.070 A 
ATOM     11  O   UNL d   1      -2.076   2.833  -2.073  0.00  0.00    -0.325 OA
ATOM     12  C   UNL d   1      -1.976   3.415  -3.296  0.00  0.00     0.142 A 
ATOM     13  C   UNL d   1      -0.692   3.856  -3.515  0.00  0.00     0.027 A 
ATOM     14  C   UNL d   1       0.045   3.520  -2.353  0.00  0.00     0.036 A 
ENDBRANCH   9  10
ENDBRANCH   1   9
BRANCH   3  15
ATOM     15  C   UNL d   1       3.237   0.837  -0.180  0.00  0.00     0.057 A 
ATOM     16  C   UNL d   1       4.243   1.637   0.407  0.00  0.00     0.082 A 
ATOM     17  C   UNL d   1       5.581   1.210   0.404  0.00  0.00     0.058 A 
ATOM     18 CL   UNL d   1       3.804   3.168   1.105  0.00  0.00    -0.080 Cl
ATOM     19 CL   UNL d   1       6.867   2.160   1.068  0.00  0.00    -0.082 Cl
ATOM     20  C   UNL d   1       5.931  -0.017  -0.168  0.00  0.00     0.026 A 
ATOM     21  C   UNL d   1       4.958  -0.798  -0.778  0.00  0.00     0.004 A 
ATOM     22  C   UNL d   1       3.636  -0.351  -0.818  0.00  0.00     0.031 A 
ENDBRANCH   3  15
TORSDOF 3
