REMARK  5 active torsions:
REMARK  status: ('A' for Active; 'I' for Inactive)
REMARK    1  A    between atoms: N_3  and  S_1 
REMARK    2  A    between atoms: C_5  and  S_1 
REMARK    3  A    between atoms: S_2  and  C_4 
REMARK    4  A    between atoms: N_12  and  S_2 
REMARK    5  A    between atoms: C_11  and  N_3 
ROOT
ATOM      1  C   UNL d   1       0.398  -3.067  -3.616  0.00  0.00     0.076 A 
ATOM      2  C   UNL d   1       0.002  -2.456  -2.425  0.00  0.00     0.054 A 
ATOM      3  C   UNL d   1       0.907  -2.382  -1.374  0.00  0.00     0.044 A 
ATOM      4  C   UNL d   1       1.663  -3.644  -3.752  0.00  0.00     0.025 A 
ATOM      5  C   UNL d   1       2.560  -3.570  -2.688  0.00  0.00     0.004 A 
ATOM      6  C   UNL d   1       2.187  -2.925  -1.506  0.00  0.00     0.030 A 
ENDROOT
BRANCH   3   7
ATOM      7  N   UNL d   1       0.554  -1.669  -0.199  0.00  0.00    -0.281 N 
ATOM      8  H   UNL d   1      -0.397  -1.780   0.152  0.00  0.00     0.179 HD
BRANCH   7   9
ATOM      9  S   UNL d   1       1.093  -0.072  -0.029  0.00  0.00     0.263 S 
ATOM     10  O   UNL d   1       2.529  -0.031  -0.198  0.00  0.00    -0.200 OA
ATOM     11  O   UNL d   1       0.460   0.439   1.165  0.00  0.00    -0.200 OA
BRANCH   9  12
ATOM     12  C   UNL d   1       0.353   0.768  -1.418  0.00  0.00     0.079 A 
ATOM     13  C   UNL d   1      -0.918   1.336  -1.284  0.00  0.00     0.026 A 
ATOM     14  C   UNL d   1      -1.470   2.055  -2.347  0.00  0.00     0.008 A 
ATOM     15  C   UNL d   1      -0.754   2.222  -3.541  0.00  0.00    -0.062 A 
ATOM     16  C   UNL d   1       0.517   1.644  -3.664  0.00  0.00     0.008 A 
ATOM     17  C   UNL d   1      -1.341   3.038  -4.657  0.00  0.00     0.048 C 
ATOM     18  C   UNL d   1       1.075   0.925  -2.604  0.00  0.00     0.026 A 
ENDBRANCH   9  12
ENDBRANCH   7   9
ENDBRANCH   3   7
BRANCH   1  19
ATOM     19  S   UNL d   1      -0.700  -3.024  -4.994  0.00  0.00     0.239 S 
ATOM     20  O   UNL d   1      -0.357  -4.082  -5.914  0.00  0.00    -0.206 OA
ATOM     21  O   UNL d   1      -2.047  -2.804  -4.522  0.00  0.00    -0.206 OA
BRANCH  19  22
ATOM     22  N   UNL d   1      -0.209  -1.589  -5.710  0.00  0.00    -0.225 NA
ATOM     23  H   UNL d   1       0.149  -1.758  -6.649  0.00  0.00     0.136 HD
ATOM     24  H   UNL d   1      -0.938  -0.879  -5.641  0.00  0.00     0.136 HD
ENDBRANCH  19  22
ENDBRANCH   1  19
TORSDOF 5
