REMARK  5 active torsions:
REMARK  status: ('A' for Active; 'I' for Inactive)
REMARK    1  A    between atoms: N_4  and  C_1 
REMARK       I    between atoms: C_6  and  N_4 
REMARK    2  A    between atoms: O_16  and  C_5 
REMARK    3  A    between atoms: C_10  and  C_6 
REMARK    4  A    between atoms: O_17  and  C_8 
REMARK    5  A    between atoms: C_11  and  C_9 
ROOT
ATOM      1  N   UNL d   1       3.613   0.301   0.593  0.00  0.00    -0.321 N 
ATOM      2  C   UNL d   1       4.289   1.498   0.598  0.00  0.00     0.245 C 
ATOM      3  O   UNL d   1       3.797   2.605   0.403  0.00  0.00    -0.268 OA
ATOM      4  H   UNL d   1       4.090  -0.535   0.912  0.00  0.00     0.169 HD
ENDROOT
BRANCH   1   5
ATOM      5  C   UNL d   1       2.286   0.070   0.147  0.00  0.00     0.071 A 
ATOM      6  C   UNL d   1       1.509   1.038  -0.503  0.00  0.00     0.071 A 
ATOM      7  C   UNL d   1       0.236   0.730  -1.002  0.00  0.00     0.092 A 
ATOM      8  C   UNL d   1      -0.250  -0.577  -0.880  0.00  0.00     0.070 A 
ATOM      9  C   UNL d   1       0.504  -1.543  -0.204  0.00  0.00     0.065 A 
ATOM     10 CL   UNL d   1      -1.726  -1.109  -1.604  0.00  0.00    -0.081 Cl
ATOM     11  C   UNL d   1       1.763  -1.226   0.318  0.00  0.00     0.096 A 
BRANCH   7  12
ATOM     12  O   UNL d   1      -0.375   1.751  -1.681  0.00  0.00    -0.354 OA
ATOM     13  C   UNL d   1      -1.723   2.015  -1.298  0.00  0.00     0.210 C 
ENDBRANCH   7  12
BRANCH  11  14
ATOM     14  O   UNL d   1       2.575  -2.116   0.985  0.00  0.00    -0.354 OA
ATOM     15  C   UNL d   1       1.985  -3.353   1.371  0.00  0.00     0.210 C 
ENDBRANCH  11  14
ENDBRANCH   1   5
BRANCH   2  16
ATOM     16  C   UNL d   1       5.754   1.348   0.855  0.00  0.00     0.075 C 
ATOM     17  C   UNL d   1       6.510   2.460   0.821  0.00  0.00     0.018 C 
BRANCH  17  18
ATOM     18  C   UNL d   1       7.977   2.589   0.926  0.00  0.00    -0.014 A 
ATOM     19  C   UNL d   1       8.931   1.788   0.273  0.00  0.00     0.044 A 
ATOM     20 CL   UNL d   1       8.509   0.400  -0.669  0.00  0.00    -0.083 Cl
ATOM     21  C   UNL d   1      10.293   2.125   0.314  0.00  0.00     0.024 A 
ATOM     22  C   UNL d   1      10.723   3.262   0.997  0.00  0.00     0.002 A 
ATOM     23  C   UNL d   1       9.796   4.057   1.659  0.00  0.00     0.001 A 
ATOM     24  C   UNL d   1       8.440   3.723   1.625  0.00  0.00     0.013 A 
ENDBRANCH  17  18
ENDBRANCH   2  16
TORSDOF 5
