REMARK  3 active torsions:
REMARK  status: ('A' for Active; 'I' for Inactive)
REMARK    1  A    between atoms: C_2  and  S_1 
REMARK    2  A    between atoms: C_14  and  S_1 
REMARK    3  A    between atoms: C_7  and  C_3 
ROOT
ATOM      1  C   UNL d   1       0.392   1.097  -1.244  0.00  0.00     0.141 C 
ATOM      2  C   UNL d   1      -0.358   0.592  -2.243  0.00  0.00     0.065 C 
ATOM      3  C   UNL d   1       0.895   0.341  -0.153  0.00  0.00     0.111 C 
ATOM      4  N   UNL d   1       1.311  -0.262   0.748  0.00  0.00    -0.191 NA
ENDROOT
BRANCH   1   5
ATOM      5  S   UNL d   1       0.861   2.768  -1.325  0.00  0.00     0.189 S 
ATOM      6  O   UNL d   1       0.862   3.184  -2.718  0.00  0.00    -0.222 OA
ATOM      7  O   UNL d   1       2.053   2.989  -0.524  0.00  0.00    -0.222 OA
BRANCH   5   8
ATOM      8  C   UNL d   1      -0.502   3.634  -0.527  0.00  0.00     0.106 C 
ATOM      9  C   UNL d   1      -0.665   3.251   0.941  0.00  0.00     0.026 C 
ATOM     10  C   UNL d   1      -0.297   5.145  -0.649  0.00  0.00     0.026 C 
ENDBRANCH   5   8
ENDBRANCH   1   5
BRANCH   2  11
ATOM     11  C   UNL d   1      -0.810  -0.748  -2.327  0.00  0.00     0.050 A 
ATOM     12  N   UNL d   1      -1.095  -1.461  -1.201  0.00  0.00    -0.351 N 
ATOM     13  C   UNL d   1      -1.397  -2.664  -1.623  0.00  0.00     0.180 A 
ATOM     14  HN  UNL d   1      -1.077  -1.130  -0.236  1.00  0.00     0.166 HD
ATOM     15  N   UNL d   1      -1.358  -2.740  -2.989  0.00  0.00    -0.360 N 
ATOM     16  C   UNL d   1      -1.007  -1.500  -3.459  0.00  0.00     0.118 A 
ATOM     17  H   UNL d   1      -1.531  -3.568  -3.542  0.00  0.00     0.166 HD
ENDBRANCH   2  11
TORSDOF 3
