REMARK  7 active torsions:
REMARK  status: ('A' for Active; 'I' for Inactive)
REMARK    1  A    between atoms: C_9  and  C_1 
REMARK    2  A    between atoms: C_8  and  C_2 
REMARK    3  A    between atoms: C_7  and  C_3 
REMARK    4  A    between atoms: O_18  and  C_8 
REMARK    5  A    between atoms: O_19  and  C_9 
REMARK    6  A    between atoms: C_23  and  O_18 
REMARK    7  A    between atoms: C_24  and  O_19 
ROOT
ATOM      1  C   UNL d   1      -1.295  -1.019   0.131  0.00  0.00     0.052 C 
ATOM      2  C   UNL d   1       1.271  -1.028   0.132  0.00  0.00     0.052 C 
ATOM      3  C   UNL d   1      -0.008  -1.852  -0.070  0.00  0.00     0.100 C 
ATOM      4  C   UNL d   1      -1.236   0.334   0.030  0.00  0.00     0.018 C 
ATOM      5  C   UNL d   1       1.218   0.324   0.048  0.00  0.00     0.018 C 
ATOM      6  N   UNL d   1      -0.001   0.947  -0.142  0.00  0.00    -0.362 N 
ATOM      7  C   UNL d   1      -2.379   1.318   0.071  0.00  0.00     0.069 C 
ATOM      8  C   UNL d   1       2.412   1.244   0.126  0.00  0.00     0.069 C 
ATOM      9  H   UNL d   1       0.003   1.964  -0.147  0.00  0.00     0.165 HD
ENDROOT
BRANCH   3  10
ATOM     10  C   UNL d   1      -0.011  -2.509  -1.462  0.00  0.00    -0.043 A 
ATOM     11  C   UNL d   1      -0.082  -3.910  -1.597  0.00  0.00     0.033 A 
ATOM     12  C   UNL d   1      -0.073  -4.513  -2.861  0.00  0.00     0.056 A 
ATOM     13 CL   UNL d   1      -0.141  -6.239  -2.933  0.00  0.00    -0.083 Cl
ATOM     14  C   UNL d   1       0.002  -3.724  -4.014  0.00  0.00     0.055 A 
ATOM     15  C   UNL d   1       0.064  -2.333  -3.896  0.00  0.00     0.026 A 
ATOM     16 CL   UNL d   1       0.029  -4.395  -5.606  0.00  0.00    -0.083 Cl
ATOM     17  C   UNL d   1       0.057  -1.735  -2.635  0.00  0.00     0.010 A 
ENDBRANCH   3  10
BRANCH   2  18
ATOM     18  C   UNL d   1       2.572  -1.718   0.358  0.00  0.00     0.292 C 
ATOM     19  O   UNL d   1       3.646  -1.151   0.484  0.00  0.00    -0.259 OA
BRANCH  18  20
ATOM     20  O   UNL d   1       2.423  -3.066   0.330  0.00  0.00    -0.318 OA
BRANCH  20  21
ATOM     21  C   UNL d   1       3.639  -3.786   0.074  0.00  0.00     0.174 C 
ATOM     22  C   UNL d   1       3.806  -3.894  -1.431  0.00  0.00     0.034 C 
ENDBRANCH  20  21
ENDBRANCH  18  20
ENDBRANCH   2  18
BRANCH   1  23
ATOM     23  C   UNL d   1      -2.503  -1.841   0.431  0.00  0.00     0.292 C 
ATOM     24  O   UNL d   1      -2.569  -3.042   0.212  0.00  0.00    -0.259 OA
BRANCH  23  25
ATOM     25  O   UNL d   1      -3.469  -1.117   1.043  0.00  0.00    -0.318 OA
BRANCH  25  26
ATOM     26  C   UNL d   1      -4.693  -1.805   1.351  0.00  0.00     0.174 C 
ATOM     27  C   UNL d   1      -5.580  -1.893   0.122  0.00  0.00     0.034 C 
ENDBRANCH  25  26
ENDBRANCH  23  25
ENDBRANCH   1  23
TORSDOF 7
