REMARK  2 active torsions:
REMARK  status: ('A' for Active; 'I' for Inactive)
REMARK    1  A    between atoms: C_2  and  C_1 
REMARK    2  A    between atoms: C_6  and  C_1 
ROOT
ATOM      1  C   UNL d   1       1.082  -0.081  -0.158  0.00  0.00     0.193 C 
ATOM      2  O   UNL d   1       0.479   0.979  -0.301  0.00  0.00    -0.287 OA
ENDROOT
BRANCH   1   3
ATOM      3  C   UNL d   1       0.306  -1.339  -0.114  0.00  0.00     0.030 A 
ATOM      4  C   UNL d   1      -0.869  -1.426  -0.850  0.00  0.00     0.103 A 
ATOM      5  N   UNL d   1      -1.642  -2.540  -0.909  0.00  0.00    -0.374 N 
ATOM      6  C   UNL d   1      -1.234  -3.602  -0.181  0.00  0.00     0.087 A 
ATOM      7  HN  UNL d   1      -2.489  -2.574  -1.475  1.00  0.00     0.164 HD
ATOM      8  C   UNL d   1      -0.097  -3.599   0.613  0.00  0.00     0.018 A 
ATOM      9  C   UNL d   1       0.679  -2.444   0.655  0.00  0.00     0.018 A 
ENDBRANCH   1   3
BRANCH   1  10
ATOM     10  C   UNL d   1       2.565  -0.067  -0.038  0.00  0.00     0.015 A 
ATOM     11  C   UNL d   1       3.177   1.069   0.505  0.00  0.00     0.015 A 
ATOM     12  C   UNL d   1       4.566   1.124   0.635  0.00  0.00     0.001 A 
ATOM     13  C   UNL d   1       5.349   0.048   0.217  0.00  0.00     0.000 A 
ATOM     14  C   UNL d   1       4.747  -1.075  -0.349  0.00  0.00     0.001 A 
ATOM     15  C   UNL d   1       3.359  -1.129  -0.490  0.00  0.00     0.015 A 
ENDBRANCH   1  10
TORSDOF 2
