REMARK  6 active torsions:
REMARK  status: ('A' for Active; 'I' for Inactive)
REMARK       I    between atoms: C_4  and  N_1 
REMARK    1  A    between atoms: C_6  and  N_1 
REMARK    2  A    between atoms: C_2  and  C_3 
REMARK    3  A    between atoms: C_9  and  C_4 
REMARK    4  A    between atoms: C_5  and  N_12 
REMARK    5  A    between atoms: N_14  and  C_6 
REMARK    6  A    between atoms: N_12  and  N_14 
ROOT
ATOM      1  N   UNL d   1       2.215   0.791  -2.390  0.00  0.00    -0.187 NA
ATOM      2  H   UNL d   1       1.333   1.222  -2.107  0.00  0.00     0.154 HD
ENDROOT
BRANCH   1   3
ATOM      3  C   UNL d   1       2.890   1.611  -3.331  0.00  0.00     0.120 A 
ATOM      4  N   UNL d   1       4.248   1.672  -3.278  0.00  0.00    -0.353 N 
ATOM      5  C   UNL d   1       4.895   2.417  -4.202  0.00  0.00     0.105 A 
ATOM      6  HN  UNL d   1       4.765   1.168  -2.559  1.00  0.00     0.166 HD
ATOM      7  C   UNL d   1       4.258   3.123  -5.211  0.00  0.00     0.065 A 
ATOM      8  C   UNL d   1       2.864   3.039  -5.276  0.00  0.00     0.044 A 
ATOM      9  C   UNL d   1       2.173   2.270  -4.339  0.00  0.00     0.074 A 
ATOM     10 CL   UNL d   1       0.452   2.195  -4.433  0.00  0.00    -0.081 Cl
BRANCH   7  11
ATOM     11  C   UNL d   1       5.071   3.936  -6.169  0.00  0.00     0.418 C 
ATOM     12  F   UNL d   1       4.318   4.600  -7.088  0.00  0.00    -0.166 F 
ATOM     13  F   UNL d   1       5.816   4.885  -5.541  0.00  0.00    -0.166 F 
ATOM     14  F   UNL d   1       5.949   3.179  -6.880  0.00  0.00    -0.166 F 
ENDBRANCH   7  11
ENDBRANCH   1   3
BRANCH   1  15
ATOM     15  N   UNL d   1       3.035   0.494  -1.280  0.00  0.00    -0.292 N 
ATOM     16  H   UNL d   1       4.044   0.580  -1.457  0.00  0.00     0.183 HD
BRANCH  15  17
ATOM     17  C   UNL d   1       2.567  -0.287  -0.256  0.00  0.00     0.189 C 
ATOM     18  S   UNL d   1       0.956  -0.647   0.033  0.00  0.00    -0.039 SA
BRANCH  17  19
ATOM     19  N   UNL d   1       3.507  -0.782   0.616  0.00  0.00    -0.298 N 
ATOM     20  C   UNL d   1       4.890  -0.648   0.588  0.00  0.00     0.264 C 
ATOM     21  O   UNL d   1       5.461   0.073  -0.230  0.00  0.00    -0.267 OA
ATOM     22  H   UNL d   1       3.128  -1.381   1.339  0.00  0.00     0.171 HD
BRANCH  20  23
ATOM     23  C   UNL d   1       5.615  -1.421   1.590  0.00  0.00     0.072 A 
ATOM     24  S   UNL d   1       4.816  -2.422   2.732  0.00  0.00    -0.097 SA
ATOM     25  C   UNL d   1       6.292  -2.948   3.412  0.00  0.00     0.050 A 
ATOM     26  C   UNL d   1       7.379  -2.365   2.801  0.00  0.00     0.009 A 
ATOM     27  C   UNL d   1       6.987  -1.478   1.756  0.00  0.00     0.025 A 
ENDBRANCH  20  23
ENDBRANCH  17  19
ENDBRANCH  15  17
ENDBRANCH   1  15
TORSDOF 6
