REMARK  2 active torsions:
REMARK  status: ('A' for Active; 'I' for Inactive)
REMARK    1  A    between atoms: C_7  and  C_6 
REMARK    2  A    between atoms: O_10  and  C_7 
ROOT
ATOM      1  C   UNL d   1      -1.157  -0.659   0.007  0.00  0.00     0.043 A 
ATOM      2  C   UNL d   1       0.063  -1.492  -0.005  0.00  0.00     0.195 A 
ATOM      3  C   UNL d   1      -0.709   0.685   0.033  0.00  0.00    -0.010 A 
ATOM      4  C   UNL d   1       1.228  -0.592  -0.003  0.00  0.00     0.026 A 
ATOM      5  C   UNL d   1       0.740   0.720   0.031  0.00  0.00    -0.011 A 
ATOM      6  C   UNL d   1      -2.500  -1.002  -0.023  0.00  0.00     0.052 A 
ATOM      7  O   UNL d   1       0.092  -2.705  -0.018  0.00  0.00    -0.287 OA
ATOM      8  C   UNL d   1      -1.619   1.729   0.032  0.00  0.00     0.013 A 
ATOM      9  C   UNL d   1       2.571  -0.909  -0.046  0.00  0.00     0.016 A 
ATOM     10  C   UNL d   1       1.636   1.775   0.036  0.00  0.00     0.013 A 
ATOM     11  C   UNL d   1      -3.408   0.077  -0.031  0.00  0.00     0.019 A 
ATOM     12  C   UNL d   1      -2.978   1.417  -0.003  0.00  0.00     0.002 A 
ATOM     13  C   UNL d   1       3.007   1.484  -0.009  0.00  0.00     0.001 A 
ATOM     14  C   UNL d   1       3.470   0.155  -0.054  0.00  0.00     0.001 A 
ENDROOT
BRANCH   6  15
ATOM     15  C   UNL d   1      -3.093  -2.370  -0.056  0.00  0.00     0.177 C 
ATOM     16  O   UNL d   1      -4.309  -2.513  -0.087  0.00  0.00    -0.646 OA
BRANCH  15  17
ATOM     17  O   UNL d   1      -2.281  -3.439  -0.045  0.00  0.00    -0.773 OA
ATOM     18  H   UNL d   1      -1.306  -3.300  -0.027  0.00  0.00     0.167 HD
ENDBRANCH  15  17
ENDBRANCH   6  15
TORSDOF 2
