REMARK  4 active torsions:
REMARK  status: ('A' for Active; 'I' for Inactive)
REMARK    1  A    between atoms: C_4  and  N_1 
REMARK    2  A    between atoms: O_14  and  C_12 
REMARK    3  A    between atoms: C_19  and  O_14 
REMARK    4  A    between atoms: C_17  and  C_19 
ROOT
ATOM      1  C   UNL d   1       3.352  -0.045  -0.080  0.00  0.00     0.151 A 
ATOM      2  N   UNL d   1       3.908  -0.729  -1.112  0.00  0.00    -0.349 N 
ATOM      3  HN  UNL d   1       3.330  -1.241  -1.778  1.00  0.00     0.166 HD
ATOM      4  C   UNL d   1       4.118   0.645   0.876  0.00  0.00     0.113 A 
ATOM      5  C   UNL d   1       5.250  -0.707  -1.225  0.00  0.00     0.090 A 
ATOM      6  C   UNL d   1       5.507   0.607   0.748  0.00  0.00     0.042 A 
ATOM      7  C   UNL d   1       6.083  -0.059  -0.331  0.00  0.00     0.020 A 
ENDROOT
BRANCH   1   8
ATOM      8  N   UNL d   1       1.954  -0.031   0.000  0.00  0.00    -0.226 N 
ATOM      9  C   UNL d   1       1.202   1.117   0.043  0.00  0.00     0.267 A 
ATOM     10  C   UNL d   1      -0.195   0.685   0.018  0.00  0.00     0.048 A 
ATOM     11  O   UNL d   1       1.528   2.291   0.042  0.00  0.00    -0.267 OA
ATOM     12  C   UNL d   1      -1.361   1.425   0.014  0.00  0.00     0.018 A 
ATOM     13  C   UNL d   1      -0.207  -0.697  -0.016  0.00  0.00     0.048 A 
ATOM     14  C   UNL d   1      -2.568   0.717   0.010  0.00  0.00     0.001 A 
ATOM     15  C   UNL d   1      -2.580  -0.693   0.016  0.00  0.00     0.001 A 
ATOM     16  C   UNL d   1      -1.385  -1.419  -0.001  0.00  0.00     0.018 A 
ATOM     17  C   UNL d   1       1.180  -1.158  -0.059  0.00  0.00     0.267 A 
ATOM     18  O   UNL d   1       1.470  -2.340  -0.071  0.00  0.00    -0.267 OA
ENDBRANCH   1   8
BRANCH   4  19
ATOM     19  O   UNL d   1       3.468   1.170   1.959  0.00  0.00    -0.343 OA
BRANCH  19  20
ATOM     20  C   UNL d   1       4.026   2.327   2.580  0.00  0.00     0.214 C 
BRANCH  20  21
ATOM     21  C   UNL d   1       4.332   2.011   4.026  0.00  0.00    -0.032 A 
ATOM     22  C   UNL d   1       5.643   2.082   4.521  0.00  0.00     0.035 A 
ATOM     23  C   UNL d   1       5.914   1.792   5.865  0.00  0.00     0.056 A 
ATOM     24 CL   UNL d   1       7.557   1.907   6.393  0.00  0.00    -0.083 Cl
ATOM     25  C   UNL d   1       4.875   1.429   6.727  0.00  0.00     0.055 A 
ATOM     26  C   UNL d   1       3.568   1.350   6.241  0.00  0.00     0.026 A 
ATOM     27 CL   UNL d   1       5.135   1.069   8.397  0.00  0.00    -0.083 Cl
ATOM     28  C   UNL d   1       3.299   1.638   4.900  0.00  0.00     0.011 A 
ENDBRANCH  20  21
ENDBRANCH  19  20
ENDBRANCH   4  19
TORSDOF 4
