REMARK  3 active torsions:
REMARK  status: ('A' for Active; 'I' for Inactive)
REMARK    1  A    between atoms: C_6  and  C_1 
REMARK    2  A    between atoms: C_8  and  C_3 
REMARK    3  A    between atoms: C_11  and  C_6 
ROOT
ATOM      1  N   UNL d   1      -2.318  -4.645   1.130  0.00  0.00    -0.197 NA
ATOM      2  C   UNL d   1      -2.582  -3.807   0.359  0.00  0.00     0.067 C 
ATOM      3  C   UNL d   1      -2.884  -2.776  -0.655  0.00  0.00     0.207 C 
ENDROOT
BRANCH   3   4
ATOM      4  C   UNL d   1      -2.837  -1.389  -0.038  0.00  0.00     0.174 C 
ATOM      5  O   UNL d   1      -3.863  -0.871   0.405  0.00  0.00    -0.291 OA
BRANCH   4   6
ATOM      6  C   UNL d   1      -1.557  -0.685  -0.008  0.00  0.00     0.042 A 
ATOM      7  C   UNL d   1      -0.238  -1.226  -0.030  0.00  0.00     0.051 A 
ATOM      8  C   UNL d   1       0.643  -0.163   0.003  0.00  0.00     0.061 A 
ATOM      9  O   UNL d   1      -0.063   1.004   0.036  0.00  0.00    -0.318 OA
ATOM     10  C   UNL d   1      -1.389   0.689   0.036  0.00  0.00     0.063 A 
ATOM     11  C   UNL d   1      -2.317   1.841   0.044  0.00  0.00     0.077 C 
BRANCH   8  12
ATOM     12  C   UNL d   1       2.147  -0.044   0.006  0.00  0.00    -0.002 C 
ATOM     13  C   UNL d   1       2.807  -1.437  -0.015  0.00  0.00     0.021 C 
ATOM     14  C   UNL d   1       2.611   0.733  -1.239  0.00  0.00     0.021 C 
ATOM     15  C   UNL d   1       2.613   0.696   1.272  0.00  0.00     0.021 C 
ENDBRANCH   8  12
ENDBRANCH   4   6
ENDBRANCH   3   4
TORSDOF 3
