REMARK  5 active torsions:
REMARK  status: ('A' for Active; 'I' for Inactive)
REMARK    1  A    between atoms: C_3  and  S_1 
REMARK    2  A    between atoms: O_14  and  S_1 
REMARK    3  A    between atoms: C_9  and  C_2 
REMARK    4  A    between atoms: C_4  and  C_10 
REMARK    5  A    between atoms: C_20  and  O_14 
ROOT
ATOM      1  C   UNL d   1       0.297   1.282   1.084  0.00  0.00     0.128 A 
ATOM      2  S   UNL d   1       0.679   2.866   0.560  0.00  0.00    -0.074 SA
ATOM      3  C   UNL d   1       0.011   3.574   1.966  0.00  0.00     0.035 A 
ATOM      4  C   UNL d   1      -0.434   1.306   2.258  0.00  0.00     0.035 A 
ATOM      5  C   UNL d   1      -0.590   2.628   2.772  0.00  0.00     0.023 A 
ENDROOT
BRANCH   1   6
ATOM      6  S   UNL d   1       0.922  -0.072   0.102  0.00  0.00     0.309 S 
ATOM      7  O   UNL d   1       0.931  -1.197   1.018  0.00  0.00    -0.192 OA
ATOM      8  O   UNL d   1       2.127   0.407  -0.543  0.00  0.00    -0.192 OA
BRANCH   6   9
ATOM      9  O   UNL d   1      -0.272  -0.263  -0.989  0.00  0.00    -0.229 OA
BRANCH   9  10
ATOM     10  C   UNL d   1      -0.202  -1.227  -1.969  0.00  0.00     0.089 A 
ATOM     11  C   UNL d   1       0.861  -2.113  -2.153  0.00  0.00     0.038 A 
ATOM     12  C   UNL d   1       0.835  -3.038  -3.201  0.00  0.00     0.003 A 
ATOM     13  C   UNL d   1      -0.256  -3.087  -4.066  0.00  0.00     0.000 A 
ATOM     14  C   UNL d   1      -1.326  -2.215  -3.880  0.00  0.00     0.003 A 
ATOM     15  C   UNL d   1      -1.300  -1.288  -2.834  0.00  0.00     0.038 A 
ENDBRANCH   9  10
ENDBRANCH   6   9
ENDBRANCH   1   6
BRANCH   3  16
ATOM     16  C   UNL d   1       0.084   5.035   2.296  0.00  0.00     0.074 A 
ATOM     17  C   UNL d   1       0.694   6.050   1.524  0.00  0.00     0.077 A 
ATOM     18  C   UNL d   1       0.523   7.198   2.263  0.00  0.00     0.184 A 
ATOM     19  O   UNL d   1      -0.150   6.893   3.404  0.00  0.00    -0.233 OA
ATOM     20  N   UNL d   1      -0.429   5.538   3.427  0.00  0.00    -0.260 N 
ATOM     21  HN  UNL d   1      -0.925   5.026   4.156  1.00  0.00     0.195 HD
BRANCH  18  22
ATOM     22  C   UNL d   1       0.902   8.609   2.080  0.00  0.00     0.441 C 
ATOM     23  F   UNL d   1       1.535   8.806   0.893  0.00  0.00    -0.164 F 
ATOM     24  F   UNL d   1      -0.173   9.436   2.088  0.00  0.00    -0.164 F 
ATOM     25  F   UNL d   1       1.748   9.044   3.047  0.00  0.00    -0.164 F 
ENDBRANCH  18  22
ENDBRANCH   3  16
TORSDOF 5
