REMARK  4 active torsions:
REMARK  status: ('A' for Active; 'I' for Inactive)
REMARK    1  A    between atoms: C_3  and  C_1 
REMARK    2  A    between atoms: N_2  and  C_5 
REMARK    3  A    between atoms: C_4  and  C_10 
REMARK       I    between atoms: N_8  and  C_4 
REMARK    4  A    between atoms: C_21  and  N_8 
ROOT
ATOM      1  N   UNL d   1      -0.559  -3.572  -4.005  0.00  0.00    -0.367 N 
ATOM      2  C   UNL d   1      -2.213  -4.936  -5.944  0.00  0.00     0.081 C 
ATOM      3  C   UNL d   1      -0.058  -3.682  -5.372  0.00  0.00     0.125 C 
ATOM      4  C   UNL d   1      -1.467  -4.626  -3.551  0.00  0.00     0.125 C 
ATOM      5  C   UNL d   1      -1.250  -3.793  -6.340  0.00  0.00     0.034 C 
ATOM      6  C   UNL d   1      -2.659  -4.700  -4.500  0.00  0.00     0.034 C 
ENDROOT
BRANCH   1   7
ATOM      7  C   UNL d   1       0.037  -2.804  -3.028  0.00  0.00     0.102 A 
ATOM      8  C   UNL d   1       1.297  -2.226  -3.163  0.00  0.00     0.049 A 
ATOM      9  C   UNL d   1       1.819  -1.423  -2.140  0.00  0.00     0.021 A 
ATOM     10  C   UNL d   1       1.070  -1.190  -0.989  0.00  0.00     0.063 A 
ATOM     11  C   UNL d   1      -0.171  -1.790  -0.927  0.00  0.00     0.106 A 
ATOM     12  N   UNL d   1      -0.678  -2.578  -1.899  0.00  0.00    -0.352 N 
ATOM     13  HN  UNL d   1      -1.599  -3.002  -1.784  1.00  0.00     0.166 HD
BRANCH  10  14
ATOM     14  C   UNL d   1       1.566  -0.343   0.138  0.00  0.00     0.418 C 
ATOM     15  F   UNL d   1       0.670  -0.207   1.156  0.00  0.00    -0.166 F 
ATOM     16  F   UNL d   1       1.874   0.925  -0.256  0.00  0.00    -0.166 F 
ATOM     17  F   UNL d   1       2.700  -0.841   0.706  0.00  0.00    -0.166 F 
ENDBRANCH  10  14
ENDBRANCH   1   7
BRANCH   2  18
ATOM     18  C   UNL d   1      -1.525  -6.277  -6.243  0.00  0.00     0.226 C 
ATOM     19  N   UNL d   1      -2.003  -7.401  -5.603  0.00  0.00    -0.327 N 
ATOM     20  H   UNL d   1      -2.851  -7.319  -5.053  0.00  0.00     0.169 HD
ATOM     21  O   UNL d   1      -0.623  -6.296  -7.087  0.00  0.00    -0.273 OA
BRANCH  19  22
ATOM     22  C   UNL d   1      -1.387  -8.685  -5.620  0.00  0.00     0.034 A 
ATOM     23  C   UNL d   1      -0.178  -8.948  -6.278  0.00  0.00     0.031 A 
ATOM     24  C   UNL d   1       0.445 -10.195  -6.187  0.00  0.00     0.026 A 
ATOM     25  C   UNL d   1      -0.138 -11.205  -5.437  0.00  0.00     0.034 A 
ATOM     26  C   UNL d   1      -1.361 -10.983  -4.807  0.00  0.00     0.026 A 
ATOM     27 CL   UNL d   1       0.662 -12.717  -5.273  0.00  0.00    -0.084 Cl
ATOM     28  C   UNL d   1      -1.986  -9.728  -4.902  0.00  0.00     0.031 A 
ENDBRANCH  19  22
ENDBRANCH   2  18
TORSDOF 4
