REMARK  7 active torsions:
REMARK  status: ('A' for Active; 'I' for Inactive)
REMARK    1  A    between atoms: S_2  and  C_1 
REMARK    2  A    between atoms: N_4  and  C_1 
REMARK    3  A    between atoms: C_5  and  S_2 
REMARK    4  A    between atoms: C_14  and  N_4 
REMARK    5  A    between atoms: C_12  and  C_14 
REMARK    6  A    between atoms: C_15  and  C_12 
REMARK    7  A    between atoms: O_13  and  C_15 
ROOT
ATOM      1  C   UNL d   1       1.071   0.005  -0.011  0.00  0.00     0.139 C 
ATOM      2  S   UNL d   1       0.099   0.979  -0.961  0.00  0.00    -0.053 SA
ENDROOT
BRANCH   1   3
ATOM      3  S   UNL d   1       0.458  -1.008   1.270  0.00  0.00    -0.061 SA
BRANCH   3   4
ATOM      4  C   UNL d   1       0.217   0.079   2.666  0.00  0.00     0.007 A 
ATOM      5  C   UNL d   1       0.709   1.387   2.753  0.00  0.00     0.021 A 
ATOM      6  C   UNL d   1       0.496   2.151   3.908  0.00  0.00     0.025 A 
ATOM      7  C   UNL d   1      -0.194   1.610   4.988  0.00  0.00     0.034 A 
ATOM      8  C   UNL d   1      -0.693   0.312   4.918  0.00  0.00     0.025 A 
ATOM      9 CL   UNL d   1      -0.425   2.540   6.414  0.00  0.00    -0.084 Cl
ATOM     10  C   UNL d   1      -0.487  -0.446   3.762  0.00  0.00     0.021 A 
ENDBRANCH   3   4
ENDBRANCH   1   3
BRANCH   1  11
ATOM     11  N   UNL d   1       2.411  -0.056  -0.293  0.00  0.00    -0.375 N 
ATOM     12  H   UNL d   1       2.685   0.510  -1.089  0.00  0.00     0.161 HD
BRANCH  11  13
ATOM     13  C   UNL d   1       3.439  -0.920   0.280  0.00  0.00     0.123 C 
BRANCH  13  14
ATOM     14  C   UNL d   1       3.420  -2.319  -0.335  0.00  0.00     0.046 C 
BRANCH  14  15
ATOM     15  C   UNL d   1       4.612  -3.155   0.117  0.00  0.00     0.168 C 
BRANCH  15  16
ATOM     16  O   UNL d   1       4.623  -3.231   1.540  0.00  0.00    -0.396 OA
ATOM     17  C   UNL d   1       5.753  -3.945   2.023  0.00  0.00     0.201 C 
ENDBRANCH  15  16
ENDBRANCH  14  15
ENDBRANCH  13  14
ENDBRANCH  11  13
ENDBRANCH   1  11
TORSDOF 7
