REMARK  5 active torsions:
REMARK  status: ('A' for Active; 'I' for Inactive)
REMARK    1  A    between atoms: N_9  and  C_2 
REMARK    2  A    between atoms: C_14  and  N_9 
REMARK    3  A    between atoms: C_15  and  N_9 
REMARK    4  A    between atoms: C_17  and  C_14 
REMARK    5  A    between atoms: C_18  and  C_15 
ROOT
ATOM      1  N   UNL d   1       0.804   0.500   0.329  0.00  0.00    -0.068 N 
ATOM      2  C   UNL d   1       0.344   1.286  -0.766  0.00  0.00     0.152 A 
ATOM      3  C   UNL d   1       0.991  -0.895   0.214  0.00  0.00     0.706 A 
ATOM      4  C   UNL d   1       0.033   0.615  -1.890  0.00  0.00     0.011 A 
ATOM      5  N   UNL d   1       0.742  -1.572  -0.946  0.00  0.00    -0.193 N 
ATOM      6  HN  UNL d   1       0.901  -2.575  -1.039  1.00  0.00     0.184 HD
ATOM      7  N   UNL d   1       1.432  -1.367   1.360  0.00  0.00    -0.184 N 
ATOM      8  HN  UNL d   1       1.676  -2.330   1.594  1.00  0.00     0.185 HD
ATOM      9  C   UNL d   1       0.290  -0.846  -1.917  0.00  0.00     0.036 A 
ATOM     10  N   UNL d   1       1.110   0.880   1.606  0.00  0.00    -0.273 N 
ATOM     11  HN  UNL d   1       1.063   1.807   2.028  1.00  0.00     0.189 HD
ATOM     12  C   UNL d   1       1.485  -0.274   2.156  0.00  0.00     0.215 A 
ATOM     13  C   UNL d   1      -0.480   1.040  -3.218  0.00  0.00     0.045 C 
ATOM     14  C   UNL d   1       0.002  -1.407  -3.272  0.00  0.00     0.058 C 
ATOM     15  C   UNL d   1      -0.739  -0.269  -3.976  0.00  0.00     0.011 C 
ENDROOT
BRANCH   2  16
ATOM     16  N   UNL d   1       0.224   2.695  -0.662  0.00  0.00    -0.356 N 
BRANCH  16  17
ATOM     17  C   UNL d   1      -1.060   3.218  -0.131  0.00  0.00     0.163 C 
BRANCH  17  18
ATOM     18  C   UNL d   1      -1.722   4.251  -1.026  0.00  0.00    -0.040 A 
ATOM     19  C   UNL d   1      -1.237   4.601  -2.294  0.00  0.00     0.009 A 
ATOM     20  C   UNL d   1      -1.942   5.488  -3.113  0.00  0.00     0.001 A 
ATOM     21  C   UNL d   1      -3.143   6.042  -2.676  0.00  0.00     0.000 A 
ATOM     22  C   UNL d   1      -3.628   5.729  -1.410  0.00  0.00     0.001 A 
ATOM     23  C   UNL d   1      -2.921   4.845  -0.590  0.00  0.00     0.009 A 
ENDBRANCH  17  18
ENDBRANCH  16  17
BRANCH  16  24
ATOM     24  C   UNL d   1       1.388   3.499  -0.202  0.00  0.00     0.163 C 
BRANCH  24  25
ATOM     25  C   UNL d   1       2.462   3.662  -1.262  0.00  0.00    -0.040 A 
ATOM     26  C   UNL d   1       2.748   4.938  -1.777  0.00  0.00     0.009 A 
ATOM     27  C   UNL d   1       3.797   5.131  -2.679  0.00  0.00     0.001 A 
ATOM     28  C   UNL d   1       4.569   4.048  -3.093  0.00  0.00     0.000 A 
ATOM     29  C   UNL d   1       4.293   2.774  -2.604  0.00  0.00     0.001 A 
ATOM     30  C   UNL d   1       3.254   2.584  -1.688  0.00  0.00     0.009 A 
ENDBRANCH  24  25
ENDBRANCH  16  24
ENDBRANCH   2  16
TORSDOF 5
