REMARK  5 active torsions:
REMARK  status: ('A' for Active; 'I' for Inactive)
REMARK    1  A    between atoms: N_2  and  S_1 
REMARK    2  A    between atoms: C_9  and  S_1 
REMARK    3  A    between atoms: N_3  and  N_2 
REMARK    4  A    between atoms: C_6  and  C_5 
REMARK    5  A    between atoms: N_14  and  C_5 
ROOT
ATOM      1  N   UNL d   1       0.623  -0.131  -2.714  0.00  0.00    -0.279 N 
ATOM      2  HN  UNL d   1       0.429  -0.558  -1.809  1.00  0.00     0.189 HD
ATOM      3  C   UNL d   1       0.157  -0.624  -3.825  0.00  0.00     0.121 C 
ENDROOT
BRANCH   1   4
ATOM      4  N   UNL d   1       1.426   1.051  -2.843  0.00  0.00    -0.222 N 
ATOM      5  H   UNL d   1       1.863   1.293  -3.734  0.00  0.00     0.200 HD
BRANCH   4   6
ATOM      6  S   UNL d   1       2.239   1.669  -1.489  0.00  0.00     0.276 S 
ATOM      7  O   UNL d   1       3.005   2.804  -1.959  0.00  0.00    -0.199 OA
ATOM      8  O   UNL d   1       2.873   0.583  -0.772  0.00  0.00    -0.199 OA
BRANCH   6   9
ATOM      9  C   UNL d   1       0.892   2.284  -0.508  0.00  0.00     0.081 A 
ATOM     10  C   UNL d   1       0.283   1.433   0.423  0.00  0.00     0.025 A 
ATOM     11  C   UNL d   1      -0.745   1.918   1.231  0.00  0.00     0.002 A 
ATOM     12  C   UNL d   1      -1.154   3.247   1.113  0.00  0.00     0.000 A 
ATOM     13  C   UNL d   1      -0.539   4.095   0.188  0.00  0.00     0.002 A 
ATOM     14  C   UNL d   1       0.490   3.617  -0.624  0.00  0.00     0.025 A 
ENDBRANCH   6   9
ENDBRANCH   4   6
ENDBRANCH   1   4
BRANCH   3  15
ATOM     15  C   UNL d   1      -0.645  -1.888  -3.749  0.00  0.00     0.087 A 
ATOM     16  N   UNL d   1      -1.217  -2.301  -4.915  0.00  0.00    -0.361 N 
ATOM     17  C   UNL d   1      -1.953  -3.434  -4.809  0.00  0.00     0.105 A 
ATOM     18  HN  UNL d   1      -1.100  -1.800  -5.795  1.00  0.00     0.165 HD
ATOM     19  C   UNL d   1      -2.125  -4.111  -3.609  0.00  0.00     0.104 A 
ATOM     20  N   UNL d   1      -1.565  -3.690  -2.451  0.00  0.00    -0.372 N 
ATOM     21  C   UNL d   1      -0.817  -2.562  -2.547  0.00  0.00     0.120 A 
ATOM     22  HN  UNL d   1      -1.696  -4.186  -1.569  1.00  0.00     0.164 HD
ENDBRANCH   3  15
BRANCH   3  23
ATOM     23  N   UNL d   1       0.323  -0.032  -5.066  0.00  0.00    -0.286 NA
ATOM     24  H   UNL d   1       0.235   0.977  -5.037  0.00  0.00     0.125 HD
ATOM     25  H   UNL d   1      -0.300  -0.440  -5.765  0.00  0.00     0.125 HD
ENDBRANCH   3  23
TORSDOF 5
