REMARK  6 active torsions:
REMARK  status: ('A' for Active; 'I' for Inactive)
REMARK    1  A    between atoms: C_7  and  N_1 
REMARK    2  A    between atoms: C_8  and  N_3 
REMARK    3  A    between atoms: N_11  and  C_4 
REMARK    4  A    between atoms: C_13  and  C_8 
REMARK    5  A    between atoms: S_14  and  C_12 
REMARK    6  A    between atoms: O_21  and  C_15 
ROOT
ATOM      1  N   UNL d   1      -0.568   1.254  -0.069  0.00  0.00    -0.253 N 
ATOM      2  C   UNL d   1      -1.343   0.086  -0.158  0.00  0.00     0.338 A 
ATOM      3  N   UNL d   1      -0.644  -1.115  -0.223  0.00  0.00    -0.262 N 
ATOM      4  C   UNL d   1       0.822   1.248  -0.122  0.00  0.00     0.094 A 
ATOM      5  C   UNL d   1       0.727  -1.197  -0.164  0.00  0.00     0.254 A 
ATOM      6  C   UNL d   1       1.457   0.076  -0.180  0.00  0.00     0.117 A 
ATOM      7  O   UNL d   1      -2.579   0.110  -0.133  0.00  0.00    -0.246 OA
ATOM      8  O   UNL d   1       1.371  -2.239  -0.083  0.00  0.00    -0.268 OA
ENDROOT
BRANCH   3   9
ATOM      9  C   UNL d   1      -1.412  -2.357  -0.151  0.00  0.00     0.175 C 
BRANCH   9  10
ATOM     10  C   UNL d   1      -2.298  -2.640  -1.348  0.00  0.00    -0.040 A 
ATOM     11  C   UNL d   1      -1.986  -2.188  -2.636  0.00  0.00     0.011 A 
ATOM     12  C   UNL d   1      -2.870  -2.398  -3.700  0.00  0.00     0.037 A 
ATOM     13  C   UNL d   1      -4.064  -3.090  -3.499  0.00  0.00     0.068 A 
ATOM     14  C   UNL d   1      -4.344  -3.610  -2.236  0.00  0.00     0.037 A 
ATOM     15  C   UNL d   1      -3.470  -3.391  -1.169  0.00  0.00     0.011 A 
BRANCH  13  16
ATOM     16  O   UNL d   1      -5.022  -3.325  -4.447  0.00  0.00    -0.356 OA
ATOM     17  C   UNL d   1      -4.857  -2.655  -5.691  0.00  0.00     0.210 C 
ENDBRANCH  13  16
ENDBRANCH   9  10
ENDBRANCH   3   9
BRANCH   1  18
ATOM     18  C   UNL d   1      -1.305   2.473   0.023  0.00  0.00     0.062 A 
ATOM     19  C   UNL d   1      -1.750   2.990   1.258  0.00  0.00     0.027 A 
ATOM     20  C   UNL d   1      -2.516   4.167   1.250  0.00  0.00     0.021 A 
ATOM     21  C   UNL d   1      -2.814   4.826   0.052  0.00  0.00     0.002 A 
ATOM     22  C   UNL d   1      -2.336   4.329  -1.157  0.00  0.00     0.002 A 
ATOM     23  C   UNL d   1      -1.588   3.153  -1.173  0.00  0.00     0.031 A 
BRANCH  19  24
ATOM     24  S   UNL d   1      -1.199   2.399   2.864  0.00  0.00    -0.132 SA
ATOM     25  C   UNL d   1      -2.093   0.832   3.032  0.00  0.00     0.095 C 
ENDBRANCH  19  24
ENDBRANCH   1  18
BRANCH   4  26
ATOM     26  N   UNL d   1       1.562   2.422  -0.103  0.00  0.00    -0.288 NA
ATOM     27  H   UNL d   1       1.078   3.175   0.380  0.00  0.00     0.125 HD
ATOM     28  H   UNL d   1       2.511   2.308   0.244  0.00  0.00     0.125 HD
ENDBRANCH   4  26
TORSDOF 6
