REMARK  5 active torsions:
REMARK  status: ('A' for Active; 'I' for Inactive)
REMARK    1  A    between atoms: C_2  and  S_1 
REMARK    2  A    between atoms: N_8  and  S_1 
REMARK    3  A    between atoms: S_3  and  C_10 
REMARK    4  A    between atoms: N_17  and  S_3 
REMARK    5  A    between atoms: C_16  and  N_8 
ROOT
ATOM      1  N   UNL d   1       0.333   0.800  -1.388  0.00  0.00    -0.280 N 
ATOM      2  H   UNL d   1      -0.666   0.603  -1.426  0.00  0.00     0.179 HD
ENDROOT
BRANCH   1   3
ATOM      3  S   UNL d   1       1.050   0.079  -0.038  0.00  0.00     0.267 S 
ATOM      4  O   UNL d   1       0.422  -1.216   0.113  0.00  0.00    -0.200 OA
ATOM      5  O   UNL d   1       2.486   0.220  -0.103  0.00  0.00    -0.200 OA
BRANCH   3   6
ATOM      6  C   UNL d   1       0.559   0.939   1.353  0.00  0.00     0.135 A 
ATOM      7  C   UNL d   1       1.253   1.880   2.076  0.00  0.00     0.098 A 
ATOM      8  O   UNL d   1       0.457   2.323   3.089  0.00  0.00    -0.241 OA
ATOM      9  C   UNL d   1       2.593   2.495   2.026  0.00  0.00     0.081 C 
ATOM     10  N   UNL d   1      -0.764   1.682   3.038  0.00  0.00    -0.264 N 
ATOM     11  C   UNL d   1      -0.696   0.839   2.000  0.00  0.00     0.054 A 
ATOM     12  HN  UNL d   1      -1.558   1.822   3.664  1.00  0.00     0.194 HD
ATOM     13  C   UNL d   1      -1.859  -0.025   1.685  0.00  0.00     0.072 C 
ENDBRANCH   3   6
ENDBRANCH   1   3
BRANCH   1  14
ATOM     14  C   UNL d   1       0.723   2.124  -1.734  0.00  0.00     0.044 A 
ATOM     15  C   UNL d   1      -0.113   3.195  -1.426  0.00  0.00     0.054 A 
ATOM     16  C   UNL d   1       0.270   4.487  -1.803  0.00  0.00     0.076 A 
ATOM     17  C   UNL d   1       1.467   4.711  -2.489  0.00  0.00     0.025 A 
ATOM     18  C   UNL d   1       2.307   3.634  -2.769  0.00  0.00     0.004 A 
ATOM     19  C   UNL d   1       1.939   2.343  -2.382  0.00  0.00     0.030 A 
BRANCH  16  20
ATOM     20  S   UNL d   1      -0.817   5.844  -1.480  0.00  0.00     0.239 S 
ATOM     21  O   UNL d   1      -0.575   6.883  -2.452  0.00  0.00    -0.206 OA
ATOM     22  O   UNL d   1      -2.137   5.327  -1.205  0.00  0.00    -0.206 OA
BRANCH  20  23
ATOM     23  N   UNL d   1      -0.227   6.418  -0.020  0.00  0.00    -0.225 NA
ATOM     24  H   UNL d   1       0.108   7.376  -0.133  0.00  0.00     0.136 HD
ATOM     25  H   UNL d   1      -0.936   6.320   0.709  0.00  0.00     0.136 HD
ENDBRANCH  20  23
ENDBRANCH  16  20
ENDBRANCH   1  14
TORSDOF 5
