REMARK  4 active torsions:
REMARK  status: ('A' for Active; 'I' for Inactive)
REMARK    1  A    between atoms: C_7  and  C_3 
REMARK    2  A    between atoms: C_9  and  N_4 
REMARK    3  A    between atoms: S_8  and  C_7 
REMARK    4  A    between atoms: C_10  and  S_8 
ROOT
ATOM      1  N   UNL d   1       0.798  -0.320  -0.167  0.00  0.00    -0.293 N 
ATOM      2  HN  UNL d   1       1.704  -0.787  -0.212  1.00  0.00     0.187 HD
ATOM      3  C   UNL d   1      -0.410  -0.900  -0.229  0.00  0.00     0.107 A 
ATOM      4  N   UNL d   1       0.576   1.007  -0.033  0.00  0.00    -0.287 N 
ATOM      5  C   UNL d   1      -1.418   0.085  -0.122  0.00  0.00     0.062 A 
ATOM      6  C   UNL d   1      -0.770   1.304  -0.073  0.00  0.00     0.028 A 
ATOM      7  C   UNL d   1      -1.392   2.651  -0.078  0.00  0.00     0.070 C 
ENDROOT
BRANCH   3   8
ATOM      8  C   UNL d   1      -0.622  -2.341  -0.436  0.00  0.00     0.241 C 
ATOM      9  O   UNL d   1      -1.738  -2.845  -0.524  0.00  0.00    -0.278 OA
BRANCH   8  10
ATOM     10  S   UNL d   1       0.823  -3.342  -0.492  0.00  0.00    -0.046 SA
BRANCH  10  11
ATOM     11  C   UNL d   1       1.330  -3.306  -2.206  0.00  0.00     0.010 A 
ATOM     12  C   UNL d   1       1.255  -2.178  -3.031  0.00  0.00     0.038 A 
ATOM     13  C   UNL d   1       1.798  -2.211  -4.320  0.00  0.00     0.012 A 
ATOM     14 BR   UNL d   1       1.727  -0.662  -5.404  0.00  0.00    -0.051 Br
ATOM     15  C   UNL d   1       2.411  -3.363  -4.808  0.00  0.00     0.019 A 
ATOM     16  C   UNL d   1       2.479  -4.494  -4.004  0.00  0.00     0.003 A 
ATOM     17  C   UNL d   1       1.941  -4.463  -2.711  0.00  0.00     0.019 A 
ENDBRANCH  10  11
ENDBRANCH   8  10
ENDBRANCH   3   8
BRANCH   4  18
ATOM     18  C   UNL d   1       1.760   1.894   0.022  0.00  0.00     0.043 C 
ATOM     19  C   UNL d   1       2.003   2.502  -1.370  0.00  0.00     0.039 C 
ATOM     20  C   UNL d   1       1.614   3.003   1.083  0.00  0.00     0.039 C 
ATOM     21  C   UNL d   1       3.034   1.096   0.416  0.00  0.00     0.039 C 
ENDBRANCH   4  18
TORSDOF 4
