REMARK  4 active torsions:
REMARK  status: ('A' for Active; 'I' for Inactive)
REMARK    1  A    between atoms: N_5  and  C_1 
REMARK    2  A    between atoms: O_8  and  C_2 
REMARK    3  A    between atoms: N_9  and  N_5 
REMARK    4  A    between atoms: C_12  and  O_8 
ROOT
ATOM      1  C   UNL d   1       0.652  -1.515  -0.002  0.00  0.00     0.115 A 
ATOM      2  C   UNL d   1      -0.714  -1.460  -0.104  0.00  0.00     0.149 A 
ATOM      3  C   UNL d   1       0.796  -0.070  -0.282  0.00  0.00     0.249 A 
ATOM      4  C   UNL d   1      -0.682  -0.004  -0.360  0.00  0.00     0.258 A 
ATOM      5  O   UNL d   1       1.647   0.785  -0.338  0.00  0.00    -0.282 OA
ATOM      6  O   UNL d   1      -1.460   0.906  -0.517  0.00  0.00    -0.281 OA
ENDROOT
BRANCH   1   7
ATOM      7  N   UNL d   1       1.587  -2.420   0.226  0.00  0.00    -0.219 NA
ATOM      8  H   UNL d   1       1.319  -3.159   0.888  0.00  0.00     0.147 HD
BRANCH   7   9
ATOM      9  N   UNL d   1       2.123  -2.986  -0.977  0.00  0.00    -0.256 NA
ATOM     10  C   UNL d   1       3.555  -2.678  -1.052  0.00  0.00     0.130 C 
ATOM     11  C   UNL d   1       1.916  -4.441  -0.969  0.00  0.00     0.130 C 
ENDBRANCH   7   9
ENDBRANCH   1   7
BRANCH   2  12
ATOM     12  O   UNL d   1      -1.627  -2.364  -0.014  0.00  0.00    -0.346 OA
BRANCH  12  13
ATOM     13  C   UNL d   1      -2.860  -1.955  -0.607  0.00  0.00     0.171 C 
ATOM     14  C   UNL d   1      -3.855  -3.095  -0.482  0.00  0.00     0.034 C 
ENDBRANCH  12  13
ENDBRANCH   2  12
TORSDOF 4
