REMARK  0 active torsions:
REMARK  status: ('A' for Active; 'I' for Inactive)
ROOT
ATOM      1  N   UNL d   1      -0.001  -2.353   0.010  0.00  0.00    -0.355 N 
ATOM      2  C   UNL d   1      -0.715  -0.244  -0.020  0.00  0.00     0.005 A 
ATOM      3  C   UNL d   1       0.716  -0.244  -0.022  0.00  0.00     0.005 A 
ATOM      4  C   UNL d   1      -1.134  -1.574   0.007  0.00  0.00     0.043 A 
ATOM      5  C   UNL d   1       1.134  -1.575  -0.000  0.00  0.00     0.043 A 
ATOM      6  C   UNL d   1      -1.693   0.772  -0.031  0.00  0.00     0.038 A 
ATOM      7  C   UNL d   1       1.694   0.771  -0.033  0.00  0.00     0.038 A 
ATOM      8  C   UNL d   1       2.483  -1.948   0.010  0.00  0.00     0.032 A 
ATOM      9  C   UNL d   1      -2.484  -1.946   0.029  0.00  0.00     0.032 A 
ATOM     10  C   UNL d   1       3.045   0.412  -0.017  0.00  0.00     0.035 A 
ATOM     11  C   UNL d   1      -3.044   0.414  -0.008  0.00  0.00     0.035 A 
ATOM     12  C   UNL d   1      -3.435  -0.921   0.023  0.00  0.00     0.026 A 
ATOM     13  C   UNL d   1       3.436  -0.924   0.004  0.00  0.00     0.026 A 
ATOM     14 CL   UNL d   1       4.246   1.647  -0.019  0.00  0.00    -0.084 Cl
ATOM     15 CL   UNL d   1      -4.244   1.650  -0.014  0.00  0.00    -0.084 Cl
ATOM     16  H   UNL d   1      -0.001  -3.363   0.026  0.00  0.00     0.166 HD
ENDROOT
TORSDOF 0
