REMARK  7 active torsions:
REMARK  status: ('A' for Active; 'I' for Inactive)
REMARK    1  A    between atoms: C_2  and  C_1 
REMARK       I    between atoms: N_3  and  C_2 
REMARK    2  A    between atoms: C_12  and  N_3 
REMARK    3  A    between atoms: C_4  and  C_5 
REMARK    4  A    between atoms: O_14  and  C_4 
REMARK    5  A    between atoms: C_5  and  O_6 
REMARK    6  A    between atoms: O_6  and  C_13 
REMARK    7  A    between atoms: C_20  and  O_14 
ROOT
ATOM      1  C   UNL d   1      -0.615   2.305  -0.580  0.00  0.00     0.035 A 
ATOM      2  C   UNL d   1      -1.531   3.024  -3.146  0.00  0.00     0.070 A 
ATOM      3  C   UNL d   1      -1.044   1.334  -1.485  0.00  0.00     0.032 A 
ATOM      4  C   UNL d   1      -0.716   3.653  -0.945  0.00  0.00     0.032 A 
ATOM      5  C   UNL d   1      -1.171   4.007  -2.223  0.00  0.00     0.039 A 
ATOM      6  C   UNL d   1      -1.502   1.689  -2.758  0.00  0.00     0.039 A 
ENDROOT
BRANCH   1   7
ATOM      7  N   UNL d   1      -0.086   1.998   0.693  0.00  0.00    -0.323 N 
ATOM      8  C   UNL d   1       0.351   0.748   1.132  0.00  0.00     0.277 C 
ATOM      9  O   UNL d   1       0.362  -0.258   0.412  0.00  0.00    -0.268 OA
ATOM     10  H   UNL d   1       0.083   2.788   1.311  0.00  0.00     0.169 HD
BRANCH   8  11
ATOM     11  C   UNL d   1       0.869   0.676   2.592  0.00  0.00     0.269 C 
ATOM     12 CL   UNL d   1       0.778   2.261   3.416  0.00  0.00    -0.073 Cl
ATOM     13 CL   UNL d   1       2.572   0.142   2.557  0.00  0.00    -0.073 Cl
ATOM     14 CL   UNL d   1      -0.131  -0.504   3.480  0.00  0.00    -0.073 Cl
ENDBRANCH   8  11
ENDBRANCH   1   7
BRANCH   2  15
ATOM     15  O   UNL d   1      -1.934   3.465  -4.376  0.00  0.00    -0.336 OA
BRANCH  15  16
ATOM     16  C   UNL d   1      -1.608   2.618  -5.484  0.00  0.00     0.224 C 
ATOM     17  C   UNL d   1      -1.365   3.538  -6.679  0.00  0.00     0.051 C 
BRANCH  16  18
ATOM     18  C   UNL d   1      -2.712   1.615  -5.852  0.00  0.00     0.288 C 
ATOM     19  O   UNL d   1      -3.799   1.515  -5.299  0.00  0.00    -0.262 OA
BRANCH  18  20
ATOM     20  O   UNL d   1      -2.281   0.808  -6.868  0.00  0.00    -0.320 OA
BRANCH  20  21
ATOM     21  C   UNL d   1      -3.211  -0.183  -7.329  0.00  0.00     0.174 C 
ATOM     22  C   UNL d   1      -3.063  -1.457  -6.520  0.00  0.00     0.034 C 
ENDBRANCH  20  21
ENDBRANCH  18  20
ENDBRANCH  16  18
ENDBRANCH  15  16
ENDBRANCH   2  15
TORSDOF 7
