REMARK  6 active torsions:
REMARK  status: ('A' for Active; 'I' for Inactive)
REMARK    1  A    between atoms: C_7  and  C_1 
REMARK    2  A    between atoms: N_17  and  C_3 
REMARK    3  A    between atoms: C_12  and  C_6 
REMARK       I    between atoms: N_10  and  C_7 
REMARK    4  A    between atoms: C_13  and  N_10 
REMARK    5  A    between atoms: C_29  and  C_20 
REMARK    6  A    between atoms: C_28  and  C_21 
ROOT
ATOM      1  C   UNL d   1      -3.638  -0.115   0.563  0.00  0.00     0.102 C 
ATOM      2  C   UNL d   1      -1.379   0.607   0.506  0.00  0.00     0.038 A 
ATOM      3  C   UNL d   1      -2.751   0.909   0.867  0.00  0.00     0.062 C 
ATOM      4  C   UNL d   1      -1.282  -0.765   0.304  0.00  0.00     0.088 A 
ATOM      5  S   UNL d   1      -2.784  -1.564   0.269  0.00  0.00    -0.064 SA
ATOM      6  C   UNL d   1      -0.159   1.348   0.350  0.00  0.00     0.004 A 
ATOM      7  N   UNL d   1      -0.165  -1.484   0.110  0.00  0.00    -0.353 N 
ATOM      8  HN  UNL d   1      -0.183  -2.497  -0.015  1.00  0.00     0.166 HD
ATOM      9  C   UNL d   1       1.048   0.619   0.154  0.00  0.00    -0.023 A 
ATOM     10  C   UNL d   1       0.980  -0.780   0.090  0.00  0.00     0.017 A 
ATOM     11  C   UNL d   1       2.397   1.307   0.070  0.00  0.00     0.041 C 
ATOM     12  C   UNL d   1       2.217  -1.630  -0.082  0.00  0.00     0.057 C 
ATOM     13  C   UNL d   1       3.560   0.426  -0.382  0.00  0.00     0.005 C 
ATOM     14  C   UNL d   1       3.501  -0.918   0.320  0.00  0.00     0.006 C 
ENDROOT
BRANCH   1  15
ATOM     15  C   UNL d   1      -5.095  -0.034   0.448  0.00  0.00     0.265 C 
ATOM     16  N   UNL d   1      -5.748  -1.222   0.128  0.00  0.00    -0.321 N 
ATOM     17  H   UNL d   1      -5.297  -2.041   0.515  0.00  0.00     0.169 HD
ATOM     18  O   UNL d   1      -5.702   1.034   0.596  0.00  0.00    -0.267 OA
BRANCH  16  19
ATOM     19  C   UNL d   1      -7.153  -1.265   0.015  0.00  0.00     0.047 A 
ATOM     20  C   UNL d   1      -7.763  -1.028  -1.238  0.00  0.00    -0.031 A 
ATOM     21  C   UNL d   1      -9.172  -1.010  -1.297  0.00  0.00     0.009 A 
ATOM     22  C   UNL d   1      -9.952  -1.249  -0.169  0.00  0.00     0.001 A 
ATOM     23  C   UNL d   1      -9.336  -1.534   1.043  0.00  0.00     0.009 A 
ATOM     24  C   UNL d   1      -7.935  -1.571   1.152  0.00  0.00    -0.031 A 
BRANCH  20  25
ATOM     25  C   UNL d   1      -7.056  -0.756  -2.555  0.00  0.00     0.036 C 
ATOM     26  C   UNL d   1      -5.704  -1.404  -2.823  0.00  0.00     0.010 C 
ENDBRANCH  20  25
BRANCH  24  27
ATOM     27  C   UNL d   1      -7.351  -1.894   2.510  0.00  0.00     0.036 C 
ATOM     28  C   UNL d   1      -7.293  -0.691   3.440  0.00  0.00     0.010 C 
ENDBRANCH  24  27
ENDBRANCH  16  19
ENDBRANCH   1  15
BRANCH   3  29
ATOM     29  N   UNL d   1      -3.171   2.081   1.399  0.00  0.00    -0.397 N 
ATOM     30  H   UNL d   1      -2.607   2.924   1.332  0.00  0.00     0.156 HD
ATOM     31  H   UNL d   1      -4.173   2.284   1.451  0.00  0.00     0.156 HD
ENDBRANCH   3  29
BRANCH   6  32
ATOM     32  C   UNL d   1      -0.200   2.834   0.302  0.00  0.00     0.016 A 
ATOM     33  S   UNL d   1      -1.357   3.637  -0.703  0.00  0.00    -0.101 SA
ATOM     34  C   UNL d   1      -0.817   5.188  -0.238  0.00  0.00     0.050 A 
ATOM     35  C   UNL d   1       0.315   5.120   0.536  0.00  0.00     0.008 A 
ATOM     36  C   UNL d   1       0.649   3.772   0.868  0.00  0.00     0.020 A 
ENDBRANCH   6  32
TORSDOF 6
