REMARK  5 active torsions:
REMARK  status: ('A' for Active; 'I' for Inactive)
REMARK    1  A    between atoms: C_2  and  C_1 
REMARK    2  A    between atoms: C_6  and  C_1 
REMARK    3  A    between atoms: C_12  and  C_6 
REMARK    4  A    between atoms: S_7  and  C_12 
REMARK    5  A    between atoms: C_8  and  S_7 
ROOT
ATOM      1  C   UNL d   1       2.586   0.043   0.029  0.00  0.00     0.094 C 
ENDROOT
BRANCH   1   2
ATOM      2  C   UNL d   1       1.065  -0.010  -0.029  0.00  0.00     0.160 C 
ATOM      3  O   UNL d   1       0.458  -0.240  -1.073  0.00  0.00    -0.292 OA
BRANCH   2   4
ATOM      4  C   UNL d   1       0.291   0.202   1.238  0.00  0.00     0.010 A 
ATOM      5  C   UNL d   1      -1.105   0.076   1.195  0.00  0.00     0.017 A 
ATOM      6  C   UNL d   1      -1.872   0.217   2.358  0.00  0.00     0.025 A 
ATOM      7  C   UNL d   1      -1.241   0.483   3.570  0.00  0.00     0.034 A 
ATOM      8  C   UNL d   1       0.141   0.636   3.624  0.00  0.00     0.025 A 
ATOM      9 CL   UNL d   1      -2.173   0.615   5.010  0.00  0.00    -0.084 Cl
ATOM     10  C   UNL d   1       0.910   0.500   2.459  0.00  0.00     0.017 A 
ENDBRANCH   2   4
ENDBRANCH   1   2
BRANCH   1  11
ATOM     11  C   UNL d   1       3.201  -0.248  -1.339  0.00  0.00     0.087 C 
BRANCH  11  12
ATOM     12  S   UNL d   1       5.026  -0.150  -1.243  0.00  0.00    -0.130 SA
BRANCH  12  13
ATOM     13  C   UNL d   1       5.435  -0.511  -2.944  0.00  0.00     0.000 A 
ATOM     14  C   UNL d   1       5.009   0.321  -3.983  0.00  0.00     0.019 A 
ATOM     15  C   UNL d   1       5.324   0.015  -5.310  0.00  0.00     0.008 A 
ATOM     16  C   UNL d   1       6.081  -1.122  -5.616  0.00  0.00    -0.062 A 
ATOM     17  C   UNL d   1       6.530  -1.939  -4.574  0.00  0.00     0.008 A 
ATOM     18  C   UNL d   1       6.397  -1.447  -7.047  0.00  0.00     0.048 C 
ATOM     19  C   UNL d   1       6.214  -1.632  -3.245  0.00  0.00     0.019 A 
ENDBRANCH  12  13
ENDBRANCH  11  12
ENDBRANCH   1  11
TORSDOF 5
