REMARK  4 active torsions:
REMARK  status: ('A' for Active; 'I' for Inactive)
REMARK    1  A    between atoms: N_2  and  S_1 
REMARK    2  A    between atoms: C_6  and  S_1 
REMARK    3  A    between atoms: C_3  and  N_2 
REMARK    4  A    between atoms: C_15  and  C_11 
ROOT
ATOM      1  N   UNL d   1       0.528  -0.878  -1.439  0.00  0.00    -0.166 NA
ATOM      2  H   UNL d   1       0.975  -0.491  -0.614  0.00  0.00     0.147 HD
ENDROOT
BRANCH   1   3
ATOM      3  S   UNL d   1       0.599  -2.551  -1.419  0.00  0.00     0.247 S 
ATOM      4  O   UNL d   1       0.961  -2.897  -0.056  0.00  0.00    -0.205 OA
ATOM      5  O   UNL d   1       1.387  -3.044  -2.528  0.00  0.00    -0.205 OA
BRANCH   3   6
ATOM      6  C   UNL d   1      -1.093  -3.032  -1.650  0.00  0.00     0.074 A 
ATOM      7  C   UNL d   1      -1.570  -3.289  -2.938  0.00  0.00     0.025 A 
ATOM      8  C   UNL d   1      -2.886  -3.723  -3.108  0.00  0.00     0.002 A 
ATOM      9  C   UNL d   1      -3.713  -3.906  -1.998  0.00  0.00     0.000 A 
ATOM     10  C   UNL d   1      -3.228  -3.662  -0.712  0.00  0.00     0.002 A 
ATOM     11  C   UNL d   1      -1.913  -3.230  -0.534  0.00  0.00     0.025 A 
ENDBRANCH   3   6
ENDBRANCH   1   3
BRANCH   1  12
ATOM     12  C   UNL d   1       0.833  -0.255  -2.662  0.00  0.00     0.094 A 
ATOM     13  N   UNL d   1      -0.212  -0.070  -3.483  0.00  0.00    -0.356 N 
ATOM     14  C   UNL d   1       0.054   0.561  -4.648  0.00  0.00     0.090 A 
ATOM     15  HN  UNL d   1      -1.152  -0.386  -3.242  1.00  0.00     0.166 HD
ATOM     16  C   UNL d   1       1.317   0.998  -5.026  0.00  0.00     0.024 A 
ATOM     17  C   UNL d   1       2.389   0.780  -4.158  0.00  0.00    -0.054 A 
ATOM     18  C   UNL d   1       2.137   0.122  -2.952  0.00  0.00     0.050 A 
BRANCH  17  19
ATOM     19  C   UNL d   1       3.782   1.235  -4.508  0.00  0.00     0.034 C 
ATOM     20  C   UNL d   1       4.567   0.181  -5.272  0.00  0.00     0.010 C 
ENDBRANCH  17  19
ENDBRANCH   1  12
TORSDOF 4
