REMARK  6 active torsions:
REMARK  status: ('A' for Active; 'I' for Inactive)
REMARK       I    between atoms: N_2  and  C_1 
REMARK       I    between atoms: N_4  and  C_1 
REMARK    1  A    between atoms: C_5  and  N_2 
REMARK    2  A    between atoms: C_11  and  N_4 
REMARK    3  A    between atoms: C_16  and  N_4 
REMARK    4  A    between atoms: C_12  and  C_11 
REMARK    5  A    between atoms: C_13  and  C_12 
REMARK    6  A    between atoms: C_14  and  C_16 
ROOT
ATOM      1  N   UNL d   1      -1.044  -0.059   3.873  0.00  0.00    -0.197 NA
ATOM      2  C   UNL d   1      -1.436  -0.028   2.775  0.00  0.00     0.060 C 
ATOM      3  C   UNL d   1      -1.915   0.050   1.377  0.00  0.00     0.144 C 
ENDROOT
BRANCH   3   4
ATOM      4  C   UNL d   1      -1.221   1.181   0.593  0.00  0.00     0.141 C 
BRANCH   4   5
ATOM      5  N   UNL d   1       0.246   1.077   0.543  0.00  0.00    -0.333 N 
ATOM      6  C   UNL d   1       0.784   0.040  -0.223  0.00  0.00     0.323 C 
ATOM      7  N   UNL d   1       2.151  -0.093  -0.119  0.00  0.00    -0.307 N 
ATOM      8  O   UNL d   1       0.065  -0.718  -0.870  0.00  0.00    -0.247 OA
ATOM      9  H   UNL d   1       2.522   0.133   0.796  0.00  0.00     0.170 HD
BRANCH   7  10
ATOM     10  C   UNL d   1       2.909  -1.040  -0.850  0.00  0.00     0.058 A 
ATOM     11  C   UNL d   1       3.985  -1.694  -0.229  0.00  0.00     0.060 A 
ATOM     12 CL   UNL d   1       4.385  -1.376   1.425  0.00  0.00    -0.082 Cl
ATOM     13  C   UNL d   1       4.726  -2.658  -0.918  0.00  0.00     0.026 A 
ATOM     14  C   UNL d   1       4.425  -2.946  -2.249  0.00  0.00     0.002 A 
ATOM     15  C   UNL d   1       3.387  -2.269  -2.888  0.00  0.00     0.002 A 
ATOM     16  C   UNL d   1       2.627  -1.325  -2.190  0.00  0.00     0.031 A 
ENDBRANCH   7  10
BRANCH   5  17
ATOM     17  C   UNL d   1       1.008   2.300   0.860  0.00  0.00     0.133 C 
BRANCH  17  18
ATOM     18  C   UNL d   1       1.019   2.646   2.355  0.00  0.00     0.077 C 
BRANCH  18  19
ATOM     19  C   UNL d   1       1.842   3.879   2.649  0.00  0.00     0.010 A 
ATOM     20  N   UNL d   1       1.963   4.804   1.665  0.00  0.00    -0.369 N 
ATOM     21  C   UNL d   1       2.682   5.917   1.934  0.00  0.00     0.088 A 
ATOM     22  HN  UNL d   1       1.526   4.665   0.754  1.00  0.00     0.165 HD
ATOM     23  C   UNL d   1       3.284   6.166   3.153  0.00  0.00     0.017 A 
ATOM     24  C   UNL d   1       3.136   5.221   4.160  0.00  0.00     0.003 A 
ATOM     25  C   UNL d   1       2.402   4.063   3.911  0.00  0.00     0.025 A 
ENDBRANCH  18  19
ENDBRANCH  17  18
ENDBRANCH   5  17
ENDBRANCH   4   5
ENDBRANCH   3   4
TORSDOF 6
