REMARK  5 active torsions:
REMARK  status: ('A' for Active; 'I' for Inactive)
REMARK    1  A    between atoms: N_2  and  C_4 
REMARK    2  A    between atoms: C_8  and  C_5 
REMARK       I    between atoms: N_12  and  C_8 
REMARK    3  A    between atoms: C_16  and  N_12 
REMARK    4  A    between atoms: C_17  and  C_16 
REMARK    5  A    between atoms: C_18  and  C_17 
ROOT
ATOM      1  N   UNL d   1      -1.574  -1.045   0.019  0.00  0.00    -0.349 N 
ATOM      2  C   UNL d   1      -0.271  -0.604   0.172  0.00  0.00     0.076 A 
ATOM      3  C   UNL d   1       0.952  -1.295   0.312  0.00  0.00     0.130 A 
ATOM      4  C   UNL d   1      -2.456   0.019  -0.042  0.00  0.00     0.102 A 
ATOM      5  C   UNL d   1      -1.683   1.164   0.030  0.00  0.00     0.049 A 
ATOM      6  C   UNL d   1      -0.325   0.790   0.177  0.00  0.00    -0.005 A 
ATOM      7  C   UNL d   1       2.125  -0.528   0.471  0.00  0.00     0.038 A 
ATOM      8  C   UNL d   1       0.862   1.531   0.321  0.00  0.00     0.014 A 
ATOM      9  C   UNL d   1       2.079   0.865   0.474  0.00  0.00     0.003 A 
ATOM     10  H   UNL d   1      -1.856  -2.020  -0.023  0.00  0.00     0.166 HD
ENDROOT
BRANCH   4  11
ATOM     11  C   UNL d   1      -3.893  -0.151  -0.155  0.00  0.00     0.268 C 
ATOM     12  O   UNL d   1      -4.425  -1.255  -0.178  0.00  0.00    -0.266 OA
ATOM     13  N   UNL d   1      -4.604   1.027  -0.226  0.00  0.00    -0.356 N 
ATOM     14  H   UNL d   1      -4.113   1.903  -0.150  0.00  0.00     0.162 HD
BRANCH  13  15
ATOM     15  C   UNL d   1      -6.049   1.081  -0.291  0.00  0.00     0.123 C 
BRANCH  15  16
ATOM     16  C   UNL d   1      -6.702   1.089   1.091  0.00  0.00     0.019 C 
BRANCH  16  17
ATOM     17  C   UNL d   1      -6.324   2.318   1.922  0.00  0.00    -0.003 C 
ATOM     18  C   UNL d   1      -7.010   2.304   3.280  0.00  0.00     0.005 C 
ENDBRANCH  16  17
ENDBRANCH  15  16
ENDBRANCH  13  15
ENDBRANCH   4  11
BRANCH   3  19
ATOM     19  N   UNL d   1       1.066  -2.758   0.304  0.00  0.00    -0.113 N 
ATOM     20  O   UNL d   1       0.018  -3.406   0.156  0.00  0.00    -0.532 OA
ATOM     21  O   UNL d   1       2.190  -3.259   0.441  0.00  0.00    -0.532 OA
ENDBRANCH   3  19
TORSDOF 5
