REMARK  4 active torsions:
REMARK  status: ('A' for Active; 'I' for Inactive)
REMARK    1  A    between atoms: C_2  and  C_1 
REMARK    2  A    between atoms: C_12  and  N_3 
REMARK    3  A    between atoms: C_14  and  C_8 
REMARK    4  A    between atoms: O_20  and  C_17 
ROOT
ATOM      1  C   UNL d   1      -0.162  -1.251  -0.097  0.00  0.00     0.152 C 
ATOM      2  N   UNL d   1       1.068  -0.685   0.186  0.00  0.00    -0.224 N 
ATOM      3  N   UNL d   1       0.879   0.625   0.457  0.00  0.00     0.001 NA
ATOM      4  N   UNL d   1      -0.375   0.878   0.103  0.00  0.00    -0.007 NA
ATOM      5  N   UNL d   1      -1.026  -0.272  -0.272  0.00  0.00    -0.269 N 
ATOM      6  HN  UNL d   1      -1.983  -0.352  -0.615  1.00  0.00     0.185 HD
ENDROOT
BRANCH   1   7
ATOM      7  C   UNL d   1      -0.496  -2.700  -0.092  0.00  0.00     0.056 A 
ATOM      8  C   UNL d   1      -1.421  -3.371  -0.872  0.00  0.00     0.073 A 
ATOM      9  N   UNL d   1      -1.341  -4.677  -0.439  0.00  0.00    -0.299 N 
ATOM     10  N   UNL d   1      -0.425  -4.894   0.518  0.00  0.00    -0.310 N 
ATOM     11  H   UNL d   1      -1.854  -5.475  -0.794  0.00  0.00     0.187 HD
ATOM     12  C   UNL d   1       0.086  -3.685   0.739  0.00  0.00     0.124 A 
ATOM     13  HN  UNL d   1      -0.179  -5.776   0.969  1.00  0.00     0.186 HD
BRANCH   8  14
ATOM     14  C   UNL d   1      -2.240  -2.990  -2.026  0.00  0.00    -0.007 A 
ATOM     15  C   UNL d   1      -1.786  -2.027  -2.938  0.00  0.00     0.014 A 
ATOM     16  C   UNL d   1      -2.525  -1.716  -4.082  0.00  0.00     0.001 A 
ATOM     17  C   UNL d   1      -3.724  -2.372  -4.337  0.00  0.00     0.000 A 
ATOM     18  C   UNL d   1      -4.192  -3.330  -3.441  0.00  0.00     0.001 A 
ATOM     19  C   UNL d   1      -3.458  -3.634  -2.291  0.00  0.00     0.014 A 
ENDBRANCH   8  14
ENDBRANCH   1   7
BRANCH   2  20
ATOM     20  C   UNL d   1       2.359  -1.250   0.073  0.00  0.00     0.056 A 
ATOM     21  C   UNL d   1       2.594  -2.281  -0.849  0.00  0.00     0.034 A 
ATOM     22  C   UNL d   1       3.857  -2.865  -0.945  0.00  0.00     0.039 A 
ATOM     23  C   UNL d   1       4.889  -2.435  -0.113  0.00  0.00     0.068 A 
ATOM     24  C   UNL d   1       4.667  -1.368   0.764  0.00  0.00     0.039 A 
ATOM     25  C   UNL d   1       3.410  -0.762   0.853  0.00  0.00     0.034 A 
BRANCH  23  26
ATOM     26  O   UNL d   1       6.152  -2.958  -0.101  0.00  0.00    -0.356 OA
ATOM     27  C   UNL d   1       6.263  -4.304  -0.554  0.00  0.00     0.210 C 
ENDBRANCH  23  26
ENDBRANCH   2  20
TORSDOF 4
