REMARK  8 active torsions:
REMARK  status: ('A' for Active; 'I' for Inactive)
REMARK    1  A    between atoms: C_2  and  C_1 
REMARK       I    between atoms: N_9  and  C_2 
REMARK    2  A    between atoms: O_13  and  C_3 
REMARK    3  A    between atoms: O_15  and  C_4 
REMARK    4  A    between atoms: O_14  and  C_5 
REMARK    5  A    between atoms: O_16  and  C_6 
REMARK    6  A    between atoms: C_17  and  N_9 
REMARK    7  A    between atoms: C_11  and  C_21 
REMARK    8  A    between atoms: C_21  and  C_17 
ROOT
ATOM      1  C   UNL d   1       2.558  -1.603   1.227  0.00  0.00     0.257 C 
ATOM      2  O   UNL d   1       2.676  -2.188   2.297  0.00  0.00    -0.267 OA
ATOM      3  N   UNL d   1       3.630  -1.365   0.398  0.00  0.00    -0.356 N 
ATOM      4  H   UNL d   1       3.436  -1.054  -0.549  0.00  0.00     0.162 HD
ENDROOT
BRANCH   3   5
ATOM      5  C   UNL d   1       4.984  -1.798   0.718  0.00  0.00     0.127 C 
BRANCH   5   6
ATOM      6  C   UNL d   1       5.162  -3.322   0.697  0.00  0.00     0.058 C 
BRANCH   6   7
ATOM      7  C   UNL d   1       6.588  -3.748   0.959  0.00  0.00    -0.054 A 
ATOM      8  C   UNL d   1       7.476  -3.973  -0.107  0.00  0.00     0.046 A 
ATOM      9  C   UNL d   1       8.802  -4.387   0.112  0.00  0.00     0.102 A 
ATOM     10  C   UNL d   1       9.246  -4.562   1.435  0.00  0.00     0.101 A 
ATOM     11  C   UNL d   1       8.354  -4.339   2.495  0.00  0.00     0.040 A 
ATOM     12  C   UNL d   1       7.039  -3.935   2.265  0.00  0.00     0.010 A 
BRANCH   9  13
ATOM     13  O   UNL d   1       9.679  -4.645  -0.907  0.00  0.00    -0.353 OA
ATOM     14  C   UNL d   1       9.245  -4.448  -2.245  0.00  0.00     0.210 C 
ENDBRANCH   9  13
BRANCH  10  15
ATOM     15  O   UNL d   1      10.483  -4.954   1.881  0.00  0.00    -0.353 OA
ATOM     16  C   UNL d   1      11.547  -5.065   0.949  0.00  0.00     0.210 C 
ENDBRANCH  10  15
ENDBRANCH   6   7
ENDBRANCH   5   6
ENDBRANCH   3   5
BRANCH   1  17
ATOM     17  C   UNL d   1       1.210  -1.203   0.708  0.00  0.00     0.098 A 
ATOM     18  C   UNL d   1       0.234  -0.509   1.454  0.00  0.00     0.086 A 
ATOM     19  C   UNL d   1      -0.993  -0.189   0.832  0.00  0.00     0.038 A 
ATOM     20  C   UNL d   1      -1.275  -0.536  -0.485  0.00  0.00     0.005 A 
ATOM     21  C   UNL d   1      -0.318  -1.213  -1.225  0.00  0.00     0.038 A 
ATOM     22  C   UNL d   1       0.900  -1.561  -0.627  0.00  0.00     0.086 A 
BRANCH  18  23
ATOM     23  O   UNL d   1       0.260   0.038   2.706  0.00  0.00    -0.355 OA
ATOM     24  C   UNL d   1       1.172  -0.405   3.693  0.00  0.00     0.210 C 
ENDBRANCH  18  23
BRANCH  22  25
ATOM     25  O   UNL d   1       1.806  -2.163  -1.468  0.00  0.00    -0.355 OA
ATOM     26  C   UNL d   1       1.885  -3.571  -1.230  0.00  0.00     0.210 C 
ENDBRANCH  22  25
ENDBRANCH   1  17
TORSDOF 8
