REMARK  5 active torsions:
REMARK  status: ('A' for Active; 'I' for Inactive)
REMARK    1  A    between atoms: C_3  and  C_2 
REMARK    2  A    between atoms: C_7  and  C_3 
REMARK    3  A    between atoms: C_5  and  N_8 
REMARK    4  A    between atoms: N_8  and  C_6 
REMARK    5  A    between atoms: O_20  and  C_15 
ROOT
ATOM      1  C   UNL d   1      -4.938  -2.166   0.014  0.00  0.00     0.072 C 
ATOM      2  C   UNL d   1      -3.797  -1.486   0.185  0.00  0.00     0.092 C 
ENDROOT
BRANCH   1   3
ATOM      3  C   UNL d   1      -6.217  -1.413   0.122  0.00  0.00     0.183 C 
ATOM      4  O   UNL d   1      -6.259  -0.189   0.050  0.00  0.00    -0.288 OA
BRANCH   3   5
ATOM      5  C   UNL d   1      -7.478  -2.180   0.283  0.00  0.00     0.014 A 
ATOM      6  C   UNL d   1      -7.535  -3.391   0.983  0.00  0.00     0.018 A 
ATOM      7  C   UNL d   1      -8.760  -4.055   1.135  0.00  0.00     0.037 A 
ATOM      8  C   UNL d   1      -9.927  -3.513   0.591  0.00  0.00     0.068 A 
ATOM      9  C   UNL d   1      -9.872  -2.288  -0.074  0.00  0.00     0.037 A 
ATOM     10  C   UNL d   1      -8.655  -1.623  -0.231  0.00  0.00     0.018 A 
BRANCH   8  11
ATOM     11  O   UNL d   1     -11.173  -4.065   0.693  0.00  0.00    -0.356 OA
ATOM     12  C   UNL d   1     -11.212  -5.484   0.786  0.00  0.00     0.210 C 
ENDBRANCH   8  11
ENDBRANCH   3   5
ENDBRANCH   1   3
BRANCH   2  13
ATOM     13  N   UNL d   1      -2.509  -1.954   0.090  0.00  0.00    -0.364 N 
ATOM     14  H   UNL d   1      -2.371  -2.859  -0.351  0.00  0.00     0.165 HD
BRANCH  13  15
ATOM     15  C   UNL d   1      -1.324  -1.237   0.375  0.00  0.00     0.054 A 
ATOM     16  C   UNL d   1      -0.104  -1.585  -0.240  0.00  0.00     0.062 A 
ATOM     17  C   UNL d   1       1.063  -0.848  -0.014  0.00  0.00     0.050 A 
ATOM     18 CL   UNL d   1      -0.013  -2.941  -1.315  0.00  0.00    -0.082 Cl
ATOM     19  C   UNL d   1       1.024   0.251   0.839  0.00  0.00     0.035 A 
ATOM     20 CL   UNL d   1       2.452   1.168   1.123  0.00  0.00    -0.084 Cl
ATOM     21  C   UNL d   1      -0.163   0.613   1.466  0.00  0.00     0.026 A 
ATOM     22  C   UNL d   1      -1.327  -0.124   1.230  0.00  0.00     0.033 A 
ENDBRANCH  13  15
ENDBRANCH   2  13
TORSDOF 5
