REMARK  3 active torsions:
REMARK  status: ('A' for Active; 'I' for Inactive)
REMARK    1  A    between atoms: C_5  and  C_4 
REMARK    2  A    between atoms: C_7  and  C_6 
REMARK    3  A    between atoms: O_17  and  C_9 
ROOT
ATOM      1  C   UNL d   1       0.448  -0.882  -0.006  0.00  0.00     0.060 A 
ATOM      2  N   UNL d   1      -0.441  -1.888  -0.013  0.00  0.00    -0.351 N 
ATOM      3  HN  UNL d   1      -0.109  -2.852  -0.020  1.00  0.00     0.166 HD
ATOM      4  C   UNL d   1       1.812  -1.171  -0.009  0.00  0.00     0.075 A 
ATOM      5  C   UNL d   1      -1.780  -1.640  -0.008  0.00  0.00     0.119 A 
ATOM      6  C   UNL d   1       0.029   0.470   0.002  0.00  0.00     0.025 A 
ATOM      7  C   UNL d   1      -1.363   0.702   0.002  0.00  0.00     0.080 A 
ATOM      8  C   UNL d   1      -2.271  -0.348  -0.003  0.00  0.00     0.071 A 
ATOM      9  C   UNL d   1       2.764  -0.130  -0.001  0.00  0.00     0.018 A 
ATOM     10  C   UNL d   1       1.006   1.497   0.009  0.00  0.00     0.016 A 
ATOM     11  C   UNL d   1       2.364   1.197   0.008  0.00  0.00     0.002 A 
ENDROOT
BRANCH   4  12
ATOM     12  C   UNL d   1       2.331  -2.587  -0.030  0.00  0.00     0.419 C 
ATOM     13  F   UNL d   1       1.419  -3.593   0.001  0.00  0.00    -0.166 F 
ATOM     14  F   UNL d   1       3.091  -2.822  -1.143  0.00  0.00    -0.166 F 
ATOM     15  F   UNL d   1       3.168  -2.827   1.024  0.00  0.00    -0.166 F 
ENDBRANCH   4  12
BRANCH   5  16
ATOM     16  C   UNL d   1      -2.756  -2.807  -0.010  0.00  0.00     0.432 C 
ATOM     17  F   UNL d   1      -2.164  -4.035  -0.006  0.00  0.00    -0.165 F 
ATOM     18  F   UNL d   1      -3.586  -2.794   1.074  0.00  0.00    -0.165 F 
ATOM     19  F   UNL d   1      -3.579  -2.797  -1.099  0.00  0.00    -0.165 F 
ENDBRANCH   5  16
BRANCH   7  20
ATOM     20  O   UNL d   1      -1.935   1.946   0.007  0.00  0.00    -0.360 OA
ATOM     21  H   UNL d   1      -1.255   2.635   0.005  0.00  0.00     0.217 HD
ENDBRANCH   7  20
TORSDOF 3
