REMARK  7 active torsions:
REMARK  status: ('A' for Active; 'I' for Inactive)
REMARK    1  A    between atoms: N_2  and  C_1 
REMARK    2  A    between atoms: N_4  and  C_1 
REMARK    3  A    between atoms: C_5  and  C_1 
REMARK    4  A    between atoms: C_6  and  C_1 
REMARK       I    between atoms: C_8  and  N_2 
REMARK    5  A    between atoms: C_7  and  C_3 
REMARK    6  A    between atoms: C_9  and  N_4 
REMARK    7  A    between atoms: C_10  and  C_8 
ROOT
ATOM      1  C   UNL d   1       1.213  -0.012   0.087  0.00  0.00     0.306 C 
ENDROOT
BRANCH   1   2
ATOM      2  N   UNL d   1       0.963   0.521  -1.271  0.00  0.00    -0.315 N 
ATOM      3  C   UNL d   1       1.909   0.961  -2.146  0.00  0.00     0.254 C 
ATOM      4  O   UNL d   1       3.111   0.856  -1.944  0.00  0.00    -0.268 OA
ATOM      5  H   UNL d   1      -0.012   0.717  -1.451  0.00  0.00     0.165 HD
BRANCH   3   6
ATOM      6  C   UNL d   1       1.394   1.637  -3.366  0.00  0.00     0.032 A 
ATOM      7  C   UNL d   1       2.162   2.654  -3.938  0.00  0.00     0.017 A 
ATOM      8  C   UNL d   1       1.677   3.363  -5.040  0.00  0.00     0.007 A 
ATOM      9  C   UNL d   1       0.428   3.050  -5.592  0.00  0.00    -0.062 A 
ATOM     10  C   UNL d   1      -0.328   2.019  -5.037  0.00  0.00     0.007 A 
ATOM     11  C   UNL d   1      -0.110   3.858  -6.739  0.00  0.00     0.048 C 
ATOM     12  C   UNL d   1       0.153   1.303  -3.933  0.00  0.00     0.017 A 
ENDBRANCH   3   6
ENDBRANCH   1   2
BRANCH   1  13
ATOM     13  N   UNL d   1       0.484  -1.347   0.046  0.00  0.00    -0.348 N 
ATOM     14  H   UNL d   1      -0.042  -1.471   0.920  0.00  0.00     0.162 HD
BRANCH  13  15
ATOM     15  C   UNL d   1       1.052  -2.543  -0.404  0.00  0.00     0.045 A 
ATOM     16  C   UNL d   1       0.604  -3.787   0.098  0.00  0.00     0.075 A 
ATOM     17  C   UNL d   1       1.151  -4.995  -0.396  0.00  0.00     0.042 A 
ATOM     18  C   UNL d   1       2.117  -4.986  -1.394  0.00  0.00     0.035 A 
ATOM     19  C   UNL d   1       2.538  -3.778  -1.924  0.00  0.00     0.026 A 
ATOM     20 CL   UNL d   1       2.779  -6.462  -1.968  0.00  0.00    -0.084 Cl
ATOM     21  C   UNL d   1       1.989  -2.579  -1.450  0.00  0.00     0.032 A 
BRANCH  16  22
ATOM     22  C   UNL d   1      -0.442  -3.924   1.180  0.00  0.00     0.419 C 
ATOM     23  F   UNL d   1      -0.878  -2.733   1.687  0.00  0.00    -0.166 F 
ATOM     24  F   UNL d   1      -1.559  -4.575   0.751  0.00  0.00    -0.166 F 
ATOM     25  F   UNL d   1       0.012  -4.628   2.255  0.00  0.00    -0.166 F 
ENDBRANCH  16  22
ENDBRANCH  13  15
ENDBRANCH   1  13
BRANCH   1  26
ATOM     26  C   UNL d   1       0.483   0.921   1.120  0.00  0.00     0.441 C 
ATOM     27  F   UNL d   1      -0.740   1.281   0.627  0.00  0.00    -0.166 F 
ATOM     28  F   UNL d   1       0.231   0.273   2.284  0.00  0.00    -0.166 F 
ATOM     29  F   UNL d   1       1.131   2.064   1.404  0.00  0.00    -0.166 F 
ENDBRANCH   1  26
BRANCH   1  30
ATOM     30  C   UNL d   1       2.653  -0.040   0.704  0.00  0.00     0.441 C 
ATOM     31  F   UNL d   1       3.258   1.170   0.675  0.00  0.00    -0.166 F 
ATOM     32  F   UNL d   1       2.600  -0.405   2.016  0.00  0.00    -0.166 F 
ATOM     33  F   UNL d   1       3.491  -0.921   0.117  0.00  0.00    -0.166 F 
ENDBRANCH   1  30
TORSDOF 7
