REMARK  3 active torsions:
REMARK  status: ('A' for Active; 'I' for Inactive)
REMARK    1  A    between atoms: C_10  and  C_2 
REMARK       I    between atoms: N_18  and  C_10 
REMARK    2  A    between atoms: C_13  and  C_17 
REMARK    3  A    between atoms: N_14  and  N_18 
ROOT
ATOM      1  C   UNL d   1      -3.518  -1.425  -0.010  0.00  0.00     0.270 C 
ATOM      2  N   UNL d   1      -3.551  -2.807   0.165  0.00  0.00    -0.266 N 
ATOM      3  O   UNL d   1      -4.519  -0.729  -0.179  0.00  0.00    -0.266 OA
ATOM      4  H   UNL d   1      -2.708  -3.353   0.034  0.00  0.00     0.190 HD
ENDROOT
BRANCH   1   5
ATOM      5  C   UNL d   1      -2.179  -0.746  -0.004  0.00  0.00     0.036 A 
ATOM      6  C   UNL d   1      -0.965  -1.457   0.106  0.00  0.00     0.051 A 
ATOM      7  C   UNL d   1       0.195  -0.652   0.094  0.00  0.00     0.086 A 
ATOM      8  C   UNL d   1       0.149   0.799  -0.017  0.00  0.00     0.085 A 
ATOM      9  N   UNL d   1       1.477  -1.025   0.178  0.00  0.00    -0.240 N 
ATOM     10  N   UNL d   1       1.403   1.262   0.004  0.00  0.00    -0.240 N 
ATOM     11  C   UNL d   1      -1.057   1.505  -0.123  0.00  0.00     0.035 A 
ATOM     12  O   UNL d   1       2.215   0.147   0.122  0.00  0.00    -0.156 OA
ATOM     13  HN  UNL d   1       1.701   2.236  -0.055  1.00  0.00     0.197 HD
ATOM     14  C   UNL d   1      -2.204   0.686  -0.114  0.00  0.00     0.019 A 
ATOM     15  HN  UNL d   1       1.837  -1.975   0.265  1.00  0.00     0.197 HD
ENDBRANCH   1   5
BRANCH   2  16
ATOM     16  N   UNL d   1      -4.692  -3.566   0.010  0.00  0.00    -0.308 N 
ATOM     17  C   UNL d   1      -5.815  -3.074   0.442  0.00  0.00     0.126 C 
ATOM     18  HN  UNL d   1      -4.656  -4.486  -0.430  1.00  0.00     0.186 HD
BRANCH  17  19
ATOM     19  C   UNL d   1      -7.059  -3.766   0.203  0.00  0.00     0.021 A 
ATOM     20  S   UNL d   1      -8.516  -3.088   0.789  0.00  0.00    -0.101 SA
ATOM     21  C   UNL d   1      -9.451  -4.350   0.112  0.00  0.00     0.050 A 
ATOM     22  C   UNL d   1      -8.669  -5.279  -0.538  0.00  0.00     0.008 A 
ATOM     23  C   UNL d   1      -7.285  -4.943  -0.481  0.00  0.00     0.021 A 
ENDBRANCH  17  19
ENDBRANCH   2  16
TORSDOF 3
