REMARK  6 active torsions:
REMARK  status: ('A' for Active; 'I' for Inactive)
REMARK    1  A    between atoms: N_3  and  C_1 
REMARK    2  A    between atoms: N_5  and  C_1 
REMARK       I    between atoms: C_2  and  N_4 
REMARK    3  A    between atoms: O_9  and  C_2 
REMARK    4  A    between atoms: N_4  and  N_3 
REMARK    5  A    between atoms: C_8  and  N_5 
REMARK    6  A    between atoms: C_16  and  O_9 
ROOT
ATOM      1  C   UNL d   1       0.863  -0.019  -0.142  0.00  0.00     0.191 C 
ATOM      2  S   UNL d   1       2.524   0.093  -0.012  0.00  0.00    -0.039 SA
ENDROOT
BRANCH   1   3
ATOM      3  N   UNL d   1       0.186  -0.495  -1.235  0.00  0.00    -0.272 N 
ATOM      4  H   UNL d   1      -0.791  -0.234  -1.370  0.00  0.00     0.189 HD
BRANCH   3   5
ATOM      5  N   UNL d   1       0.801  -1.087  -2.342  0.00  0.00    -0.243 N 
ATOM      6  C   UNL d   1      -0.050  -1.604  -3.287  0.00  0.00     0.379 C 
ATOM      7  O   UNL d   1      -1.233  -1.290  -3.379  0.00  0.00    -0.237 OA
ATOM      8  H   UNL d   1       1.692  -1.551  -2.195  0.00  0.00     0.192 HD
BRANCH   6   9
ATOM      9  O   UNL d   1       0.572  -2.557  -4.022  0.00  0.00    -0.303 OA
BRANCH   9  10
ATOM     10  C   UNL d   1      -0.295  -3.299  -4.893  0.00  0.00     0.176 C 
ATOM     11  C   UNL d   1      -0.979  -4.412  -4.117  0.00  0.00     0.034 C 
ENDBRANCH   9  10
ENDBRANCH   6   9
ENDBRANCH   3   5
ENDBRANCH   1   3
BRANCH   1  12
ATOM     12  N   UNL d   1       0.069   0.432   0.886  0.00  0.00    -0.332 N 
ATOM     13  H   UNL d   1       0.524   1.078   1.523  0.00  0.00     0.168 HD
BRANCH  12  14
ATOM     14  C   UNL d   1      -1.221  -0.014   1.248  0.00  0.00     0.034 A 
ATOM     15  C   UNL d   1      -1.715  -1.272   0.879  0.00  0.00     0.031 A 
ATOM     16  C   UNL d   1      -2.978  -1.693   1.301  0.00  0.00     0.026 A 
ATOM     17  C   UNL d   1      -3.753  -0.853   2.092  0.00  0.00     0.034 A 
ATOM     18  C   UNL d   1      -3.270   0.396   2.476  0.00  0.00     0.026 A 
ATOM     19 CL   UNL d   1      -5.309  -1.371   2.616  0.00  0.00    -0.084 Cl
ATOM     20  C   UNL d   1      -1.998   0.808   2.068  0.00  0.00     0.031 A 
ENDBRANCH  12  14
ENDBRANCH   1  12
TORSDOF 6
