REMARK  3 active torsions:
REMARK  status: ('A' for Active; 'I' for Inactive)
REMARK    1  A    between atoms: C_8  and  C_5 
REMARK    2  A    between atoms: C_10  and  C_8 
REMARK    3  A    between atoms: S_9  and  C_10 
ROOT
ATOM      1  N   UNL d   1      -2.026  -1.071  -1.933  0.00  0.00    -0.278 N 
ATOM      2  C   UNL d   1      -2.010   0.087  -1.237  0.00  0.00     0.323 A 
ATOM      3  C   UNL d   1      -1.246  -2.006  -1.331  0.00  0.00     0.248 A 
ATOM      4  N   UNL d   1      -1.251  -0.095  -0.106  0.00  0.00    -0.329 N 
ATOM      5  C   UNL d   1      -0.704  -1.431  -0.018  0.00  0.00     0.179 A 
ATOM      6  O   UNL d   1      -2.552   1.129  -1.557  0.00  0.00    -0.247 OA
ATOM      7  O   UNL d   1      -1.016  -3.120  -1.776  0.00  0.00    -0.271 OA
ATOM      8  H   UNL d   1      -2.485  -1.188  -2.819  0.00  0.00     0.173 HD
ATOM      9  H   UNL d   1      -1.074   0.671   0.532  0.00  0.00     0.165 HD
ENDROOT
BRANCH   5  10
ATOM     10  C   UNL d   1      -1.216  -2.159   1.220  0.00  0.00     0.045 C 
BRANCH  10  11
ATOM     11  C   UNL d   1      -0.713  -3.599   1.298  0.00  0.00     0.076 C 
BRANCH  11  12
ATOM     12  S   UNL d   1      -1.259  -4.362   2.859  0.00  0.00    -0.173 SA
ATOM     13  C   UNL d   1      -0.681  -6.048   2.547  0.00  0.00     0.089 C 
ENDBRANCH  11  12
ENDBRANCH  10  11
ENDBRANCH   5  10
TORSDOF 3
