REMARK  4 active torsions:
REMARK  status: ('A' for Active; 'I' for Inactive)
REMARK    1  A    between atoms: C_6  and  C_1 
REMARK    2  A    between atoms: N_14  and  C_2 
REMARK       I    between atoms: N_10  and  C_6 
REMARK    3  A    between atoms: C_15  and  N_10 
REMARK    4  A    between atoms: S_18  and  C_17 
ROOT
ATOM      1  C   UNL d   1       2.466   0.076   0.280  0.00  0.00     0.102 A 
ATOM      2  C   UNL d   1       1.613   1.161   0.123  0.00  0.00     0.062 A 
ATOM      3  C   UNL d   1       0.211   0.813   0.164  0.00  0.00     0.032 A 
ATOM      4  S   UNL d   1       1.587  -1.364   0.532  0.00  0.00    -0.064 SA
ATOM      5  C   UNL d   1       0.098  -0.568   0.334  0.00  0.00     0.088 A 
ATOM      6  N   UNL d   1      -1.030  -1.306   0.347  0.00  0.00    -0.354 N 
ATOM      7  HN  UNL d   1      -1.024  -2.316   0.493  1.00  0.00     0.166 HD
ATOM      8  C   UNL d   1      -1.015   1.531   0.039  0.00  0.00    -0.045 A 
ATOM      9  C   UNL d   1      -2.203   0.769   0.023  0.00  0.00     0.032 A 
ATOM     10  C   UNL d   1      -2.161  -0.610   0.153  0.00  0.00     0.006 A 
ATOM     11  C   UNL d   1      -1.187   3.021  -0.090  0.00  0.00     0.049 C 
ATOM     12  C   UNL d   1      -3.435  -1.401   0.072  0.00  0.00     0.068 C 
ENDROOT
BRANCH   1  13
ATOM     13  C   UNL d   1       3.927   0.092   0.231  0.00  0.00     0.265 C 
ATOM     14  N   UNL d   1       4.553  -1.151   0.269  0.00  0.00    -0.322 N 
ATOM     15  H   UNL d   1       3.937  -1.954   0.271  0.00  0.00     0.169 HD
ATOM     16  O   UNL d   1       4.540   1.155   0.108  0.00  0.00    -0.267 OA
BRANCH  14  17
ATOM     17  C   UNL d   1       5.935  -1.401   0.116  0.00  0.00     0.036 A 
ATOM     18  C   UNL d   1       6.907  -0.398   0.187  0.00  0.00     0.048 A 
ATOM     19  C   UNL d   1       8.253  -0.663  -0.084  0.00  0.00     0.002 A 
ATOM     20  C   UNL d   1       8.634  -1.976  -0.373  0.00  0.00     0.018 A 
ATOM     21  C   UNL d   1       7.684  -2.998  -0.394  0.00  0.00     0.004 A 
ATOM     22  C   UNL d   1       6.338  -2.712  -0.147  0.00  0.00     0.029 A 
BRANCH  19  23
ATOM     23  S   UNL d   1       9.517   0.603  -0.051  0.00  0.00    -0.134 SA
ATOM     24  C   UNL d   1       8.585   2.076  -0.572  0.00  0.00     0.095 C 
ENDBRANCH  19  23
ENDBRANCH  14  17
ENDBRANCH   1  13
BRANCH   2  25
ATOM     25  N   UNL d   1       2.109   2.400  -0.093  0.00  0.00    -0.397 N 
ATOM     26  H   UNL d   1       3.122   2.552  -0.120  0.00  0.00     0.156 HD
ATOM     27  H   UNL d   1       1.577   3.255  -0.143  0.00  0.00     0.156 HD
ENDBRANCH   2  25
TORSDOF 4
