REMARK  5 active torsions:
REMARK  status: ('A' for Active; 'I' for Inactive)
REMARK    1  A    between atoms: C_12  and  C_1 
REMARK    2  A    between atoms: S_14  and  C_5 
REMARK    3  A    between atoms: C_8  and  C_9 
REMARK    4  A    between atoms: C_20  and  S_14 
REMARK    5  A    between atoms: C_21  and  C_20 
ROOT
ATOM      1  C   UNL d   1      -0.305  -1.008  -0.064  0.00  0.00     0.192 A 
ATOM      2  O   UNL d   1      -1.092   0.078  -0.374  0.00  0.00    -0.266 OA
ATOM      3  N   UNL d   1       0.845  -0.658   0.479  0.00  0.00    -0.275 N 
ATOM      4  HN  UNL d   1       1.582  -1.284   0.803  1.00  0.00     0.189 HD
ATOM      5  C   UNL d   1      -0.293   1.123   0.013  0.00  0.00     0.204 A 
ATOM      6  N   UNL d   1       0.854   0.717   0.521  0.00  0.00    -0.272 N 
ATOM      7  HN  UNL d   1       1.604   1.309   0.877  1.00  0.00     0.189 HD
ENDROOT
BRANCH   1   8
ATOM      8  C   UNL d   1      -0.805  -2.346  -0.365  0.00  0.00     0.085 A 
ATOM      9  N   UNL d   1      -2.026  -2.444  -0.951  0.00  0.00    -0.362 N 
ATOM     10  C   UNL d   1      -2.486  -3.690  -1.233  0.00  0.00     0.104 A 
ATOM     11  HN  UNL d   1      -2.576  -1.614  -1.170  1.00  0.00     0.165 HD
ATOM     12  C   UNL d   1      -1.791  -4.860  -0.958  0.00  0.00     0.063 A 
ATOM     13  C   UNL d   1      -0.536  -4.736  -0.358  0.00  0.00     0.020 A 
ATOM     14  C   UNL d   1      -0.036  -3.468  -0.059  0.00  0.00     0.035 A 
BRANCH  12  15
ATOM     15  C   UNL d   1      -2.371  -6.202  -1.288  0.00  0.00     0.418 C 
ATOM     16  F   UNL d   1      -3.594  -6.137  -1.883  0.00  0.00    -0.166 F 
ATOM     17  F   UNL d   1      -1.581  -6.917  -2.136  0.00  0.00    -0.166 F 
ATOM     18  F   UNL d   1      -2.534  -6.981  -0.184  0.00  0.00    -0.166 F 
ENDBRANCH  12  15
ENDBRANCH   1   8
BRANCH   5  19
ATOM     19  S   UNL d   1      -0.682   2.802  -0.186  0.00  0.00    -0.080 SA
BRANCH  19  20
ATOM     20  C   UNL d   1      -2.488   2.783  -0.053  0.00  0.00     0.121 C 
BRANCH  20  21
ATOM     21  C   UNL d   1      -3.044   4.189  -0.087  0.00  0.00    -0.048 A 
ATOM     22  C   UNL d   1      -3.354   4.805  -1.308  0.00  0.00     0.008 A 
ATOM     23  C   UNL d   1      -3.830   6.120  -1.343  0.00  0.00     0.007 A 
ATOM     24  C   UNL d   1      -4.001   6.848  -0.160  0.00  0.00    -0.062 A 
ATOM     25  C   UNL d   1      -3.688   6.239   1.060  0.00  0.00     0.007 A 
ATOM     26  C   UNL d   1      -4.503   8.261  -0.215  0.00  0.00     0.048 C 
ATOM     27  C   UNL d   1      -3.212   4.924   1.096  0.00  0.00     0.008 A 
ENDBRANCH  20  21
ENDBRANCH  19  20
ENDBRANCH   5  19
TORSDOF 5
