REMARK  8 active torsions:
REMARK  status: ('A' for Active; 'I' for Inactive)
REMARK    1  A    between atoms: C_14  and  C_1 
REMARK    2  A    between atoms: C_13  and  C_2 
REMARK    3  A    between atoms: C_7  and  C_3 
REMARK    4  A    between atoms: C_4  and  O_18 
REMARK    5  A    between atoms: C_5  and  C_12 
REMARK    6  A    between atoms: C_25  and  N_6 
REMARK    7  A    between atoms: O_18  and  C_7 
REMARK       I    between atoms: C_12  and  N_24 
REMARK    8  A    between atoms: N_24  and  C_34 
ROOT
ATOM      1  C   UNL d   1      -1.415  -3.485  -0.212  0.00  0.00     0.175 C 
ATOM      2  N   UNL d   1      -2.380  -4.145   0.562  0.00  0.00    -0.234 N 
ATOM      3  N   UNL d   1      -3.607  -3.567   0.418  0.00  0.00    -0.296 N 
ATOM      4  HN  UNL d   1      -4.504  -3.916   0.756  1.00  0.00     0.187 HD
ATOM      5  C   UNL d   1      -2.096  -2.453  -0.831  0.00  0.00     0.084 C 
ATOM      6  C   UNL d   1      -3.375  -2.446  -0.262  0.00  0.00     0.026 C 
ATOM      7  C   UNL d   1      -4.358  -1.341  -0.275  0.00  0.00     0.070 C 
ENDROOT
BRANCH   2   8
ATOM      8  C   UNL d   1      -2.249  -5.153   1.562  0.00  0.00     0.059 A 
ATOM      9  C   UNL d   1      -1.069  -5.314   2.290  0.00  0.00     0.034 A 
ATOM     10  C   UNL d   1      -1.049  -6.165   3.408  0.00  0.00     0.032 A 
ATOM     11  C   UNL d   1      -2.188  -6.875   3.796  0.00  0.00     0.035 A 
ATOM     12  C   UNL d   1      -3.354  -6.750   3.033  0.00  0.00     0.032 A 
ATOM     13  C   UNL d   1      -3.386  -5.895   1.927  0.00  0.00     0.034 A 
BRANCH  11  14
ATOM     14  N   UNL d   1      -2.251  -7.668   4.961  0.00  0.00    -0.323 N 
ATOM     15  C   UNL d   1      -1.186  -8.167   5.683  0.00  0.00     0.261 C 
ATOM     16  O   UNL d   1      -0.007  -8.111   5.375  0.00  0.00    -0.267 OA
ATOM     17  H   UNL d   1      -3.169  -8.015   5.213  0.00  0.00     0.169 HD
BRANCH  15  18
ATOM     18  C   UNL d   1      -1.614  -8.871   6.877  0.00  0.00     0.093 A 
ATOM     19  C   UNL d   1      -1.416 -10.235   7.255  0.00  0.00     0.086 A 
ATOM     20  N   UNL d   1      -2.003 -10.474   8.440  0.00  0.00    -0.259 N 
ATOM     21  O   UNL d   1      -2.514  -9.273   8.877  0.00  0.00    -0.241 OA
ATOM     22  HN  UNL d   1      -2.060 -11.371   8.922  1.00  0.00     0.195 HD
ATOM     23  C   UNL d   1      -2.283  -8.314   7.947  0.00  0.00     0.090 A 
ATOM     24  C   UNL d   1      -2.747  -6.952   8.279  0.00  0.00     0.080 C 
BRANCH  19  25
ATOM     25  C   UNL d   1      -0.744 -11.312   6.521  0.00  0.00     0.037 A 
ATOM     26  C   UNL d   1       0.292 -12.064   7.115  0.00  0.00     0.048 A 
ATOM     27 CL   UNL d   1       0.866 -11.783   8.727  0.00  0.00    -0.083 Cl
ATOM     28  C   UNL d   1       0.934 -13.091   6.408  0.00  0.00     0.025 A 
ATOM     29  C   UNL d   1       0.580 -13.371   5.092  0.00  0.00     0.003 A 
ATOM     30  C   UNL d   1      -0.444 -12.648   4.492  0.00  0.00     0.025 A 
ATOM     31  C   UNL d   1      -1.119 -11.647   5.205  0.00  0.00     0.048 A 
ATOM     32 CL   UNL d   1      -2.478 -10.934   4.396  0.00  0.00    -0.083 Cl
ENDBRANCH  19  25
ENDBRANCH  15  18
ENDBRANCH  11  14
ENDBRANCH   2   8
BRANCH   1  33
ATOM     33  O   UNL d   1      -0.131  -3.844  -0.220  0.00  0.00    -0.255 OA
BRANCH  33  34
ATOM     34  C   UNL d   1       0.798  -2.998  -0.762  0.00  0.00     0.304 C 
ATOM     35  O   UNL d   1       0.576  -2.005  -1.446  0.00  0.00    -0.259 OA
BRANCH  34  36
ATOM     36  C   UNL d   1       2.143  -3.325  -0.349  0.00  0.00     0.100 A 
ATOM     37  C   UNL d   1       3.211  -2.425  -0.019  0.00  0.00     0.087 A 
ATOM     38  N   UNL d   1       4.293  -3.121   0.361  0.00  0.00    -0.259 N 
ATOM     39  O   UNL d   1       3.981  -4.452   0.206  0.00  0.00    -0.241 OA
ATOM     40  HN  UNL d   1       5.176  -2.738   0.698  1.00  0.00     0.195 HD
ATOM     41  C   UNL d   1       2.700  -4.579  -0.224  0.00  0.00     0.091 A 
ATOM     42  C   UNL d   1       2.256  -5.959  -0.494  0.00  0.00     0.080 C 
BRANCH  37  43
ATOM     43  C   UNL d   1       3.237  -0.956  -0.029  0.00  0.00     0.037 A 
ATOM     44  C   UNL d   1       2.316  -0.194   0.720  0.00  0.00     0.048 A 
ATOM     45 CL   UNL d   1       1.146  -0.910   1.782  0.00  0.00    -0.083 Cl
ATOM     46  C   UNL d   1       2.328   1.208   0.668  0.00  0.00     0.025 A 
ATOM     47  C   UNL d   1       3.280   1.879  -0.094  0.00  0.00     0.003 A 
ATOM     48  C   UNL d   1       4.219   1.149  -0.813  0.00  0.00     0.025 A 
ATOM     49  C   UNL d   1       4.196  -0.254  -0.792  0.00  0.00     0.048 A 
ATOM     50 CL   UNL d   1       5.381  -1.046  -1.781  0.00  0.00    -0.083 Cl
ENDBRANCH  37  43
ENDBRANCH  34  36
ENDBRANCH  33  34
ENDBRANCH   1  33
TORSDOF 8
