REMARK  4 active torsions:
REMARK  status: ('A' for Active; 'I' for Inactive)
REMARK    1  A    between atoms: C_3  and  C_1 
REMARK    2  A    between atoms: C_8  and  N_4 
REMARK    3  A    between atoms: C_6  and  C_7 
REMARK    4  A    between atoms: C_7  and  C_8 
ROOT
ATOM      1  C   UNL d   1      -0.083  -1.457   0.176  0.00  0.00     0.115 C 
ATOM      2  C   UNL d   1       1.231  -0.763   0.178  0.00  0.00     0.262 C 
ATOM      3  N   UNL d   1       1.204   0.614  -0.097  0.00  0.00    -0.324 N 
ATOM      4  C   UNL d   1      -1.208  -0.726   0.076  0.00  0.00     0.023 C 
ATOM      5  C   UNL d   1       0.017   1.323  -0.166  0.00  0.00     0.094 C 
ATOM      6  O   UNL d   1       2.275  -1.368   0.394  0.00  0.00    -0.267 OA
ATOM      7  C   UNL d   1      -1.162   0.706  -0.054  0.00  0.00     0.018 C 
ENDROOT
BRANCH   3   8
ATOM      8  C   UNL d   1       2.482   1.330  -0.221  0.00  0.00     0.138 C 
BRANCH   8   9
ATOM      9  C   UNL d   1       3.297   0.870  -1.435  0.00  0.00     0.089 C 
BRANCH   9  10
ATOM     10  C   UNL d   1       4.589   1.642  -1.551  0.00  0.00     0.072 C 
ATOM     11  S   UNL d   1       4.752   3.002  -2.499  0.00  0.00    -0.066 SA
ATOM     12  N   UNL d   1       5.640   1.192  -0.809  0.00  0.00    -0.393 N 
ATOM     13  H   UNL d   1       5.610   0.318  -0.293  0.00  0.00     0.156 HD
ATOM     14  H   UNL d   1       6.539   1.646  -0.900  0.00  0.00     0.156 HD
ENDBRANCH   9  10
ENDBRANCH   8   9
ENDBRANCH   3   8
BRANCH   1  15
ATOM     15  C   UNL d   1      -0.095  -2.939   0.248  0.00  0.00     0.422 C 
ATOM     16  F   UNL d   1       1.108  -3.560   0.246  0.00  0.00    -0.166 F 
ATOM     17  F   UNL d   1      -0.750  -3.368   1.362  0.00  0.00    -0.166 F 
ATOM     18  F   UNL d   1      -0.785  -3.463  -0.806  0.00  0.00    -0.166 F 
ENDBRANCH   1  15
TORSDOF 4
