REMARK  7 active torsions:
REMARK  status: ('A' for Active; 'I' for Inactive)
REMARK    1  A    between atoms: C_8  and  C_1 
REMARK    2  A    between atoms: C_2  and  C_7 
REMARK    3  A    between atoms: C_3  and  C_5 
REMARK    4  A    between atoms: C_4  and  C_6 
REMARK    5  A    between atoms: N_9  and  N_21 
REMARK    6  A    between atoms: C_15  and  N_13 
REMARK    7  A    between atoms: N_21  and  C_20 
ROOT
ATOM      1  N   UNL d   1       0.167  -3.468   3.491  0.00  0.00    -0.242 N 
ATOM      2  HN  UNL d   1       0.307  -3.553   2.484  1.00  0.00     0.208 HD
ATOM      3  N   UNL d   1       0.282  -4.385   4.327  0.00  0.00    -0.286 N 
ATOM      4  HN  UNL d   1       0.118  -4.280   5.328  1.00  0.00     0.188 HD
ENDROOT
BRANCH   1   5
ATOM      5  N   UNL d   1      -0.174  -2.345   4.153  0.00  0.00    -0.286 N 
ATOM      6  H   UNL d   1      -0.037  -2.390   5.157  0.00  0.00     0.188 HD
BRANCH   5   7
ATOM      7  C   UNL d   1       0.185  -1.128   3.542  0.00  0.00     0.051 A 
ATOM      8  C   UNL d   1       0.261  -1.000   2.145  0.00  0.00     0.047 A 
ATOM      9  C   UNL d   1       0.623   0.213   1.535  0.00  0.00     0.050 A 
ATOM     10  C   UNL d   1       0.896   1.320   2.347  0.00  0.00     0.032 A 
ATOM     11  C   UNL d   1       0.791   1.232   3.744  0.00  0.00     0.050 A 
ATOM     12  C   UNL d   1       0.419   0.006   4.326  0.00  0.00     0.047 A 
BRANCH   9  13
ATOM     13  C   UNL d   1       0.706   0.295   0.031  0.00  0.00     0.417 C 
ATOM     14  F   UNL d   1       1.067   1.528  -0.422  0.00  0.00    -0.166 F 
ATOM     15  F   UNL d   1       1.616  -0.575  -0.487  0.00  0.00    -0.166 F 
ATOM     16  F   UNL d   1      -0.478   0.007  -0.574  0.00  0.00    -0.166 F 
ENDBRANCH   9  13
BRANCH  11  17
ATOM     17  C   UNL d   1       1.088   2.421   4.628  0.00  0.00     0.417 C 
ATOM     18  F   UNL d   1       1.418   3.545   3.934  0.00  0.00    -0.166 F 
ATOM     19  F   UNL d   1       2.125   2.188   5.479  0.00  0.00    -0.166 F 
ATOM     20  F   UNL d   1       0.029   2.761   5.412  0.00  0.00    -0.166 F 
ENDBRANCH  11  17
ENDBRANCH   5   7
ENDBRANCH   1   5
BRANCH   3  21
ATOM     21  C   UNL d   1       0.671  -5.590   3.698  0.00  0.00     0.051 A 
ATOM     22  C   UNL d   1       1.477  -6.492   4.406  0.00  0.00     0.047 A 
ATOM     23  C   UNL d   1       1.889  -7.709   3.831  0.00  0.00     0.050 A 
ATOM     24  C   UNL d   1       1.490  -8.013   2.521  0.00  0.00     0.032 A 
ATOM     25  C   UNL d   1       0.667  -7.139   1.798  0.00  0.00     0.050 A 
ATOM     26  C   UNL d   1       0.263  -5.939   2.402  0.00  0.00     0.047 A 
BRANCH  23  27
ATOM     27  C   UNL d   1       2.739  -8.675   4.625  0.00  0.00     0.417 C 
ATOM     28  F   UNL d   1       3.028  -9.821   3.948  0.00  0.00    -0.166 F 
ATOM     29  F   UNL d   1       3.936  -8.142   4.989  0.00  0.00    -0.166 F 
ATOM     30  F   UNL d   1       2.132  -9.068   5.779  0.00  0.00    -0.166 F 
ENDBRANCH  23  27
BRANCH  25  31
ATOM     31  C   UNL d   1       0.197  -7.463   0.402  0.00  0.00     0.417 C 
ATOM     32  F   UNL d   1       0.648  -8.663  -0.056  0.00  0.00    -0.166 F 
ATOM     33  F   UNL d   1      -1.161  -7.516   0.315  0.00  0.00    -0.166 F 
ATOM     34  F   UNL d   1       0.597  -6.538  -0.511  0.00  0.00    -0.166 F 
ENDBRANCH  25  31
ENDBRANCH   3  21
TORSDOF 7
