REMARK  1 active torsions:
REMARK  status: ('A' for Active; 'I' for Inactive)
REMARK    1  A    between atoms: S_13  and  C_5 
ROOT
ATOM      1  C   UNL d   1       0.915  -0.453   0.003  0.00  0.00     0.081 A 
ATOM      2  C   UNL d   1       1.634   0.759   0.006  0.00  0.00     0.096 A 
ATOM      3  N   UNL d   1       1.797  -1.521  -0.004  0.00  0.00    -0.292 N 
ATOM      4  C   UNL d   1       3.054   0.404   0.005  0.00  0.00     0.275 A 
ATOM      5  C   UNL d   1       1.020   1.985   0.008  0.00  0.00     0.088 A 
ATOM      6  N   UNL d   1       3.080  -0.970   0.010  0.00  0.00    -0.263 N 
ATOM      7  N   UNL d   1      -0.329   2.046   0.009  0.00  0.00    -0.348 N 
ATOM      8  HN  UNL d   1      -0.792   2.954   0.011  1.00  0.00     0.166 HD
ATOM      9  C   UNL d   1      -0.494  -0.390   0.004  0.00  0.00     0.022 A 
ATOM     10  C   UNL d   1      -1.077   0.909   0.006  0.00  0.00     0.067 A 
ATOM     11  O   UNL d   1       4.022   1.134  -0.002  0.00  0.00    -0.266 OA
ATOM     12  C   UNL d   1      -2.480   0.999   0.005  0.00  0.00     0.061 A 
ATOM     13  C   UNL d   1       1.697  -2.960   0.014  0.00  0.00     0.178 C 
ATOM     14  C   UNL d   1      -1.361  -1.513  -0.001  0.00  0.00     0.016 A 
ATOM     15 CL   UNL d   1      -3.269   2.547   0.005  0.00  0.00    -0.082 Cl
ATOM     16  C   UNL d   1      -2.748  -1.387  -0.001  0.00  0.00     0.003 A 
ATOM     17  C   UNL d   1      -3.311  -0.125   0.001  0.00  0.00     0.026 A 
ATOM     18  H   UNL d   1       3.924  -1.527  -0.010  0.00  0.00     0.190 HD
ENDROOT
BRANCH   5  19
ATOM     19  S   UNL d   1       1.927   3.517   0.007  0.00  0.00    -0.116 SA
ATOM     20  C   UNL d   1       0.599   4.746   0.008  0.00  0.00     0.097 C 
ENDBRANCH   5  19
TORSDOF 1
