REMARK  5 active torsions:
REMARK  status: ('A' for Active; 'I' for Inactive)
REMARK    1  A    between atoms: C_11  and  C_1 
REMARK    2  A    between atoms: C_7  and  C_13 
REMARK       I    between atoms: N_9  and  C_7 
REMARK    3  A    between atoms: N_12  and  N_9 
REMARK    4  A    between atoms: S_10  and  C_11 
REMARK    5  A    between atoms: C_13  and  S_10 
ROOT
ATOM      1  C   UNL d   1      -1.174   1.052   0.044  0.00  0.00    -0.036 C 
ATOM      2  C   UNL d   1      -0.038  -1.139   0.004  0.00  0.00    -0.049 C 
ATOM      3  C   UNL d   1       1.281   0.943  -0.027  0.00  0.00    -0.049 C 
ATOM      4  C   UNL d   1       1.218  -0.477  -0.027  0.00  0.00    -0.049 C 
ATOM      5  C   UNL d   1       0.092   1.705   0.096  0.00  0.00    -0.048 C 
ATOM      6  C   UNL d   1      -1.235  -0.375  -0.035  0.00  0.00    -0.048 C 
ATOM      7  C   UNL d   1       2.518  -1.260  -0.048  0.00  0.00     0.049 C 
ATOM      8  C   UNL d   1       0.162   3.210   0.246  0.00  0.00     0.049 C 
ATOM      9  C   UNL d   1      -0.051  -2.653   0.067  0.00  0.00     0.049 C 
ATOM     10  C   UNL d   1       2.643   1.603  -0.121  0.00  0.00     0.049 C 
ATOM     11  C   UNL d   1      -2.594  -1.040  -0.125  0.00  0.00     0.049 C 
ENDROOT
BRANCH   1  12
ATOM     12  C   UNL d   1      -2.466   1.870   0.059  0.00  0.00     0.114 C 
BRANCH  12  13
ATOM     13  S   UNL d   1      -2.931   2.457  -1.609  0.00  0.00    -0.155 SA
BRANCH  13  14
ATOM     14  C   UNL d   1      -4.536   3.225  -1.209  0.00  0.00     0.178 C 
BRANCH  14  15
ATOM     15  C   UNL d   1      -4.373   4.442  -0.315  0.00  0.00     0.240 C 
ATOM     16  O   UNL d   1      -4.925   4.537   0.782  0.00  0.00    -0.271 OA
ATOM     17  N   UNL d   1      -3.595   5.450  -0.867  0.00  0.00    -0.293 N 
ATOM     18  H   UNL d   1      -2.963   5.202  -1.633  0.00  0.00     0.183 HD
BRANCH  17  19
ATOM     19  N   UNL d   1      -3.300   6.596  -0.095  0.00  0.00    -0.247 NA
ATOM     20  H   UNL d   1      -3.627   6.405   0.864  0.00  0.00     0.143 HD
ATOM     21  H   UNL d   1      -3.910   7.353  -0.414  0.00  0.00     0.143 HD
ENDBRANCH  17  19
ENDBRANCH  14  15
ENDBRANCH  13  14
ENDBRANCH  12  13
ENDBRANCH   1  12
TORSDOF 5
