REMARK  6 active torsions:
REMARK  status: ('A' for Active; 'I' for Inactive)
REMARK    1  A    between atoms: C_7  and  C_1 
REMARK    2  A    between atoms: C_18  and  C_2 
REMARK    3  A    between atoms: N_6  and  C_5 
REMARK    4  A    between atoms: N_8  and  C_12 
REMARK    5  A    between atoms: C_13  and  N_23 
REMARK    6  A    between atoms: N_23  and  N_14 
ROOT
ATOM      1  N   UNL d   1       1.581  -3.012  -0.452  0.00  0.00    -0.310 N 
ATOM      2  HN  UNL d   1       2.290  -2.381  -0.824  1.00  0.00     0.186 HD
ATOM      3  C   UNL d   1       0.397  -2.619  -0.090  0.00  0.00     0.123 C 
ENDROOT
BRANCH   1   4
ATOM      4  N   UNL d   1       1.783  -4.351  -0.285  0.00  0.00    -0.299 N 
ATOM      5  H   UNL d   1       2.728  -4.650  -0.016  0.00  0.00     0.187 HD
BRANCH   4   6
ATOM      6  C   UNL d   1       1.059  -5.326  -1.010  0.00  0.00     0.081 A 
ATOM      7  C   UNL d   1       0.872  -6.624  -0.504  0.00  0.00     0.133 A 
ATOM      8  C   UNL d   1       0.021  -7.558  -1.125  0.00  0.00     0.074 A 
ATOM      9  C   UNL d   1      -0.643  -7.176  -2.292  0.00  0.00     0.105 A 
ATOM     10  C   UNL d   1      -0.451  -5.903  -2.846  0.00  0.00     0.038 A 
ATOM     11  C   UNL d   1       0.394  -4.989  -2.201  0.00  0.00     0.036 A 
BRANCH   7  12
ATOM     12  N   UNL d   1       1.510  -7.017   0.743  0.00  0.00    -0.113 N 
ATOM     13  O   UNL d   1       0.814  -7.628   1.568  0.00  0.00    -0.532 OA
ATOM     14  O   UNL d   1       2.708  -6.730   0.886  0.00  0.00    -0.532 OA
ENDBRANCH   7  12
BRANCH   9  15
ATOM     15  N   UNL d   1      -1.570  -8.117  -2.938  0.00  0.00    -0.116 N 
ATOM     16  O   UNL d   1      -1.650  -9.255  -2.464  0.00  0.00    -0.532 OA
ATOM     17  O   UNL d   1      -2.215  -7.706  -3.912  0.00  0.00    -0.532 OA
ENDBRANCH   9  15
ENDBRANCH   4   6
ENDBRANCH   1   4
BRANCH   3  18
ATOM     18  C   UNL d   1       0.073  -1.226   0.043  0.00  0.00     0.042 A 
ATOM     19  C   UNL d   1      -1.016  -0.656   0.786  0.00  0.00     0.082 A 
ATOM     20  N   UNL d   1      -0.947   0.683   0.746  0.00  0.00    -0.259 N 
ATOM     21  O   UNL d   1       0.134   0.999  -0.043  0.00  0.00    -0.241 OA
ATOM     22  HN  UNL d   1      -1.574   1.339   1.211  1.00  0.00     0.195 HD
ATOM     23  C   UNL d   1       0.751  -0.137  -0.461  0.00  0.00     0.086 A 
ATOM     24  C   UNL d   1       1.935   0.072  -1.316  0.00  0.00     0.080 C 
BRANCH  19  25
ATOM     25  C   UNL d   1      -2.093  -1.332   1.528  0.00  0.00     0.037 A 
ATOM     26  C   UNL d   1      -1.824  -2.322   2.497  0.00  0.00     0.048 A 
ATOM     27 CL   UNL d   1      -0.224  -2.721   3.035  0.00  0.00    -0.083 Cl
ATOM     28  C   UNL d   1      -2.863  -3.026   3.124  0.00  0.00     0.025 A 
ATOM     29  C   UNL d   1      -4.189  -2.710   2.858  0.00  0.00     0.003 A 
ATOM     30  C   UNL d   1      -4.480  -1.694   1.955  0.00  0.00     0.025 A 
ATOM     31  C   UNL d   1      -3.448  -1.022   1.281  0.00  0.00     0.048 A 
ATOM     32 CL   UNL d   1      -3.960   0.157   0.116  0.00  0.00    -0.083 Cl
ENDBRANCH  19  25
ENDBRANCH   3  18
TORSDOF 6
