REMARK  3 active torsions:
REMARK  status: ('A' for Active; 'I' for Inactive)
REMARK    1  A    between atoms: C_2  and  C_1 
REMARK    2  A    between atoms: C_14  and  N_5 
REMARK    3  A    between atoms: C_15  and  C_6 
ROOT
ATOM      1  C   UNL d   1       0.988  -0.694  -0.249  0.00  0.00     0.156 C 
ATOM      2  N   UNL d   1       1.069   0.640   0.127  0.00  0.00    -0.237 N 
ATOM      3  N   UNL d   1      -0.276  -1.008  -0.473  0.00  0.00    -0.334 N 
ATOM      4  HN  UNL d   1      -0.657  -1.861  -0.884  1.00  0.00     0.168 HD
ATOM      5  N   UNL d   1      -0.186   1.089   0.418  0.00  0.00    -0.287 N 
ATOM      6  HN  UNL d   1      -0.469   1.964   0.858  1.00  0.00     0.188 HD
ATOM      7  C   UNL d   1      -0.945   0.088  -0.022  0.00  0.00     0.199 C 
ENDROOT
BRANCH   1   8
ATOM      8  C   UNL d   1       2.087  -1.703  -0.248  0.00  0.00     0.086 A 
ATOM      9  N   UNL d   1       3.285  -1.484   0.404  0.00  0.00    -0.346 N 
ATOM     10  C   UNL d   1       4.020  -2.581   0.415  0.00  0.00     0.085 A 
ATOM     11  HN  UNL d   1       3.564  -0.596   0.819  1.00  0.00     0.167 HD
ATOM     12  S   UNL d   1       3.355  -3.882  -0.505  0.00  0.00    -0.081 SA
ATOM     13  C   UNL d   1       1.948  -2.955  -0.805  0.00  0.00     0.085 A 
BRANCH  10  14
ATOM     14  C   UNL d   1       5.286  -2.703   1.163  0.00  0.00     0.000 A 
ATOM     15  C   UNL d   1       5.949  -3.918   1.368  0.00  0.00     0.031 A 
ATOM     16  C   UNL d   1       7.103  -3.931   2.136  0.00  0.00     0.088 A 
ATOM     17  N   UNL d   1       7.640  -2.834   2.706  0.00  0.00    -0.375 N 
ATOM     18  C   UNL d   1       6.993  -1.669   2.503  0.00  0.00     0.088 A 
ATOM     19  HN  UNL d   1       8.494  -2.882   3.262  1.00  0.00     0.164 HD
ATOM     20  C   UNL d   1       5.834  -1.556   1.753  0.00  0.00     0.031 A 
ENDBRANCH  10  14
ENDBRANCH   1   8
BRANCH   2  21
ATOM     21  C   UNL d   1       2.165   1.546   0.116  0.00  0.00     0.058 A 
ATOM     22  C   UNL d   1       3.277   1.325  -0.708  0.00  0.00     0.031 A 
ATOM     23  C   UNL d   1       4.312   2.262  -0.754  0.00  0.00     0.002 A 
ATOM     24  C   UNL d   1       4.247   3.416   0.023  0.00  0.00     0.000 A 
ATOM     25  C   UNL d   1       3.140   3.645   0.839  0.00  0.00     0.002 A 
ATOM     26  C   UNL d   1       2.093   2.722   0.876  0.00  0.00     0.031 A 
ENDBRANCH   2  21
TORSDOF 3
