REMARK  7 active torsions:
REMARK  status: ('A' for Active; 'I' for Inactive)
REMARK    1  A    between atoms: N_2  and  S_1 
REMARK    2  A    between atoms: C_4  and  S_1 
REMARK    3  A    between atoms: C_3  and  N_9 
REMARK    4  A    between atoms: N_11  and  C_3 
REMARK    5  A    between atoms: N_7  and  N_11 
REMARK    6  A    between atoms: N_9  and  C_15 
REMARK    7  A    between atoms: C_18  and  C_14 
ROOT
ATOM      1  C   UNL d   1       0.584  -1.654   0.685  0.00  0.00     0.079 A 
ATOM      2  C   UNL d   1       1.153  -2.729  -0.006  0.00  0.00     0.027 A 
ATOM      3  C   UNL d   1      -0.226  -1.885   1.799  0.00  0.00     0.027 A 
ATOM      4  C   UNL d   1      -0.016  -4.281   1.435  0.00  0.00     0.034 A 
ATOM      5  C   UNL d   1      -0.502  -3.203   2.186  0.00  0.00     0.031 A 
ATOM      6  C   UNL d   1       0.828  -4.037   0.350  0.00  0.00     0.031 A 
ENDROOT
BRANCH   4   7
ATOM      7  N   UNL d   1      -0.295  -5.587   1.866  0.00  0.00    -0.332 N 
ATOM      8  H   UNL d   1      -0.432  -5.737   2.860  0.00  0.00     0.168 HD
BRANCH   7   9
ATOM      9  C   UNL d   1      -0.404  -6.752   1.134  0.00  0.00     0.191 C 
ATOM     10  S   UNL d   1      -0.865  -6.919  -0.463  0.00  0.00    -0.039 SA
BRANCH   9  11
ATOM     11  N   UNL d   1      -0.120  -7.888   1.875  0.00  0.00    -0.276 N 
ATOM     12  H   UNL d   1      -0.148  -8.773   1.375  0.00  0.00     0.189 HD
BRANCH  11  13
ATOM     13  N   UNL d   1       0.711  -7.758   2.947  0.00  0.00    -0.309 N 
ATOM     14  C   UNL d   1       1.211  -8.852   3.427  0.00  0.00     0.118 C 
ATOM     15  HN  UNL d   1       0.927  -6.847   3.351  1.00  0.00     0.186 HD
BRANCH  14  16
ATOM     16  C   UNL d   1       2.284  -8.789   4.437  0.00  0.00    -0.019 A 
ATOM     17  C   UNL d   1       2.925  -7.571   4.690  0.00  0.00     0.013 A 
ATOM     18  C   UNL d   1       3.989  -7.513   5.588  0.00  0.00     0.001 A 
ATOM     19  C   UNL d   1       4.407  -8.673   6.239  0.00  0.00     0.000 A 
ATOM     20  C   UNL d   1       3.767  -9.888   5.989  0.00  0.00     0.001 A 
ATOM     21  C   UNL d   1       2.706  -9.955   5.083  0.00  0.00     0.013 A 
ENDBRANCH  14  16
ENDBRANCH  11  13
ENDBRANCH   9  11
ENDBRANCH   7   9
ENDBRANCH   4   7
BRANCH   1  22
ATOM     22  S   UNL d   1       0.986   0.006   0.164  0.00  0.00     0.260 S 
ATOM     23  O   UNL d   1       0.662   0.901   1.255  0.00  0.00    -0.200 OA
ATOM     24  O   UNL d   1       2.324  -0.042  -0.389  0.00  0.00    -0.200 OA
BRANCH  22  25
ATOM     25  N   UNL d   1      -0.108   0.301  -1.126  0.00  0.00    -0.307 N 
ATOM     26  C   UNL d   1      -1.495   0.646  -0.727  0.00  0.00     0.135 C 
ATOM     27  C   UNL d   1      -2.291   1.138  -1.935  0.00  0.00     0.021 C 
ATOM     28  C   UNL d   1      -2.261   0.123  -3.071  0.00  0.00     0.003 C 
ATOM     29  C   UNL d   1      -0.818  -0.168  -3.460  0.00  0.00     0.021 C 
ATOM     30  C   UNL d   1      -0.024  -0.659  -2.258  0.00  0.00     0.135 C 
ENDBRANCH  22  25
ENDBRANCH   1  22
TORSDOF 7
