REMARK  3 active torsions:
REMARK  status: ('A' for Active; 'I' for Inactive)
REMARK    1  A    between atoms: S_9  and  C_5 
REMARK    2  A    between atoms: O_11  and  C_6 
REMARK    3  A    between atoms: O_10  and  C_7 
ROOT
ATOM      1  N   UNL d   1      -1.143   0.815  -0.029  0.00  0.00    -0.317 N 
ATOM      2  HN  UNL d   1      -1.981   1.396  -0.051  1.00  0.00     0.170 HD
ATOM      3  N   UNL d   1       1.223   0.640   0.032  0.00  0.00    -0.317 N 
ATOM      4  HN  UNL d   1       2.136   1.093   0.059  1.00  0.00     0.170 HD
ATOM      5  C   UNL d   1       0.087   1.344   0.005  0.00  0.00     0.147 A 
ATOM      6  C   UNL d   1       1.095  -0.695   0.022  0.00  0.00     0.147 A 
ATOM      7  C   UNL d   1      -1.209  -0.527  -0.030  0.00  0.00     0.147 A 
ATOM      8  C   UNL d   1      -0.112  -1.348  -0.007  0.00  0.00     0.112 A 
ENDROOT
BRANCH   5   9
ATOM      9  S   UNL d   1       0.254   3.110   0.046  0.00  0.00    -0.098 SA
ATOM     10  C   UNL d   1      -1.213   3.568  -0.904  0.00  0.00     0.099 C 
ENDBRANCH   5   9
BRANCH   6  11
ATOM     11  O   UNL d   1       2.228  -1.484   0.044  0.00  0.00    -0.341 OA
ATOM     12  C   UNL d   1       3.432  -0.718   0.061  0.00  0.00     0.211 C 
ENDBRANCH   6  11
BRANCH   7  13
ATOM     13  O   UNL d   1      -2.445  -1.145  -0.057  0.00  0.00    -0.341 OA
ATOM     14  C   UNL d   1      -3.529  -0.219  -0.067  0.00  0.00     0.211 C 
ENDBRANCH   7  13
TORSDOF 3
