REMARK  7 active torsions:
REMARK  status: ('A' for Active; 'I' for Inactive)
REMARK    1  A    between atoms: N_4  and  S_1 
REMARK    2  A    between atoms: C_2  and  C_6 
REMARK    3  A    between atoms: C_3  and  N_8 
REMARK    4  A    between atoms: N_9  and  C_3 
REMARK    5  A    between atoms: C_5  and  N_4 
REMARK    6  A    between atoms: N_8  and  C_13 
REMARK    7  A    between atoms: C_16  and  N_9 
ROOT
ATOM      1  N   UNL d   1      -0.730  -0.742  -5.373  0.00  0.00    -0.333 N 
ATOM      2  H   UNL d   1      -0.547  -0.624  -6.363  0.00  0.00     0.168 HD
ENDROOT
BRANCH   1   3
ATOM      3  C   UNL d   1      -2.071  -0.774  -5.071  0.00  0.00     0.176 C 
ATOM      4  S   UNL d   1      -2.806  -0.080  -3.739  0.00  0.00    -0.041 SA
BRANCH   3   5
ATOM      5  N   UNL d   1      -2.884  -1.313  -6.048  0.00  0.00    -0.333 N 
ATOM      6  H   UNL d   1      -3.860  -1.043  -5.972  0.00  0.00     0.168 HD
BRANCH   5   7
ATOM      7  C   UNL d   1      -2.534  -2.171  -7.112  0.00  0.00     0.035 C 
ATOM      8  C   UNL d   1      -1.360  -2.926  -7.102  0.00  0.00     0.045 C 
ATOM      9  C   UNL d   1      -0.925  -3.616  -8.239  0.00  0.00     0.050 C 
ATOM     10  C   UNL d   1      -1.758  -3.647  -9.363  0.00  0.00     0.016 C 
ATOM     11  C   UNL d   1      -2.993  -2.994  -9.341  0.00  0.00     0.003 C 
ATOM     12  C   UNL d   1      -3.380  -2.254  -8.219  0.00  0.00     0.029 C 
BRANCH   9  13
ATOM     13  C   UNL d   1       0.450  -4.234  -8.262  0.00  0.00     0.417 C 
ATOM     14  F   UNL d   1       1.105  -4.144  -7.070  0.00  0.00    -0.166 F 
ATOM     15  F   UNL d   1       0.442  -5.552  -8.589  0.00  0.00    -0.166 F 
ATOM     16  F   UNL d   1       1.263  -3.621  -9.169  0.00  0.00    -0.166 F 
ENDBRANCH   9  13
ENDBRANCH   5   7
ENDBRANCH   3   5
ENDBRANCH   1   3
BRANCH   1  17
ATOM     17  C   UNL d   1       0.411  -0.753  -4.547  0.00  0.00     0.036 A 
ATOM     18  C   UNL d   1       0.400  -1.174  -3.220  0.00  0.00     0.060 A 
ATOM     19  C   UNL d   1       1.587  -1.221  -2.474  0.00  0.00     0.050 A 
ATOM     20  C   UNL d   1       2.812  -0.864  -3.055  0.00  0.00    -0.035 A 
ATOM     21  C   UNL d   1       2.815  -0.457  -4.397  0.00  0.00     0.011 A 
ATOM     22  C   UNL d   1       4.119  -0.858  -2.315  0.00  0.00     0.050 C 
ATOM     23  C   UNL d   1       1.632  -0.418  -5.139  0.00  0.00     0.030 A 
BRANCH  19  24
ATOM     24  N   UNL d   1       1.475  -1.687  -1.129  0.00  0.00    -0.284 N 
ATOM     25  H   UNL d   1       2.056  -2.494  -0.891  0.00  0.00     0.178 HD
BRANCH  24  26
ATOM     26  S   UNL d   1       1.480  -0.557   0.121  0.00  0.00     0.227 S 
ATOM     27  O   UNL d   1       2.377   0.529  -0.190  0.00  0.00    -0.206 OA
ATOM     28  O   UNL d   1       1.643  -1.333   1.334  0.00  0.00    -0.206 OA
ATOM     29  C   UNL d   1      -0.196   0.048   0.086  0.00  0.00     0.186 C 
ENDBRANCH  24  26
ENDBRANCH  19  24
ENDBRANCH   1  17
TORSDOF 7
