REMARK  12 active torsions:
REMARK  status: ('A' for Active; 'I' for Inactive)
REMARK    1  A    between atoms: C_8  and  S_1 
REMARK    2  A    between atoms: N_12  and  S_1 
REMARK    3  A    between atoms: S_2  and  C_9 
REMARK    4  A    between atoms: N_13  and  S_2 
REMARK    5  A    between atoms: C_23  and  N_12 
REMARK    6  A    between atoms: C_24  and  N_12 
REMARK    7  A    between atoms: C_25  and  N_13 
REMARK    8  A    between atoms: C_26  and  N_13 
REMARK    9  A    between atoms: C_30  and  C_23 
REMARK   10  A    between atoms: C_27  and  C_24 
REMARK   11  A    between atoms: C_28  and  C_25 
REMARK   12  A    between atoms: C_29  and  C_26 
ROOT
ATOM      1  C   UNL d   1       0.286  -2.511   3.125  0.00  0.00     0.027 A 
ATOM      2  C   UNL d   1      -0.246  -3.874   4.982  0.00  0.00     0.027 A 
ATOM      3  C   UNL d   1       0.410  -3.884   3.659  0.00  0.00     0.194 A 
ATOM      4  C   UNL d   1      -0.723  -2.570   5.208  0.00  0.00    -0.011 A 
ATOM      5  C   UNL d   1      -0.381  -1.736   4.086  0.00  0.00    -0.011 A 
ATOM      6  C   UNL d   1       0.479  -0.649   1.692  0.00  0.00     0.075 A 
ATOM      7  C   UNL d   1      -1.223  -4.628   6.987  0.00  0.00     0.075 A 
ATOM      8  C   UNL d   1      -0.458  -4.920   5.855  0.00  0.00     0.041 A 
ATOM      9  C   UNL d   1       0.717  -2.008   1.919  0.00  0.00     0.041 A 
ATOM     10  C   UNL d   1      -0.617  -0.393   3.862  0.00  0.00     0.015 A 
ATOM     11  C   UNL d   1      -1.458  -2.280   6.337  0.00  0.00     0.015 A 
ATOM     12  O   UNL d   1       0.931  -4.832   3.113  0.00  0.00    -0.287 OA
ATOM     13  C   UNL d   1      -0.146   0.159   2.671  0.00  0.00     0.026 A 
ATOM     14  C   UNL d   1      -1.756  -3.334   7.196  0.00  0.00     0.026 A 
ENDROOT
BRANCH   6  15
ATOM     15  S   UNL d   1       1.156   0.105   0.229  0.00  0.00     0.243 S 
ATOM     16  O   UNL d   1       1.917  -0.929  -0.439  0.00  0.00    -0.206 OA
ATOM     17  O   UNL d   1       1.794   1.336   0.647  0.00  0.00    -0.206 OA
BRANCH  15  18
ATOM     18  N   UNL d   1      -0.209   0.535  -0.766  0.00  0.00    -0.206 NA
BRANCH  18  19
ATOM     19  C   UNL d   1      -1.150   1.509  -0.104  0.00  0.00     0.107 C 
BRANCH  19  20
ATOM     20  C   UNL d   1      -2.354   1.950  -0.937  0.00  0.00     0.011 C 
ATOM     21  C   UNL d   1      -3.191   0.779  -1.425  0.00  0.00     0.006 C 
ENDBRANCH  19  20
ENDBRANCH  18  19
BRANCH  18  22
ATOM     22  C   UNL d   1       0.230   1.001  -2.131  0.00  0.00     0.107 C 
BRANCH  22  23
ATOM     23  C   UNL d   1       0.755  -0.125  -3.021  0.00  0.00     0.011 C 
ATOM     24  C   UNL d   1      -0.227  -1.278  -3.156  0.00  0.00     0.006 C 
ENDBRANCH  22  23
ENDBRANCH  18  22
ENDBRANCH  15  18
ENDBRANCH   6  15
BRANCH   7  25
ATOM     25  S   UNL d   1      -1.715  -5.950   8.072  0.00  0.00     0.243 S 
ATOM     26  O   UNL d   1      -3.145  -5.790   8.281  0.00  0.00    -0.206 OA
ATOM     27  O   UNL d   1      -1.171  -7.164   7.513  0.00  0.00    -0.206 OA
BRANCH  25  28
ATOM     28  N   UNL d   1      -0.942  -5.649   9.609  0.00  0.00    -0.206 NA
BRANCH  28  29
ATOM     29  C   UNL d   1      -1.170  -4.255  10.128  0.00  0.00     0.107 C 
BRANCH  29  30
ATOM     30  C   UNL d   1      -0.478  -3.908  11.442  0.00  0.00     0.011 C 
ATOM     31  C   UNL d   1       1.033  -4.040  11.354  0.00  0.00     0.006 C 
ENDBRANCH  29  30
ENDBRANCH  28  29
BRANCH  28  32
ATOM     32  C   UNL d   1      -1.359  -6.671  10.641  0.00  0.00     0.107 C 
BRANCH  32  33
ATOM     33  C   UNL d   1      -0.986  -8.113  10.311  0.00  0.00     0.011 C 
ATOM     34  C   UNL d   1       0.511  -8.307  10.131  0.00  0.00     0.006 C 
ENDBRANCH  32  33
ENDBRANCH  28  32
ENDBRANCH  25  28
ENDBRANCH   7  25
TORSDOF 12
