REMARK  0 active torsions:
REMARK  status: ('A' for Active; 'I' for Inactive)
ROOT
ATOM      1  C   UNL d   1       1.145  -1.460   0.019  0.00  0.00     0.261 C 
ATOM      2  N   UNL d   1       2.297  -0.839  -0.418  0.00  0.00    -0.291 N 
ATOM      3  C   UNL d   1      -0.159  -0.768  -0.004  0.00  0.00     0.065 A 
ATOM      4  C   UNL d   1       2.690   0.469  -0.463  0.00  0.00     0.248 C 
ATOM      5  O   UNL d   1       0.702   1.396   0.666  0.00  0.00    -0.341 OA
ATOM      6  C   UNL d   1      -0.324   0.586   0.280  0.00  0.00     0.085 A 
ATOM      7  O   UNL d   1       1.200  -2.632   0.395  0.00  0.00    -0.267 OA
ATOM      8  O   UNL d   1       3.887   0.741  -0.580  0.00  0.00    -0.271 OA
ATOM      9  C   UNL d   1       1.637   1.561  -0.383  0.00  0.00     0.278 C 
ATOM     10  C   UNL d   1      -1.289  -1.550  -0.292  0.00  0.00     0.020 A 
ATOM     11  C   UNL d   1      -1.601   1.156   0.271  0.00  0.00     0.038 A 
ATOM     12  C   UNL d   1      -2.560  -0.976  -0.325  0.00  0.00     0.001 A 
ATOM     13  C   UNL d   1      -2.714   0.379  -0.049  0.00  0.00     0.003 A 
ATOM     14  H   UNL d   1       3.088  -1.470  -0.422  0.00  0.00     0.172 HD
ENDROOT
TORSDOF 0
