REMARK  6 active torsions:
REMARK  status: ('A' for Active; 'I' for Inactive)
REMARK       I    between atoms: N_11  and  C_1 
REMARK       I    between atoms: N_12  and  C_1 
REMARK    1  A    between atoms: C_2  and  C_3 
REMARK    2  A    between atoms: C_4  and  O_17 
REMARK    3  A    between atoms: N_5  and  N_12 
REMARK    4  A    between atoms: C_9  and  C_10 
REMARK    5  A    between atoms: C_21  and  N_11 
REMARK    6  A    between atoms: O_17  and  C_25 
ROOT
ATOM      1  C   UNL d   1       1.083  -0.081  -0.070  0.00  0.00     0.341 C 
ATOM      2  N   UNL d   1       0.407   0.628   0.916  0.00  0.00    -0.307 N 
ATOM      3  N   UNL d   1       0.285  -0.960  -0.834  0.00  0.00    -0.247 N 
ATOM      4  O   UNL d   1       2.299   0.025  -0.264  0.00  0.00    -0.245 OA
ATOM      5  C   UNL d   1      -1.164  -0.840  -0.923  0.00  0.00     0.183 C 
ATOM      6  H   UNL d   1      -0.517   0.309   1.160  0.00  0.00     0.170 HD
ENDROOT
BRANCH   3   7
ATOM      7  N   UNL d   1       0.839  -1.743  -1.844  0.00  0.00    -0.304 N 
ATOM      8  C   UNL d   1       2.016  -2.253  -1.649  0.00  0.00     0.138 C 
ATOM      9  HN  UNL d   1       0.332  -1.912  -2.713  1.00  0.00     0.186 HD
BRANCH   8  10
ATOM     10  C   UNL d   1       2.720  -3.092  -2.642  0.00  0.00     0.071 A 
ATOM     11  N   UNL d   1       3.596  -3.955  -2.048  0.00  0.00    -0.363 N 
ATOM     12  C   UNL d   1       4.222  -4.852  -2.839  0.00  0.00     0.104 A 
ATOM     13  HN  UNL d   1       3.770  -3.924  -1.043  1.00  0.00     0.165 HD
ATOM     14  C   UNL d   1       4.029  -4.936  -4.208  0.00  0.00     0.065 A 
ATOM     15  C   UNL d   1       3.159  -4.011  -4.800  0.00  0.00     0.043 A 
ATOM     16  C   UNL d   1       2.490  -3.066  -4.014  0.00  0.00     0.062 A 
ATOM     17 CL   UNL d   1       1.475  -1.934  -4.823  0.00  0.00    -0.082 Cl
BRANCH  14  18
ATOM     18  C   UNL d   1       4.736  -6.002  -4.986  0.00  0.00     0.418 C 
ATOM     19  F   UNL d   1       4.438  -5.992  -6.314  0.00  0.00    -0.166 F 
ATOM     20  F   UNL d   1       6.089  -5.897  -4.902  0.00  0.00    -0.166 F 
ATOM     21  F   UNL d   1       4.428  -7.252  -4.543  0.00  0.00    -0.166 F 
ENDBRANCH  14  18
ENDBRANCH   8  10
ENDBRANCH   3   7
BRANCH   2  22
ATOM     22  C   UNL d   1       1.000   1.567   1.797  0.00  0.00     0.036 A 
ATOM     23  C   UNL d   1       2.279   2.091   1.600  0.00  0.00     0.032 A 
ATOM     24  C   UNL d   1       2.872   2.948   2.531  0.00  0.00     0.039 A 
ATOM     25  C   UNL d   1       2.157   3.368   3.644  0.00  0.00     0.078 A 
ATOM     26  C   UNL d   1       0.867   2.865   3.844  0.00  0.00     0.039 A 
ATOM     27  C   UNL d   1       0.286   1.976   2.927  0.00  0.00     0.032 A 
BRANCH  25  28
ATOM     28  O   UNL d   1       2.599   4.231   4.598  0.00  0.00    -0.255 OA
BRANCH  28  29
ATOM     29  C   UNL d   1       3.649   5.139   4.289  0.00  0.00     0.530 C 
ATOM     30  F   UNL d   1       3.826   5.350   2.968  0.00  0.00    -0.144 F 
ATOM     31  F   UNL d   1       3.352   6.333   4.851  0.00  0.00    -0.144 F 
ATOM     32  F   UNL d   1       4.808   4.699   4.825  0.00  0.00    -0.144 F 
ENDBRANCH  28  29
ENDBRANCH  25  28
ENDBRANCH   2  22
TORSDOF 6
