REMARK  7 active torsions:
REMARK  status: ('A' for Active; 'I' for Inactive)
REMARK    1  A    between atoms: C_2  and  C_1 
REMARK    2  A    between atoms: C_4  and  C_2 
REMARK    3  A    between atoms: C_3  and  C_7 
REMARK    4  A    between atoms: C_8  and  N_5 
REMARK    5  A    between atoms: N_11  and  C_6 
REMARK       I    between atoms: C_12  and  N_11 
REMARK    6  A    between atoms: C_21  and  C_12 
REMARK    7  A    between atoms: N_13  and  C_21 
ROOT
ATOM      1  N   UNL d   1       4.909  -0.621   1.344  0.00  0.00    -0.325 N 
ATOM      2  C   UNL d   1       4.914   0.471   0.486  0.00  0.00     0.250 C 
ATOM      3  O   UNL d   1       5.462   0.485  -0.617  0.00  0.00    -0.271 OA
ATOM      4  H   UNL d   1       4.126  -0.642   1.985  0.00  0.00     0.169 HD
ENDROOT
BRANCH   2   5
ATOM      5  C   UNL d   1       4.055   1.644   1.033  0.00  0.00     0.375 C 
BRANCH   5   6
ATOM      6  N   UNL d   1       3.073   2.130   0.048  0.00  0.00     0.100 N 
ATOM      7  C   UNL d   1       2.025   1.161  -0.324  0.00  0.00     0.293 C 
ATOM      8  C   UNL d   1       0.804   1.045   0.623  0.00  0.00     0.154 C 
ATOM      9  N   UNL d   1       0.240   2.368   0.962  0.00  0.00    -0.364 N 
ATOM     10  C   UNL d   1       1.251   3.335   1.420  0.00  0.00     0.154 C 
ATOM     11  C   UNL d   1       2.447   3.409   0.436  0.00  0.00     0.293 C 
BRANCH   9  12
ATOM     12  C   UNL d   1      -0.988   2.306   1.635  0.00  0.00     0.103 A 
ATOM     13  N   UNL d   1      -1.643   1.121   1.681  0.00  0.00    -0.352 N 
ATOM     14  C   UNL d   1      -2.848   1.039   2.299  0.00  0.00     0.106 A 
ATOM     15  HN  UNL d   1      -1.231   0.292   1.251  1.00  0.00     0.166 HD
ATOM     16  C   UNL d   1      -3.476   2.102   2.917  0.00  0.00     0.063 A 
ATOM     17  C   UNL d   1      -2.819   3.327   2.867  0.00  0.00     0.021 A 
ATOM     18  C   UNL d   1      -1.584   3.429   2.211  0.00  0.00     0.049 A 
BRANCH  16  19
ATOM     19  C   UNL d   1      -4.775   1.917   3.636  0.00  0.00     0.418 C 
ATOM     20  F   UNL d   1      -5.435   0.778   3.285  0.00  0.00    -0.166 F 
ATOM     21  F   UNL d   1      -4.611   1.848   4.987  0.00  0.00    -0.166 F 
ATOM     22  F   UNL d   1      -5.653   2.936   3.421  0.00  0.00    -0.166 F 
ENDBRANCH  16  19
ENDBRANCH   9  12
ENDBRANCH   5   6
ENDBRANCH   2   5
BRANCH   1  23
ATOM     23  C   UNL d   1       5.501  -1.875   1.063  0.00  0.00     0.049 A 
ATOM     24  C   UNL d   1       6.822  -2.119   0.616  0.00  0.00     0.043 A 
ATOM     25  C   UNL d   1       7.236  -3.462   0.472  0.00  0.00     0.041 A 
ATOM     26  C   UNL d   1       6.353  -4.521   0.680  0.00  0.00     0.035 A 
ATOM     27  C   UNL d   1       5.057  -4.279   1.107  0.00  0.00     0.026 A 
ATOM     28 CL   UNL d   1       6.881  -6.139   0.437  0.00  0.00    -0.084 Cl
ATOM     29  C   UNL d   1       4.649  -2.967   1.325  0.00  0.00     0.032 A 
BRANCH  24  30
ATOM     30  C   UNL d   1       7.873  -1.050   0.504  0.00  0.00     0.196 C 
ATOM     31  O   UNL d   1       7.774  -0.035   1.194  0.00  0.00    -0.287 OA
BRANCH  30  32
ATOM     32  C   UNL d   1       9.168  -1.263  -0.227  0.00  0.00     0.037 A 
ATOM     33  C   UNL d   1       9.311  -1.869  -1.483  0.00  0.00     0.048 A 
ATOM     34 CL   UNL d   1       7.975  -2.281  -2.499  0.00  0.00    -0.083 Cl
ATOM     35  C   UNL d   1      10.594  -2.150  -1.987  0.00  0.00     0.025 A 
ATOM     36  C   UNL d   1      11.736  -1.780  -1.274  0.00  0.00     0.002 A 
ATOM     37  C   UNL d   1      11.604  -1.112  -0.063  0.00  0.00     0.001 A 
ATOM     38  C   UNL d   1      10.330  -0.859   0.458  0.00  0.00     0.017 A 
ENDBRANCH  30  32
ENDBRANCH  24  30
ENDBRANCH   1  23
TORSDOF 7
