REMARK  3 active torsions:
REMARK  status: ('A' for Active; 'I' for Inactive)
REMARK    1  A    between atoms: C_6  and  C_1 
REMARK    2  A    between atoms: C_7  and  C_6 
REMARK       I    between atoms: N_11  and  C_7 
REMARK    3  A    between atoms: N_13  and  N_11 
ROOT
ATOM      1  C   UNL d   1       2.437   0.109  -0.052  0.00  0.00    -0.001 A 
ATOM      2  S   UNL d   1       1.529   1.558  -0.084  0.00  0.00    -0.093 SA
ATOM      3  C   UNL d   1       1.620  -1.012  -0.042  0.00  0.00    -0.037 A 
ATOM      4  C   UNL d   1       0.212  -0.654  -0.045  0.00  0.00    -0.011 A 
ATOM      5  C   UNL d   1       0.028   0.730  -0.049  0.00  0.00     0.016 A 
ATOM      6  C   UNL d   1      -0.948  -1.472  -0.028  0.00  0.00     0.037 A 
ATOM      7  C   UNL d   1      -1.256   1.312  -0.026  0.00  0.00     0.021 A 
ATOM      8  C   UNL d   1      -2.222  -0.897  -0.011  0.00  0.00     0.035 A 
ATOM      9  C   UNL d   1      -2.377   0.480  -0.006  0.00  0.00     0.025 A 
ATOM     10  C   UNL d   1       2.094  -2.434  -0.007  0.00  0.00     0.050 C 
ATOM     11 CL   UNL d   1      -3.612  -1.912   0.011  0.00  0.00    -0.084 Cl
ENDROOT
BRANCH   1  12
ATOM     12  C   UNL d   1       3.937   0.203   0.017  0.00  0.00     0.150 C 
BRANCH  12  13
ATOM     13  C   UNL d   1       4.617  -0.406  -1.194  0.00  0.00     0.236 C 
ATOM     14  O   UNL d   1       5.476  -1.285  -1.094  0.00  0.00    -0.272 OA
ATOM     15  N   UNL d   1       4.276   0.166  -2.413  0.00  0.00    -0.294 N 
ATOM     16  H   UNL d   1       3.423   0.719  -2.491  0.00  0.00     0.183 HD
BRANCH  15  17
ATOM     17  N   UNL d   1       4.870  -0.334  -3.595  0.00  0.00    -0.247 NA
ATOM     18  H   UNL d   1       5.321  -1.227  -3.347  0.00  0.00     0.143 HD
ATOM     19  H   UNL d   1       5.662   0.274  -3.824  0.00  0.00     0.143 HD
ENDBRANCH  15  17
ENDBRANCH  12  13
ENDBRANCH   1  12
TORSDOF 3
