REMARK  5 active torsions:
REMARK  status: ('A' for Active; 'I' for Inactive)
REMARK    1  A    between atoms: C_6  and  N_1 
REMARK    2  A    between atoms: C_2  and  C_11 
REMARK    3  A    between atoms: C_13  and  C_5 
REMARK    4  A    between atoms: N_18  and  N_7 
REMARK    5  A    between atoms: C_19  and  N_18 
ROOT
ATOM      1  C   UNL d   1      -2.339   3.128   3.402  0.00  0.00     0.086 A 
ATOM      2  O   UNL d   1      -2.767   2.685   4.628  0.00  0.00    -0.309 OA
ATOM      3  C   UNL d   1      -2.843   4.395   3.172  0.00  0.00     0.041 A 
ATOM      4  C   UNL d   1      -3.551   3.670   5.167  0.00  0.00     0.093 A 
ATOM      5  C   UNL d   1      -3.619   4.739   4.297  0.00  0.00     0.041 A 
ENDROOT
BRANCH   4   6
ATOM      6  C   UNL d   1      -4.158   3.470   6.454  0.00  0.00     0.144 C 
ATOM      7  N   UNL d   1      -4.908   4.403   6.948  0.00  0.00    -0.309 N 
ATOM      8  HN  UNL d   1      -5.075   5.277   6.448  1.00  0.00     0.186 HD
BRANCH   7   9
ATOM      9  N   UNL d   1      -5.463   4.161   8.165  0.00  0.00    -0.301 N 
ATOM     10  H   UNL d   1      -4.996   3.541   8.824  0.00  0.00     0.187 HD
BRANCH   9  11
ATOM     11  C   UNL d   1      -6.170   5.221   8.781  0.00  0.00     0.048 A 
ATOM     12  C   UNL d   1      -6.585   6.354   8.066  0.00  0.00     0.031 A 
ATOM     13  C   UNL d   1      -7.349   7.355   8.674  0.00  0.00     0.002 A 
ATOM     14  C   UNL d   1      -7.725   7.228  10.008  0.00  0.00     0.000 A 
ATOM     15  C   UNL d   1      -7.340   6.100  10.729  0.00  0.00     0.002 A 
ATOM     16  C   UNL d   1      -6.577   5.100  10.117  0.00  0.00     0.031 A 
ENDBRANCH   9  11
ENDBRANCH   7   9
ENDBRANCH   4   6
BRANCH   1  17
ATOM     17  C   UNL d   1      -1.503   2.224   2.612  0.00  0.00    -0.002 A 
ATOM     18  C   UNL d   1      -1.121   0.960   3.087  0.00  0.00     0.017 A 
ATOM     19  C   UNL d   1      -0.345   0.098   2.299  0.00  0.00     0.037 A 
ATOM     20  C   UNL d   1       0.058   0.502   1.021  0.00  0.00     0.102 A 
ATOM     21  C   UNL d   1      -0.299   1.762   0.534  0.00  0.00     0.037 A 
ATOM     22  C   UNL d   1      -1.072   2.612   1.330  0.00  0.00     0.017 A 
BRANCH  20  23
ATOM     23  N   UNL d   1       0.853  -0.401   0.179  0.00  0.00    -0.116 N 
ATOM     24  O   UNL d   1       1.172  -0.006  -0.953  0.00  0.00    -0.532 OA
ATOM     25  O   UNL d   1       1.159  -1.505   0.649  0.00  0.00    -0.532 OA
ENDBRANCH  20  23
ENDBRANCH   1  17
TORSDOF 5
