REMARK  7 active torsions:
REMARK  status: ('A' for Active; 'I' for Inactive)
REMARK    1  A    between atoms: C_12  and  C_1 
REMARK    2  A    between atoms: C_13  and  C_2 
REMARK    3  A    between atoms: C_6  and  C_3 
REMARK    4  A    between atoms: N_9  and  C_8 
REMARK    5  A    between atoms: N_10  and  C_14 
REMARK    6  A    between atoms: O_24  and  C_12 
REMARK    7  A    between atoms: O_23  and  C_13 
ROOT
ATOM      1  C   UNL d   1      -1.286  -0.970   0.177  0.00  0.00     0.052 C 
ATOM      2  C   UNL d   1       1.279  -0.983   0.119  0.00  0.00     0.052 C 
ATOM      3  C   UNL d   1      -0.007  -1.799  -0.085  0.00  0.00     0.103 C 
ATOM      4  C   UNL d   1      -1.228   0.384   0.204  0.00  0.00     0.018 C 
ATOM      5  C   UNL d   1       1.229   0.370   0.162  0.00  0.00     0.018 C 
ATOM      6  N   UNL d   1       0.004   1.016   0.084  0.00  0.00    -0.362 N 
ATOM      7  C   UNL d   1      -2.394   1.336   0.316  0.00  0.00     0.069 C 
ATOM      8  C   UNL d   1       2.440   1.265   0.258  0.00  0.00     0.069 C 
ATOM      9  H   UNL d   1       0.013   2.024   0.232  0.00  0.00     0.165 HD
ENDROOT
BRANCH   3  10
ATOM     10  C   UNL d   1      -0.049  -2.397  -1.513  0.00  0.00    -0.011 A 
ATOM     11  C   UNL d   1      -0.132  -3.773  -1.851  0.00  0.00     0.112 A 
ATOM     12  C   UNL d   1      -0.199  -4.170  -3.209  0.00  0.00     0.072 A 
ATOM     13  C   UNL d   1      -0.191  -3.215  -4.232  0.00  0.00     0.105 A 
ATOM     14  C   UNL d   1      -0.110  -1.858  -3.924  0.00  0.00     0.037 A 
ATOM     15  C   UNL d   1      -0.041  -1.465  -2.587  0.00  0.00     0.013 A 
BRANCH  11  16
ATOM     16  N   UNL d   1      -0.152  -4.874  -0.857  0.00  0.00    -0.115 N 
ATOM     17  O   UNL d   1       0.199  -4.645   0.305  0.00  0.00    -0.532 OA
ATOM     18  O   UNL d   1      -0.470  -6.001  -1.265  0.00  0.00    -0.532 OA
ENDBRANCH  11  16
BRANCH  13  19
ATOM     19  N   UNL d   1      -0.273  -3.634  -5.641  0.00  0.00    -0.116 N 
ATOM     20  O   UNL d   1      -0.319  -4.851  -5.873  0.00  0.00    -0.532 OA
ATOM     21  O   UNL d   1      -0.284  -2.746  -6.504  0.00  0.00    -0.532 OA
ENDBRANCH  13  19
ENDBRANCH   3  10
BRANCH   2  22
ATOM     22  C   UNL d   1       2.566  -1.696   0.346  0.00  0.00     0.291 C 
ATOM     23  O   UNL d   1       3.523  -1.225   0.942  0.00  0.00    -0.260 OA
BRANCH  22  24
ATOM     24  O   UNL d   1       2.531  -2.940  -0.192  0.00  0.00    -0.323 OA
ATOM     25  C   UNL d   1       3.712  -3.708   0.052  0.00  0.00     0.213 C 
ENDBRANCH  22  24
ENDBRANCH   2  22
BRANCH   1  26
ATOM     26  C   UNL d   1      -2.512  -1.796   0.357  0.00  0.00     0.291 C 
ATOM     27  O   UNL d   1      -2.647  -2.901  -0.147  0.00  0.00    -0.260 OA
BRANCH  26  28
ATOM     28  O   UNL d   1      -3.400  -1.205   1.190  0.00  0.00    -0.323 OA
ATOM     29  C   UNL d   1      -4.626  -1.919   1.373  0.00  0.00     0.213 C 
ENDBRANCH  26  28
ENDBRANCH   1  26
TORSDOF 7
