REMARK  8 active torsions:
REMARK  status: ('A' for Active; 'I' for Inactive)
REMARK    1  A    between atoms: N_5  and  S_1 
REMARK    2  A    between atoms: C_13  and  S_1 
REMARK    3  A    between atoms: N_8  and  C_2 
REMARK    4  A    between atoms: C_3  and  N_5 
REMARK    5  A    between atoms: O_14  and  C_7 
REMARK    6  A    between atoms: O_15  and  C_9 
REMARK    7  A    between atoms: C_20  and  O_14 
REMARK    8  A    between atoms: C_21  and  O_15 
ROOT
ATOM      1  C   UNL d   1       1.608  -2.640  -4.947  0.00  0.00     0.067 A 
ATOM      2  C   UNL d   1       0.974  -1.831  -2.298  0.00  0.00     0.058 A 
ATOM      3  C   UNL d   1       2.547  -1.978  -4.123  0.00  0.00     0.071 A 
ATOM      4  C   UNL d   1       0.028  -2.497  -3.070  0.00  0.00     0.066 A 
ATOM      5  C   UNL d   1       0.335  -2.903  -4.381  0.00  0.00     0.097 A 
ATOM      6  C   UNL d   1       2.242  -1.559  -2.821  0.00  0.00     0.093 A 
ENDROOT
BRANCH   2   7
ATOM      7  N   UNL d   1       0.664  -1.465  -0.937  0.00  0.00    -0.183 NA
ATOM      8  H   UNL d   1       1.202  -0.630  -0.677  0.00  0.00     0.146 HD
BRANCH   7   9
ATOM      9  S   UNL d   1       1.076  -2.636   0.237  0.00  0.00     0.213 S 
ATOM     10  O   UNL d   1       2.030  -1.994   1.116  0.00  0.00    -0.211 OA
ATOM     11  O   UNL d   1       1.337  -3.910  -0.387  0.00  0.00    -0.211 OA
BRANCH   9  12
ATOM     12  C   UNL d   1      -0.483  -2.752   1.117  0.00  0.00     0.153 C 
ATOM     13  C   UNL d   1      -0.401  -3.742   2.265  0.00  0.00     0.022 C 
ENDBRANCH   9  12
ENDBRANCH   7   9
ENDBRANCH   2   7
BRANCH   6  14
ATOM     14  O   UNL d   1       3.090  -0.868  -1.990  0.00  0.00    -0.350 OA
BRANCH  14  15
ATOM     15  C   UNL d   1       4.260  -0.305  -2.580  0.00  0.00     0.171 C 
ATOM     16  C   UNL d   1       4.883   0.652  -1.580  0.00  0.00     0.034 C 
ENDBRANCH  14  15
ENDBRANCH   6  14
BRANCH   5  17
ATOM     17  O   UNL d   1      -0.721  -3.539  -4.998  0.00  0.00    -0.349 OA
BRANCH  17  18
ATOM     18  C   UNL d   1      -0.395  -4.695  -5.770  0.00  0.00     0.171 C 
ATOM     19  C   UNL d   1      -1.513  -5.714  -5.640  0.00  0.00     0.034 C 
ENDBRANCH  17  18
ENDBRANCH   5  17
BRANCH   1  20
ATOM     20  N   UNL d   1       1.956  -2.996  -6.246  0.00  0.00    -0.374 N 
ATOM     21  C   UNL d   1       3.313  -3.450  -6.594  0.00  0.00     0.149 C 
ATOM     22  C   UNL d   1       4.041  -2.418  -7.467  0.00  0.00     0.187 C 
ATOM     23  O   UNL d   1       3.268  -2.065  -8.625  0.00  0.00    -0.388 OA
ATOM     24  C   UNL d   1       2.014  -1.486  -8.226  0.00  0.00     0.187 C 
ATOM     25  C   UNL d   1       1.183  -2.466  -7.386  0.00  0.00     0.149 C 
ENDBRANCH   1  20
TORSDOF 8
