REMARK  6 active torsions:
REMARK  status: ('A' for Active; 'I' for Inactive)
REMARK    1  A    between atoms: C_12  and  C_1 
REMARK    2  A    between atoms: S_17  and  C_5 
REMARK    3  A    between atoms: C_8  and  C_9 
REMARK       I    between atoms: N_13  and  C_14 
REMARK    4  A    between atoms: C_15  and  N_13 
REMARK    5  A    between atoms: C_14  and  C_25 
REMARK    6  A    between atoms: C_25  and  S_17 
ROOT
ATOM      1  C   UNL d   1      -0.328  -0.611  -0.996  0.00  0.00     0.192 A 
ATOM      2  O   UNL d   1      -0.876   0.632  -0.819  0.00  0.00    -0.266 OA
ATOM      3  N   UNL d   1       0.184  -1.092   0.118  0.00  0.00    -0.275 N 
ATOM      4  HN  UNL d   1       0.656  -1.988   0.236  1.00  0.00     0.189 HD
ATOM      5  C   UNL d   1      -0.685   0.847   0.510  0.00  0.00     0.204 A 
ATOM      6  N   UNL d   1      -0.045  -0.139   1.096  0.00  0.00    -0.272 N 
ATOM      7  HN  UNL d   1       0.229  -0.192   2.077  1.00  0.00     0.189 HD
ENDROOT
BRANCH   5   8
ATOM      8  S   UNL d   1      -1.349   2.220   1.350  0.00  0.00    -0.075 SA
BRANCH   8   9
ATOM      9  C   UNL d   1      -2.678   2.679   0.200  0.00  0.00     0.186 C 
BRANCH   9  10
ATOM     10  C   UNL d   1      -3.656   1.553  -0.121  0.00  0.00     0.231 C 
ATOM     11  N   UNL d   1      -3.831   0.605   0.867  0.00  0.00    -0.325 N 
ATOM     12  H   UNL d   1      -3.542   0.846   1.812  0.00  0.00     0.169 HD
ATOM     13  O   UNL d   1      -4.285   1.575  -1.177  0.00  0.00    -0.272 OA
BRANCH  11  14
ATOM     14  C   UNL d   1      -4.540  -0.611   0.731  0.00  0.00     0.056 A 
ATOM     15  C   UNL d   1      -5.042  -1.248   1.878  0.00  0.00     0.060 A 
ATOM     16 CL   UNL d   1      -4.837  -0.547   3.447  0.00  0.00    -0.082 Cl
ATOM     17  C   UNL d   1      -5.760  -2.442   1.775  0.00  0.00     0.026 A 
ATOM     18  C   UNL d   1      -5.948  -3.035   0.526  0.00  0.00     0.002 A 
ATOM     19  C   UNL d   1      -5.419  -2.433  -0.614  0.00  0.00     0.002 A 
ATOM     20  C   UNL d   1      -4.724  -1.225  -0.513  0.00  0.00     0.031 A 
ENDBRANCH  11  14
ENDBRANCH   9  10
ENDBRANCH   8   9
ENDBRANCH   5   8
BRANCH   1  21
ATOM     21  C   UNL d   1      -0.445  -1.197  -2.324  0.00  0.00     0.085 A 
ATOM     22  N   UNL d   1      -0.968  -0.396  -3.287  0.00  0.00    -0.362 N 
ATOM     23  C   UNL d   1      -1.107  -0.913  -4.530  0.00  0.00     0.104 A 
ATOM     24  HN  UNL d   1      -1.247   0.563  -3.080  1.00  0.00     0.165 HD
ATOM     25  C   UNL d   1      -0.745  -2.203  -4.872  0.00  0.00     0.063 A 
ATOM     26  C   UNL d   1      -0.210  -3.015  -3.865  0.00  0.00     0.020 A 
ATOM     27  C   UNL d   1      -0.057  -2.508  -2.574  0.00  0.00     0.035 A 
BRANCH  25  28
ATOM     28  C   UNL d   1      -0.923  -2.702  -6.276  0.00  0.00     0.418 C 
ATOM     29  F   UNL d   1      -1.457  -1.776  -7.118  0.00  0.00    -0.166 F 
ATOM     30  F   UNL d   1       0.255  -3.086  -6.840  0.00  0.00    -0.166 F 
ATOM     31  F   UNL d   1      -1.742  -3.786  -6.341  0.00  0.00    -0.166 F 
ENDBRANCH  25  28
ENDBRANCH   1  21
TORSDOF 6
