REMARK  4 active torsions:
REMARK  status: ('A' for Active; 'I' for Inactive)
REMARK    1  A    between atoms: C_6  and  C_1 
REMARK    2  A    between atoms: O_11  and  C_6 
REMARK    3  A    between atoms: O_14  and  C_10 
REMARK    4  A    between atoms: C_15  and  O_11 
ROOT
ATOM      1  C   UNL d   1      -1.647  -1.239  -0.034  0.00  0.00     0.074 A 
ATOM      2  C   UNL d   1      -2.435  -0.090  -0.042  0.00  0.00     0.023 A 
ATOM      3  C   UNL d   1      -0.272  -0.795  -0.043  0.00  0.00     0.011 A 
ATOM      4  N   UNL d   1      -1.596   0.995  -0.052  0.00  0.00    -0.358 N 
ATOM      5  C   UNL d   1      -0.283   0.600  -0.039  0.00  0.00     0.043 A 
ATOM      6  C   UNL d   1       0.987  -1.444  -0.030  0.00  0.00     0.051 A 
ATOM      7  C   UNL d   1       0.883   1.376  -0.017  0.00  0.00     0.033 A 
ATOM      8  C   UNL d   1       2.154  -0.676  -0.012  0.00  0.00     0.066 A 
ATOM      9  C   UNL d   1      -3.909   0.116  -0.016  0.00  0.00     0.069 C 
ATOM     10  C   UNL d   1       2.109   0.709  -0.004  0.00  0.00     0.039 A 
ATOM     11  H   UNL d   1      -1.898   1.959  -0.038  0.00  0.00     0.166 HD
ENDROOT
BRANCH   1  12
ATOM     12  C   UNL d   1      -2.159  -2.609   0.039  0.00  0.00     0.296 C 
ATOM     13  O   UNL d   1      -3.349  -2.891   0.107  0.00  0.00    -0.259 OA
BRANCH  12  14
ATOM     14  O   UNL d   1      -1.163  -3.540   0.122  0.00  0.00    -0.318 OA
BRANCH  14  15
ATOM     15  C   UNL d   1      -1.555  -4.801   0.679  0.00  0.00     0.174 C 
ATOM     16  C   UNL d   1      -1.441  -4.696   2.189  0.00  0.00     0.034 C 
ENDBRANCH  14  15
ENDBRANCH  12  14
ENDBRANCH   1  12
BRANCH   8  17
ATOM     17  O   UNL d   1       3.385  -1.269   0.002  0.00  0.00    -0.361 OA
ATOM     18  H   UNL d   1       3.262  -2.233  -0.016  0.00  0.00     0.217 HD
ENDBRANCH   8  17
TORSDOF 4
