REMARK  5 active torsions:
REMARK  status: ('A' for Active; 'I' for Inactive)
REMARK    1  A    between atoms: N_2  and  C_1 
REMARK    2  A    between atoms: S_9  and  C_3 
REMARK    3  A    between atoms: C_8  and  C_4 
REMARK    4  A    between atoms: O_15  and  C_8 
REMARK    5  A    between atoms: C_14  and  S_9 
ROOT
ATOM      1  C   UNL d   1       0.853   1.187   0.244  0.00  0.00     0.137 A 
ATOM      2  C   UNL d   1      -0.532   1.214   0.139  0.00  0.00     0.108 A 
ATOM      3  C   UNL d   1       0.841  -1.205  -0.001  0.00  0.00     0.057 A 
ATOM      4  C   UNL d   1       1.558  -0.021   0.162  0.00  0.00     0.058 A 
ATOM      5  N   UNL d   1      -1.233   0.057  -0.021  0.00  0.00    -0.357 N 
ATOM      6  HN  UNL d   1      -2.250   0.068  -0.096  1.00  0.00     0.166 HD
ATOM      7  C   UNL d   1      -0.543  -1.115  -0.077  0.00  0.00     0.106 A 
ENDROOT
BRANCH   2   8
ATOM      8  S   UNL d   1      -1.500   2.692  -0.053  0.00  0.00    -0.070 SA
BRANCH   8   9
ATOM      9  C   UNL d   1      -2.076   3.053   1.594  0.00  0.00     0.007 A 
ATOM     10  C   UNL d   1      -1.855   4.340   2.098  0.00  0.00     0.019 A 
ATOM     11  C   UNL d   1      -2.417   4.739   3.312  0.00  0.00     0.008 A 
ATOM     12  C   UNL d   1      -3.220   3.860   4.044  0.00  0.00    -0.062 A 
ATOM     13  C   UNL d   1      -3.413   2.560   3.562  0.00  0.00     0.008 A 
ATOM     14  C   UNL d   1      -3.879   4.338   5.305  0.00  0.00     0.048 C 
ATOM     15  C   UNL d   1      -2.848   2.159   2.342  0.00  0.00     0.019 A 
ENDBRANCH   8   9
ENDBRANCH   2   8
BRANCH   1  16
ATOM     16  N   UNL d   1       1.613   2.393   0.447  0.00  0.00    -0.113 N 
ATOM     17  O   UNL d   1       1.393   3.037   1.480  0.00  0.00    -0.532 OA
ATOM     18  O   UNL d   1       2.492   2.647  -0.387  0.00  0.00    -0.532 OA
ENDBRANCH   1  16
BRANCH   3  19
ATOM     19  C   UNL d   1       1.479  -2.536  -0.076  0.00  0.00     0.294 C 
ATOM     20  O   UNL d   1       0.853  -3.579  -0.201  0.00  0.00    -0.259 OA
BRANCH  19  21
ATOM     21  O   UNL d   1       2.822  -2.412   0.029  0.00  0.00    -0.322 OA
ATOM     22  C   UNL d   1       3.537  -3.649   0.006  0.00  0.00     0.213 C 
ENDBRANCH  19  21
ENDBRANCH   3  19
TORSDOF 5
