REMARK  4 active torsions:
REMARK  status: ('A' for Active; 'I' for Inactive)
REMARK    1  A    between atoms: C_2  and  N_1 
REMARK    2  A    between atoms: C_12  and  C_22 
REMARK    3  A    between atoms: N_21  and  C_15 
REMARK    4  A    between atoms: O_25  and  C_22 
ROOT
ATOM      1  N   UNL d   1       1.403   1.153  -0.134  0.00  0.00    -0.297 N 
ATOM      2  C   UNL d   1       0.576   0.819  -1.171  0.00  0.00     0.142 A 
ATOM      3  C   UNL d   1       0.113  -0.450  -0.851  0.00  0.00     0.122 A 
ATOM      4  N   UNL d   1       0.741  -0.943   0.272  0.00  0.00    -0.346 N 
ATOM      5  HN  UNL d   1       0.631  -1.864   0.696  1.00  0.00     0.167 HD
ATOM      6  C   UNL d   1       1.514   0.042   0.672  0.00  0.00     0.188 A 
ATOM      7  C   UNL d   1      -0.883  -0.992  -1.680  0.00  0.00     0.131 A 
ATOM      8  N   UNL d   1       0.224   1.559  -2.236  0.00  0.00    -0.336 N 
ATOM      9  HN  UNL d   1       0.612   2.476  -2.458  1.00  0.00     0.168 HD
ATOM     10  N   UNL d   1      -1.278  -0.284  -2.762  0.00  0.00    -0.337 N 
ATOM     11  HN  UNL d   1      -1.982  -0.652  -3.402  1.00  0.00     0.168 HD
ATOM     12  C   UNL d   1      -0.712   0.924  -2.969  0.00  0.00     0.183 A 
ENDROOT
BRANCH   1  13
ATOM     13  C   UNL d   1       1.974   2.433   0.224  0.00  0.00     0.262 C 
ATOM     14  C   UNL d   1       2.072   3.548  -0.813  0.00  0.00     0.206 C 
ATOM     15  C   UNL d   1       0.995   4.531  -0.437  0.00  0.00     0.189 C 
ATOM     16  O   UNL d   1       3.330   4.247  -0.668  0.00  0.00    -0.344 OA
ATOM     17  O   UNL d   1       1.642   5.806  -0.323  0.00  0.00    -0.345 OA
ATOM     18  C   UNL d   1       0.470   4.094   0.930  0.00  0.00     0.179 C 
ATOM     19  C   UNL d   1       3.035   5.547  -0.166  0.00  0.00     0.158 C 
ATOM     20  C   UNL d   1       3.433   5.616   1.310  0.00  0.00     0.078 C 
ATOM     21  C   UNL d   1       3.812   6.589  -0.958  0.00  0.00     0.078 C 
ATOM     22  O   UNL d   1       1.218   2.936   1.346  0.00  0.00    -0.353 OA
BRANCH  18  23
ATOM     23  C   UNL d   1      -1.033   3.794   0.951  0.00  0.00     0.198 C 
BRANCH  23  24
ATOM     24  O   UNL d   1      -1.402   2.905  -0.091  0.00  0.00    -0.398 OA
ATOM     25  H   UNL d   1      -2.291   2.563   0.111  0.00  0.00     0.209 HD
ENDBRANCH  23  24
ENDBRANCH  18  23
ENDBRANCH   1  13
BRANCH   7  26
ATOM     26  N   UNL d   1      -1.490  -2.214  -1.429  0.00  0.00    -0.383 N 
ATOM     27  H   UNL d   1      -0.948  -2.814  -0.816  0.00  0.00     0.157 HD
ATOM     28  H   UNL d   1      -1.911  -2.618  -2.251  0.00  0.00     0.157 HD
ENDBRANCH   7  26
TORSDOF 4
