REMARK  8 active torsions:
REMARK  status: ('A' for Active; 'I' for Inactive)
REMARK    1  A    between atoms: C_2  and  C_1 
REMARK    2  A    between atoms: C_3  and  C_1 
REMARK    3  A    between atoms: C_6  and  C_1 
REMARK       I    between atoms: N_4  and  C_2 
REMARK       I    between atoms: N_5  and  C_3 
REMARK    4  A    between atoms: C_9  and  N_4 
REMARK    5  A    between atoms: C_12  and  N_4 
REMARK    6  A    between atoms: C_10  and  N_5 
REMARK    7  A    between atoms: C_13  and  N_5 
REMARK    8  A    between atoms: C_11  and  C_6 
ROOT
ATOM      1  C   UNL d   1       0.970   0.028  -0.034  0.00  0.00     0.175 C 
ENDROOT
BRANCH   1   2
ATOM      2  C   UNL d   1       0.285  -0.965  -0.987  0.00  0.00     0.237 C 
ATOM      3  N   UNL d   1      -0.909  -0.551  -1.629  0.00  0.00    -0.318 N 
ATOM      4  O   UNL d   1       0.821  -2.052  -1.223  0.00  0.00    -0.272 OA
BRANCH   3   5
ATOM      5  C   UNL d   1      -1.406  -1.366  -2.695  0.00  0.00     0.037 A 
ATOM      6  C   UNL d   1      -1.713  -2.711  -2.462  0.00  0.00     0.029 A 
ATOM      7  C   UNL d   1      -2.278  -3.494  -3.471  0.00  0.00     0.002 A 
ATOM      8  C   UNL d   1      -2.515  -2.946  -4.731  0.00  0.00     0.000 A 
ATOM      9  C   UNL d   1      -2.179  -1.618  -4.985  0.00  0.00     0.002 A 
ATOM     10  C   UNL d   1      -1.630  -0.829  -3.971  0.00  0.00     0.029 A 
ENDBRANCH   3   5
BRANCH   3  11
ATOM     11  C   UNL d   1      -1.547   0.762  -1.417  0.00  0.00     0.128 C 
ATOM     12  C   UNL d   1      -3.053   0.835  -1.649  0.00  0.00     0.027 C 
ENDBRANCH   3  11
ENDBRANCH   1   2
BRANCH   1  13
ATOM     13  C   UNL d   1       0.679  -0.316   1.433  0.00  0.00     0.237 C 
ATOM     14  N   UNL d   1       0.765   0.715   2.393  0.00  0.00    -0.318 N 
ATOM     15  O   UNL d   1       0.334  -1.462   1.734  0.00  0.00    -0.272 OA
BRANCH  14  16
ATOM     16  C   UNL d   1       0.464   0.418   3.769  0.00  0.00     0.037 A 
ATOM     17  C   UNL d   1       1.069  -0.667   4.417  0.00  0.00     0.029 A 
ATOM     18  C   UNL d   1       0.871  -0.879   5.786  0.00  0.00     0.002 A 
ATOM     19  C   UNL d   1       0.042  -0.029   6.515  0.00  0.00     0.000 A 
ATOM     20  C   UNL d   1      -0.592   1.033   5.876  0.00  0.00     0.002 A 
ATOM     21  C   UNL d   1      -0.373   1.261   4.515  0.00  0.00     0.029 A 
ENDBRANCH  14  16
BRANCH  14  22
ATOM     22  C   UNL d   1       1.123   2.120   2.105  0.00  0.00     0.128 C 
ATOM     23  C   UNL d   1       2.314   2.612   2.926  0.00  0.00     0.027 C 
ENDBRANCH  14  22
ENDBRANCH   1  13
BRANCH   1  24
ATOM     24  C   UNL d   1       2.498   0.024  -0.276  0.00  0.00     0.062 C 
BRANCH  24  25
ATOM     25  C   UNL d   1       3.011   0.760  -1.507  0.00  0.00    -0.057 A 
ATOM     26  C   UNL d   1       2.188   1.304  -2.502  0.00  0.00     0.007 A 
ATOM     27  C   UNL d   1       2.723   1.961  -3.613  0.00  0.00     0.001 A 
ATOM     28  C   UNL d   1       4.100   2.078  -3.756  0.00  0.00     0.000 A 
ATOM     29  C   UNL d   1       4.940   1.534  -2.788  0.00  0.00     0.001 A 
ATOM     30  C   UNL d   1       4.401   0.882  -1.674  0.00  0.00     0.007 A 
ENDBRANCH  24  25
ENDBRANCH   1  24
TORSDOF 8
