REMARK  7 active torsions:
REMARK  status: ('A' for Active; 'I' for Inactive)
REMARK    1  A    between atoms: C_4  and  C_1 
REMARK       I    between atoms: N_9  and  C_1 
REMARK       I    between atoms: C_2  and  N_3 
REMARK    2  A    between atoms: N_3  and  C_5 
REMARK    3  A    between atoms: C_20  and  N_9 
REMARK    4  A    between atoms: C_13  and  O_18 
REMARK    5  A    between atoms: C_17  and  C_20 
REMARK    6  A    between atoms: C_23  and  C_17 
REMARK    7  A    between atoms: O_18  and  C_23 
ROOT
ATOM      1  C   UNL d   1       4.680  -0.690  -0.479  0.00  0.00     0.046 C 
ENDROOT
BRANCH   1   2
ATOM      2  C   UNL d   1       3.187  -0.861  -0.780  0.00  0.00     0.125 C 
BRANCH   2   3
ATOM      3  N   UNL d   1       2.714  -2.225  -0.611  0.00  0.00    -0.357 N 
ATOM      4  C   UNL d   1       2.210  -2.690   0.585  0.00  0.00     0.251 C 
ATOM      5  O   UNL d   1       2.157  -2.017   1.606  0.00  0.00    -0.268 OA
ATOM      6  H   UNL d   1       2.892  -2.883  -1.359  0.00  0.00     0.162 HD
BRANCH   4   7
ATOM      7  C   UNL d   1       1.730  -4.104   0.593  0.00  0.00     0.032 A 
ATOM      8  C   UNL d   1       1.244  -4.729  -0.566  0.00  0.00     0.018 A 
ATOM      9  C   UNL d   1       0.788  -6.050  -0.514  0.00  0.00     0.025 A 
ATOM     10  C   UNL d   1       0.809  -6.746   0.693  0.00  0.00     0.034 A 
ATOM     11  C   UNL d   1       1.273  -6.130   1.854  0.00  0.00     0.025 A 
ATOM     12 CL   UNL d   1       0.248  -8.371   0.750  0.00  0.00    -0.084 Cl
ATOM     13  C   UNL d   1       1.728  -4.808   1.805  0.00  0.00     0.018 A 
ENDBRANCH   4   7
ENDBRANCH   2   3
ENDBRANCH   1   2
BRANCH   1  14
ATOM     14  C   UNL d   1       5.500  -1.573  -1.404  0.00  0.00     0.177 C 
BRANCH  14  15
ATOM     15  O   UNL d   1       6.913  -1.390  -1.244  0.00  0.00    -0.351 OA
BRANCH  15  16
ATOM     16  C   UNL d   1       7.666  -2.254  -2.010  0.00  0.00     0.070 A 
ATOM     17  C   UNL d   1       7.121  -3.176  -2.910  0.00  0.00     0.066 A 
ATOM     18  C   UNL d   1       7.905  -4.069  -3.631  0.00  0.00     0.037 A 
ATOM     19  C   UNL d   1       9.292  -4.001  -3.483  0.00  0.00     0.029 A 
ATOM     20  C   UNL d   1       9.860  -3.066  -2.605  0.00  0.00     0.005 A 
ATOM     21  C   UNL d   1       9.048  -2.201  -1.863  0.00  0.00     0.037 A 
BRANCH  18  22
ATOM     22  N   UNL d   1       7.338  -5.050  -4.482  0.00  0.00    -0.327 N 
ATOM     23  C   UNL d   1       5.980  -5.294  -4.670  0.00  0.00     0.218 C 
ATOM     24  O   UNL d   1       5.035  -4.700  -4.162  0.00  0.00    -0.274 OA
ATOM     25  C   UNL d   1       5.700  -6.434  -5.615  0.00  0.00     0.117 C 
ATOM     26  H   UNL d   1       7.993  -5.654  -4.959  0.00  0.00     0.169 HD
ENDBRANCH  18  22
ENDBRANCH  15  16
ENDBRANCH  14  15
ENDBRANCH   1  14
TORSDOF 7
