REMARK  5 active torsions:
REMARK  status: ('A' for Active; 'I' for Inactive)
REMARK    1  A    between atoms: C_8  and  C_1 
REMARK    2  A    between atoms: O_14  and  C_2 
REMARK    3  A    between atoms: N_4  and  C_11 
REMARK    4  A    between atoms: C_13  and  N_6 
REMARK    5  A    between atoms: N_9  and  C_8 
ROOT
ATOM      1  C   UNL d   1      -0.405  -0.735  -0.083  0.00  0.00     0.006 A 
ATOM      2  C   UNL d   1      -0.470   0.667  -0.079  0.00  0.00     0.079 A 
ATOM      3  C   UNL d   1       0.696   1.452  -0.051  0.00  0.00    -0.026 A 
ATOM      4  C   UNL d   1       0.871  -1.335  -0.083  0.00  0.00     0.042 A 
ATOM      5  C   UNL d   1       2.053  -0.579  -0.073  0.00  0.00     0.049 A 
ATOM      6  C   UNL d   1       1.947   0.813  -0.047  0.00  0.00     0.040 A 
ATOM      7  C   UNL d   1       0.656   2.955  -0.013  0.00  0.00     0.051 C 
ENDROOT
BRANCH   5   8
ATOM      8  N   UNL d   1       3.335  -1.171  -0.019  0.00  0.00    -0.300 N 
ATOM      9  N   UNL d   1       3.415  -2.161  -0.779  0.00  0.00    -0.300 N 
ATOM     10  HN  UNL d   1       2.659  -2.467  -1.390  1.00  0.00     0.187 HD
ATOM     11  HN  UNL d   1       4.100  -0.833   0.565  1.00  0.00     0.187 HD
BRANCH   9  12
ATOM     12  C   UNL d   1       4.665  -2.808  -0.698  0.00  0.00     0.048 A 
ATOM     13  C   UNL d   1       4.688  -4.207  -0.769  0.00  0.00     0.032 A 
ATOM     14  C   UNL d   1       5.897  -4.910  -0.751  0.00  0.00     0.026 A 
ATOM     15  C   UNL d   1       7.099  -4.212  -0.666  0.00  0.00     0.034 A 
ATOM     16  C   UNL d   1       7.100  -2.820  -0.596  0.00  0.00     0.026 A 
ATOM     17 CL   UNL d   1       8.589  -5.071  -0.659  0.00  0.00    -0.084 Cl
ATOM     18  C   UNL d   1       5.886  -2.122  -0.616  0.00  0.00     0.032 A 
ENDBRANCH   9  12
ENDBRANCH   5   8
BRANCH   1  19
ATOM     19  C   UNL d   1      -1.623  -1.643  -0.071  0.00  0.00     0.313 C 
BRANCH  19  20
ATOM     20  N   UNL d   1      -2.130  -2.070   1.247  0.00  0.00     0.092 N 
ATOM     21  C   UNL d   1      -2.468  -0.953   2.137  0.00  0.00     0.272 C 
ATOM     22  C   UNL d   1      -3.062  -1.423   3.467  0.00  0.00     0.030 C 
ATOM     23  C   UNL d   1      -2.136  -2.416   4.155  0.00  0.00     0.003 C 
ATOM     24  C   UNL d   1      -1.844  -3.574   3.211  0.00  0.00     0.030 C 
ATOM     25  C   UNL d   1      -1.264  -3.066   1.889  0.00  0.00     0.272 C 
ENDBRANCH  19  20
ENDBRANCH   1  19
BRANCH   2  26
ATOM     26  O   UNL d   1      -1.659   1.346  -0.091  0.00  0.00    -0.360 OA
ATOM     27  H   UNL d   1      -2.403   0.726  -0.102  0.00  0.00     0.217 HD
ENDBRANCH   2  26
TORSDOF 5
