REMARK  5 active torsions:
REMARK  status: ('A' for Active; 'I' for Inactive)
REMARK       I    between atoms: N_2  and  C_4 
REMARK       I    between atoms: C_6  and  N_2 
REMARK    1  A    between atoms: C_4  and  C_3 
REMARK    2  A    between atoms: C_16  and  C_5 
REMARK       I    between atoms: N_15  and  C_6 
REMARK    3  A    between atoms: C_7  and  C_10 
REMARK    4  A    between atoms: C_8  and  C_9 
REMARK    5  A    between atoms: C_14  and  N_15 
ROOT
ATOM      1  N   UNL d   1      -1.782   3.490  -0.148  0.00  0.00    -0.274 N 
ATOM      2  C   UNL d   1      -0.554   3.042  -0.604  0.00  0.00     0.266 C 
ATOM      3  C   UNL d   1      -3.015   2.890  -0.137  0.00  0.00     0.327 C 
ATOM      4  N   UNL d   1      -3.065   1.551  -0.440  0.00  0.00    -0.309 N 
ATOM      5  O   UNL d   1      -3.971   3.612   0.136  0.00  0.00    -0.247 OA
ATOM      6  O   UNL d   1      -0.364   1.857  -0.878  0.00  0.00    -0.267 OA
ATOM      7  H   UNL d   1      -1.850   4.478   0.055  0.00  0.00     0.173 HD
ATOM      8  H   UNL d   1      -2.163   1.088  -0.536  0.00  0.00     0.170 HD
ENDROOT
BRANCH   4   9
ATOM      9  C   UNL d   1      -4.234   0.757  -0.554  0.00  0.00     0.037 A 
ATOM     10  C   UNL d   1      -5.524   1.298  -0.565  0.00  0.00     0.045 A 
ATOM     11  C   UNL d   1      -6.667   0.487  -0.679  0.00  0.00     0.050 A 
ATOM     12  C   UNL d   1      -6.505  -0.899  -0.782  0.00  0.00     0.032 A 
ATOM     13  C   UNL d   1      -5.225  -1.472  -0.785  0.00  0.00     0.050 A 
ATOM     14  C   UNL d   1      -4.094  -0.632  -0.674  0.00  0.00     0.045 A 
BRANCH  11  15
ATOM     15  C   UNL d   1      -8.034   1.129  -0.700  0.00  0.00     0.417 C 
ATOM     16  F   UNL d   1      -9.053   0.226  -0.771  0.00  0.00    -0.166 F 
ATOM     17  F   UNL d   1      -8.280   1.880   0.408  0.00  0.00    -0.166 F 
ATOM     18  F   UNL d   1      -8.201   1.960  -1.765  0.00  0.00    -0.166 F 
ENDBRANCH  11  15
BRANCH  13  19
ATOM     19  C   UNL d   1      -5.065  -2.972  -0.877  0.00  0.00     0.417 C 
ATOM     20  F   UNL d   1      -6.207  -3.613  -1.259  0.00  0.00    -0.166 F 
ATOM     21  F   UNL d   1      -4.113  -3.348  -1.774  0.00  0.00    -0.166 F 
ATOM     22  F   UNL d   1      -4.707  -3.529   0.311  0.00  0.00    -0.166 F 
ENDBRANCH  13  19
ENDBRANCH   4   9
BRANCH   2  23
ATOM     23  C   UNL d   1       0.489   4.067  -0.693  0.00  0.00     0.073 A 
ATOM     24  S   UNL d   1       0.213   5.703  -0.252  0.00  0.00    -0.088 SA
ATOM     25  C   UNL d   1       1.817   6.194  -0.626  0.00  0.00    -0.009 A 
ATOM     26  C   UNL d   1       2.543   5.107  -1.089  0.00  0.00     0.017 A 
ATOM     27  C   UNL d   1       1.789   3.898  -1.125  0.00  0.00     0.025 A 
BRANCH  25  28
ATOM     28  C   UNL d   1       2.324   7.638  -0.446  0.00  0.00    -0.018 C 
ATOM     29  C   UNL d   1       1.252   8.622   0.066  0.00  0.00     0.020 C 
ATOM     30  C   UNL d   1       3.488   7.645   0.568  0.00  0.00     0.020 C 
ATOM     31  C   UNL d   1       2.841   8.176  -1.798  0.00  0.00     0.020 C 
ENDBRANCH  25  28
ENDBRANCH   2  23
TORSDOF 5
