REMARK  2 active torsions:
REMARK  status: ('A' for Active; 'I' for Inactive)
REMARK       I    between atoms: N_2  and  C_1 
REMARK    1  A    between atoms: C_8  and  N_2 
REMARK    2  A    between atoms: C_3  and  C_4 
ROOT
ATOM      1  C   UNL d   1       2.211   4.766  -1.466  0.00  0.00    -0.051 A 
ATOM      2  C   UNL d   1       1.113   4.776  -0.589  0.00  0.00     0.010 A 
ATOM      3  C   UNL d   1       2.623   3.515  -1.952  0.00  0.00     0.010 A 
ATOM      4  C   UNL d   1       0.900   2.359  -0.678  0.00  0.00     0.034 A 
ATOM      5  C   UNL d   1       0.466   3.596  -0.205  0.00  0.00     0.030 A 
ATOM      6  C   UNL d   1       1.986   2.328  -1.554  0.00  0.00     0.030 A 
ENDROOT
BRANCH   4   7
ATOM      7  N   UNL d   1       0.321   1.132  -0.285  0.00  0.00    -0.328 N 
ATOM      8  C   UNL d   1      -0.876   0.971   0.386  0.00  0.00     0.218 C 
ATOM      9  O   UNL d   1      -1.706   1.848   0.621  0.00  0.00    -0.274 OA
ATOM     10  C   UNL d   1      -1.143  -0.446   0.822  0.00  0.00     0.117 C 
ATOM     11  H   UNL d   1       0.808   0.295  -0.576  0.00  0.00     0.169 HD
ENDBRANCH   4   7
BRANCH   1  12
ATOM     12  C   UNL d   1       2.913   6.085  -1.832  0.00  0.00    -0.024 C 
ATOM     13  C   UNL d   1       4.111   5.901  -2.790  0.00  0.00     0.019 C 
ATOM     14  C   UNL d   1       1.916   7.044  -2.518  0.00  0.00     0.019 C 
ATOM     15  C   UNL d   1       3.454   6.763  -0.553  0.00  0.00     0.019 C 
ENDBRANCH   1  12
TORSDOF 2
