REMARK  3 active torsions:
REMARK  status: ('A' for Active; 'I' for Inactive)
REMARK    1  A    between atoms: N_2  and  S_1 
REMARK    2  A    between atoms: C_4  and  S_1 
REMARK    3  A    between atoms: C_3  and  N_2 
ROOT
ATOM      1  S   UNL d   1       1.085   0.082   0.006  0.00  0.00     0.246 S 
ATOM      2  O   UNL d   1       0.391   1.140  -0.695  0.00  0.00    -0.206 OA
ATOM      3  O   UNL d   1       2.519   0.084   0.181  0.00  0.00    -0.206 OA
ENDROOT
BRANCH   1   4
ATOM      4  N   UNL d   1       0.568  -1.372  -0.725  0.00  0.00    -0.175 NA
ATOM      5  H   UNL d   1      -0.304  -1.136  -1.212  0.00  0.00     0.146 HD
BRANCH   4   6
ATOM      6  C   UNL d   1       1.520  -1.895  -1.682  0.00  0.00     0.100 A 
ATOM      7  C   UNL d   1       2.553  -2.742  -1.279  0.00  0.00     0.141 A 
ATOM      8  F   UNL d   1       2.641  -3.139   0.000  0.00  0.00    -0.204 F 
ATOM      9  C   UNL d   1       3.492  -3.212  -2.197  0.00  0.00     0.044 A 
ATOM     10  C   UNL d   1       3.418  -2.815  -3.535  0.00  0.00     0.006 A 
ATOM     11  C   UNL d   1       2.407  -1.944  -3.944  0.00  0.00     0.044 A 
ATOM     12  C   UNL d   1       1.474  -1.487  -3.016  0.00  0.00     0.141 A 
ATOM     13  F   UNL d   1       0.501  -0.657  -3.421  0.00  0.00    -0.204 F 
ENDBRANCH   4   6
ENDBRANCH   1   4
BRANCH   1  14
ATOM     14  C   UNL d   1       0.359  -0.062   1.622  0.00  0.00     0.076 A 
ATOM     15  C   UNL d   1      -0.545   0.907   2.071  0.00  0.00     0.050 A 
ATOM     16  C   UNL d   1      -1.102   0.789   3.348  0.00  0.00     0.057 A 
ATOM     17 CL   UNL d   1      -2.211   2.013   3.855  0.00  0.00    -0.083 Cl
ATOM     18  C   UNL d   1      -0.756  -0.294   4.168  0.00  0.00     0.055 A 
ATOM     19  C   UNL d   1       0.154  -1.254   3.710  0.00  0.00     0.027 A 
ATOM     20 CL   UNL d   1      -1.413  -0.503   5.753  0.00  0.00    -0.083 Cl
ATOM     21  C   UNL d   1       0.716  -1.139   2.437  0.00  0.00     0.026 A 
ENDBRANCH   1  14
TORSDOF 3
