REMARK  1 active torsions:
REMARK  status: ('A' for Active; 'I' for Inactive)
REMARK    1  A    between atoms: N_7  and  C_3 
ROOT
ATOM      1  C   UNL d   1       1.116  -1.023  -0.001  0.00  0.00     0.073 A 
ATOM      2  S   UNL d   1      -0.221  -2.107  -0.092  0.00  0.00    -0.066 SA
ATOM      3  C   UNL d   1       2.497  -1.290  -0.045  0.00  0.00     0.103 A 
ATOM      4  C   UNL d   1       0.674   0.296   0.083  0.00  0.00     0.066 A 
ATOM      5  C   UNL d   1      -1.351  -0.844  -0.013  0.00  0.00     0.087 A 
ATOM      6  C   UNL d   1      -0.758   0.408   0.061  0.00  0.00     0.026 A 
ATOM      7  N   UNL d   1       3.329  -0.222  -0.001  0.00  0.00    -0.342 N 
ATOM      8  HN  UNL d   1       4.340  -0.356  -0.046  1.00  0.00     0.167 HD
ATOM      9  N   UNL d   1       1.528   1.350   0.150  0.00  0.00    -0.350 N 
ATOM     10  HN  UNL d   1       1.212   2.317   0.230  1.00  0.00     0.166 HD
ATOM     11  N   UNL d   1      -2.673  -1.110  -0.042  0.00  0.00    -0.360 N 
ATOM     12  HN  UNL d   1      -3.049  -2.057  -0.082  1.00  0.00     0.166 HD
ATOM     13  C   UNL d   1       2.816   1.009   0.102  0.00  0.00     0.182 A 
ATOM     14  C   UNL d   1      -1.628   1.520   0.085  0.00  0.00     0.018 A 
ATOM     15  C   UNL d   1      -3.455  -0.012  -0.011  0.00  0.00     0.089 A 
ATOM     16  C   UNL d   1      -3.002   1.294   0.045  0.00  0.00     0.018 A 
ENDROOT
BRANCH   3  17
ATOM     17  N   UNL d   1       3.011  -2.575  -0.243  0.00  0.00    -0.264 NA
ATOM     18  C   UNL d   1       4.375  -2.602  -0.809  0.00  0.00     0.123 C 
ATOM     19  C   UNL d   1       4.723  -4.053  -1.180  0.00  0.00     0.182 C 
ATOM     20  O   UNL d   1       4.633  -4.923  -0.037  0.00  0.00    -0.389 OA
ATOM     21  C   UNL d   1       3.307  -4.883   0.520  0.00  0.00     0.182 C 
ATOM     22  C   UNL d   1       2.914  -3.455   0.940  0.00  0.00     0.123 C 
ENDBRANCH   3  17
TORSDOF 1
