REMARK  1 active torsions:
REMARK  status: ('A' for Active; 'I' for Inactive)
REMARK       I    between atoms: C_6  and  N_7 
REMARK    1  A    between atoms: C_11  and  C_6 
ROOT
ATOM      1  C   UNL d   1      -3.111   0.102   0.182  0.00  0.00     0.148 A 
ATOM      2  N   UNL d   1      -2.393   1.037  -0.410  0.00  0.00    -0.336 N 
ATOM      3  HN  UNL d   1      -2.786   1.832  -0.913  1.00  0.00     0.168 HD
ATOM      4  S   UNL d   1      -2.159  -1.116   0.959  0.00  0.00    -0.052 SA
ATOM      5  N   UNL d   1      -4.465   0.044   0.113  0.00  0.00    -0.358 N 
ATOM      6  C   UNL d   1      -8.591  -0.579  -0.438  0.00  0.00     0.253 C 
ATOM      7  N   UNL d   1      -7.198  -0.517  -0.453  0.00  0.00    -0.345 N 
ATOM      8  C   UNL d   1      -0.713  -0.354   0.441  0.00  0.00     0.036 A 
ATOM      9  C   UNL d   1      -1.041   0.803  -0.261  0.00  0.00     0.051 A 
ATOM     10  C   UNL d   1       0.617  -0.754   0.644  0.00  0.00     0.045 A 
ATOM     11  C   UNL d   1      -5.303  -0.521   1.173  0.00  0.00     0.145 C 
ATOM     12  C   UNL d   1      -5.176   0.942  -0.796  0.00  0.00     0.145 C 
ATOM     13  C   UNL d   1      -6.456  -1.316   0.534  0.00  0.00     0.146 C 
ATOM     14  C   UNL d   1      -6.355   0.187  -1.438  0.00  0.00     0.146 C 
ATOM     15  O   UNL d   1      -9.217  -1.181   0.434  0.00  0.00    -0.267 OA
ATOM     16  C   UNL d   1      -0.002   1.611  -0.763  0.00  0.00     0.032 A 
ATOM     17  C   UNL d   1       1.627   0.063   0.132  0.00  0.00     0.035 A 
ATOM     18  C   UNL d   1       1.331   1.234  -0.557  0.00  0.00     0.026 A 
ATOM     19 CL   UNL d   1       3.272  -0.392   0.363  0.00  0.00    -0.084 Cl
ENDROOT
BRANCH   6  20
ATOM     20  C   UNL d   1      -9.394   0.147  -1.453  0.00  0.00     0.032 A 
ATOM     21  C   UNL d   1      -9.121   0.076  -2.823  0.00  0.00     0.018 A 
ATOM     22  C   UNL d   1      -9.868   0.840  -3.724  0.00  0.00     0.025 A 
ATOM     23  C   UNL d   1     -10.929   1.619  -3.262  0.00  0.00     0.034 A 
ATOM     24  C   UNL d   1     -11.263   1.628  -1.909  0.00  0.00     0.025 A 
ATOM     25 CL   UNL d   1     -11.833   2.572  -4.371  0.00  0.00    -0.084 Cl
ATOM     26  C   UNL d   1     -10.493   0.891  -1.003  0.00  0.00     0.018 A 
ENDBRANCH   6  20
TORSDOF 1
