REMARK  9 active torsions:
REMARK  status: ('A' for Active; 'I' for Inactive)
REMARK    1  A    between atoms: N_2  and  S_1 
REMARK    2  A    between atoms: C_3  and  S_1 
REMARK    3  A    between atoms: C_4  and  N_2 
REMARK    4  A    between atoms: C_12  and  N_2 
REMARK    5  A    between atoms: C_5  and  C_4 
REMARK    6  A    between atoms: C_8  and  C_9 
REMARK       I    between atoms: N_14  and  C_8 
REMARK    7  A    between atoms: C_9  and  C_12 
REMARK    8  A    between atoms: N_10  and  N_14 
REMARK    9  A    between atoms: C_26  and  C_21 
ROOT
ATOM      1  N   UNL d   1       0.370   0.271  -1.379  0.00  0.00    -0.200 NA
ENDROOT
BRANCH   1   2
ATOM      2  S   UNL d   1       1.029  -0.153   0.155  0.00  0.00     0.244 S 
ATOM      3  O   UNL d   1       0.692   0.917   1.069  0.00  0.00    -0.206 OA
ATOM      4  O   UNL d   1       2.410  -0.544  -0.065  0.00  0.00    -0.206 OA
BRANCH   2   5
ATOM      5  C   UNL d   1       0.196  -1.619   0.699  0.00  0.00     0.074 A 
ATOM      6  C   UNL d   1       0.292  -2.789  -0.060  0.00  0.00     0.026 A 
ATOM      7  C   UNL d   1      -0.295  -3.963   0.418  0.00  0.00     0.025 A 
ATOM      8  C   UNL d   1      -0.960  -3.961   1.647  0.00  0.00     0.034 A 
ATOM      9  C   UNL d   1      -1.042  -2.795   2.409  0.00  0.00     0.025 A 
ATOM     10 CL   UNL d   1      -1.675  -5.411   2.233  0.00  0.00    -0.084 Cl
ATOM     11  C   UNL d   1      -0.462  -1.617   1.935  0.00  0.00     0.026 A 
ENDBRANCH   2   5
ENDBRANCH   1   2
BRANCH   1  12
ATOM     12  C   UNL d   1      -1.135   0.295  -1.385  0.00  0.00     0.172 C 
BRANCH  12  13
ATOM     13  C   UNL d   1      -1.696   0.544  -2.749  0.00  0.00     0.066 A 
ATOM     14  O   UNL d   1      -2.497   1.645  -2.874  0.00  0.00    -0.326 OA
ATOM     15  C   UNL d   1      -2.918   1.694  -4.164  0.00  0.00     0.142 A 
ATOM     16  C   UNL d   1      -2.405   0.637  -4.876  0.00  0.00     0.027 A 
ATOM     17  C   UNL d   1      -1.609  -0.104  -3.966  0.00  0.00     0.036 A 
ENDBRANCH  12  13
ENDBRANCH   1  12
BRANCH   1  18
ATOM     18  C   UNL d   1       0.908   1.605  -1.884  0.00  0.00     0.117 C 
BRANCH  18  19
ATOM     19  C   UNL d   1       2.423   1.726  -1.982  0.00  0.00     0.120 C 
BRANCH  19  20
ATOM     20  C   UNL d   1       2.980   0.886  -3.103  0.00  0.00     0.237 C 
ATOM     21  N   UNL d   1       3.452  -0.360  -2.715  0.00  0.00    -0.270 N 
ATOM     22  H   UNL d   1       3.387  -0.658  -1.740  0.00  0.00     0.190 HD
ATOM     23  O   UNL d   1       2.990   1.320  -4.258  0.00  0.00    -0.272 OA
BRANCH  21  24
ATOM     24  N   UNL d   1       4.038  -1.149  -3.654  0.00  0.00    -0.309 N 
ATOM     25  C   UNL d   1       4.504  -2.294  -3.276  0.00  0.00     0.118 C 
ATOM     26  HN  UNL d   1       4.109  -0.848  -4.626  1.00  0.00     0.186 HD
BRANCH  25  27
ATOM     27  C   UNL d   1       5.167  -3.189  -4.254  0.00  0.00    -0.019 A 
ATOM     28  C   UNL d   1       5.343  -2.774  -5.580  0.00  0.00     0.013 A 
ATOM     29  C   UNL d   1       5.963  -3.618  -6.504  0.00  0.00     0.001 A 
ATOM     30  C   UNL d   1       6.407  -4.877  -6.106  0.00  0.00     0.000 A 
ATOM     31  C   UNL d   1       6.237  -5.293  -4.783  0.00  0.00     0.001 A 
ATOM     32  C   UNL d   1       5.619  -4.450  -3.853  0.00  0.00     0.013 A 
ENDBRANCH  25  27
ENDBRANCH  21  24
ENDBRANCH  19  20
ENDBRANCH  18  19
ENDBRANCH   1  18
TORSDOF 9
