REMARK  7 active torsions:
REMARK  status: ('A' for Active; 'I' for Inactive)
REMARK    1  A    between atoms: C_2  and  C_1 
REMARK       I    between atoms: N_7  and  C_1 
REMARK    2  A    between atoms: C_3  and  C_8 
REMARK    3  A    between atoms: C_4  and  N_6 
REMARK    4  A    between atoms: N_9  and  C_4 
REMARK    5  A    between atoms: N_6  and  C_5 
REMARK    6  A    between atoms: C_17  and  N_7 
REMARK    7  A    between atoms: C_13  and  N_9 
ROOT
ATOM      1  C   UNL d   1       0.387   0.656  -1.539  0.00  0.00     0.053 C 
ATOM      2  C   UNL d   1       1.000   1.049  -2.745  0.00  0.00     0.030 C 
ATOM      3  C   UNL d   1      -0.516   1.531  -0.916  0.00  0.00     0.019 C 
ATOM      4  C   UNL d   1       0.540   2.190  -3.415  0.00  0.00     0.025 C 
ATOM      5  C   UNL d   1      -0.883   2.726  -1.534  0.00  0.00     0.001 C 
ATOM      6  C   UNL d   1      -0.398   3.026  -2.804  0.00  0.00     0.002 C 
ENDROOT
BRANCH   2   7
ATOM      7  N   UNL d   1       2.139   0.316  -3.203  0.00  0.00    -0.235 NA
ATOM      8  H   UNL d   1       2.741   0.146  -2.394  0.00  0.00     0.136 HD
BRANCH   7   9
ATOM      9  C   UNL d   1       2.893   0.687  -4.272  0.00  0.00     0.155 C 
ATOM     10  S   UNL d   1       4.253   1.639  -4.066  0.00  0.00    -0.047 SA
BRANCH   9  11
ATOM     11  N   UNL d   1       2.720   0.056  -5.465  0.00  0.00    -0.338 N 
ATOM     12  H   UNL d   1       3.506   0.224  -6.087  0.00  0.00     0.168 HD
BRANCH  11  13
ATOM     13  C   UNL d   1       1.866  -1.002  -5.840  0.00  0.00     0.034 A 
ATOM     14  C   UNL d   1       0.605  -1.243  -5.292  0.00  0.00     0.045 A 
ATOM     15  C   UNL d   1      -0.152  -2.366  -5.673  0.00  0.00     0.050 A 
ATOM     16  C   UNL d   1       0.365  -3.236  -6.642  0.00  0.00     0.016 A 
ATOM     17  C   UNL d   1       1.602  -2.981  -7.226  0.00  0.00     0.003 A 
ATOM     18  C   UNL d   1       2.341  -1.864  -6.833  0.00  0.00     0.029 A 
BRANCH  15  19
ATOM     19  C   UNL d   1      -1.504  -2.642  -5.059  0.00  0.00     0.417 C 
ATOM     20  F   UNL d   1      -1.875  -1.724  -4.125  0.00  0.00    -0.166 F 
ATOM     21  F   UNL d   1      -2.502  -2.657  -5.986  0.00  0.00    -0.166 F 
ATOM     22  F   UNL d   1      -1.552  -3.851  -4.437  0.00  0.00    -0.166 F 
ENDBRANCH  15  19
ENDBRANCH  11  13
ENDBRANCH   9  11
ENDBRANCH   7   9
ENDBRANCH   2   7
BRANCH   1  23
ATOM     23  C   UNL d   1       0.569  -0.697  -0.916  0.00  0.00     0.258 C 
ATOM     24  N   UNL d   1       1.010  -1.710  -1.769  0.00  0.00    -0.323 N 
ATOM     25  H   UNL d   1       1.323  -1.425  -2.687  0.00  0.00     0.169 HD
ATOM     26  O   UNL d   1       0.305  -0.832   0.274  0.00  0.00    -0.267 OA
BRANCH  24  27
ATOM     27  C   UNL d   1       1.158  -3.074  -1.463  0.00  0.00     0.035 A 
ATOM     28  C   UNL d   1       0.613  -3.671  -0.322  0.00  0.00     0.032 A 
ATOM     29  C   UNL d   1       0.834  -5.025  -0.054  0.00  0.00     0.044 A 
ATOM     30  C   UNL d   1       1.599  -5.783  -0.928  0.00  0.00     0.116 A 
ATOM     31  C   UNL d   1       2.119  -5.220  -2.088  0.00  0.00     0.044 A 
ATOM     32  F   UNL d   1       1.839  -7.071  -0.651  0.00  0.00    -0.206 F 
ATOM     33  C   UNL d   1       1.887  -3.867  -2.362  0.00  0.00     0.032 A 
ENDBRANCH  24  27
ENDBRANCH   1  23
TORSDOF 7
