REMARK  7 active torsions:
REMARK  status: ('A' for Active; 'I' for Inactive)
REMARK    1  A    between atoms: C_2  and  C_1 
REMARK       I    between atoms: N_3  and  C_1 
REMARK    2  A    between atoms: C_12  and  N_3 
REMARK    3  A    between atoms: C_17  and  N_3 
REMARK    4  A    between atoms: O_14  and  C_4 
REMARK    5  A    between atoms: O_16  and  C_5 
REMARK    6  A    between atoms: O_15  and  C_6 
REMARK    7  A    between atoms: C_13  and  C_17 
ROOT
ATOM      1  N   UNL d   1      -4.303  -0.731  -1.453  0.00  0.00    -0.197 NA
ATOM      2  C   UNL d   1      -3.154  -0.915  -1.404  0.00  0.00     0.060 C 
ATOM      3  C   UNL d   1      -1.704  -1.134  -1.379  0.00  0.00     0.143 C 
ENDROOT
BRANCH   3   4
ATOM      4  C   UNL d   1      -0.961   0.198  -1.504  0.00  0.00     0.140 C 
BRANCH   4   5
ATOM      5  N   UNL d   1       0.505   0.070  -1.585  0.00  0.00    -0.342 N 
ATOM      6  C   UNL d   1       1.157  -0.103  -0.337  0.00  0.00     0.254 C 
ATOM      7  O   UNL d   1       0.507  -0.303   0.692  0.00  0.00    -0.267 OA
BRANCH   6   8
ATOM      8  C   UNL d   1       2.646  -0.081  -0.182  0.00  0.00     0.037 C 
ATOM      9  C   UNL d   1       3.461   0.788  -0.905  0.00  0.00     0.057 C 
ATOM     10  C   UNL d   1       4.855   0.747  -0.812  0.00  0.00     0.105 C 
ATOM     11  C   UNL d   1       5.447  -0.081   0.153  0.00  0.00     0.135 C 
ATOM     12  C   UNL d   1       4.629  -0.870   0.991  0.00  0.00     0.105 C 
ATOM     13  C   UNL d   1       3.239  -0.883   0.802  0.00  0.00     0.057 C 
BRANCH  10  14
ATOM     14  O   UNL d   1       5.647   1.552  -1.589  0.00  0.00    -0.353 OA
ATOM     15  C   UNL d   1       5.135   1.877  -2.880  0.00  0.00     0.210 C 
ENDBRANCH  10  14
BRANCH  11  16
ATOM     16  O   UNL d   1       6.797  -0.131   0.413  0.00  0.00    -0.351 OA
ATOM     17  C   UNL d   1       7.655  -0.132  -0.721  0.00  0.00     0.210 C 
ENDBRANCH  11  16
BRANCH  12  18
ATOM     18  O   UNL d   1       5.290  -1.593   1.955  0.00  0.00    -0.353 OA
ATOM     19  C   UNL d   1       4.527  -2.463   2.778  0.00  0.00     0.210 C 
ENDBRANCH  12  18
ENDBRANCH   6   8
BRANCH   5  20
ATOM     20  C   UNL d   1       1.171   0.131  -2.918  0.00  0.00     0.087 C 
ATOM     21  C   UNL d   1       1.329   1.574  -3.440  0.00  0.00     0.025 C 
ATOM     22  C   UNL d   1       0.163   2.124  -4.248  0.00  0.00     0.002 C 
ATOM     23  C   UNL d   1      -0.325   1.170  -5.325  0.00  0.00     0.000 C 
ATOM     24  C   UNL d   1      -0.553  -0.251  -4.824  0.00  0.00     0.002 C 
ATOM     25  C   UNL d   1       0.613  -0.802  -4.007  0.00  0.00     0.025 C 
ENDBRANCH   5  20
ENDBRANCH   4   5
ENDBRANCH   3   4
TORSDOF 7
