REMARK  1 active torsions:
REMARK  status: ('A' for Active; 'I' for Inactive)
REMARK    1  A    between atoms: C_8  and  N_5 
ROOT
ATOM      1  C   UNL d   1      -3.213  -2.556   0.469  0.00  0.00     0.150 A 
ATOM      2  N   UNL d   1      -4.191  -3.427   0.572  0.00  0.00    -0.335 N 
ATOM      3  HN  UNL d   1      -5.158  -3.246   0.304  1.00  0.00     0.168 HD
ATOM      4  S   UNL d   1      -1.693  -3.108   1.067  0.00  0.00    -0.052 SA
ATOM      5  N   UNL d   1      -3.312  -1.326  -0.090  0.00  0.00    -0.336 N 
ATOM      6  C   UNL d   1      -3.733  -4.619   1.092  0.00  0.00     0.051 A 
ATOM      7  C   UNL d   1      -2.387  -4.633   1.458  0.00  0.00     0.035 A 
ATOM      8  C   UNL d   1      -4.498  -5.789   1.265  0.00  0.00     0.031 A 
ATOM      9  C   UNL d   1      -1.786  -5.767   2.027  0.00  0.00     0.021 A 
ATOM     10  C   UNL d   1      -2.565  -6.919   2.185  0.00  0.00     0.002 A 
ATOM     11  C   UNL d   1      -3.903  -6.935   1.800  0.00  0.00     0.002 A 
ATOM     12  H   UNL d   1      -2.458  -0.802  -0.231  0.00  0.00     0.168 HD
ENDROOT
BRANCH   5  13
ATOM     13  C   UNL d   1      -4.465  -0.515  -0.102  0.00  0.00     0.040 A 
ATOM     14  C   UNL d   1      -4.681   0.404  -1.148  0.00  0.00    -0.035 A 
ATOM     15  C   UNL d   1      -5.814   1.242  -1.115  0.00  0.00     0.015 A 
ATOM     16  C   UNL d   1      -3.762   0.523  -2.333  0.00  0.00     0.050 C 
ATOM     17  C   UNL d   1      -6.748   1.165  -0.075  0.00  0.00    -0.061 A 
ATOM     18  C   UNL d   1      -6.553   0.226   0.935  0.00  0.00     0.009 A 
ATOM     19  C   UNL d   1      -7.942   2.073  -0.067  0.00  0.00     0.048 C 
ATOM     20  C   UNL d   1      -5.430  -0.606   0.915  0.00  0.00     0.030 A 
ENDBRANCH   5  13
TORSDOF 1
