REMARK  6 active torsions:
REMARK  status: ('A' for Active; 'I' for Inactive)
REMARK    1  A    between atoms: C_4  and  C_1 
REMARK    2  A    between atoms: C_2  and  C_10 
REMARK    3  A    between atoms: C_12  and  C_3 
REMARK    4  A    between atoms: O_9  and  C_4 
REMARK    5  A    between atoms: N_5  and  O_9 
REMARK    6  A    between atoms: C_13  and  C_11 
ROOT
ATOM      1  C   UNL d   1      -6.115   7.296  -0.211  0.00  0.00     0.018 A 
ATOM      2  C   UNL d   1      -4.554   4.959  -0.132  0.00  0.00    -0.019 A 
ATOM      3  C   UNL d   1      -4.997   7.167  -1.041  0.00  0.00     0.021 A 
ATOM      4  C   UNL d   1      -6.453   6.248   0.652  0.00  0.00     0.021 A 
ATOM      5  C   UNL d   1      -4.218   6.003  -1.002  0.00  0.00     0.014 A 
ATOM      6  C   UNL d   1      -5.678   5.080   0.692  0.00  0.00     0.014 A 
ENDROOT
BRANCH   2   7
ATOM      7  C   UNL d   1      -3.723   3.731  -0.064  0.00  0.00     0.126 C 
ATOM      8  N   UNL d   1      -2.667   3.584  -0.799  0.00  0.00    -0.268 N 
ATOM      9  HN  UNL d   1      -2.327   4.270  -1.473  1.00  0.00     0.194 HD
BRANCH   8  10
ATOM     10  O   UNL d   1      -2.052   2.338  -0.536  0.00  0.00    -0.195 OA
BRANCH  10  11
ATOM     11  C   UNL d   1      -0.906   2.227  -1.276  0.00  0.00     0.316 C 
ATOM     12  O   UNL d   1      -0.475   3.032  -2.094  0.00  0.00    -0.257 OA
BRANCH  11  13
ATOM     13  C   UNL d   1      -0.227   0.917  -1.071  0.00  0.00     0.063 A 
ATOM     14  C   UNL d   1      -0.186   0.198   0.130  0.00  0.00     0.050 A 
ATOM     15 CL   UNL d   1      -0.914   0.738   1.601  0.00  0.00    -0.083 Cl
ATOM     16  C   UNL d   1       0.523  -1.015   0.197  0.00  0.00     0.025 A 
ATOM     17  C   UNL d   1       1.196  -1.512  -0.919  0.00  0.00     0.002 A 
ATOM     18  C   UNL d   1       1.175  -0.799  -2.112  0.00  0.00     0.001 A 
ATOM     19  C   UNL d   1       0.472   0.406  -2.186  0.00  0.00     0.019 A 
ENDBRANCH  11  13
ENDBRANCH  10  11
ENDBRANCH   8  10
ENDBRANCH   2   7
BRANCH   1  20
ATOM     20  C   UNL d   1      -6.912   8.488  -0.247  0.00  0.00    -0.061 C 
ATOM     21  C   UNL d   1      -7.598   9.478  -0.269  0.00  0.00    -0.061 C 
BRANCH  21  22
ATOM     22  C   UNL d   1      -8.443  10.634  -0.302  0.00  0.00     0.018 A 
ATOM     23  C   UNL d   1      -8.214  11.650  -1.232  0.00  0.00     0.020 A 
ATOM     24  C   UNL d   1      -9.061  12.762  -1.280  0.00  0.00     0.001 A 
ATOM     25  C   UNL d   1     -10.136  12.859  -0.397  0.00  0.00     0.000 A 
ATOM     26  C   UNL d   1     -10.362  11.851   0.539  0.00  0.00     0.001 A 
ATOM     27  C   UNL d   1      -9.517  10.740   0.587  0.00  0.00     0.020 A 
ENDBRANCH  21  22
ENDBRANCH   1  20
TORSDOF 6
