REMARK  6 active torsions:
REMARK  status: ('A' for Active; 'I' for Inactive)
REMARK    1  A    between atoms: N_2  and  C_1 
REMARK    2  A    between atoms: C_3  and  C_1 
REMARK    3  A    between atoms: C_4  and  C_1 
REMARK    4  A    between atoms: N_6  and  C_1 
REMARK       I    between atoms: C_5  and  N_2 
REMARK    5  A    between atoms: C_7  and  C_5 
REMARK    6  A    between atoms: C_8  and  N_6 
ROOT
ATOM      1  C   UNL d   1       1.065  -0.032   0.059  0.00  0.00     0.291 C 
ENDROOT
BRANCH   1   2
ATOM      2  N   UNL d   1       0.709  -1.454   0.218  0.00  0.00    -0.320 N 
ATOM      3  C   UNL d   1      -0.584  -1.885   0.348  0.00  0.00     0.255 C 
ATOM      4  O   UNL d   1      -1.501  -1.111   0.560  0.00  0.00    -0.268 OA
ATOM      5  H   UNL d   1       1.373  -2.048  -0.259  0.00  0.00     0.165 HD
BRANCH   3   6
ATOM      6  C   UNL d   1      -0.827  -3.349   0.244  0.00  0.00     0.047 A 
ATOM      7  C   UNL d   1      -2.056  -3.841   0.670  0.00  0.00     0.104 A 
ATOM      8  N   UNL d   1      -2.401  -5.154   0.651  0.00  0.00    -0.374 N 
ATOM      9  C   UNL d   1      -1.478  -6.017   0.175  0.00  0.00     0.087 A 
ATOM     10  HN  UNL d   1      -3.312  -5.474   0.980  1.00  0.00     0.164 HD
ATOM     11  C   UNL d   1      -0.230  -5.628  -0.282  0.00  0.00     0.018 A 
ATOM     12  C   UNL d   1       0.100  -4.273  -0.248  0.00  0.00     0.020 A 
ENDBRANCH   3   6
ENDBRANCH   1   2
BRANCH   1  13
ATOM     13  C   UNL d   1       0.502   0.943   1.151  0.00  0.00     0.435 C 
ATOM     14  F   UNL d   1       0.637   0.381   2.388  0.00  0.00    -0.167 F 
ATOM     15  F   UNL d   1       1.234   2.089   1.197  0.00  0.00    -0.167 F 
ATOM     16  F   UNL d   1      -0.782   1.318   1.025  0.00  0.00    -0.167 F 
ENDBRANCH   1  13
BRANCH   1  17
ATOM     17  C   UNL d   1       0.604   0.618  -1.286  0.00  0.00     0.435 C 
ATOM     18  F   UNL d   1       0.693  -0.243  -2.334  0.00  0.00    -0.167 F 
ATOM     19  F   UNL d   1      -0.683   1.034  -1.281  0.00  0.00    -0.167 F 
ATOM     20  F   UNL d   1       1.357   1.701  -1.608  0.00  0.00    -0.167 F 
ENDBRANCH   1  17
BRANCH   1  21
ATOM     21  N   UNL d   1       2.570  -0.078   0.230  0.00  0.00    -0.237 NA
ATOM     22  H   UNL d   1       2.826  -0.265   1.196  0.00  0.00     0.132 HD
BRANCH  21  23
ATOM     23  C   UNL d   1       3.380  -0.774  -0.651  0.00  0.00     0.082 A 
ATOM     24  N   UNL d   1       2.811  -1.548  -1.592  0.00  0.00    -0.357 N 
ATOM     25  C   UNL d   1       3.621  -2.176  -2.475  0.00  0.00     0.089 A 
ATOM     26  HN  UNL d   1       1.798  -1.658  -1.638  1.00  0.00     0.166 HD
ATOM     27  C   UNL d   1       5.000  -2.112  -2.432  0.00  0.00     0.017 A 
ATOM     28  C   UNL d   1       5.580  -1.344  -1.434  0.00  0.00     0.005 A 
ATOM     29  C   UNL d   1       4.761  -0.662  -0.535  0.00  0.00     0.042 A 
ENDBRANCH  21  23
ENDBRANCH   1  21
TORSDOF 6
