REMARK  4 active torsions:
REMARK  status: ('A' for Active; 'I' for Inactive)
REMARK    1  A    between atoms: C_2  and  C_1 
REMARK    2  A    between atoms: O_11  and  C_1 
REMARK       I    between atoms: N_5  and  C_2 
REMARK    3  A    between atoms: C_3  and  N_8 
REMARK    4  A    between atoms: N_8  and  N_5 
ROOT
ATOM      1  C   UNL d   1       1.204   2.030  -1.717  0.00  0.00     0.273 C 
ATOM      2  N   UNL d   1       2.474   2.581  -1.681  0.00  0.00    -0.265 N 
ATOM      3  O   UNL d   1       0.564   1.956  -2.762  0.00  0.00    -0.268 OA
ATOM      4  H   UNL d   1       2.934   2.809  -0.800  0.00  0.00     0.190 HD
ENDROOT
BRANCH   1   5
ATOM      5  C   UNL d   1       0.715   1.483  -0.354  0.00  0.00     0.170 C 
ATOM      6  C   UNL d   1      -0.835   1.340  -0.330  0.00  0.00     0.320 C 
ATOM      7  N   UNL d   1      -1.274  -0.040   0.013  0.00  0.00     0.091 N 
ATOM      8  C   UNL d   1      -0.715  -0.402   1.333  0.00  0.00     0.273 C 
ATOM      9  C   UNL d   1      -0.741  -0.963  -1.014  0.00  0.00     0.273 C 
ATOM     10  C   UNL d   1       0.822  -0.376   1.333  0.00  0.00     0.038 C 
ATOM     11  C   UNL d   1       1.329   0.090  -0.050  0.00  0.00     0.035 C 
ATOM     12  C   UNL d   1       0.796  -0.941  -1.063  0.00  0.00     0.038 C 
BRANCH   5  13
ATOM     13  O   UNL d   1       1.155   2.386   0.678  0.00  0.00    -0.378 OA
ATOM     14  H   UNL d   1       0.613   3.192   0.617  0.00  0.00     0.211 HD
ENDBRANCH   5  13
ENDBRANCH   1   5
BRANCH   2  15
ATOM     15  N   UNL d   1       2.955   3.160  -2.864  0.00  0.00    -0.274 N 
ATOM     16  H   UNL d   1       2.292   3.149  -3.634  0.00  0.00     0.189 HD
BRANCH  15  17
ATOM     17  C   UNL d   1       4.053   3.975  -2.892  0.00  0.00     0.186 C 
ATOM     18  S   UNL d   1       4.959   4.407  -1.554  0.00  0.00    -0.040 SA
ATOM     19  N   UNL d   1       4.448   4.434  -4.113  0.00  0.00    -0.370 N 
ATOM     20  C   UNL d   1       3.959   4.083  -5.432  0.00  0.00     0.148 C 
ATOM     21  H   UNL d   1       5.282   5.009  -4.082  0.00  0.00     0.161 HD
ENDBRANCH  15  17
ENDBRANCH   2  15
TORSDOF 4
