REMARK  2 active torsions:
REMARK  status: ('A' for Active; 'I' for Inactive)
REMARK       I    between atoms: N_3  and  C_1 
REMARK    1  A    between atoms: C_6  and  C_1 
REMARK    2  A    between atoms: C_5  and  N_4 
ROOT
ATOM      1  C   UNL d   1       0.984  -0.146  -0.015  0.00  0.00     0.253 C 
ATOM      2  N   UNL d   1       0.499   0.861  -0.855  0.00  0.00    -0.345 N 
ATOM      3  N   UNL d   1      -0.321   2.890  -2.701  0.00  0.00    -0.377 N 
ATOM      4  C   UNL d   1       1.013   0.893  -2.236  0.00  0.00     0.146 C 
ATOM      5  C   UNL d   1      -0.710   1.666  -0.611  0.00  0.00     0.146 C 
ATOM      6  C   UNL d   1       1.028   2.312  -2.841  0.00  0.00     0.143 C 
ATOM      7  C   UNL d   1      -0.701   3.046  -1.288  0.00  0.00     0.143 C 
ATOM      8  O   UNL d   1       1.974  -0.821  -0.299  0.00  0.00    -0.267 OA
ENDROOT
BRANCH   1   9
ATOM      9  C   UNL d   1       0.341  -0.413   1.300  0.00  0.00     0.033 A 
ATOM     10  C   UNL d   1      -1.044  -0.546   1.445  0.00  0.00     0.029 A 
ATOM     11  C   UNL d   1      -1.619  -0.729   2.712  0.00  0.00    -0.025 A 
ATOM     12  C   UNL d   1      -3.013  -0.748   2.881  0.00  0.00     0.012 A 
ATOM     13  C   UNL d   1      -0.780  -0.885   3.839  0.00  0.00    -0.026 A 
ATOM     14  C   UNL d   1      -3.574  -0.922   4.146  0.00  0.00     0.001 A 
ATOM     15  C   UNL d   1      -2.749  -1.100   5.253  0.00  0.00     0.001 A 
ATOM     16  C   UNL d   1      -1.361  -1.086   5.101  0.00  0.00     0.012 A 
ATOM     17  C   UNL d   1       0.613  -0.834   3.670  0.00  0.00     0.013 A 
ATOM     18  C   UNL d   1       1.169  -0.589   2.412  0.00  0.00     0.018 A 
ENDBRANCH   1   9
BRANCH   3  19
ATOM     19  C   UNL d   1      -0.977   3.577  -3.715  0.00  0.00     0.044 A 
ATOM     20  C   UNL d   1      -1.110   3.084  -5.054  0.00  0.00     0.017 A 
ATOM     21  C   UNL d   1      -1.844   3.870  -5.983  0.00  0.00     0.046 A 
ATOM     22  C   UNL d   1      -0.611   1.842  -5.531  0.00  0.00     0.018 A 
ATOM     23  C   UNL d   1      -1.993   3.449  -7.292  0.00  0.00     0.054 A 
ATOM     24  N   UNL d   1      -2.445   5.021  -5.661  0.00  0.00    -0.365 N 
ATOM     25  C   UNL d   1      -1.436   2.254  -7.739  0.00  0.00     0.036 A 
ATOM     26  C   UNL d   1      -0.747   1.442  -6.860  0.00  0.00     0.025 A 
ATOM     27 CL   UNL d   1      -1.622   1.778  -9.381  0.00  0.00    -0.084 Cl
ATOM     28  C   UNL d   1      -2.325   5.460  -4.399  0.00  0.00     0.090 A 
ATOM     29  HN  UNL d   1      -2.977   5.548  -6.353  1.00  0.00     0.165 HD
ATOM     30  C   UNL d   1      -1.609   4.797  -3.423  0.00  0.00     0.047 A 
ENDBRANCH   3  19
TORSDOF 2
