REMARK  4 active torsions:
REMARK  status: ('A' for Active; 'I' for Inactive)
REMARK    1  A    between atoms: C_2  and  S_1 
REMARK    2  A    between atoms: N_11  and  S_1 
REMARK    3  A    between atoms: C_9  and  C_3 
REMARK    4  A    between atoms: C_5  and  C_10 
ROOT
ATOM      1  C   UNL d   1       0.693  -1.893  -0.142  0.00  0.00     0.116 A 
ATOM      2  S   UNL d   1      -0.887  -2.265  -0.673  0.00  0.00    -0.075 SA
ATOM      3  C   UNL d   1      -0.686  -3.929  -0.333  0.00  0.00     0.035 A 
ATOM      4  C   UNL d   1       1.400  -3.037   0.181  0.00  0.00     0.034 A 
ATOM      5  C   UNL d   1       0.600  -4.214   0.077  0.00  0.00     0.023 A 
ENDROOT
BRANCH   3   6
ATOM      6  C   UNL d   1      -1.780  -4.946  -0.446  0.00  0.00     0.074 A 
ATOM      7  C   UNL d   1      -3.109  -4.712  -0.862  0.00  0.00     0.077 A 
ATOM      8  C   UNL d   1      -3.723  -5.937  -0.764  0.00  0.00     0.184 A 
ATOM      9  O   UNL d   1      -2.821  -6.852  -0.322  0.00  0.00    -0.233 OA
ATOM     10  N   UNL d   1      -1.597  -6.235  -0.126  0.00  0.00    -0.260 N 
ATOM     11  HN  UNL d   1      -0.733  -6.671   0.196  1.00  0.00     0.195 HD
BRANCH   8  12
ATOM     12  C   UNL d   1      -5.086  -6.423  -1.027  0.00  0.00     0.441 C 
ATOM     13  F   UNL d   1      -5.888  -5.428  -1.491  0.00  0.00    -0.164 F 
ATOM     14  F   UNL d   1      -5.111  -7.406  -1.963  0.00  0.00    -0.164 F 
ATOM     15  F   UNL d   1      -5.684  -6.915   0.086  0.00  0.00    -0.164 F 
ENDBRANCH   8  12
ENDBRANCH   3   6
BRANCH   1  16
ATOM     16  S   UNL d   1       1.114  -0.172  -0.037  0.00  0.00     0.250 S 
ATOM     17  O   UNL d   1       2.467  -0.169   0.468  0.00  0.00    -0.205 OA
ATOM     18  O   UNL d   1       0.046   0.439   0.725  0.00  0.00    -0.205 OA
BRANCH  16  19
ATOM     19  N   UNL d   1       1.114   0.522  -1.596  0.00  0.00    -0.202 NA
ATOM     20  C   UNL d   1       2.159   0.042  -2.554  0.00  0.00     0.134 C 
ATOM     21  C   UNL d   1       3.530   0.669  -2.262  0.00  0.00     0.183 C 
ATOM     22  O   UNL d   1       3.459   2.103  -2.256  0.00  0.00    -0.389 OA
ATOM     23  C   UNL d   1       2.502   2.577  -1.295  0.00  0.00     0.183 C 
ATOM     24  C   UNL d   1       1.105   2.022  -1.594  0.00  0.00     0.134 C 
ENDBRANCH  16  19
ENDBRANCH   1  16
TORSDOF 4
