REMARK  3 active torsions:
REMARK  status: ('A' for Active; 'I' for Inactive)
REMARK    1  A    between atoms: C_8  and  C_1 
REMARK    2  A    between atoms: O_10  and  C_8 
REMARK    3  A    between atoms: C_9  and  O_10 
ROOT
ATOM      1  C   UNL d   1       2.100   0.166   0.088  0.00  0.00     0.014 A 
ATOM      2  S   UNL d   1       1.309  -1.351   0.121  0.00  0.00    -0.091 SA
ATOM      3  C   UNL d   1       1.196   1.219   0.079  0.00  0.00    -0.035 A 
ATOM      4  C   UNL d   1      -0.178   0.748   0.061  0.00  0.00    -0.012 A 
ATOM      5  C   UNL d   1      -0.251  -0.645   0.077  0.00  0.00     0.016 A 
ATOM      6  C   UNL d   1       1.561   2.670   0.073  0.00  0.00     0.050 C 
ATOM      7  C   UNL d   1      -1.403   1.467   0.026  0.00  0.00     0.013 A 
ATOM      8  C   UNL d   1      -1.484  -1.329   0.055  0.00  0.00     0.019 A 
ATOM      9  C   UNL d   1      -2.629   0.795   0.002  0.00  0.00     0.001 A 
ATOM     10  C   UNL d   1      -2.667  -0.591   0.015  0.00  0.00     0.001 A 
ENDROOT
BRANCH   1  11
ATOM     11  C   UNL d   1       3.604   0.185   0.044  0.00  0.00     0.222 C 
BRANCH  11  12
ATOM     12  O   UNL d   1       4.066   0.776   1.261  0.00  0.00    -0.344 OA
BRANCH  12  13
ATOM     13  C   UNL d   1       5.424   0.749   1.466  0.00  0.00     0.090 A 
ATOM     14  C   UNL d   1       6.014   1.837   2.129  0.00  0.00     0.069 A 
ATOM     15  C   UNL d   1       7.381   1.840   2.428  0.00  0.00     0.050 A 
ATOM     16 CL   UNL d   1       5.085   3.221   2.586  0.00  0.00    -0.081 Cl
ATOM     17  C   UNL d   1       8.163   0.743   2.074  0.00  0.00     0.035 A 
ATOM     18  C   UNL d   1       7.592  -0.348   1.427  0.00  0.00     0.026 A 
ATOM     19 CL   UNL d   1       9.841   0.725   2.453  0.00  0.00    -0.084 Cl
ATOM     20  C   UNL d   1       6.226  -0.348   1.130  0.00  0.00     0.040 A 
ENDBRANCH  12  13
ENDBRANCH  11  12
ENDBRANCH   1  11
TORSDOF 3
