REMARK  4 active torsions:
REMARK  status: ('A' for Active; 'I' for Inactive)
REMARK    1  A    between atoms: C_2  and  CA_1 
REMARK    2  A    between atoms: N_3  and  CA_1 
REMARK    3  A    between atoms: C_6  and  CA_1 
REMARK    4  A    between atoms: OXT_8  and  C_2 
REMARK       I    between atoms: C_4  and  N_3 
ROOT
ATOM      1  CA  UNL d   1       1.134   0.014   0.070  0.00  0.00     0.215 C 
ENDROOT
BRANCH   1   2
ATOM      2  C   UNL d   1       0.616  -0.683   1.347  0.00  0.00     0.168 C 
ATOM      3  O   UNL d   1       1.130  -0.622   2.453  0.00  0.00    -0.648 OA
BRANCH   2   4
ATOM      4  OXT UNL d   1      -0.592  -1.289   1.155  0.00  0.00    -0.775 OA
ATOM      5  HXT UNL d   1      -0.988  -1.088   0.275  0.00  0.00     0.167 HD
ENDBRANCH   2   4
ENDBRANCH   1   2
BRANCH   1   6
ATOM      6  N   UNL d   1       0.529   1.336  -0.021  0.00  0.00    -0.343 N 
ATOM      7  C   UNL d   1      -0.724   1.497  -0.550  0.00  0.00     0.214 C 
ATOM      8  O   UNL d   1      -1.383   0.548  -0.955  0.00  0.00    -0.274 OA
ATOM      9  C   UNL d   1      -1.216   2.921  -0.561  0.00  0.00     0.117 C 
ATOM     10  H   UNL d   1       0.908   2.065   0.570  0.00  0.00     0.163 HD
ENDBRANCH   1   6
BRANCH   1  11
ATOM     11  C   UNL d   1       2.645   0.126  -0.011  0.00  0.00    -0.025 A 
ATOM     12  C   UNL d   1       3.334  -0.505  -1.062  0.00  0.00     0.010 A 
ATOM     13  C   UNL d   1       4.718  -0.372  -1.187  0.00  0.00     0.001 A 
ATOM     14  C   UNL d   1       5.430   0.396  -0.269  0.00  0.00     0.000 A 
ATOM     15  C   UNL d   1       4.764   1.022   0.781  0.00  0.00     0.001 A 
ATOM     16  C   UNL d   1       3.381   0.884   0.913  0.00  0.00     0.010 A 
ENDBRANCH   1  11
TORSDOF 4
