REMARK  7 active torsions:
REMARK  status: ('A' for Active; 'I' for Inactive)
REMARK    1  A    between atoms: N_2  and  C_1 
REMARK    2  A    between atoms: C_3  and  C_1 
REMARK    3  A    between atoms: C_4  and  C_1 
REMARK    4  A    between atoms: N_5  and  C_1 
REMARK       I    between atoms: C_6  and  N_2 
REMARK    5  A    between atoms: C_14  and  N_5 
REMARK    6  A    between atoms: O_15  and  C_6 
REMARK    7  A    between atoms: C_22  and  O_15 
ROOT
ATOM      1  C   UNL d   1       0.885   0.159   0.098  0.00  0.00     0.308 C 
ENDROOT
BRANCH   1   2
ATOM      2  N   UNL d   1       0.403   1.510  -0.186  0.00  0.00    -0.295 N 
ATOM      3  C   UNL d   1      -0.902   1.784  -0.314  0.00  0.00     0.362 C 
ATOM      4  O   UNL d   1      -1.778   0.946  -0.139  0.00  0.00    -0.238 OA
ATOM      5  H   UNL d   1       1.086   2.239  -0.348  0.00  0.00     0.168 HD
BRANCH   3   6
ATOM      6  O   UNL d   1      -1.063   3.050  -0.740  0.00  0.00    -0.304 OA
BRANCH   6   7
ATOM      7  C   UNL d   1      -2.359   3.356  -1.262  0.00  0.00     0.176 C 
ATOM      8  C   UNL d   1      -2.392   2.957  -2.728  0.00  0.00     0.034 C 
ENDBRANCH   6   7
ENDBRANCH   3   6
ENDBRANCH   1   2
BRANCH   1   9
ATOM      9  C   UNL d   1       0.340  -0.990  -0.844  0.00  0.00     0.441 C 
ATOM     10  F   UNL d   1      -0.209  -0.482  -1.983  0.00  0.00    -0.166 F 
ATOM     11  F   UNL d   1       1.352  -1.803  -1.256  0.00  0.00    -0.166 F 
ATOM     12  F   UNL d   1      -0.594  -1.804  -0.319  0.00  0.00    -0.166 F 
ENDBRANCH   1   9
BRANCH   1  13
ATOM     13  C   UNL d   1       0.564  -0.266   1.584  0.00  0.00     0.441 C 
ATOM     14  F   UNL d   1       0.035   0.768   2.295  0.00  0.00    -0.166 F 
ATOM     15  F   UNL d   1      -0.260  -1.312   1.760  0.00  0.00    -0.166 F 
ATOM     16  F   UNL d   1       1.724  -0.591   2.229  0.00  0.00    -0.166 F 
ENDBRANCH   1  13
BRANCH   1  17
ATOM     17  N   UNL d   1       2.384   0.391  -0.057  0.00  0.00    -0.349 N 
ATOM     18  H   UNL d   1       2.914  -0.235   0.556  0.00  0.00     0.162 HD
BRANCH  17  19
ATOM     19  C   UNL d   1       3.042   0.603  -1.269  0.00  0.00     0.030 A 
ATOM     20  C   UNL d   1       2.403   0.947  -2.467  0.00  0.00     0.031 A 
ATOM     21  C   UNL d   1       3.124   1.225  -3.633  0.00  0.00     0.026 A 
ATOM     22  C   UNL d   1       4.511   1.209  -3.608  0.00  0.00     0.034 A 
ATOM     23  C   UNL d   1       5.178   0.915  -2.425  0.00  0.00     0.026 A 
ATOM     24 CL   UNL d   1       5.396   1.576  -5.034  0.00  0.00    -0.084 Cl
ATOM     25  C   UNL d   1       4.446   0.623  -1.266  0.00  0.00     0.031 A 
ENDBRANCH  17  19
ENDBRANCH   1  17
TORSDOF 7
