REMARK  6 active torsions:
REMARK  status: ('A' for Active; 'I' for Inactive)
REMARK       I    between atoms: N_3  and  C_1 
REMARK    1  A    between atoms: C_6  and  C_1 
REMARK       I    between atoms: C_2  and  N_5 
REMARK    2  A    between atoms: C_9  and  C_2 
REMARK    3  A    between atoms: C_10  and  N_3 
REMARK    4  A    between atoms: C_11  and  N_3 
REMARK    5  A    between atoms: N_4  and  C_6 
REMARK    6  A    between atoms: N_5  and  C_12 
ROOT
ATOM      1  N   UNL d   1      -1.153   1.250  -0.646  0.00  0.00     0.097 N 
ATOM      2  C   UNL d   1      -3.858   1.799  -1.583  0.00  0.00     0.088 C 
ATOM      3  C   UNL d   1      -3.584   0.949  -0.338  0.00  0.00     0.055 C 
ATOM      4  C   UNL d   1      -2.625   1.831  -2.491  0.00  0.00     0.055 C 
ATOM      5  C   UNL d   1      -2.248   1.275   0.332  0.00  0.00     0.275 C 
ATOM      6  C   UNL d   1      -1.370   2.224  -1.710  0.00  0.00     0.275 C 
ENDROOT
BRANCH   1   7
ATOM      7  C   UNL d   1       0.170   1.398  -0.008  0.00  0.00     0.375 C 
BRANCH   7   8
ATOM      8  C   UNL d   1       0.656   0.040   0.565  0.00  0.00     0.253 C 
ATOM      9  N   UNL d   1       1.596   0.099   1.623  0.00  0.00    -0.312 N 
ATOM     10  O   UNL d   1       0.253  -1.030   0.099  0.00  0.00    -0.271 OA
BRANCH   9  11
ATOM     11  C   UNL d   1       2.469   1.225   1.653  0.00  0.00     0.037 A 
ATOM     12  C   UNL d   1       2.343   2.155   2.687  0.00  0.00     0.030 A 
ATOM     13  C   UNL d   1       3.194   3.259   2.741  0.00  0.00     0.002 A 
ATOM     14  C   UNL d   1       4.149   3.452   1.744  0.00  0.00     0.000 A 
ATOM     15  C   UNL d   1       4.259   2.539   0.694  0.00  0.00     0.002 A 
ATOM     16  C   UNL d   1       3.424   1.421   0.649  0.00  0.00     0.030 A 
ENDBRANCH   9  11
BRANCH   9  17
ATOM     17  C   UNL d   1       2.159  -1.204   2.098  0.00  0.00     0.093 C 
ATOM     18  C   UNL d   1       1.074  -2.163   2.642  0.00  0.00     0.026 C 
ATOM     19  C   UNL d   1       0.448  -1.618   3.919  0.00  0.00     0.002 C 
ATOM     20  C   UNL d   1       1.495  -1.502   5.019  0.00  0.00     0.000 C 
ATOM     21  C   UNL d   1       2.740  -0.737   4.582  0.00  0.00     0.002 C 
ATOM     22  C   UNL d   1       3.256  -1.123   3.191  0.00  0.00     0.026 C 
ENDBRANCH   9  17
ENDBRANCH   7   8
ENDBRANCH   1   7
BRANCH   2  23
ATOM     23  N   UNL d   1      -4.255   3.172  -1.274  0.00  0.00    -0.352 N 
ATOM     24  C   UNL d   1      -5.448   3.529  -0.693  0.00  0.00     0.252 C 
ATOM     25  O   UNL d   1      -6.296   2.735  -0.301  0.00  0.00    -0.268 OA
ATOM     26  H   UNL d   1      -3.583   3.903  -1.456  0.00  0.00     0.163 HD
BRANCH  24  27
ATOM     27  C   UNL d   1      -5.636   4.994  -0.520  0.00  0.00     0.032 A 
ATOM     28  C   UNL d   1      -5.154   5.906  -1.472  0.00  0.00     0.017 A 
ATOM     29  C   UNL d   1      -5.291   7.279  -1.255  0.00  0.00     0.001 A 
ATOM     30  C   UNL d   1      -5.918   7.741  -0.101  0.00  0.00     0.000 A 
ATOM     31  C   UNL d   1      -6.425   6.836   0.834  0.00  0.00     0.001 A 
ATOM     32  C   UNL d   1      -6.289   5.462   0.624  0.00  0.00     0.017 A 
ENDBRANCH  24  27
ENDBRANCH   2  23
TORSDOF 6
