REMARK  2 active torsions:
REMARK  status: ('A' for Active; 'I' for Inactive)
REMARK    1  A    between atoms: C_8  and  C_2 
REMARK    2  A    between atoms: S_14  and  C_3 
ROOT
ATOM      1  C   UNL d   1       2.473   0.735   0.207  0.00  0.00     0.090 A 
ATOM      2  C   UNL d   1       1.268   1.484   0.153  0.00  0.00     0.013 A 
ATOM      3  C   UNL d   1       2.416  -0.658   0.131  0.00  0.00     0.089 A 
ATOM      4  N   UNL d   1       1.249  -1.325   0.049  0.00  0.00    -0.353 N 
ATOM      5  HN  UNL d   1       1.239  -2.344   0.001  1.00  0.00     0.166 HD
ATOM      6  C   UNL d   1       0.041   0.772   0.041  0.00  0.00    -0.022 A 
ATOM      7  C   UNL d   1       0.091  -0.630   0.030  0.00  0.00     0.017 A 
ATOM      8  C   UNL d   1       3.745   1.367   0.369  0.00  0.00     0.103 C 
ATOM      9  N   UNL d   1       4.801   1.843   0.465  0.00  0.00    -0.191 NA
ATOM     10  C   UNL d   1      -1.310   1.457  -0.012  0.00  0.00     0.041 C 
ATOM     11  C   UNL d   1      -1.144  -1.490  -0.064  0.00  0.00     0.057 C 
ATOM     12  C   UNL d   1      -2.479   0.563  -0.429  0.00  0.00     0.005 C 
ATOM     13  C   UNL d   1      -2.420  -0.757   0.321  0.00  0.00     0.006 C 
ENDROOT
BRANCH   2  14
ATOM     14  C   UNL d   1       1.327   2.976   0.166  0.00  0.00     0.017 C 
ATOM     15  S   UNL d   1       0.364   3.902   1.255  0.00  0.00    -0.101 SA
ATOM     16  C   UNL d   1       0.900   5.386   0.607  0.00  0.00     0.050 C 
ATOM     17  C   UNL d   1       1.914   5.207  -0.301  0.00  0.00     0.008 C 
ATOM     18  C   UNL d   1       2.150   3.824  -0.564  0.00  0.00     0.020 C 
ENDBRANCH   2  14
BRANCH   3  19
ATOM     19  S   UNL d   1       3.832  -1.748   0.129  0.00  0.00    -0.124 SA
ATOM     20  H   UNL d   1       4.800  -0.839  -0.057  0.00  0.00     0.108 HD
ENDBRANCH   3  19
TORSDOF 2
