REMARK  4 active torsions:
REMARK  status: ('A' for Active; 'I' for Inactive)
REMARK    1  A    between atoms: C_8  and  N_1 
REMARK    2  A    between atoms: C_2  and  N_3 
REMARK       I    between atoms: N_3  and  C_6 
REMARK    3  A    between atoms: C_6  and  C_16 
REMARK    4  A    between atoms: C_16  and  C_17 
ROOT
ATOM      1  N   UNL d   1      -0.247   5.686   0.773  0.00  0.00    -0.307 N 
ATOM      2  C   UNL d   1      -1.482   5.788   1.360  0.00  0.00     0.227 C 
ATOM      3  O   UNL d   1      -2.072   6.844   1.607  0.00  0.00    -0.273 OA
ATOM      4  H   UNL d   1       0.185   4.791   0.598  0.00  0.00     0.171 HD
ENDROOT
BRANCH   2   5
ATOM      5  C   UNL d   1      -2.227   4.498   1.633  0.00  0.00     0.141 C 
BRANCH   5   6
ATOM      6  C   UNL d   1      -1.484   3.192   1.793  0.00  0.00    -0.049 A 
ATOM      7  C   UNL d   1      -0.911   2.846   3.027  0.00  0.00     0.010 A 
ATOM      8  C   UNL d   1      -0.495   1.532   3.273  0.00  0.00     0.036 A 
ATOM      9  C   UNL d   1      -0.640   0.564   2.274  0.00  0.00     0.102 A 
ATOM     10  C   UNL d   1      -1.121   0.917   1.007  0.00  0.00     0.036 A 
ATOM     11  C   UNL d   1      -1.534   2.231   0.769  0.00  0.00     0.010 A 
BRANCH   9  12
ATOM     12  N   UNL d   1      -0.359  -0.847   2.575  0.00  0.00    -0.116 N 
ATOM     13  O   UNL d   1      -0.620  -1.687   1.701  0.00  0.00    -0.532 OA
ATOM     14  O   UNL d   1       0.104  -1.116   3.693  0.00  0.00    -0.532 OA
ENDBRANCH   9  12
ENDBRANCH   5   6
ENDBRANCH   2   5
BRANCH   1  15
ATOM     15  C   UNL d   1       0.422   6.802   0.340  0.00  0.00     0.150 A 
ATOM     16  N   UNL d   1       0.077   8.061   0.436  0.00  0.00    -0.346 N 
ATOM     17  C   UNL d   1       1.018   8.854  -0.187  0.00  0.00     0.097 A 
ATOM     18  HN  UNL d   1      -0.762   8.404   0.902  1.00  0.00     0.167 HD
ATOM     19  C   UNL d   1       2.074   8.178  -0.752  0.00  0.00     0.070 A 
ATOM     20  S   UNL d   1       1.895   6.491  -0.469  0.00  0.00    -0.064 SA
ENDBRANCH   1  15
TORSDOF 4
