REMARK  5 active torsions:
REMARK  status: ('A' for Active; 'I' for Inactive)
REMARK    1  A    between atoms: C_8  and  N_1 
REMARK    2  A    between atoms: C_9  and  C_2 
REMARK    3  A    between atoms: S_12  and  C_5 
REMARK    4  A    between atoms: C_17  and  C_8 
REMARK    5  A    between atoms: C_10  and  C_11 
ROOT
ATOM      1  N   UNL d   1      -0.250  -1.184  -0.093  0.00  0.00    -0.306 N 
ATOM      2  C   UNL d   1       0.974  -0.527  -0.104  0.00  0.00     0.135 A 
ATOM      3  N   UNL d   1       0.732   0.769   0.037  0.00  0.00    -0.283 N 
ATOM      4  HN  UNL d   1       1.443   1.498   0.094  1.00  0.00     0.188 HD
ATOM      5  C   UNL d   1      -1.200  -0.195   0.007  0.00  0.00     0.162 A 
ATOM      6  N   UNL d   1      -0.620   0.975   0.095  0.00  0.00    -0.278 N 
ATOM      7  HN  UNL d   1      -1.089   1.875   0.189  1.00  0.00     0.189 HD
ENDROOT
BRANCH   2   8
ATOM      8  C   UNL d   1       2.329  -1.100  -0.156  0.00  0.00     0.009 A 
ATOM      9  C   UNL d   1       2.664  -2.264  -0.851  0.00  0.00     0.016 A 
ATOM     10  C   UNL d   1       3.962  -2.797  -0.798  0.00  0.00     0.009 A 
ATOM     11  C   UNL d   1       4.990  -2.165  -0.079  0.00  0.00    -0.051 A 
ATOM     12  C   UNL d   1       4.670  -0.945   0.534  0.00  0.00     0.009 A 
ATOM     13  C   UNL d   1       3.367  -0.428   0.499  0.00  0.00     0.016 A 
BRANCH  11  14
ATOM     14  C   UNL d   1       6.380  -2.816   0.043  0.00  0.00    -0.024 C 
ATOM     15  C   UNL d   1       7.378  -1.970   0.865  0.00  0.00     0.019 C 
ATOM     16  C   UNL d   1       6.243  -4.181   0.754  0.00  0.00     0.019 C 
ATOM     17  C   UNL d   1       7.009  -3.045  -1.348  0.00  0.00     0.019 C 
ENDBRANCH  11  14
ENDBRANCH   2   8
BRANCH   1  18
ATOM     18  C   UNL d   1      -0.490  -2.616  -0.002  0.00  0.00     0.171 C 
BRANCH  18  19
ATOM     19  C   UNL d   1      -0.587  -3.326  -1.337  0.00  0.00    -0.040 A 
ATOM     20  C   UNL d   1      -0.196  -4.674  -1.414  0.00  0.00     0.009 A 
ATOM     21  C   UNL d   1      -0.239  -5.368  -2.626  0.00  0.00     0.001 A 
ATOM     22  C   UNL d   1      -0.698  -4.729  -3.776  0.00  0.00     0.000 A 
ATOM     23  C   UNL d   1      -1.123  -3.408  -3.710  0.00  0.00     0.001 A 
ATOM     24  C   UNL d   1      -1.075  -2.710  -2.500  0.00  0.00     0.009 A 
ENDBRANCH  18  19
ENDBRANCH   1  18
BRANCH   5  25
ATOM     25  S   UNL d   1      -2.910  -0.475  -0.013  0.00  0.00    -0.097 SA
ATOM     26  C   UNL d   1      -3.543   1.217   0.077  0.00  0.00     0.099 C 
ENDBRANCH   5  25
TORSDOF 5
