REMARK  5 active torsions:
REMARK  status: ('A' for Active; 'I' for Inactive)
REMARK    1  A    between atoms: C_2  and  C_1 
REMARK       I    between atoms: N_3  and  C_1 
REMARK    2  A    between atoms: S_4  and  C_2 
REMARK    3  A    between atoms: C_6  and  C_2 
REMARK    4  A    between atoms: C_7  and  N_3 
REMARK    5  A    between atoms: C_8  and  S_4 
ROOT
ATOM      1  C   UNL d   1       0.361  -0.999  -0.963  0.00  0.00     0.177 C 
ENDROOT
BRANCH   1   2
ATOM      2  C   UNL d   1       1.078   0.009  -0.032  0.00  0.00     0.240 C 
ATOM      3  N   UNL d   1       1.156   1.310  -0.497  0.00  0.00    -0.326 N 
ATOM      4  H   UNL d   1       0.698   1.484  -1.384  0.00  0.00     0.169 HD
ATOM      5  O   UNL d   1       1.520  -0.370   1.054  0.00  0.00    -0.272 OA
BRANCH   3   6
ATOM      6  C   UNL d   1       1.688   2.438   0.156  0.00  0.00     0.035 A 
ATOM      7  C   UNL d   1       2.442   2.381   1.331  0.00  0.00     0.032 A 
ATOM      8  C   UNL d   1       2.945   3.553   1.906  0.00  0.00     0.044 A 
ATOM      9  C   UNL d   1       2.686   4.780   1.311  0.00  0.00     0.116 A 
ATOM     10  C   UNL d   1       1.932   4.859   0.148  0.00  0.00     0.044 A 
ATOM     11  F   UNL d   1       3.169   5.900   1.862  0.00  0.00    -0.206 F 
ATOM     12  C   UNL d   1       1.438   3.688  -0.432  0.00  0.00     0.032 A 
ENDBRANCH   3   6
ENDBRANCH   1   2
BRANCH   1  13
ATOM     13  S   UNL d   1      -0.514  -0.244  -2.416  0.00  0.00    -0.111 SA
BRANCH  13  14
ATOM     14  C   UNL d   1      -1.713   0.869  -1.698  0.00  0.00     0.001 A 
ATOM     15  C   UNL d   1      -2.070   1.989  -2.466  0.00  0.00     0.020 A 
ATOM     16  C   UNL d   1      -2.946   2.953  -1.960  0.00  0.00     0.025 A 
ATOM     17  C   UNL d   1      -3.478   2.797  -0.684  0.00  0.00     0.034 A 
ATOM     18  C   UNL d   1      -3.155   1.678   0.078  0.00  0.00     0.025 A 
ATOM     19 CL   UNL d   1      -4.536   3.992  -0.046  0.00  0.00    -0.084 Cl
ATOM     20  C   UNL d   1      -2.280   0.711  -0.431  0.00  0.00     0.020 A 
ENDBRANCH  13  14
ENDBRANCH   1  13
BRANCH   1  21
ATOM     21  C   UNL d   1       1.315  -2.082  -1.449  0.00  0.00    -0.035 A 
ATOM     22  C   UNL d   1       1.076  -3.429  -1.123  0.00  0.00     0.009 A 
ATOM     23  C   UNL d   1       1.938  -4.434  -1.565  0.00  0.00     0.001 A 
ATOM     24  C   UNL d   1       3.048  -4.111  -2.341  0.00  0.00     0.000 A 
ATOM     25  C   UNL d   1       3.301  -2.782  -2.672  0.00  0.00     0.001 A 
ATOM     26  C   UNL d   1       2.445  -1.773  -2.227  0.00  0.00     0.009 A 
ENDBRANCH   1  21
TORSDOF 5
