REMARK  4 active torsions:
REMARK  status: ('A' for Active; 'I' for Inactive)
REMARK    1  A    between atoms: C_5  and  S_1 
REMARK    2  A    between atoms: N_15  and  S_1 
REMARK    3  A    between atoms: C_2  and  C_3 
REMARK       I    between atoms: C_3  and  N_7 
REMARK    4  A    between atoms: N_7  and  C_13 
ROOT
ATOM      1  C   UNL d   1       0.591   0.509  -1.683  0.00  0.00     0.076 A 
ATOM      2  C   UNL d   1       0.128  -0.605  -2.394  0.00  0.00     0.054 A 
ATOM      3  C   UNL d   1      -0.517  -0.438  -3.619  0.00  0.00     0.036 A 
ATOM      4  C   UNL d   1       0.424   1.799  -2.186  0.00  0.00     0.025 A 
ATOM      5  C   UNL d   1      -0.202   1.972  -3.418  0.00  0.00     0.004 A 
ATOM      6  C   UNL d   1      -0.672   0.861  -4.128  0.00  0.00     0.029 A 
ENDROOT
BRANCH   3   7
ATOM      7  N   UNL d   1      -1.057  -1.499  -4.376  0.00  0.00    -0.322 N 
ATOM      8  C   UNL d   1      -1.041  -2.857  -4.077  0.00  0.00     0.264 C 
ATOM      9  O   UNL d   1      -0.471  -3.322  -3.095  0.00  0.00    -0.267 OA
ATOM     10  H   UNL d   1      -1.538  -1.246  -5.231  0.00  0.00     0.169 HD
BRANCH   8  11
ATOM     11  C   UNL d   1      -1.755  -3.711  -5.028  0.00  0.00     0.094 A 
ATOM     12  C   UNL d   1      -1.968  -5.077  -4.957  0.00  0.00     0.057 A 
ATOM     13  C   UNL d   1      -2.690  -5.581  -6.079  0.00  0.00     0.032 A 
ATOM     14 CL   UNL d   1      -1.467  -6.141  -3.707  0.00  0.00    -0.083 Cl
ATOM     15  C   UNL d   1      -3.018  -4.590  -6.974  0.00  0.00     0.052 A 
ATOM     16  S   UNL d   1      -2.462  -3.062  -6.459  0.00  0.00    -0.095 SA
ENDBRANCH   8  11
ENDBRANCH   3   7
BRANCH   1  17
ATOM     17  S   UNL d   1       1.292   0.259  -0.079  0.00  0.00     0.239 S 
ATOM     18  O   UNL d   1       0.761  -0.952   0.498  0.00  0.00    -0.206 OA
ATOM     19  O   UNL d   1       1.286   1.517   0.638  0.00  0.00    -0.206 OA
BRANCH  17  20
ATOM     20  N   UNL d   1       2.900  -0.057  -0.434  0.00  0.00    -0.225 NA
ATOM     21  H   UNL d   1       3.113  -1.034  -0.225  0.00  0.00     0.136 HD
ATOM     22  H   UNL d   1       3.494   0.607   0.066  0.00  0.00     0.136 HD
ENDBRANCH  17  20
ENDBRANCH   1  17
TORSDOF 4
