REMARK  2 active torsions:
REMARK  status: ('A' for Active; 'I' for Inactive)
REMARK       I    between atoms: N_2  and  C_1 
REMARK    1  A    between atoms: C_5  and  C_1 
REMARK    2  A    between atoms: C_4  and  N_2 
ROOT
ATOM      1  C   UNL d   1       2.131  -2.863  -0.219  0.00  0.00     0.082 A 
ATOM      2  C   UNL d   1       0.897  -2.462  -0.775  0.00  0.00     0.058 A 
ATOM      3  C   UNL d   1       2.838  -3.938  -0.777  0.00  0.00     0.058 A 
ATOM      4 CL   UNL d   1       2.741  -2.022   1.177  0.00  0.00    -0.080 Cl
ATOM      5 CL   UNL d   1       4.334  -4.509  -0.122  0.00  0.00    -0.082 Cl
ATOM      6  C   UNL d   1       0.416  -3.129  -1.907  0.00  0.00     0.031 A 
ATOM      7  C   UNL d   1       1.133  -4.189  -2.468  0.00  0.00     0.004 A 
ATOM      8  C   UNL d   1       2.336  -4.599  -1.900  0.00  0.00     0.026 A 
ENDROOT
BRANCH   2   9
ATOM      9  N   UNL d   1       0.201  -1.380  -0.180  0.00  0.00    -0.323 N 
ATOM     10  C   UNL d   1      -1.124  -1.014  -0.378  0.00  0.00     0.255 C 
ATOM     11  O   UNL d   1      -1.924  -1.634  -1.080  0.00  0.00    -0.270 OA
ATOM     12  H   UNL d   1       0.697  -0.901   0.569  0.00  0.00     0.169 HD
BRANCH  10  13
ATOM     13  C   UNL d   1      -1.553   0.282   0.315  0.00  0.00     0.270 C 
ATOM     14 CL   UNL d   1      -0.651   0.552   1.826  0.00  0.00    -0.098 Cl
ATOM     15 CL   UNL d   1      -1.291   1.629  -0.810  0.00  0.00    -0.098 Cl
ENDBRANCH  10  13
ENDBRANCH   2   9
TORSDOF 2
