REMARK  8 active torsions:
REMARK  status: ('A' for Active; 'I' for Inactive)
REMARK    1  A    between atoms: S_10  and  C_2 
REMARK    2  A    between atoms: C_12  and  C_3 
REMARK    3  A    between atoms: C_8  and  O_14 
REMARK       I    between atoms: C_9  and  N_11 
REMARK    4  A    between atoms: C_13  and  C_9 
REMARK    5  A    between atoms: C_23  and  S_10 
REMARK    6  A    between atoms: N_11  and  C_12 
REMARK    7  A    between atoms: O_14  and  C_22 
REMARK    8  A    between atoms: C_26  and  C_23 
ROOT
ATOM      1  N   UNL d   1       0.874   0.068   0.130  0.00  0.00    -0.318 N 
ATOM      2  C   UNL d   1      -0.002   1.116   0.203  0.00  0.00     0.162 A 
ATOM      3  C   UNL d   1       0.091  -1.069   0.098  0.00  0.00     0.117 A 
ATOM      4  N   UNL d   1      -1.234   0.660   0.230  0.00  0.00    -0.278 N 
ATOM      5  HN  UNL d   1      -2.081   1.224   0.287  1.00  0.00     0.189 HD
ATOM      6  N   UNL d   1      -1.177  -0.711   0.166  0.00  0.00    -0.285 N 
ATOM      7  HN  UNL d   1      -1.978  -1.343   0.171  1.00  0.00     0.188 HD
ATOM      8  C   UNL d   1       2.314   0.099   0.110  0.00  0.00     0.160 C 
ENDROOT
BRANCH   3   9
ATOM      9  C   UNL d   1       0.599  -2.462  -0.032  0.00  0.00     0.201 C 
BRANCH   9  10
ATOM     10  N   UNL d   1       0.611  -3.097   1.268  0.00  0.00    -0.350 N 
ATOM     11  C   UNL d   1       1.762  -3.245   2.003  0.00  0.00     0.252 C 
ATOM     12  O   UNL d   1       2.863  -2.869   1.613  0.00  0.00    -0.268 OA
ATOM     13  H   UNL d   1      -0.267  -3.478   1.595  0.00  0.00     0.163 HD
BRANCH  11  14
ATOM     14  C   UNL d   1       1.630  -3.922   3.325  0.00  0.00     0.032 A 
ATOM     15  C   UNL d   1       2.723  -4.637   3.829  0.00  0.00     0.020 A 
ATOM     16  C   UNL d   1       2.649  -5.274   5.077  0.00  0.00     0.038 A 
ATOM     17  C   UNL d   1       1.493  -5.163   5.847  0.00  0.00     0.078 A 
ATOM     18  C   UNL d   1       0.395  -4.467   5.332  0.00  0.00     0.038 A 
ATOM     19  C   UNL d   1       0.457  -3.838   4.086  0.00  0.00     0.020 A 
BRANCH  17  20
ATOM     20  O   UNL d   1       1.286  -5.685   7.088  0.00  0.00    -0.255 OA
BRANCH  20  21
ATOM     21  C   UNL d   1       2.394  -5.969   7.928  0.00  0.00     0.530 C 
ATOM     22  F   UNL d   1       3.506  -5.275   7.612  0.00  0.00    -0.144 F 
ATOM     23  F   UNL d   1       2.055  -5.645   9.197  0.00  0.00    -0.144 F 
ATOM     24  F   UNL d   1       2.668  -7.290   7.890  0.00  0.00    -0.144 F 
ENDBRANCH  20  21
ENDBRANCH  17  20
ENDBRANCH  11  14
ENDBRANCH   9  10
ENDBRANCH   3   9
BRANCH   2  25
ATOM     25  S   UNL d   1       0.461   2.785   0.248  0.00  0.00    -0.088 SA
BRANCH  25  26
ATOM     26  C   UNL d   1      -1.074   3.526   0.881  0.00  0.00     0.121 C 
BRANCH  26  27
ATOM     27  C   UNL d   1      -0.975   5.021   1.062  0.00  0.00    -0.049 A 
ATOM     28  C   UNL d   1      -1.504   5.895   0.097  0.00  0.00     0.008 A 
ATOM     29  C   UNL d   1      -1.476   7.276   0.295  0.00  0.00     0.001 A 
ATOM     30  C   UNL d   1      -0.909   7.806   1.455  0.00  0.00     0.000 A 
ATOM     31  C   UNL d   1      -0.359   6.954   2.409  0.00  0.00     0.001 A 
ATOM     32  C   UNL d   1      -0.389   5.570   2.213  0.00  0.00     0.008 A 
ENDBRANCH  26  27
ENDBRANCH  25  26
ENDBRANCH   2  25
TORSDOF 8
