REMARK  4 active torsions:
REMARK  status: ('A' for Active; 'I' for Inactive)
REMARK    1  A    between atoms: N_2  and  C_1 
REMARK    2  A    between atoms: N_4  and  C_1 
REMARK    3  A    between atoms: C_3  and  C_6 
REMARK    4  A    between atoms: C_10  and  N_4 
ROOT
ATOM      1  C   UNL d   1       0.926  -0.018   0.115  0.00  0.00     0.174 C 
ATOM      2  S   UNL d   1       1.659   1.399  -0.421  0.00  0.00    -0.041 SA
ENDROOT
BRANCH   1   3
ATOM      3  N   UNL d   1       0.375  -0.182   1.400  0.00  0.00    -0.353 N 
ATOM      4  C   UNL d   1      -0.764  -1.099   1.599  0.00  0.00     0.164 C 
ATOM      5  C   UNL d   1      -1.791  -0.583   2.579  0.00  0.00    -0.034 A 
ATOM      6  C   UNL d   1      -3.160  -0.816   2.401  0.00  0.00     0.009 A 
ATOM      7  C   UNL d   1      -1.353   0.114   3.718  0.00  0.00    -0.049 A 
ATOM      8  C   UNL d   1      -4.077  -0.336   3.338  0.00  0.00     0.001 A 
ATOM      9  C   UNL d   1      -3.634   0.357   4.465  0.00  0.00     0.001 A 
ATOM     10  C   UNL d   1      -2.273   0.578   4.660  0.00  0.00     0.008 A 
ATOM     11  C   UNL d   1       0.127   0.344   3.857  0.00  0.00     0.059 C 
ATOM     12  C   UNL d   1       0.685   0.761   2.494  0.00  0.00     0.130 C 
ENDBRANCH   1   3
BRANCH   1  13
ATOM     13  N   UNL d   1       0.890  -1.198  -0.619  0.00  0.00    -0.333 N 
ATOM     14  H   UNL d   1       1.173  -2.003  -0.075  0.00  0.00     0.168 HD
BRANCH  13  15
ATOM     15  C   UNL d   1       0.899  -1.365  -2.018  0.00  0.00     0.035 A 
ATOM     16  C   UNL d   1       0.232  -0.485  -2.877  0.00  0.00     0.045 A 
ATOM     17  C   UNL d   1       0.184  -0.732  -4.260  0.00  0.00     0.050 A 
ATOM     18  C   UNL d   1       0.832  -1.867  -4.772  0.00  0.00     0.016 A 
ATOM     19  C   UNL d   1       1.492  -2.749  -3.917  0.00  0.00     0.003 A 
ATOM     20  C   UNL d   1       1.507  -2.508  -2.543  0.00  0.00     0.029 A 
BRANCH  17  21
ATOM     21  C   UNL d   1      -0.582   0.178  -5.187  0.00  0.00     0.417 C 
ATOM     22  F   UNL d   1      -1.119   1.268  -4.572  0.00  0.00    -0.166 F 
ATOM     23  F   UNL d   1       0.186   0.660  -6.203  0.00  0.00    -0.166 F 
ATOM     24  F   UNL d   1      -1.627  -0.462  -5.784  0.00  0.00    -0.166 F 
ENDBRANCH  17  21
ENDBRANCH  13  15
ENDBRANCH   1  13
TORSDOF 4
