REMARK  5 active torsions:
REMARK  status: ('A' for Active; 'I' for Inactive)
REMARK    1  A    between atoms: C_2  and  C_1 
REMARK       I    between atoms: N_3  and  C_1 
REMARK    2  A    between atoms: C_5  and  N_3 
REMARK    3  A    between atoms: S_7  and  C_10 
REMARK    4  A    between atoms: C_12  and  S_7 
REMARK    5  A    between atoms: C_14  and  C_12 
ROOT
ATOM      1  N   UNL d   1      -0.230   6.580   7.084  0.00  0.00    -0.191 NA
ATOM      2  C   UNL d   1      -0.590   5.853   6.255  0.00  0.00     0.099 C 
ATOM      3  C   UNL d   1      -1.040   4.954   5.232  0.00  0.00     0.044 A 
ATOM      4  C   UNL d   1      -1.946   3.191   3.235  0.00  0.00    -0.049 A 
ATOM      5  C   UNL d   1      -1.700   5.452   4.105  0.00  0.00     0.023 A 
ATOM      6  C   UNL d   1      -0.822   3.579   5.356  0.00  0.00     0.023 A 
ATOM      7  C   UNL d   1      -2.146   4.575   3.111  0.00  0.00     0.009 A 
ATOM      8  C   UNL d   1      -1.270   2.702   4.361  0.00  0.00     0.009 A 
ENDROOT
BRANCH   4   9
ATOM      9  C   UNL d   1      -2.454   2.254   2.163  0.00  0.00     0.118 C 
BRANCH   9  10
ATOM     10  S   UNL d   1      -1.187   1.939   0.890  0.00  0.00    -0.123 SA
BRANCH  10  11
ATOM     11  C   UNL d   1      -2.028   0.896  -0.318  0.00  0.00     0.027 A 
ATOM     12  C   UNL d   1      -1.265   0.140  -1.240  0.00  0.00     0.051 A 
ATOM     13  C   UNL d   1      -1.920  -0.637  -2.209  0.00  0.00     0.031 A 
ATOM     14  C   UNL d   1      -3.310  -0.650  -2.299  0.00  0.00     0.002 A 
ATOM     15  C   UNL d   1      -4.062   0.125  -1.427  0.00  0.00     0.002 A 
ATOM     16  C   UNL d   1      -3.426   0.893  -0.448  0.00  0.00     0.021 A 
BRANCH  12  17
ATOM     17  N   UNL d   1       0.152   0.117  -1.151  0.00  0.00    -0.322 N 
ATOM     18  C   UNL d   1       1.008  -0.110  -2.212  0.00  0.00     0.257 C 
ATOM     19  O   UNL d   1       0.655  -0.074  -3.392  0.00  0.00    -0.267 OA
ATOM     20  H   UNL d   1       0.542   0.469  -0.283  0.00  0.00     0.169 HD
BRANCH  18  21
ATOM     21  C   UNL d   1       2.428  -0.492  -1.911  0.00  0.00     0.048 A 
ATOM     22  C   UNL d   1       3.150  -0.291  -0.724  0.00  0.00     0.022 A 
ATOM     23  I   UNL d   1       2.599   0.976   0.852  0.00  0.00    -0.043 I 
ATOM     24  C   UNL d   1       4.409  -0.900  -0.558  0.00  0.00     0.019 A 
ATOM     25  C   UNL d   1       4.983  -1.658  -1.577  0.00  0.00     0.001 A 
ATOM     26  C   UNL d   1       4.320  -1.792  -2.788  0.00  0.00     0.001 A 
ATOM     27  C   UNL d   1       3.058  -1.218  -2.948  0.00  0.00     0.018 A 
ENDBRANCH  18  21
ENDBRANCH  12  17
ENDBRANCH  10  11
ENDBRANCH   9  10
ENDBRANCH   4   9
TORSDOF 5
