REMARK  5 active torsions:
REMARK  status: ('A' for Active; 'I' for Inactive)
REMARK    1  A    between atoms: C_8  and  C_2 
REMARK    2  A    between atoms: S_13  and  C_3 
REMARK    3  A    between atoms: C_11  and  C_6 
REMARK    4  A    between atoms: O_14  and  C_8 
REMARK    5  A    between atoms: C_19  and  O_14 
ROOT
ATOM      1  C   UNL d   1       0.623   0.080   0.002  0.00  0.00     0.094 A 
ATOM      2  C   UNL d   1      -0.048   1.310   0.001  0.00  0.00     0.065 A 
ATOM      3  C   UNL d   1      -0.165  -1.069   0.023  0.00  0.00     0.091 A 
ATOM      4  N   UNL d   1      -1.520  -1.023   0.012  0.00  0.00    -0.352 N 
ATOM      5  HN  UNL d   1      -2.056  -1.890   0.037  1.00  0.00     0.166 HD
ATOM      6  C   UNL d   1      -2.167   0.161  -0.032  0.00  0.00     0.018 A 
ATOM      7  C   UNL d   1      -1.450   1.348  -0.028  0.00  0.00     0.045 A 
ATOM      8  C   UNL d   1       2.050  -0.014  -0.076  0.00  0.00     0.103 C 
ATOM      9  N   UNL d   1       3.206  -0.081  -0.160  0.00  0.00    -0.191 NA
ENDROOT
BRANCH   2  10
ATOM     10  C   UNL d   1       0.622   2.635  -0.017  0.00  0.00     0.295 C 
ATOM     11  O   UNL d   1       0.105   3.621  -0.520  0.00  0.00    -0.259 OA
BRANCH  10  12
ATOM     12  O   UNL d   1       1.794   2.603   0.652  0.00  0.00    -0.318 OA
BRANCH  12  13
ATOM     13  C   UNL d   1       2.521   3.842   0.703  0.00  0.00     0.174 C 
ATOM     14  C   UNL d   1       3.261   4.088  -0.601  0.00  0.00     0.034 C 
ENDBRANCH  12  13
ENDBRANCH  10  12
ENDBRANCH   2  10
BRANCH   3  15
ATOM     15  S   UNL d   1       0.535  -2.722   0.044  0.00  0.00    -0.115 SA
ATOM     16  C   UNL d   1      -0.971  -3.738   0.105  0.00  0.00     0.097 C 
ENDBRANCH   3  15
BRANCH   6  17
ATOM     17  C   UNL d   1      -3.696   0.134  -0.102  0.00  0.00    -0.009 C 
ATOM     18  C   UNL d   1      -4.224  -1.319  -0.138  0.00  0.00     0.021 C 
ATOM     19  C   UNL d   1      -4.296   0.827   1.134  0.00  0.00     0.021 C 
ATOM     20  C   UNL d   1      -4.189   0.840  -1.380  0.00  0.00     0.021 C 
ENDBRANCH   6  17
TORSDOF 5
