REMARK  2 active torsions:
REMARK  status: ('A' for Active; 'I' for Inactive)
REMARK    1  A    between atoms: C_11  and  C_2 
REMARK    2  A    between atoms: O_14  and  C_11 
ROOT
ATOM      1  C   UNL d   1       0.094  -0.736  -0.017  0.00  0.00     0.086 A 
ATOM      2  C   UNL d   1      -2.280  -0.668  -0.012  0.00  0.00     0.040 A 
ATOM      3  C   UNL d   1       0.129   0.721  -0.014  0.00  0.00     0.085 A 
ATOM      4  C   UNL d   1      -1.109  -1.461  -0.016  0.00  0.00     0.052 A 
ATOM      5  O   UNL d   1       2.158  -0.055  -0.009  0.00  0.00    -0.156 OA
ATOM      6  N   UNL d   1       1.355  -1.183  -0.016  0.00  0.00    -0.240 N 
ATOM      7  HN  UNL d   1       1.662  -2.156  -0.020  1.00  0.00     0.197 HD
ATOM      8  N   UNL d   1       1.409   1.111  -0.013  0.00  0.00    -0.240 N 
ATOM      9  HN  UNL d   1       1.760   2.069  -0.016  1.00  0.00     0.197 HD
ATOM     10  C   UNL d   1      -2.243   0.761   0.006  0.00  0.00     0.021 A 
ATOM     11  C   UNL d   1      -1.041   1.501  -0.007  0.00  0.00     0.035 A 
ENDROOT
BRANCH   2  12
ATOM     12  C   UNL d   1      -3.571  -1.405   0.043  0.00  0.00     0.176 C 
ATOM     13  O   UNL d   1      -3.677  -2.501   0.560  0.00  0.00    -0.646 OA
BRANCH  12  14
ATOM     14  O   UNL d   1      -4.600  -0.774  -0.564  0.00  0.00    -0.773 OA
ATOM     15  H   UNL d   1      -4.375   0.004  -1.106  0.00  0.00     0.167 HD
ENDBRANCH  12  14
ENDBRANCH   2  12
TORSDOF 2
