REMARK  2 active torsions:
REMARK  status: ('A' for Active; 'I' for Inactive)
REMARK       I    between atoms: N_2  and  C_1 
REMARK       I    between atoms: N_6  and  C_1 
REMARK    1  A    between atoms: C_3  and  N_2 
REMARK    2  A    between atoms: C_9  and  N_6 
ROOT
ATOM      1  C   UNL d   1       0.924  -0.151   0.018  0.00  0.00     0.326 C 
ATOM      2  N   UNL d   1       0.241   0.039  -1.160  0.00  0.00    -0.294 N 
ATOM      3  N   UNL d   1       0.170  -0.069   1.155  0.00  0.00    -0.309 N 
ATOM      4  O   UNL d   1       2.124  -0.413  -0.040  0.00  0.00    -0.247 OA
ATOM      5  H   UNL d   1       0.813  -0.109  -1.977  0.00  0.00     0.172 HD
ATOM      6  H   UNL d   1      -0.799   0.177   0.972  0.00  0.00     0.170 HD
ENDROOT
BRANCH   2   7
ATOM      7  C   UNL d   1      -1.107   0.377  -1.337  0.00  0.00     0.109 A 
ATOM      8  N   UNL d   1      -1.854   0.684  -0.252  0.00  0.00    -0.346 N 
ATOM      9  C   UNL d   1      -3.152   1.023  -0.428  0.00  0.00     0.007 A 
ATOM     10  HN  UNL d   1      -1.447   0.660   0.683  1.00  0.00     0.167 HD
ATOM     11  C   UNL d   1      -3.922   1.404   0.799  0.00  0.00     0.068 C 
ATOM     12  C   UNL d   1      -3.752   1.027  -1.678  0.00  0.00     0.025 A 
ATOM     13  C   UNL d   1      -2.978   0.700  -2.788  0.00  0.00     0.006 A 
ATOM     14  C   UNL d   1      -1.631   0.383  -2.619  0.00  0.00     0.049 A 
ENDBRANCH   2   7
BRANCH   3  15
ATOM     15  C   UNL d   1       0.517  -0.276   2.495  0.00  0.00     0.036 A 
ATOM     16  C   UNL d   1       1.809  -0.550   2.938  0.00  0.00     0.029 A 
ATOM     17  C   UNL d   1       2.054  -0.744   4.302  0.00  0.00     0.002 A 
ATOM     18  C   UNL d   1       1.010  -0.670   5.224  0.00  0.00     0.000 A 
ATOM     19  C   UNL d   1      -0.282  -0.401   4.788  0.00  0.00     0.002 A 
ATOM     20  C   UNL d   1      -0.526  -0.202   3.428  0.00  0.00     0.029 A 
ENDBRANCH   3  15
TORSDOF 2
