REMARK  3 active torsions:
REMARK  status: ('A' for Active; 'I' for Inactive)
REMARK    1  A    between atoms: N_5  and  C_1 
REMARK       I    between atoms: C_6  and  N_5 
REMARK       I    between atoms: N_10  and  C_6 
REMARK    2  A    between atoms: C_17  and  C_7 
REMARK    3  A    between atoms: C_9  and  N_10 
ROOT
ATOM      1  N   UNL d   1       1.966  -1.393  -0.366  0.00  0.00    -0.293 N 
ATOM      2  C   UNL d   1       3.333  -1.097  -0.622  0.00  0.00     0.326 C 
ATOM      3  N   UNL d   1       3.631   0.077  -1.247  0.00  0.00    -0.309 N 
ATOM      4  O   UNL d   1       4.095  -1.962  -0.227  0.00  0.00    -0.247 OA
ATOM      5  H   UNL d   1       1.897  -2.311   0.064  0.00  0.00     0.172 HD
ATOM      6  H   UNL d   1       2.872   0.625  -1.596  0.00  0.00     0.170 HD
ENDROOT
BRANCH   1   7
ATOM      7  C   UNL d   1       0.801  -0.647  -0.437  0.00  0.00     0.126 A 
ATOM      8  C   UNL d   1       0.552   0.630  -0.870  0.00  0.00     0.081 A 
ATOM      9  C   UNL d   1      -0.796   0.913  -0.499  0.00  0.00     0.062 A 
ATOM     10  N   UNL d   1      -1.375  -0.169   0.032  0.00  0.00    -0.298 N 
ATOM     11  N   UNL d   1      -0.412  -1.100   0.025  0.00  0.00    -0.285 N 
ATOM     12  HN  UNL d   1      -2.334  -0.264   0.367  1.00  0.00     0.187 HD
ATOM     13  H   UNL d   1      -0.636  -2.009   0.414  0.00  0.00     0.188 HD
BRANCH   9  14
ATOM     14  C   UNL d   1      -1.439   2.224  -0.541  0.00  0.00    -0.008 A 
ATOM     15  C   UNL d   1      -1.116   3.150  -1.543  0.00  0.00     0.014 A 
ATOM     16  C   UNL d   1      -1.580   4.465  -1.465  0.00  0.00     0.001 A 
ATOM     17  C   UNL d   1      -2.378   4.859  -0.393  0.00  0.00     0.000 A 
ATOM     18  C   UNL d   1      -2.743   3.934   0.584  0.00  0.00     0.001 A 
ATOM     19  C   UNL d   1      -2.282   2.619   0.506  0.00  0.00     0.014 A 
ENDBRANCH   9  14
ENDBRANCH   1   7
BRANCH   3  20
ATOM     20  C   UNL d   1       4.920   0.613  -1.464  0.00  0.00     0.039 A 
ATOM     21  C   UNL d   1       6.110  -0.055  -1.155  0.00  0.00     0.053 A 
ATOM     22  C   UNL d   1       7.345   0.566  -1.362  0.00  0.00     0.037 A 
ATOM     23 CL   UNL d   1       8.794  -0.277  -0.976  0.00  0.00    -0.084 Cl
ATOM     24  C   UNL d   1       7.418   1.859  -1.869  0.00  0.00     0.048 A 
ATOM     25  C   UNL d   1       6.239   2.522  -2.187  0.00  0.00     0.037 A 
ATOM     26  C   UNL d   1       4.998   1.908  -1.998  0.00  0.00     0.053 A 
ATOM     27 CL   UNL d   1       6.305   4.128  -2.803  0.00  0.00    -0.084 Cl
ENDBRANCH   3  20
TORSDOF 3
