REMARK  10 active torsions:
REMARK  status: ('A' for Active; 'I' for Inactive)
REMARK       I    between atoms: N_2  and  C_1 
REMARK    1  A    between atoms: C_16  and  C_1 
REMARK    2  A    between atoms: C_3  and  N_2 
REMARK    3  A    between atoms: N_7  and  C_4 
REMARK       I    between atoms: C_6  and  N_7 
REMARK    4  A    between atoms: C_13  and  C_6 
REMARK    5  A    between atoms: O_21  and  C_8 
REMARK    6  A    between atoms: C_11  and  C_13 
REMARK    7  A    between atoms: C_14  and  C_11 
REMARK    8  A    between atoms: C_19  and  C_11 
REMARK    9  A    between atoms: C_12  and  C_14 
REMARK   10  A    between atoms: O_20  and  C_12 
ROOT
ATOM      1  C   UNL d   1       2.064  -2.095   0.266  0.00  0.00     0.043 A 
ATOM      2  C   UNL d   1       0.550  -4.423   0.720  0.00  0.00     0.069 A 
ATOM      3  C   UNL d   1       2.342  -2.940   1.354  0.00  0.00     0.069 A 
ATOM      4  C   UNL d   1       1.611  -4.109   1.583  0.00  0.00     0.097 A 
ATOM      5  C   UNL d   1       0.967  -2.388  -0.567  0.00  0.00    -0.033 A 
ATOM      6  C   UNL d   1       0.195  -3.539  -0.303  0.00  0.00     0.041 A 
ATOM      7  C   UNL d   1       0.605  -1.613  -1.806  0.00  0.00     0.050 C 
ENDROOT
BRANCH   2   8
ATOM      8  N   UNL d   1      -0.128  -5.667   0.794  0.00  0.00    -0.325 N 
ATOM      9  C   UNL d   1       0.615  -6.832   0.621  0.00  0.00     0.222 C 
ATOM     10  O   UNL d   1       1.821  -6.845   0.392  0.00  0.00    -0.273 OA
ATOM     11  H   UNL d   1      -1.062  -5.703   0.404  0.00  0.00     0.169 HD
BRANCH   9  12
ATOM     12  C   UNL d   1      -0.198  -8.115   0.667  0.00  0.00     0.113 C 
BRANCH  12  13
ATOM     13  C   UNL d   1      -0.137  -8.896   2.002  0.00  0.00     0.037 C 
BRANCH  13  14
ATOM     14  C   UNL d   1      -0.344  -8.000   3.244  0.00  0.00     0.119 C 
BRANCH  14  15
ATOM     15  C   UNL d   1      -1.742  -7.439   3.343  0.00  0.00     0.140 C 
ATOM     16  O   UNL d   1      -2.625  -7.583   2.512  0.00  0.00    -0.650 OA
BRANCH  15  17
ATOM     17  O   UNL d   1      -1.937  -6.742   4.487  0.00  0.00    -0.776 OA
ATOM     18  H   UNL d   1      -1.136  -6.681   5.044  0.00  0.00     0.167 HD
ENDBRANCH  15  17
ENDBRANCH  14  15
ENDBRANCH  13  14
BRANCH  13  19
ATOM     19  C   UNL d   1       1.083  -9.795   2.232  0.00  0.00    -0.053 A 
ATOM     20  C   UNL d   1       2.312  -9.639   1.579  0.00  0.00     0.007 A 
ATOM     21  C   UNL d   1       3.416 -10.432   1.908  0.00  0.00     0.001 A 
ATOM     22  C   UNL d   1       3.308 -11.416   2.882  0.00  0.00     0.000 A 
ATOM     23  C   UNL d   1       2.087 -11.622   3.514  0.00  0.00     0.001 A 
ATOM     24  C   UNL d   1       0.986 -10.824   3.187  0.00  0.00     0.007 A 
ENDBRANCH  13  19
ENDBRANCH  12  13
ENDBRANCH   9  12
ENDBRANCH   2   8
BRANCH   4  25
ATOM     25  O   UNL d   1       1.815  -4.952   2.649  0.00  0.00    -0.354 OA
ATOM     26  C   UNL d   1       3.033  -4.795   3.370  0.00  0.00     0.210 C 
ENDBRANCH   4  25
BRANCH   1  27
ATOM     27  N   UNL d   1       2.855  -0.939   0.047  0.00  0.00    -0.322 N 
ATOM     28  C   UNL d   1       4.167  -0.778   0.467  0.00  0.00     0.256 C 
ATOM     29  O   UNL d   1       4.893  -1.645   0.941  0.00  0.00    -0.267 OA
ATOM     30  H   UNL d   1       2.498  -0.239  -0.588  0.00  0.00     0.169 HD
BRANCH  28  31
ATOM     31  C   UNL d   1       4.737   0.578   0.273  0.00  0.00     0.032 A 
ATOM     32  C   UNL d   1       3.993   1.723   0.583  0.00  0.00     0.017 A 
ATOM     33  C   UNL d   1       4.591   2.982   0.494  0.00  0.00     0.001 A 
ATOM     34  C   UNL d   1       5.923   3.098   0.092  0.00  0.00     0.000 A 
ATOM     35  C   UNL d   1       6.663   1.958  -0.224  0.00  0.00     0.001 A 
ATOM     36  C   UNL d   1       6.074   0.697  -0.127  0.00  0.00     0.017 A 
ENDBRANCH  28  31
ENDBRANCH   1  27
TORSDOF 10
