REMARK  4 active torsions:
REMARK  status: ('A' for Active; 'I' for Inactive)
REMARK       I    between atoms: N_2  and  C_1 
REMARK    1  A    between atoms: C_7  and  C_1 
REMARK    2  A    between atoms: N_5  and  N_2 
REMARK    3  A    between atoms: C_3  and  C_4 
REMARK    4  A    between atoms: C_10  and  N_5 
ROOT
ATOM      1  N   UNL d   1       0.672  -2.245   0.517  0.00  0.00    -0.203 NA
ATOM      2  H   UNL d   1       1.556  -2.315   1.038  0.00  0.00     0.153 HD
ENDROOT
BRANCH   1   3
ATOM      3  N   UNL d   1       0.817  -1.322  -0.541  0.00  0.00    -0.283 N 
ATOM      4  C   UNL d   1       1.866  -0.423  -0.397  0.00  0.00     0.266 C 
ATOM      5  O   UNL d   1       2.714  -0.515   0.490  0.00  0.00    -0.266 OA
ATOM      6  H   UNL d   1      -0.047  -1.002  -0.966  0.00  0.00     0.184 HD
BRANCH   4   7
ATOM      7  C   UNL d   1       1.918   0.696  -1.371  0.00  0.00     0.033 A 
ATOM      8  C   UNL d   1       2.448   1.925  -0.957  0.00  0.00     0.017 A 
ATOM      9  C   UNL d   1       2.580   2.974  -1.869  0.00  0.00     0.001 A 
ATOM     10  C   UNL d   1       2.194   2.794  -3.197  0.00  0.00     0.000 A 
ATOM     11  C   UNL d   1       1.665   1.572  -3.613  0.00  0.00     0.001 A 
ATOM     12  C   UNL d   1       1.522   0.522  -2.702  0.00  0.00     0.017 A 
ENDBRANCH   4   7
ENDBRANCH   1   3
BRANCH   1  13
ATOM     13  C   UNL d   1       0.184  -3.519   0.136  0.00  0.00     0.027 A 
ATOM     14  C   UNL d   1       0.605  -4.651   0.842  0.00  0.00     0.026 A 
ATOM     15  C   UNL d   1       0.021  -5.908   0.623  0.00  0.00     0.010 A 
ATOM     16  C   UNL d   1      -1.039  -6.077  -0.286  0.00  0.00    -0.051 A 
ATOM     17  C   UNL d   1      -1.440  -4.941  -1.006  0.00  0.00     0.010 A 
ATOM     18  C   UNL d   1      -0.847  -3.686  -0.792  0.00  0.00     0.026 A 
BRANCH  16  19
ATOM     19  C   UNL d   1      -1.740  -7.441  -0.424  0.00  0.00    -0.024 C 
ATOM     20  C   UNL d   1      -2.955  -7.420  -1.379  0.00  0.00     0.019 C 
ATOM     21  C   UNL d   1      -0.751  -8.497  -0.958  0.00  0.00     0.019 C 
ATOM     22  C   UNL d   1      -2.266  -7.899   0.956  0.00  0.00     0.019 C 
ENDBRANCH  16  19
ENDBRANCH   1  13
TORSDOF 4
