REMARK  6 active torsions:
REMARK  status: ('A' for Active; 'I' for Inactive)
REMARK    1  A    between atoms: S_2  and  C_1 
REMARK    2  A    between atoms: C_5  and  C_1 
REMARK    3  A    between atoms: C_8  and  S_2 
REMARK    4  A    between atoms: N_9  and  N_3 
REMARK    5  A    between atoms: C_11  and  C_5 
REMARK    6  A    between atoms: C_12  and  N_9 
ROOT
ATOM      1  C   UNL d   1       0.989   0.107   0.045  0.00  0.00     0.199 C 
ATOM      2  N   UNL d   1       0.364  -0.796   0.758  0.00  0.00    -0.286 N 
ATOM      3  HN  UNL d   1       0.871  -1.338   1.458  1.00  0.00     0.188 HD
ENDROOT
BRANCH   1   4
ATOM      4  S   UNL d   1       0.202   1.232  -1.070  0.00  0.00     0.227 S 
ATOM      5  O   UNL d   1      -0.978   0.542  -1.584  0.00  0.00    -0.216 OA
ATOM      6  O   UNL d   1       0.034   2.485  -0.356  0.00  0.00    -0.216 OA
BRANCH   4   7
ATOM      7  C   UNL d   1       1.252   1.525  -2.470  0.00  0.00     0.065 A 
ATOM      8  C   UNL d   1       1.114   0.730  -3.614  0.00  0.00     0.024 A 
ATOM      9  C   UNL d   1       1.821   1.059  -4.772  0.00  0.00     0.002 A 
ATOM     10  C   UNL d   1       2.651   2.180  -4.791  0.00  0.00     0.000 A 
ATOM     11  C   UNL d   1       2.777   2.978  -3.655  0.00  0.00     0.002 A 
ATOM     12  C   UNL d   1       2.069   2.659  -2.495  0.00  0.00     0.024 A 
ENDBRANCH   4   7
ENDBRANCH   1   4
BRANCH   1  13
ATOM     13  C   UNL d   1       2.462   0.277   0.291  0.00  0.00     0.222 C 
ATOM     14  O   UNL d   1       2.954   1.390   0.144  0.00  0.00    -0.284 OA
BRANCH  13  15
ATOM     15  C   UNL d   1       3.311  -0.847   0.771  0.00  0.00     0.017 A 
ATOM     16  C   UNL d   1       3.040  -2.188   0.473  0.00  0.00     0.015 A 
ATOM     17  C   UNL d   1       3.877  -3.196   0.963  0.00  0.00     0.001 A 
ATOM     18  C   UNL d   1       4.985  -2.874   1.747  0.00  0.00     0.000 A 
ATOM     19  C   UNL d   1       5.267  -1.541   2.038  0.00  0.00     0.001 A 
ATOM     20  C   UNL d   1       4.438  -0.531   1.546  0.00  0.00     0.015 A 
ENDBRANCH  13  15
ENDBRANCH   1  13
BRANCH   2  21
ATOM     21  N   UNL d   1      -0.961  -1.004   0.560  0.00  0.00    -0.300 N 
ATOM     22  H   UNL d   1      -1.472  -0.567  -0.221  0.00  0.00     0.187 HD
BRANCH  21  23
ATOM     23  C   UNL d   1      -1.780  -1.381   1.642  0.00  0.00     0.048 A 
ATOM     24  C   UNL d   1      -1.281  -1.587   2.934  0.00  0.00     0.032 A 
ATOM     25  C   UNL d   1      -2.122  -2.006   3.971  0.00  0.00     0.026 A 
ATOM     26  C   UNL d   1      -3.467  -2.253   3.714  0.00  0.00     0.034 A 
ATOM     27  C   UNL d   1      -3.978  -2.085   2.430  0.00  0.00     0.026 A 
ATOM     28 CL   UNL d   1      -4.502  -2.779   4.984  0.00  0.00    -0.084 Cl
ATOM     29  C   UNL d   1      -3.135  -1.655   1.401  0.00  0.00     0.032 A 
ENDBRANCH  21  23
ENDBRANCH   2  21
TORSDOF 6
