REMARK  2 active torsions:
REMARK  status: ('A' for Active; 'I' for Inactive)
REMARK       I    between atoms: N_2  and  C_1 
REMARK    1  A    between atoms: C_5  and  C_1 
REMARK    2  A    between atoms: N_3  and  C_4 
ROOT
ATOM      1  C   UNL d   1       1.069  -0.036  -0.007  0.00  0.00     0.253 C 
ATOM      2  N   UNL d   1       0.227  -0.690   0.912  0.00  0.00    -0.348 N 
ATOM      3  C   UNL d   1      -1.666  -1.412   3.029  0.00  0.00     0.091 C 
ATOM      4  C   UNL d   1      -2.104  -1.281   1.574  0.00  0.00     0.045 C 
ATOM      5  C   UNL d   1      -0.395  -0.604   3.312  0.00  0.00     0.045 C 
ATOM      6  C   UNL d   1      -0.970  -1.467   0.581  0.00  0.00     0.128 C 
ATOM      7  C   UNL d   1       0.712  -0.820   2.287  0.00  0.00     0.128 C 
ATOM      8  O   UNL d   1       2.100   0.538   0.329  0.00  0.00    -0.267 OA
ENDROOT
BRANCH   1   9
ATOM      9  C   UNL d   1       0.689   0.050  -1.449  0.00  0.00     0.032 A 
ATOM     10  C   UNL d   1       0.848   1.287  -2.092  0.00  0.00     0.018 A 
ATOM     11  C   UNL d   1       0.426   1.453  -3.415  0.00  0.00     0.025 A 
ATOM     12  C   UNL d   1      -0.164   0.387  -4.090  0.00  0.00     0.034 A 
ATOM     13  C   UNL d   1      -0.269  -0.862  -3.480  0.00  0.00     0.025 A 
ATOM     14 CL   UNL d   1      -0.764   0.607  -5.686  0.00  0.00    -0.084 Cl
ATOM     15  C   UNL d   1       0.207  -1.040  -2.180  0.00  0.00     0.018 A 
ENDBRANCH   1   9
BRANCH   3  16
ATOM     16  N   UNL d   1      -1.625  -2.798   3.494  0.00  0.00    -0.362 N 
ATOM     17  C   UNL d   1      -0.746  -3.783   3.130  0.00  0.00     0.091 A 
ATOM     18  C   UNL d   1      -1.059  -4.927   3.833  0.00  0.00     0.019 A 
ATOM     19  C   UNL d   1      -2.187  -4.636   4.628  0.00  0.00     0.019 A 
ATOM     20  C   UNL d   1      -2.526  -3.324   4.391  0.00  0.00     0.091 A 
ENDBRANCH   3  16
TORSDOF 2
