REMARK  5 active torsions:
REMARK  status: ('A' for Active; 'I' for Inactive)
REMARK    1  A    between atoms: N_2  and  C_1 
REMARK    2  A    between atoms: N_3  and  C_5 
REMARK    3  A    between atoms: N_9  and  C_6 
REMARK    4  A    between atoms: N_7  and  N_9 
REMARK    5  A    between atoms: C_15  and  C_10 
ROOT
ATOM      1  N   UNL d   1       3.745   0.722  -0.075  0.00  0.00    -0.203 NA
ATOM      2  H   UNL d   1       4.544   0.461  -0.672  0.00  0.00     0.153 HD
ENDROOT
BRANCH   1   3
ATOM      3  N   UNL d   1       3.305   2.003  -0.227  0.00  0.00    -0.320 N 
ATOM      4  C   UNL d   1       4.087   2.972   0.155  0.00  0.00     0.028 C 
ATOM      5  C   UNL d   1       5.444   2.766   0.800  0.00  0.00     0.070 C 
ATOM      6  HN  UNL d   1       2.388   2.198  -0.629  1.00  0.00     0.181 HD
BRANCH   4   7
ATOM      7  C   UNL d   1       3.599   4.378  -0.019  0.00  0.00     0.002 A 
ATOM      8  C   UNL d   1       4.333   5.481   0.403  0.00  0.00     0.101 A 
ATOM      9  N   UNL d   1       3.919   6.767   0.279  0.00  0.00    -0.374 N 
ATOM     10  C   UNL d   1       2.713   6.967  -0.294  0.00  0.00     0.087 A 
ATOM     11  HN  UNL d   1       4.491   7.546   0.604  1.00  0.00     0.164 HD
ATOM     12  C   UNL d   1       1.904   5.941  -0.752  0.00  0.00     0.018 A 
ATOM     13  C   UNL d   1       2.357   4.629  -0.611  0.00  0.00     0.016 A 
ENDBRANCH   4   7
ENDBRANCH   1   3
BRANCH   1  14
ATOM     14  C   UNL d   1       2.721  -0.265  -0.094  0.00  0.00     0.060 A 
ATOM     15  C   UNL d   1       2.892  -1.580  -0.581  0.00  0.00     0.128 A 
ATOM     16  C   UNL d   1       1.830  -2.510  -0.553  0.00  0.00     0.074 A 
ATOM     17  C   UNL d   1       0.598  -2.136   0.001  0.00  0.00     0.105 A 
ATOM     18  C   UNL d   1       0.424  -0.863   0.545  0.00  0.00     0.038 A 
ATOM     19  C   UNL d   1       1.480   0.050   0.499  0.00  0.00     0.030 A 
BRANCH  15  20
ATOM     20  N   UNL d   1       4.172  -2.023  -1.156  0.00  0.00    -0.114 N 
ATOM     21  O   UNL d   1       4.287  -3.221  -1.447  0.00  0.00    -0.532 OA
ATOM     22  O   UNL d   1       5.065  -1.177  -1.321  0.00  0.00    -0.532 OA
ENDBRANCH  15  20
BRANCH  17  23
ATOM     23  N   UNL d   1      -0.522  -3.085   0.013  0.00  0.00    -0.116 N 
ATOM     24  O   UNL d   1      -0.341  -4.192  -0.514  0.00  0.00    -0.532 OA
ATOM     25  O   UNL d   1      -1.581  -2.720   0.542  0.00  0.00    -0.532 OA
ENDBRANCH  17  23
ENDBRANCH   1  14
TORSDOF 5
