REMARK  3 active torsions:
REMARK  status: ('A' for Active; 'I' for Inactive)
REMARK    1  A    between atoms: C_10  and  C_1 
REMARK       I    between atoms: C_5  and  N_9 
REMARK    2  A    between atoms: C_6  and  C_5 
REMARK    3  A    between atoms: N_9  and  C_17 
ROOT
ATOM      1  C   UNL d   1      -3.863  -0.662   0.180  0.00  0.00    -0.002 A 
ATOM      2  C   UNL d   1      -4.641   0.103  -0.701  0.00  0.00     0.016 A 
ATOM      3  C   UNL d   1      -4.525  -1.591   0.994  0.00  0.00     0.016 A 
ATOM      4  C   UNL d   1      -6.662  -1.093  -0.039  0.00  0.00     0.035 A 
ATOM      5  C   UNL d   1      -5.900  -1.805   0.884  0.00  0.00     0.030 A 
ATOM      6  C   UNL d   1      -6.027  -0.108  -0.809  0.00  0.00     0.030 A 
ENDROOT
BRANCH   1   7
ATOM      7  C   UNL d   1      -2.401  -0.493   0.241  0.00  0.00     0.085 A 
ATOM      8  N   UNL d   1      -1.749   0.616  -0.047  0.00  0.00    -0.349 N 
ATOM      9  C   UNL d   1      -0.387   0.439   0.158  0.00  0.00     0.050 A 
ATOM     10  HN  UNL d   1      -2.183   1.479  -0.373  1.00  0.00     0.166 HD
ATOM     11  C   UNL d   1       0.616   1.413   0.002  0.00  0.00     0.031 A 
ATOM     12  C   UNL d   1      -0.006  -0.841   0.565  0.00  0.00     0.034 A 
ATOM     13  C   UNL d   1       1.955   1.089   0.261  0.00  0.00     0.009 A 
ATOM     14  C   UNL d   1       2.316  -0.198   0.672  0.00  0.00    -0.061 A 
ATOM     15  C   UNL d   1       1.331  -1.182   0.826  0.00  0.00     0.028 A 
ATOM     16  C   UNL d   1       3.757  -0.525   0.941  0.00  0.00     0.048 C 
ATOM     17  S   UNL d   1      -1.397  -1.831   0.670  0.00  0.00    -0.070 SA
ENDBRANCH   1   7
BRANCH   4  18
ATOM     18  N   UNL d   1      -8.040  -1.326  -0.244  0.00  0.00    -0.323 N 
ATOM     19  C   UNL d   1      -8.794  -2.345   0.317  0.00  0.00     0.257 C 
ATOM     20  O   UNL d   1      -8.397  -3.192   1.112  0.00  0.00    -0.267 OA
ATOM     21  H   UNL d   1      -8.493  -0.735  -0.930  0.00  0.00     0.169 HD
BRANCH  19  22
ATOM     22  C   UNL d   1     -10.240  -2.384  -0.036  0.00  0.00     0.054 A 
ATOM     23  C   UNL d   1     -10.772  -2.063  -1.290  0.00  0.00     0.049 A 
ATOM     24 CL   UNL d   1      -9.800  -1.672  -2.664  0.00  0.00    -0.083 Cl
ATOM     25  C   UNL d   1     -12.160  -2.091  -1.486  0.00  0.00     0.025 A 
ATOM     26  C   UNL d   1     -13.017  -2.460  -0.447  0.00  0.00     0.002 A 
ATOM     27  C   UNL d   1     -12.492  -2.829   0.787  0.00  0.00     0.001 A 
ATOM     28  C   UNL d   1     -11.113  -2.796   0.990  0.00  0.00     0.019 A 
ENDBRANCH  19  22
ENDBRANCH   4  18
TORSDOF 3
