REMARK  3 active torsions:
REMARK  status: ('A' for Active; 'I' for Inactive)
REMARK    1  A    between atoms: N_2  and  S_1 
REMARK    2  A    between atoms: C_3  and  S_1 
REMARK    3  A    between atoms: C_4  and  N_2 
ROOT
ATOM      1  N   UNL d   1       0.458  -0.182   1.435  0.00  0.00    -0.310 N 
ATOM      2  H   UNL d   1      -0.553  -0.054   1.420  0.00  0.00     0.172 HD
ENDROOT
BRANCH   1   3
ATOM      3  S   UNL d   1       1.192   0.219  -0.037  0.00  0.00     0.259 S 
ATOM      4  O   UNL d   1       2.530  -0.326  -0.043  0.00  0.00    -0.201 OA
ATOM      5  O   UNL d   1       0.927   1.621  -0.272  0.00  0.00    -0.201 OA
BRANCH   3   6
ATOM      6  C   UNL d   1       0.221  -0.667  -1.238  0.00  0.00     0.081 A 
ATOM      7  C   UNL d   1      -1.125  -0.325  -1.401  0.00  0.00     0.049 A 
ATOM      8  C   UNL d   1      -1.874  -0.964  -2.386  0.00  0.00     0.035 A 
ATOM      9 CL   UNL d   1      -3.531  -0.551  -2.596  0.00  0.00    -0.084 Cl
ATOM     10  C   UNL d   1      -1.291  -1.927  -3.211  0.00  0.00     0.024 A 
ATOM     11  C   UNL d   1       0.055  -2.262  -3.046  0.00  0.00     0.003 A 
ATOM     12  C   UNL d   1       0.816  -1.631  -2.060  0.00  0.00     0.025 A 
ENDBRANCH   3   6
ENDBRANCH   1   3
BRANCH   1  13
ATOM     13  C   UNL d   1       0.934  -1.389   2.147  0.00  0.00     0.101 C 
ATOM     14  C   UNL d   1       0.678  -2.687   1.364  0.00  0.00     0.065 C 
ATOM     15  C   UNL d   1       0.542  -3.680   2.469  0.00  0.00    -0.050 A 
ATOM     16  C   UNL d   1       0.620  -5.058   2.372  0.00  0.00     0.007 A 
ATOM     17  C   UNL d   1       0.269  -3.046   3.685  0.00  0.00    -0.050 A 
ATOM     18  C   UNL d   1       0.427  -5.809   3.530  0.00  0.00     0.001 A 
ATOM     19  C   UNL d   1       0.147  -5.178   4.753  0.00  0.00     0.001 A 
ATOM     20  C   UNL d   1       0.060  -3.785   4.836  0.00  0.00     0.007 A 
ATOM     21  C   UNL d   1       0.213  -1.558   3.507  0.00  0.00     0.065 C 
ENDBRANCH   1  13
TORSDOF 3
