REMARK  6 active torsions:
REMARK  status: ('A' for Active; 'I' for Inactive)
REMARK    1  A    between atoms: C_10  and  N_1 
REMARK    2  A    between atoms: C_8  and  C_2 
REMARK    3  A    between atoms: C_7  and  C_9 
REMARK    4  A    between atoms: C_11  and  N_15 
REMARK    5  A    between atoms: N_15  and  C_13 
REMARK    6  A    between atoms: O_26  and  C_14 
ROOT
ATOM      1  C   UNL d   1       2.344  -1.347  -0.032  0.00  0.00     0.068 C 
ATOM      2  C   UNL d   1       2.459  -2.674  -0.161  0.00  0.00     0.092 C 
ENDROOT
BRANCH   2   3
ATOM      3  N   UNL d   1       3.631  -3.389  -0.221  0.00  0.00    -0.364 N 
ATOM      4  H   UNL d   1       4.489  -2.855  -0.236  0.00  0.00     0.165 HD
BRANCH   3   5
ATOM      5  C   UNL d   1       3.781  -4.740  -0.598  0.00  0.00     0.066 A 
ATOM      6  C   UNL d   1       2.851  -5.308  -1.499  0.00  0.00     0.048 A 
ATOM      7  C   UNL d   1       2.924  -6.646  -1.917  0.00  0.00     0.050 A 
ATOM      8  C   UNL d   1       3.937  -7.452  -1.397  0.00  0.00     0.019 A 
ATOM      9  C   UNL d   1       4.859  -6.917  -0.501  0.00  0.00     0.040 A 
ATOM     10  C   UNL d   1       4.802  -5.572  -0.093  0.00  0.00     0.094 A 
BRANCH   7  11
ATOM     11  C   UNL d   1       1.939  -7.207  -2.912  0.00  0.00     0.417 C 
ATOM     12  F   UNL d   1       1.089  -6.275  -3.424  0.00  0.00    -0.166 F 
ATOM     13  F   UNL d   1       2.554  -7.776  -3.986  0.00  0.00    -0.166 F 
ATOM     14  F   UNL d   1       1.151  -8.178  -2.375  0.00  0.00    -0.166 F 
ENDBRANCH   7  11
BRANCH  10  15
ATOM     15  O   UNL d   1       5.815  -5.282   0.780  0.00  0.00    -0.354 OA
ATOM     16  C   UNL d   1       5.835  -4.061   1.495  0.00  0.00     0.210 C 
ENDBRANCH  10  15
ENDBRANCH   3   5
ENDBRANCH   2   3
BRANCH   1  17
ATOM     17  C   UNL d   1       1.065  -0.737   0.053  0.00  0.00     0.139 C 
ATOM     18  N   UNL d   1       0.871   0.633  -0.127  0.00  0.00    -0.225 N 
ATOM     19  N   UNL d   1      -0.371   0.936   0.328  0.00  0.00     0.001 NA
ATOM     20  N   UNL d   1      -0.960  -0.220   0.586  0.00  0.00    -0.007 NA
ATOM     21  N   UNL d   1      -0.092  -1.262   0.414  0.00  0.00    -0.270 N 
ATOM     22  HN  UNL d   1      -0.298  -2.253   0.540  1.00  0.00     0.185 HD
BRANCH  18  23
ATOM     23  C   UNL d   1       1.705   1.639  -0.682  0.00  0.00     0.056 A 
ATOM     24  C   UNL d   1       2.708   1.328  -1.608  0.00  0.00     0.032 A 
ATOM     25  C   UNL d   1       3.541   2.333  -2.104  0.00  0.00     0.009 A 
ATOM     26  C   UNL d   1       3.380   3.660  -1.689  0.00  0.00    -0.062 A 
ATOM     27  C   UNL d   1       2.343   3.977  -0.805  0.00  0.00     0.009 A 
ATOM     28  C   UNL d   1       4.295   4.724  -2.219  0.00  0.00     0.048 C 
ATOM     29  C   UNL d   1       1.500   2.975  -0.311  0.00  0.00     0.032 A 
ENDBRANCH  18  23
ENDBRANCH   1  17
TORSDOF 6
