REMARK  2 active torsions:
REMARK  status: ('A' for Active; 'I' for Inactive)
REMARK    1  A    between atoms: C_7  and  N_1 
REMARK    2  A    between atoms: N_4  and  C_8 
ROOT
ATOM      1  N   UNL d   1       1.714  -0.723   0.087  0.00  0.00    -0.252 N 
ATOM      2  C   UNL d   1       1.780   0.653   0.144  0.00  0.00     0.232 C 
ATOM      3  C   UNL d   1       0.417  -1.156  -0.087  0.00  0.00     0.240 C 
ATOM      4  C   UNL d   1      -0.512   0.032  -0.058  0.00  0.00     0.050 C 
ATOM      5  C   UNL d   1       0.414   1.235  -0.080  0.00  0.00     0.123 C 
ATOM      6  O   UNL d   1       2.760   1.376   0.279  0.00  0.00    -0.273 OA
ATOM      7  O   UNL d   1      -0.001  -2.303  -0.184  0.00  0.00    -0.272 OA
ATOM      8  C   UNL d   1      -1.517  -0.002  -1.208  0.00  0.00     0.020 C 
ATOM      9  C   UNL d   1      -1.411  -0.001   1.181  0.00  0.00     0.020 C 
ATOM     10  C   UNL d   1      -2.636   0.823   0.799  0.00  0.00     0.001 C 
ATOM     11  C   UNL d   1      -2.696   0.832  -0.727  0.00  0.00     0.001 C 
ENDROOT
BRANCH   1  12
ATOM     12  C   UNL d   1       2.849  -1.593   0.166  0.00  0.00     0.045 A 
ATOM     13  C   UNL d   1       4.081  -1.155   0.683  0.00  0.00     0.032 A 
ATOM     14  C   UNL d   1       5.193  -2.007   0.761  0.00  0.00     0.038 A 
ATOM     15  C   UNL d   1       5.089  -3.324   0.311  0.00  0.00     0.103 A 
ATOM     16  C   UNL d   1       3.883  -3.789  -0.211  0.00  0.00     0.038 A 
ATOM     17  C   UNL d   1       2.780  -2.928  -0.277  0.00  0.00     0.032 A 
BRANCH  15  18
ATOM     18  N   UNL d   1       6.246  -4.222   0.384  0.00  0.00    -0.116 N 
ATOM     19  O   UNL d   1       6.107  -5.379  -0.040  0.00  0.00    -0.532 OA
ATOM     20  O   UNL d   1       7.295  -3.773   0.866  0.00  0.00    -0.532 OA
ENDBRANCH  15  18
ENDBRANCH   1  12
TORSDOF 2
