REMARK  5 active torsions:
REMARK  status: ('A' for Active; 'I' for Inactive)
REMARK    1  A    between atoms: C_10  and  C_1 
REMARK    2  A    between atoms: C_2  and  N_9 
REMARK    3  A    between atoms: N_5  and  C_2 
REMARK    4  A    between atoms: N_9  and  N_3 
REMARK    5  A    between atoms: C_11  and  N_5 
ROOT
ATOM      1  N   UNL d   1       0.134   4.562   0.775  0.00  0.00    -0.309 N 
ATOM      2  HN  UNL d   1       0.298   5.547   0.986  1.00  0.00     0.186 HD
ATOM      3  C   UNL d   1       1.004   3.634   1.025  0.00  0.00     0.122 C 
ENDROOT
BRANCH   1   4
ATOM      4  N   UNL d   1      -1.017   4.111   0.207  0.00  0.00    -0.277 N 
ATOM      5  H   UNL d   1      -1.014   3.198  -0.223  0.00  0.00     0.189 HD
BRANCH   4   6
ATOM      6  C   UNL d   1      -2.094   4.913  -0.045  0.00  0.00     0.187 C 
ATOM      7  S   UNL d   1      -2.101   6.582  -0.089  0.00  0.00    -0.040 SA
BRANCH   6   8
ATOM      8  N   UNL d   1      -3.289   4.264  -0.238  0.00  0.00    -0.358 N 
ATOM      9  H   UNL d   1      -4.016   4.959  -0.385  0.00  0.00     0.162 HD
BRANCH   8  10
ATOM     10  C   UNL d   1      -3.774   3.028   0.430  0.00  0.00     0.021 C 
ATOM     11  C   UNL d   1      -3.743   3.213   1.956  0.00  0.00     0.037 C 
ATOM     12  C   UNL d   1      -5.232   2.810  -0.018  0.00  0.00     0.037 C 
ATOM     13  C   UNL d   1      -2.987   1.762   0.049  0.00  0.00     0.037 C 
ENDBRANCH   8  10
ENDBRANCH   6   8
ENDBRANCH   4   6
ENDBRANCH   1   4
BRANCH   3  14
ATOM     14  C   UNL d   1       2.310   3.869   1.682  0.00  0.00     0.024 A 
ATOM     15  C   UNL d   1       2.863   5.146   1.874  0.00  0.00     0.047 A 
ATOM     16 CL   UNL d   1       2.137   6.625   1.348  0.00  0.00    -0.083 Cl
ATOM     17  C   UNL d   1       4.107   5.290   2.513  0.00  0.00     0.025 A 
ATOM     18  C   UNL d   1       4.811   4.177   2.964  0.00  0.00     0.003 A 
ATOM     19  C   UNL d   1       4.275   2.909   2.780  0.00  0.00     0.025 A 
ATOM     20  C   UNL d   1       3.035   2.750   2.146  0.00  0.00     0.047 A 
ATOM     21 CL   UNL d   1       2.470   1.117   2.002  0.00  0.00    -0.083 Cl
ENDBRANCH   3  14
TORSDOF 5
