REMARK  6 active torsions:
REMARK  status: ('A' for Active; 'I' for Inactive)
REMARK    1  A    between atoms: C_2  and  N_1 
REMARK    2  A    between atoms: C_3  and  C_5 
REMARK    3  A    between atoms: S_8  and  C_6 
REMARK    4  A    between atoms: C_17  and  S_8 
REMARK    5  A    between atoms: C_10  and  C_17 
REMARK    6  A    between atoms: O_18  and  C_10 
ROOT
ATOM      1  C   UNL d   1       0.229  -0.840   0.624  0.00  0.00     0.120 A 
ATOM      2  C   UNL d   1       0.666  -1.137   1.929  0.00  0.00     0.053 A 
ATOM      3  C   UNL d   1      -0.063  -2.031   2.725  0.00  0.00     0.050 A 
ATOM      4  C   UNL d   1      -0.908  -1.437   0.063  0.00  0.00     0.034 A 
ATOM      5  C   UNL d   1      -1.220  -2.611   2.188  0.00  0.00     0.017 A 
ATOM      6  C   UNL d   1      -1.633  -2.318   0.882  0.00  0.00     0.022 A 
ENDROOT
BRANCH   4   7
ATOM      7  S   UNL d   1      -1.589  -1.165  -1.571  0.00  0.00    -0.118 SA
BRANCH   7   8
ATOM      8  C   UNL d   1      -0.256  -1.752  -2.674  0.00  0.00     0.190 C 
BRANCH   8   9
ATOM      9  C   UNL d   1       0.111  -3.210  -2.485  0.00  0.00     0.268 C 
ATOM     10  O   UNL d   1      -0.338  -3.979  -1.650  0.00  0.00    -0.264 OA
BRANCH   9  11
ATOM     11  O   UNL d   1       1.066  -3.541  -3.407  0.00  0.00    -0.326 OA
ATOM     12  C   UNL d   1       1.526  -4.891  -3.321  0.00  0.00     0.213 C 
ENDBRANCH   9  11
ENDBRANCH   8   9
ENDBRANCH   7   8
ENDBRANCH   4   7
BRANCH   1  13
ATOM     13  N   UNL d   1       0.995   0.149  -0.106  0.00  0.00    -0.114 N 
ATOM     14  O   UNL d   1       2.188  -0.112  -0.311  0.00  0.00    -0.532 OA
ATOM     15  O   UNL d   1       0.418   1.189  -0.447  0.00  0.00    -0.532 OA
ENDBRANCH   1  13
BRANCH   3  16
ATOM     16  C   UNL d   1       0.363  -2.362   4.137  0.00  0.00     0.417 C 
ATOM     17  F   UNL d   1       1.508  -1.732   4.516  0.00  0.00    -0.166 F 
ATOM     18  F   UNL d   1      -0.578  -2.016   5.056  0.00  0.00    -0.166 F 
ATOM     19  F   UNL d   1       0.591  -3.692   4.313  0.00  0.00    -0.166 F 
ENDBRANCH   3  16
TORSDOF 6
