REMARK  7 active torsions:
REMARK  status: ('A' for Active; 'I' for Inactive)
REMARK    1  A    between atoms: C_4  and  C_1 
REMARK    2  A    between atoms: N_3  and  C_2 
REMARK    3  A    between atoms: N_5  and  N_3 
REMARK    4  A    between atoms: C_11  and  N_3 
REMARK    5  A    between atoms: O_12  and  C_4 
REMARK    6  A    between atoms: C_13  and  C_9 
REMARK    7  A    between atoms: C_16  and  O_12 
ROOT
ATOM      1  C   UNL d   1       0.462  -0.786  -0.767  0.00  0.00     0.137 C 
ATOM      2  C   UNL d   1       0.556   0.528  -1.043  0.00  0.00     0.145 C 
ATOM      3  C   UNL d   1       1.105  -1.749  -1.585  0.00  0.00     0.107 C 
ATOM      4  N   UNL d   1       1.689  -2.519  -2.232  0.00  0.00    -0.191 NA
ENDROOT
BRANCH   1   5
ATOM      5  C   UNL d   1      -0.189  -1.184   0.497  0.00  0.00     0.305 C 
ATOM      6  O   UNL d   1      -0.721  -0.407   1.276  0.00  0.00    -0.258 OA
BRANCH   5   7
ATOM      7  O   UNL d   1      -0.008  -2.513   0.708  0.00  0.00    -0.317 OA
BRANCH   7   8
ATOM      8  C   UNL d   1      -0.242  -2.983   2.043  0.00  0.00     0.174 C 
ATOM      9  C   UNL d   1       1.045  -2.830   2.835  0.00  0.00     0.034 C 
ENDBRANCH   7   8
ENDBRANCH   5   7
ENDBRANCH   1   5
BRANCH   2  10
ATOM     10  N   UNL d   1       1.246   1.114  -2.099  0.00  0.00    -0.266 N 
BRANCH  10  11
ATOM     11  N   UNL d   1       2.492   1.683  -1.876  0.00  0.00    -0.304 N 
ATOM     12  C   UNL d   1       3.351   0.969  -1.218  0.00  0.00     0.119 C 
ATOM     13  HN  UNL d   1       2.721   2.618  -2.213  1.00  0.00     0.186 HD
BRANCH  12  14
ATOM     14  C   UNL d   1       4.659   1.493  -0.790  0.00  0.00    -0.019 A 
ATOM     15  C   UNL d   1       5.207   2.642  -1.360  0.00  0.00     0.013 A 
ATOM     16  C   UNL d   1       6.394   3.163  -0.843  0.00  0.00     0.001 A 
ATOM     17  C   UNL d   1       7.019   2.543   0.241  0.00  0.00     0.000 A 
ATOM     18  C   UNL d   1       6.481   1.379   0.791  0.00  0.00     0.001 A 
ATOM     19  C   UNL d   1       5.306   0.843   0.267  0.00  0.00     0.013 A 
ENDBRANCH  12  14
ENDBRANCH  10  11
BRANCH  10  20
ATOM     20  C   UNL d   1       0.516   1.758  -3.161  0.00  0.00     0.056 A 
ATOM     21  C   UNL d   1      -0.890   1.860  -3.163  0.00  0.00     0.031 A 
ATOM     22  C   UNL d   1      -1.572   2.472  -4.220  0.00  0.00     0.002 A 
ATOM     23  C   UNL d   1      -0.867   2.976  -5.309  0.00  0.00     0.000 A 
ATOM     24  C   UNL d   1       0.519   2.870  -5.342  0.00  0.00     0.002 A 
ATOM     25  C   UNL d   1       1.200   2.269  -4.279  0.00  0.00     0.031 A 
ENDBRANCH  10  20
ENDBRANCH   2  10
TORSDOF 7
