REMARK  4 active torsions:
REMARK  status: ('A' for Active; 'I' for Inactive)
REMARK    1  A    between atoms: C_3  and  S_1 
REMARK    2  A    between atoms: O_4  and  S_1 
REMARK    3  A    between atoms: C_2  and  C_13 
REMARK    4  A    between atoms: C_13  and  O_4 
ROOT
ATOM      1  O   UNL d   1      -0.173   1.802  -1.156  0.00  0.00    -0.271 OA
ENDROOT
BRANCH   1   2
ATOM      2  S   UNL d   1       0.278   1.758   0.414  0.00  0.00     0.298 S 
ATOM      3  O   UNL d   1       0.555   0.376   0.746  0.00  0.00    -0.193 OA
ATOM      4  O   UNL d   1       1.269   2.795   0.624  0.00  0.00    -0.193 OA
BRANCH   2   5
ATOM      5  C   UNL d   1      -1.159   2.243   1.342  0.00  0.00     0.086 A 
ATOM      6  C   UNL d   1      -1.321   1.748   2.640  0.00  0.00     0.026 A 
ATOM      7  C   UNL d   1      -2.440   2.122   3.387  0.00  0.00     0.008 A 
ATOM      8  C   UNL d   1      -3.406   2.976   2.838  0.00  0.00    -0.062 A 
ATOM      9  C   UNL d   1      -3.230   3.463   1.534  0.00  0.00     0.008 A 
ATOM     10  C   UNL d   1      -4.606   3.361   3.655  0.00  0.00     0.048 C 
ATOM     11  C   UNL d   1      -2.109   3.098   0.782  0.00  0.00     0.026 A 
ENDBRANCH   2   5
ENDBRANCH   1   2
BRANCH   1  12
ATOM     12  C   UNL d   1       0.835   1.483  -2.111  0.00  0.00     0.200 C 
BRANCH  12  13
ATOM     13  C   UNL d   1       0.313   1.620  -3.554  0.00  0.00    -0.017 C 
ATOM     14  C   UNL d   1      -0.144   3.076  -3.825  0.00  0.00     0.016 C 
ATOM     15  C   UNL d   1      -0.636   3.230  -5.274  0.00  0.00    -0.013 C 
ATOM     16  C   UNL d   1       0.505   2.870  -6.239  0.00  0.00     0.009 C 
ATOM     17  C   UNL d   1      -1.821   2.279  -5.507  0.00  0.00     0.009 C 
ATOM     18  C   UNL d   1       0.952   1.417  -6.008  0.00  0.00    -0.013 C 
ATOM     19  C   UNL d   1       1.441   1.263  -4.556  0.00  0.00     0.016 C 
ATOM     20  C   UNL d   1      -0.242   0.478  -6.243  0.00  0.00     0.009 C 
ATOM     21  C   UNL d   1      -1.382   0.824  -5.271  0.00  0.00    -0.013 C 
ATOM     22  C   UNL d   1      -0.885   0.673  -3.820  0.00  0.00     0.016 C 
ENDBRANCH  12  13
ENDBRANCH   1  12
TORSDOF 4
