REMARK  3 active torsions:
REMARK  status: ('A' for Active; 'I' for Inactive)
REMARK    1  A    between atoms: S_14  and  C_4 
REMARK    2  A    between atoms: C_9  and  N_7 
REMARK    3  A    between atoms: S_15  and  C_9 
ROOT
ATOM      1  C   UNL d   1       1.043  -3.635  -0.152  0.00  0.00     0.168 C 
ATOM      2  N   UNL d   1       1.815  -3.018  -0.987  0.00  0.00    -0.273 N 
ATOM      3  HN  UNL d   1       2.388  -3.547  -1.644  1.00  0.00     0.180 HD
ATOM      4  C   UNL d   1       1.857  -1.681  -0.981  0.00  0.00     0.183 C 
ATOM      5  N   UNL d   1       1.944  -0.523  -0.987  0.00  0.00    -0.172 NA
ENDROOT
BRANCH   1   6
ATOM      6  N   UNL d   1       0.977  -4.990  -0.188  0.00  0.00    -0.168 N 
ATOM      7  C   UNL d   1       1.997  -5.757  -0.099  0.00  0.00     0.703 A 
ATOM      8  N   UNL d   1       1.656  -7.110  -0.135  0.00  0.00    -0.167 N 
ATOM      9  N   UNL d   1       3.378  -5.628   0.040  0.00  0.00    -0.124 N 
ATOM     10  C   UNL d   1       2.789  -7.742   0.035  0.00  0.00     0.176 A 
ATOM     11  HN  UNL d   1       0.730  -7.516  -0.265  1.00  0.00     0.186 HD
ATOM     12  N   UNL d   1       3.878  -6.908   0.219  0.00  0.00    -0.259 N 
ATOM     13  C   UNL d   1       5.250  -7.288  -0.038  0.00  0.00     0.181 C 
ATOM     14  C   UNL d   1       4.191  -4.452   0.193  0.00  0.00     0.198 C 
ATOM     15  HN  UNL d   1       0.059  -5.423  -0.293  1.00  0.00     0.186 HD
BRANCH  10  16
ATOM     16  S   UNL d   1       2.933  -9.473   0.010  0.00  0.00    -0.096 SA
ATOM     17  C   UNL d   1       1.198  -9.956  -0.080  0.00  0.00     0.099 C 
ENDBRANCH  10  16
ENDBRANCH   1   6
BRANCH   1  18
ATOM     18  S   UNL d   1      -0.039  -2.826   0.990  0.00  0.00    -0.097 SA
ATOM     19  C   UNL d   1      -1.294  -4.103   1.247  0.00  0.00     0.099 C 
ENDBRANCH   1  18
TORSDOF 3
