REMARK  3 active torsions:
REMARK  status: ('A' for Active; 'I' for Inactive)
REMARK    1  A    between atoms: N_12  and  C_1 
REMARK    2  A    between atoms: C_16  and  C_7 
REMARK    3  A    between atoms: C_15  and  C_8 
ROOT
ATOM      1  C   UNL d   1       0.891  -6.556  -0.932  0.00  0.00     0.147 A 
ATOM      2  N   UNL d   1       1.653  -6.588  -2.011  0.00  0.00    -0.336 N 
ATOM      3  HN  UNL d   1       1.612  -5.897  -2.761  1.00  0.00     0.168 HD
ATOM      4  C   UNL d   1       2.513  -7.676  -2.002  0.00  0.00     0.051 A 
ATOM      5  S   UNL d   1       1.222  -7.851   0.172  0.00  0.00    -0.064 SA
ATOM      6  N   UNL d   1      -0.067  -5.608  -0.723  0.00  0.00    -0.360 N 
ATOM      7  N   UNL d   1       0.080  -2.686  -0.113  0.00  0.00    -0.262 NA
ATOM      8  C   UNL d   1       2.390  -8.491  -0.898  0.00  0.00     0.083 A 
ATOM      9  C   UNL d   1       0.475  -3.265  -1.426  0.00  0.00     0.117 C 
ATOM     10  C   UNL d   1      -0.284  -4.567  -1.736  0.00  0.00     0.139 C 
ATOM     11  C   UNL d   1      -0.307  -4.532   1.523  0.00  0.00     0.035 C 
ATOM     12  C   UNL d   1       0.636  -3.441   1.027  0.00  0.00     0.099 C 
ATOM     13  C   UNL d   1      -0.874  -5.497   0.484  0.00  0.00     0.126 C 
ENDROOT
BRANCH   4  14
ATOM     14  C   UNL d   1       3.443  -7.923  -3.102  0.00  0.00    -0.009 A 
ATOM     15  C   UNL d   1       4.658  -8.601  -2.901  0.00  0.00     0.015 A 
ATOM     16  C   UNL d   1       5.535  -8.824  -3.966  0.00  0.00     0.024 A 
ATOM     17  C   UNL d   1       5.209  -8.372  -5.242  0.00  0.00     0.034 A 
ATOM     18  C   UNL d   1       4.011  -7.695  -5.460  0.00  0.00     0.024 A 
ATOM     19 CL   UNL d   1       6.292  -8.646  -6.550  0.00  0.00    -0.084 Cl
ATOM     20  C   UNL d   1       3.134  -7.469  -4.392  0.00  0.00     0.015 A 
ENDBRANCH   4  14
BRANCH   7  21
ATOM     21  C   UNL d   1       0.266  -1.331  -0.029  0.00  0.00     0.126 A 
ATOM     22  N   UNL d   1       1.188  -0.660  -0.686  0.00  0.00    -0.340 N 
ATOM     23  C   UNL d   1       1.114   0.695  -0.403  0.00  0.00     0.050 A 
ATOM     24  HN  UNL d   1       1.867  -1.081  -1.320  1.00  0.00     0.167 HD
ATOM     25  C   UNL d   1       0.107   1.047   0.472  0.00  0.00     0.083 A 
ATOM     26  S   UNL d   1      -0.756  -0.349   0.963  0.00  0.00    -0.069 SA
BRANCH  23  27
ATOM     27  C   UNL d   1       2.071   1.637  -0.976  0.00  0.00    -0.009 A 
ATOM     28  C   UNL d   1       1.738   2.979  -1.220  0.00  0.00     0.015 A 
ATOM     29  C   UNL d   1       2.682   3.859  -1.761  0.00  0.00     0.024 A 
ATOM     30  C   UNL d   1       3.964   3.404  -2.063  0.00  0.00     0.034 A 
ATOM     31  C   UNL d   1       4.309   2.075  -1.834  0.00  0.00     0.024 A 
ATOM     32 CL   UNL d   1       5.124   4.489  -2.724  0.00  0.00    -0.084 Cl
ATOM     33  C   UNL d   1       3.364   1.196  -1.296  0.00  0.00     0.015 A 
ENDBRANCH  23  27
ENDBRANCH   7  21
TORSDOF 3
