REMARK  7 active torsions:
REMARK  status: ('A' for Active; 'I' for Inactive)
REMARK    1  A    between atoms: N_3  and  C_1 
REMARK    2  A    between atoms: C_4  and  C_1 
REMARK       I    between atoms: C_7  and  N_2 
REMARK       I    between atoms: N_15  and  C_4 
REMARK    3  A    between atoms: C_17  and  C_7 
REMARK    4  A    between atoms: C_10  and  C_18 
REMARK    5  A    between atoms: O_16  and  C_10 
REMARK    6  A    between atoms: S_14  and  C_17 
REMARK    7  A    between atoms: C_18  and  S_14 
ROOT
ATOM      1  C   UNL d   1      -1.434   0.053  -0.162  0.00  0.00     0.241 C 
ATOM      2  N   UNL d   1       1.471  -0.062   0.162  0.00  0.00    -0.351 N 
ATOM      3  C   UNL d   1      -0.561   1.302   0.181  0.00  0.00     0.072 C 
ATOM      4  C   UNL d   1      -0.655  -1.248   0.233  0.00  0.00     0.072 C 
ATOM      5  C   UNL d   1       2.493  -0.016   1.097  0.00  0.00     0.229 C 
ATOM      6  C   UNL d   1       0.882   1.177  -0.331  0.00  0.00     0.129 C 
ATOM      7  C   UNL d   1       0.776  -1.260  -0.299  0.00  0.00     0.129 C 
ATOM      8  O   UNL d   1       3.074   1.035   1.403  0.00  0.00    -0.273 OA
ENDROOT
BRANCH   1   9
ATOM      9  N   UNL d   1      -2.809   0.068   0.501  0.00  0.00     0.107 N 
ATOM     10  C   UNL d   1      -3.612   1.263   0.138  0.00  0.00     0.274 C 
ATOM     11  C   UNL d   1      -5.008   1.276   0.783  0.00  0.00     0.030 C 
ATOM     12  C   UNL d   1      -4.932   1.131   2.295  0.00  0.00     0.003 C 
ATOM     13  C   UNL d   1      -4.127  -0.107   2.638  0.00  0.00     0.030 C 
ATOM     14  C   UNL d   1      -2.749  -0.064   1.974  0.00  0.00     0.274 C 
ENDBRANCH   1   9
BRANCH   1  15
ATOM     15  C   UNL d   1      -1.645   0.015  -1.721  0.00  0.00     0.255 C 
ATOM     16  O   UNL d   1      -1.306   0.918  -2.484  0.00  0.00    -0.271 OA
ATOM     17  N   UNL d   1      -2.230  -1.107  -2.244  0.00  0.00    -0.368 N 
ATOM     18  H   UNL d   1      -2.682  -1.793  -1.656  0.00  0.00     0.159 HD
ATOM     19  H   UNL d   1      -2.415  -1.115  -3.238  0.00  0.00     0.159 HD
ENDBRANCH   1  15
BRANCH   5  20
ATOM     20  C   UNL d   1       2.956  -1.304   1.763  0.00  0.00     0.177 C 
BRANCH  20  21
ATOM     21  S   UNL d   1       4.326  -2.066   0.834  0.00  0.00    -0.149 SA
BRANCH  21  22
ATOM     22  C   UNL d   1       5.568  -0.732   0.880  0.00  0.00     0.184 C 
BRANCH  22  23
ATOM     23  C   UNL d   1       5.990  -0.373   2.287  0.00  0.00     0.149 C 
ATOM     24  O   UNL d   1       6.872  -0.960   2.910  0.00  0.00    -0.649 OA
BRANCH  23  25
ATOM     25  O   UNL d   1       5.298   0.654   2.831  0.00  0.00    -0.776 OA
ATOM     26  H   UNL d   1       4.585   1.029   2.254  0.00  0.00     0.167 HD
ENDBRANCH  23  25
ENDBRANCH  22  23
ENDBRANCH  21  22
ENDBRANCH  20  21
ENDBRANCH   5  20
TORSDOF 7
