REMARK  4 active torsions:
REMARK  status: ('A' for Active; 'I' for Inactive)
REMARK    1  A    between atoms: C_2  and  C_1 
REMARK    2  A    between atoms: N_17  and  C_5 
REMARK    3  A    between atoms: C_15  and  C_6 
REMARK    4  A    between atoms: C_10  and  C_14 
ROOT
ATOM      1  C   UNL d   1       0.152  -1.168  -0.003  0.00  0.00     0.091 A 
ATOM      2  N   UNL d   1       1.352  -0.631   0.097  0.00  0.00    -0.349 N 
ATOM      3  HN  UNL d   1       2.218  -1.160   0.201  1.00  0.00     0.166 HD
ATOM      4  C   UNL d   1       1.272   0.753   0.041  0.00  0.00     0.050 A 
ATOM      5  S   UNL d   1      -1.133  -0.032  -0.162  0.00  0.00    -0.081 SA
ATOM      6  C   UNL d   1      -0.008   1.253  -0.089  0.00  0.00     0.082 A 
ENDROOT
BRANCH   1   7
ATOM      7  C   UNL d   1      -0.043  -2.646   0.004  0.00  0.00     0.074 A 
ATOM      8  C   UNL d   1      -1.208  -3.345  -0.210  0.00  0.00     0.179 A 
ATOM      9  O   UNL d   1      -0.944  -4.678  -0.131  0.00  0.00    -0.219 OA
ATOM     10  N   UNL d   1       0.397  -4.877   0.141  0.00  0.00    -0.263 N 
ATOM     11  C   UNL d   1       0.934  -3.652   0.228  0.00  0.00     0.046 A 
ATOM     12  HN  UNL d   1       0.877  -5.770   0.252  1.00  0.00     0.194 HD
ATOM     13  C   UNL d   1       2.373  -3.502   0.549  0.00  0.00     0.071 C 
BRANCH   8  14
ATOM     14  N   UNL d   1      -2.480  -3.004  -0.480  0.00  0.00    -0.377 N 
ATOM     15  H   UNL d   1      -2.709  -2.068  -0.796  0.00  0.00     0.158 HD
ATOM     16  H   UNL d   1      -3.116  -3.725  -0.811  0.00  0.00     0.158 HD
ENDBRANCH   8  14
ENDBRANCH   1   7
BRANCH   4  17
ATOM     17  C   UNL d   1       2.472   1.581   0.064  0.00  0.00    -0.008 A 
ATOM     18  C   UNL d   1       3.673   1.061  -0.441  0.00  0.00     0.029 A 
ATOM     19  C   UNL d   1       4.844   1.837  -0.471  0.00  0.00     0.048 A 
ATOM     20  C   UNL d   1       4.800   3.150   0.022  0.00  0.00     0.016 A 
ATOM     21  C   UNL d   1       3.615   3.672   0.539  0.00  0.00     0.002 A 
ATOM     22  C   UNL d   1       2.458   2.891   0.562  0.00  0.00     0.014 A 
BRANCH  19  23
ATOM     23  C   UNL d   1       6.132   1.283  -1.027  0.00  0.00     0.417 C 
ATOM     24  F   UNL d   1       6.036  -0.005  -1.457  0.00  0.00    -0.166 F 
ATOM     25  F   UNL d   1       6.586   1.999  -2.093  0.00  0.00    -0.166 F 
ATOM     26  F   UNL d   1       7.141   1.297  -0.112  0.00  0.00    -0.166 F 
ENDBRANCH  19  23
ENDBRANCH   4  17
TORSDOF 4
