REMARK  3 active torsions:
REMARK  status: ('A' for Active; 'I' for Inactive)
REMARK    1  A    between atoms: C_7  and  C_1 
REMARK    2  A    between atoms: C_9  and  C_4 
REMARK    3  A    between atoms: N_8  and  C_7 
ROOT
ATOM      1  C   UNL d   1      -0.232  -0.882  -0.117  0.00  0.00     0.031 A 
ATOM      2  N   UNL d   1      -1.799   0.789   0.016  0.00  0.00    -0.260 N 
ATOM      3  HN  UNL d   1      -2.683   1.297   0.038  1.00  0.00     0.195 HD
ATOM      4  C   UNL d   1      -1.638  -0.539  -0.064  0.00  0.00     0.075 A 
ATOM      5  O   UNL d   1      -0.542   1.331   0.063  0.00  0.00    -0.242 OA
ATOM      6  C   UNL d   1       0.395   0.345   0.024  0.00  0.00     0.083 A 
ATOM      7  C   UNL d   1       1.782   0.833   0.155  0.00  0.00     0.079 C 
ENDROOT
BRANCH   1   8
ATOM      8  C   UNL d   1       0.275  -2.284  -0.223  0.00  0.00     0.316 C 
BRANCH   8   9
ATOM      9  N   UNL d   1       1.726  -2.490  -0.106  0.00  0.00     0.096 N 
ATOM     10  C   UNL d   1       1.992  -3.943   0.112  0.00  0.00     0.299 C 
ATOM     11  C   UNL d   1       1.731  -4.821  -1.130  0.00  0.00     0.198 C 
ATOM     12  O   UNL d   1       2.514  -4.386  -2.245  0.00  0.00    -0.388 OA
ATOM     13  C   UNL d   1       2.259  -3.012  -2.550  0.00  0.00     0.198 C 
ATOM     14  C   UNL d   1       2.478  -2.107  -1.326  0.00  0.00     0.299 C 
ENDBRANCH   8   9
ENDBRANCH   1   8
BRANCH   4  15
ATOM     15  C   UNL d   1      -2.806  -1.427   0.000  0.00  0.00    -0.007 A 
ATOM     16  C   UNL d   1      -2.914  -2.579  -0.790  0.00  0.00     0.014 A 
ATOM     17  C   UNL d   1      -3.992  -3.457  -0.631  0.00  0.00     0.001 A 
ATOM     18  C   UNL d   1      -4.993  -3.174   0.296  0.00  0.00     0.000 A 
ATOM     19  C   UNL d   1      -4.923  -2.010   1.056  0.00  0.00     0.001 A 
ATOM     20  C   UNL d   1      -3.838  -1.146   0.913  0.00  0.00     0.014 A 
ENDBRANCH   4  15
TORSDOF 3
