REMARK  5 active torsions:
REMARK  status: ('A' for Active; 'I' for Inactive)
REMARK    1  A    between atoms: C_5  and  C_1 
REMARK    2  A    between atoms: C_2  and  S_3 
REMARK    3  A    between atoms: S_3  and  C_4 
REMARK       I    between atoms: N_9  and  C_5 
REMARK    4  A    between atoms: C_17  and  C_8 
REMARK    5  A    between atoms: O_14  and  C_17 
ROOT
ATOM      1  C   UNL d   1       3.246  -2.798   1.828  0.00  0.00     0.017 C 
ATOM      2  C   UNL d   1       4.401  -2.116   2.354  0.00  0.00    -0.000 C 
ATOM      3  C   UNL d   1       4.518  -1.317   3.548  0.00  0.00    -0.022 C 
ATOM      4  C   UNL d   1       5.598  -2.267   1.595  0.00  0.00    -0.024 C 
ATOM      5  C   UNL d   1       3.375  -3.744   0.791  0.00  0.00     0.020 C 
ATOM      6  C   UNL d   1       4.595  -3.967   0.176  0.00  0.00     0.002 C 
ATOM      7  C   UNL d   1       6.757  -0.590   2.916  0.00  0.00     0.002 C 
ATOM      8  C   UNL d   1       5.667  -0.523   3.765  0.00  0.00     0.010 C 
ATOM      9  C   UNL d   1       5.685  -3.198   0.549  0.00  0.00     0.012 C 
ATOM     10  C   UNL d   1       6.737  -1.497   1.869  0.00  0.00     0.012 C 
ENDROOT
BRANCH   1  11
ATOM     11  S   UNL d   1       1.535  -2.544   2.302  0.00  0.00    -0.089 SA
BRANCH  11  12
ATOM     12  C   UNL d   1       1.148  -0.835   1.937  0.00  0.00     0.021 A 
ATOM     13  C   UNL d   1       1.644  -0.017   0.910  0.00  0.00     0.049 A 
ATOM     14  C   UNL d   1       1.248   1.333   0.817  0.00  0.00     0.018 A 
ATOM     15  C   UNL d   1       0.302   1.862   1.688  0.00  0.00     0.001 A 
ATOM     16  C   UNL d   1      -0.259   1.045   2.659  0.00  0.00     0.001 A 
ATOM     17  C   UNL d   1       0.169  -0.281   2.789  0.00  0.00     0.020 A 
BRANCH  13  18
ATOM     18  C   UNL d   1       2.441  -0.473  -0.246  0.00  0.00     0.252 C 
ATOM     19  O   UNL d   1       3.521   0.045  -0.498  0.00  0.00    -0.268 OA
ATOM     20  N   UNL d   1       1.772  -1.336  -1.087  0.00  0.00    -0.361 N 
ATOM     21  C   UNL d   1       2.220  -1.586  -2.431  0.00  0.00     0.149 C 
ATOM     22  H   UNL d   1       0.863  -1.690  -0.802  0.00  0.00     0.162 HD
ENDBRANCH  13  18
ENDBRANCH  11  12
ENDBRANCH   1  11
BRANCH   3  23
ATOM     23  C   UNL d   1       3.517  -1.346   4.682  0.00  0.00     0.203 C 
BRANCH  23  24
ATOM     24  O   UNL d   1       4.220  -1.428   5.928  0.00  0.00    -0.396 OA
ATOM     25  H   UNL d   1       3.561  -1.353   6.635  0.00  0.00     0.209 HD
ENDBRANCH  23  24
ENDBRANCH   3  23
TORSDOF 5
