REMARK  5 active torsions:
REMARK  status: ('A' for Active; 'I' for Inactive)
REMARK    1  A    between atoms: C_3  and  C_1 
REMARK       I    between atoms: C_2  and  N_5 
REMARK       I    between atoms: N_6  and  C_2 
REMARK       I    between atoms: N_7  and  C_3 
REMARK    2  A    between atoms: N_5  and  C_4 
REMARK    3  A    between atoms: C_13  and  N_6 
REMARK    4  A    between atoms: C_18  and  N_7 
REMARK    5  A    between atoms: C_10  and  C_18 
ROOT
ATOM      1  C   UNL d   1       1.587  -0.720   0.432  0.00  0.00     0.058 C 
ATOM      2  C   UNL d   1       0.896  -1.886   0.008  0.00  0.00     0.052 C 
ATOM      3  C   UNL d   1       0.865   0.478   0.577  0.00  0.00     0.019 C 
ATOM      4  C   UNL d   1      -0.506  -1.863  -0.016  0.00  0.00     0.030 C 
ATOM      5  C   UNL d   1      -0.524   0.501   0.429  0.00  0.00     0.001 C 
ATOM      6  C   UNL d   1      -1.215  -0.680   0.187  0.00  0.00     0.002 C 
ENDROOT
BRANCH   2   7
ATOM      7  N   UNL d   1       1.625  -3.007  -0.495  0.00  0.00    -0.308 N 
ATOM      8  C   UNL d   1       1.132  -3.904  -1.401  0.00  0.00     0.325 C 
ATOM      9  N   UNL d   1       1.997  -4.590  -2.191  0.00  0.00    -0.309 N 
ATOM     10  O   UNL d   1      -0.059  -4.059  -1.681  0.00  0.00    -0.247 OA
ATOM     11  H   UNL d   1       1.470  -4.965  -2.973  0.00  0.00     0.170 HD
ATOM     12  H   UNL d   1       2.634  -2.883  -0.471  0.00  0.00     0.170 HD
BRANCH   9  13
ATOM     13  C   UNL d   1       3.369  -4.862  -2.208  0.00  0.00     0.038 A 
ATOM     14  C   UNL d   1       4.226  -4.760  -1.115  0.00  0.00     0.054 A 
ATOM     15  C   UNL d   1       5.574  -5.131  -1.247  0.00  0.00     0.042 A 
ATOM     16 CL   UNL d   1       6.588  -4.992   0.149  0.00  0.00    -0.084 Cl
ATOM     17  C   UNL d   1       6.081  -5.621  -2.462  0.00  0.00    -0.040 A 
ATOM     18  C   UNL d   1       5.214  -5.715  -3.554  0.00  0.00     0.011 A 
ATOM     19  C   UNL d   1       7.515  -6.041  -2.633  0.00  0.00     0.050 C 
ATOM     20  C   UNL d   1       3.875  -5.348  -3.422  0.00  0.00     0.030 A 
ENDBRANCH   9  13
ENDBRANCH   2   7
BRANCH   1  21
ATOM     21  C   UNL d   1       3.057  -0.777   0.739  0.00  0.00     0.253 C 
ATOM     22  N   UNL d   1       3.621   0.267   1.460  0.00  0.00    -0.356 N 
ATOM     23  H   UNL d   1       3.042   1.016   1.803  0.00  0.00     0.162 HD
ATOM     24  O   UNL d   1       3.703  -1.772   0.417  0.00  0.00    -0.268 OA
BRANCH  22  25
ATOM     25  C   UNL d   1       4.861   0.058   2.181  0.00  0.00     0.127 C 
BRANCH  25  26
ATOM     26  C   UNL d   1       5.810   1.217   2.142  0.00  0.00     0.003 A 
ATOM     27  C   UNL d   1       5.459   2.548   2.761  0.00  0.00     0.007 A 
ATOM     28  C   UNL d   1       5.647   2.439   1.271  0.00  0.00     0.007 A 
ENDBRANCH  25  26
ENDBRANCH  22  25
ENDBRANCH   1  21
TORSDOF 5
