REMARK  4 active torsions:
REMARK  status: ('A' for Active; 'I' for Inactive)
REMARK    1  A    between atoms: C_5  and  C_1 
REMARK    2  A    between atoms: N_10  and  C_1 
REMARK       I    between atoms: C_2  and  N_6 
REMARK    3  A    between atoms: O_12  and  N_3 
REMARK    4  A    between atoms: N_6  and  C_11 
ROOT
ATOM      1  C   UNL d   1       0.190   0.629  -1.044  0.00  0.00     0.004 A 
ATOM      2  C   UNL d   1       0.589   0.385  -2.361  0.00  0.00     0.017 A 
ATOM      3  C   UNL d   1      -0.906   1.457  -0.799  0.00  0.00     0.017 A 
ATOM      4  C   UNL d   1      -1.210   1.808  -3.184  0.00  0.00     0.034 A 
ATOM      5  C   UNL d   1      -1.599   2.043  -1.864  0.00  0.00     0.030 A 
ATOM      6  C   UNL d   1      -0.113   0.968  -3.424  0.00  0.00     0.030 A 
ENDROOT
BRANCH   1   7
ATOM      7  C   UNL d   1       0.935   0.027   0.103  0.00  0.00     0.108 C 
ATOM      8  N   UNL d   1       2.195  -0.266  -0.051  0.00  0.00    -0.258 N 
ATOM      9  HN  UNL d   1       2.725  -0.118  -0.910  1.00  0.00     0.195 HD
BRANCH   8  10
ATOM     10  O   UNL d   1       2.724  -0.813   1.131  0.00  0.00    -0.289 OA
ATOM     11  H   UNL d   1       3.681  -0.808   0.944  0.00  0.00     0.244 HD
ENDBRANCH   8  10
BRANCH   7  12
ATOM     12  N   UNL d   1       0.265  -0.198   1.284  0.00  0.00    -0.287 NA
ATOM     13  H   UNL d   1       0.832  -0.786   1.889  0.00  0.00     0.125 HD
ATOM     14  H   UNL d   1      -0.681  -0.548   1.182  0.00  0.00     0.125 HD
ENDBRANCH   7  12
ENDBRANCH   1   7
BRANCH   4  15
ATOM     15  N   UNL d   1      -1.855   2.380  -4.302  0.00  0.00    -0.328 N 
ATOM     16  C   UNL d   1      -2.926   3.256  -4.290  0.00  0.00     0.218 C 
ATOM     17  O   UNL d   1      -3.515   3.684  -3.302  0.00  0.00    -0.274 OA
ATOM     18  C   UNL d   1      -3.362   3.690  -5.667  0.00  0.00     0.117 C 
ATOM     19  H   UNL d   1      -1.473   2.131  -5.206  0.00  0.00     0.169 HD
ENDBRANCH   4  15
TORSDOF 4
