REMARK  6 active torsions:
REMARK  status: ('A' for Active; 'I' for Inactive)
REMARK    1  A    between atoms: N_10  and  C_2 
REMARK    2  A    between atoms: C_11  and  C_3 
REMARK    3  A    between atoms: S_12  and  C_6 
REMARK    4  A    between atoms: C_9  and  C_8 
REMARK    5  A    between atoms: O_19  and  C_11 
REMARK    6  A    between atoms: C_24  and  O_19 
ROOT
ATOM      1  C   UNL d   1      -0.099   0.687  -0.071  0.00  0.00     0.060 A 
ATOM      2  C   UNL d   1      -1.239  -1.498   0.074  0.00  0.00     0.062 A 
ATOM      3  C   UNL d   1      -2.452  -0.778  -0.010  0.00  0.00     0.100 A 
ATOM      4  N   UNL d   1      -1.273   1.313  -0.170  0.00  0.00    -0.348 N 
ATOM      5  HN  UNL d   1      -1.299   2.327  -0.272  1.00  0.00     0.166 HD
ATOM      6  C   UNL d   1      -2.429   0.612  -0.135  0.00  0.00     0.088 A 
ATOM      7  C   UNL d   1      -0.025  -0.724   0.060  0.00  0.00     0.019 A 
ATOM      8  C   UNL d   1       1.070   1.451  -0.082  0.00  0.00     0.075 A 
ATOM      9  C   UNL d   1       1.264  -1.293   0.215  0.00  0.00     0.016 A 
ATOM     10  C   UNL d   1       2.332   0.832  -0.006  0.00  0.00     0.018 A 
ATOM     11  C   UNL d   1       2.429  -0.538   0.150  0.00  0.00     0.002 A 
ENDROOT
BRANCH   2  12
ATOM     12  N   UNL d   1      -1.149  -2.884   0.219  0.00  0.00    -0.379 N 
ATOM     13  C   UNL d   1      -2.115  -3.698   0.954  0.00  0.00     0.123 C 
ATOM     14  C   UNL d   1      -1.433  -5.059   0.945  0.00  0.00     0.021 C 
ATOM     15  C   UNL d   1      -0.875  -5.147  -0.472  0.00  0.00     0.021 C 
ATOM     16  C   UNL d   1      -0.620  -3.691  -0.896  0.00  0.00     0.123 C 
ENDBRANCH   2  12
BRANCH   3  17
ATOM     17  C   UNL d   1      -3.764  -1.425  -0.056  0.00  0.00     0.298 C 
ATOM     18  O   UNL d   1      -4.210  -2.007  -1.030  0.00  0.00    -0.259 OA
BRANCH  17  19
ATOM     19  O   UNL d   1      -4.370  -1.227   1.143  0.00  0.00    -0.318 OA
BRANCH  19  20
ATOM     20  C   UNL d   1      -5.764  -1.560   1.220  0.00  0.00     0.174 C 
ATOM     21  C   UNL d   1      -5.984  -2.444   2.430  0.00  0.00     0.034 C 
ENDBRANCH  19  20
ENDBRANCH  17  19
ENDBRANCH   3  17
BRANCH   6  22
ATOM     22  S   UNL d   1      -3.914   1.616  -0.292  0.00  0.00    -0.116 SA
ATOM     23  C   UNL d   1      -3.263   3.263   0.099  0.00  0.00     0.097 C 
ENDBRANCH   6  22
BRANCH   8  24
ATOM     24  C   UNL d   1       1.052   2.958  -0.155  0.00  0.00     0.419 C 
ATOM     25  F   UNL d   1      -0.154   3.579  -0.071  0.00  0.00    -0.166 F 
ATOM     26  F   UNL d   1       1.799   3.510   0.850  0.00  0.00    -0.166 F 
ATOM     27  F   UNL d   1       1.622   3.418  -1.308  0.00  0.00    -0.166 F 
ENDBRANCH   8  24
TORSDOF 6
