REMARK  4 active torsions:
REMARK  status: ('A' for Active; 'I' for Inactive)
REMARK    1  A    between atoms: C_2  and  C_1 
REMARK       I    between atoms: N_5  and  C_1 
REMARK    2  A    between atoms: O_3  and  C_2 
REMARK    3  A    between atoms: C_6  and  O_3 
REMARK    4  A    between atoms: N_8  and  N_5 
ROOT
ATOM      1  C   UNL d   1       0.222  -1.371   0.342  0.00  0.00     0.142 C 
ATOM      2  C   UNL d   1      -0.849  -1.655  -0.731  0.00  0.00     0.057 C 
ATOM      3  C   UNL d   1       0.992  -2.684   0.563  0.00  0.00     0.057 C 
ENDROOT
BRANCH   1   4
ATOM      4  C   UNL d   1       1.124  -0.251  -0.232  0.00  0.00     0.266 C 
ATOM      5  O   UNL d   1       2.265  -0.440  -0.649  0.00  0.00    -0.269 OA
ATOM      6  N   UNL d   1       0.506   0.996  -0.280  0.00  0.00    -0.291 N 
ATOM      7  H   UNL d   1      -0.400   1.133   0.174  0.00  0.00     0.183 HD
BRANCH   6   8
ATOM      8  N   UNL d   1       1.178   2.099  -0.842  0.00  0.00    -0.247 NA
ATOM      9  H   UNL d   1       1.666   1.759  -1.681  0.00  0.00     0.143 HD
ATOM     10  H   UNL d   1       1.947   2.351  -0.212  0.00  0.00     0.143 HD
ENDBRANCH   6   8
ENDBRANCH   1   4
BRANCH   1  11
ATOM     11  O   UNL d   1      -0.519  -0.955   1.502  0.00  0.00    -0.331 OA
BRANCH  11  12
ATOM     12  C   UNL d   1       0.093  -0.902   2.721  0.00  0.00     0.070 A 
ATOM     13  C   UNL d   1       1.431  -0.580   2.949  0.00  0.00     0.038 A 
ATOM     14  C   UNL d   1       1.951  -0.614   4.247  0.00  0.00     0.026 A 
ATOM     15  C   UNL d   1       1.126  -0.942   5.319  0.00  0.00     0.034 A 
ATOM     16  C   UNL d   1      -0.222  -1.215   5.108  0.00  0.00     0.026 A 
ATOM     17 CL   UNL d   1       1.778  -1.015   6.909  0.00  0.00    -0.084 Cl
ATOM     18  C   UNL d   1      -0.738  -1.186   3.810  0.00  0.00     0.038 A 
ENDBRANCH  11  12
ENDBRANCH   1  11
TORSDOF 4
