REMARK  8 active torsions:
REMARK  status: ('A' for Active; 'I' for Inactive)
REMARK    1  A    between atoms: C_14  and  C_5 
REMARK    2  A    between atoms: N_7  and  C_9 
REMARK    3  A    between atoms: N_8  and  C_13 
REMARK    4  A    between atoms: O_23  and  C_14 
REMARK    5  A    between atoms: C_24  and  O_23 
REMARK    6  A    between atoms: C_25  and  C_24 
REMARK    7  A    between atoms: C_27  and  C_25 
REMARK    8  A    between atoms: C_26  and  C_27 
ROOT
ATOM      1  C   UNL d   1      -0.678   0.834   0.049  0.00  0.00     0.006 A 
ATOM      2  C   UNL d   1      -1.158  -0.501   0.007  0.00  0.00     0.029 A 
ATOM      3  C   UNL d   1       1.209  -0.576  -0.007  0.00  0.00     0.028 A 
ATOM      4  C   UNL d   1       0.791   0.770   0.043  0.00  0.00    -0.010 A 
ATOM      5  C   UNL d   1      -1.621   1.871   0.038  0.00  0.00     0.053 A 
ATOM      6  C   UNL d   1       0.001  -1.414  -0.017  0.00  0.00     0.194 A 
ATOM      7  C   UNL d   1      -3.422   0.176  -0.050  0.00  0.00     0.104 A 
ATOM      8  C   UNL d   1      -2.495  -0.865  -0.038  0.00  0.00     0.052 A 
ATOM      9  C   UNL d   1      -3.000   1.526  -0.007  0.00  0.00     0.054 A 
ATOM     10  C   UNL d   1       2.538  -0.985  -0.076  0.00  0.00     0.052 A 
ATOM     11  C   UNL d   1       3.506   0.025  -0.096  0.00  0.00     0.103 A 
ATOM     12  C   UNL d   1       1.780   1.743   0.040  0.00  0.00     0.016 A 
ATOM     13  O   UNL d   1      -0.042  -2.634  -0.053  0.00  0.00    -0.287 OA
ATOM     14  C   UNL d   1       3.131   1.376  -0.026  0.00  0.00     0.037 A 
ENDROOT
BRANCH   5  15
ATOM     15  C   UNL d   1      -1.243   3.312   0.147  0.00  0.00     0.294 C 
ATOM     16  O   UNL d   1      -0.275   3.716   0.769  0.00  0.00    -0.259 OA
BRANCH  15  17
ATOM     17  O   UNL d   1      -2.186   4.121  -0.404  0.00  0.00    -0.317 OA
BRANCH  17  18
ATOM     18  C   UNL d   1      -2.688   5.075   0.544  0.00  0.00     0.179 C 
BRANCH  18  19
ATOM     19  C   UNL d   1      -2.371   6.511   0.168  0.00  0.00     0.027 C 
BRANCH  19  20
ATOM     20  C   UNL d   1      -2.959   7.479   1.200  0.00  0.00     0.002 C 
BRANCH  20  21
ATOM     21  C   UNL d   1      -2.637   8.925   0.833  0.00  0.00    -0.004 C 
ATOM     22  C   UNL d   1      -3.212   9.903   1.844  0.00  0.00     0.005 C 
ENDBRANCH  20  21
ENDBRANCH  19  20
ENDBRANCH  18  19
ENDBRANCH  17  18
ENDBRANCH  15  17
ENDBRANCH   5  15
BRANCH   7  23
ATOM     23  N   UNL d   1      -4.859  -0.140  -0.120  0.00  0.00    -0.116 N 
ATOM     24  O   UNL d   1      -5.186  -1.331  -0.169  0.00  0.00    -0.532 OA
ATOM     25  O   UNL d   1      -5.652   0.813  -0.126  0.00  0.00    -0.532 OA
ENDBRANCH   7  23
BRANCH  11  26
ATOM     26  N   UNL d   1       4.931  -0.306  -0.221  0.00  0.00    -0.116 N 
ATOM     27  O   UNL d   1       5.239  -1.497  -0.318  0.00  0.00    -0.532 OA
ATOM     28  O   UNL d   1       5.740   0.638  -0.231  0.00  0.00    -0.532 OA
ENDBRANCH  11  26
TORSDOF 8
