REMARK  4 active torsions:
REMARK  status: ('A' for Active; 'I' for Inactive)
REMARK       I    between atoms: N_7  and  C_1 
REMARK       I    between atoms: N_8  and  C_1 
REMARK    1  A    between atoms: C_2  and  N_6 
REMARK    2  A    between atoms: N_6  and  N_7 
REMARK    3  A    between atoms: C_16  and  N_8 
REMARK    4  A    between atoms: C_11  and  C_12 
ROOT
ATOM      1  C   UNL d   1      -0.811  -0.489  -5.098  0.00  0.00     0.119 A 
ATOM      2  C   UNL d   1      -1.982   0.051  -5.648  0.00  0.00     0.084 A 
ATOM      3  C   UNL d   1      -2.878   0.858  -4.875  0.00  0.00     0.103 C 
ATOM      4  N   UNL d   1      -3.597   1.558  -4.294  0.00  0.00    -0.191 NA
ATOM      5  N   UNL d   1       0.045  -1.236  -5.843  0.00  0.00    -0.354 N 
ATOM      6  HN  UNL d   1       0.893  -1.627  -5.434  1.00  0.00     0.166 HD
ATOM      7  C   UNL d   1      -2.276  -0.193  -6.992  0.00  0.00     0.027 A 
ATOM      8  C   UNL d   1      -0.261  -1.445  -7.143  0.00  0.00     0.089 A 
ATOM      9  C   UNL d   1      -1.400  -0.954  -7.756  0.00  0.00     0.019 A 
ENDROOT
BRANCH   1  10
ATOM     10  N   UNL d   1      -0.549  -0.331  -3.725  0.00  0.00    -0.185 NA
ATOM     11  H   UNL d   1      -0.610   0.630  -3.393  0.00  0.00     0.154 HD
BRANCH  10  12
ATOM     12  N   UNL d   1       0.575  -1.028  -3.232  0.00  0.00    -0.267 N 
ATOM     13  C   UNL d   1       1.023  -0.792  -1.953  0.00  0.00     0.335 C 
ATOM     14  N   UNL d   1       0.143  -0.325  -1.011  0.00  0.00    -0.308 N 
ATOM     15  O   UNL d   1       2.220  -0.888  -1.683  0.00  0.00    -0.246 OA
ATOM     16  H   UNL d   1       0.593   0.184  -0.263  0.00  0.00     0.170 HD
ATOM     17  H   UNL d   1       1.274  -1.254  -3.938  0.00  0.00     0.186 HD
BRANCH  14  18
ATOM     18  C   UNL d   1      -1.258  -0.423  -0.986  0.00  0.00     0.036 A 
ATOM     19  C   UNL d   1      -1.937  -1.531  -1.493  0.00  0.00     0.030 A 
ATOM     20  C   UNL d   1      -3.331  -1.522  -1.593  0.00  0.00     0.010 A 
ATOM     21  C   UNL d   1      -4.083  -0.402  -1.200  0.00  0.00    -0.051 A 
ATOM     22  C   UNL d   1      -3.380   0.667  -0.612  0.00  0.00     0.010 A 
ATOM     23  C   UNL d   1      -1.986   0.648  -0.482  0.00  0.00     0.030 A 
BRANCH  21  24
ATOM     24  C   UNL d   1      -5.614  -0.377  -1.350  0.00  0.00    -0.024 C 
ATOM     25  C   UNL d   1      -6.183   1.050  -1.527  0.00  0.00     0.019 C 
ATOM     26  C   UNL d   1      -6.107  -1.189  -2.572  0.00  0.00     0.019 C 
ATOM     27  C   UNL d   1      -6.215  -0.990  -0.073  0.00  0.00     0.019 C 
ENDBRANCH  21  24
ENDBRANCH  14  18
ENDBRANCH  10  12
ENDBRANCH   1  10
TORSDOF 4
