REMARK  6 active torsions:
REMARK  status: ('A' for Active; 'I' for Inactive)
REMARK    1  A    between atoms: C_2  and  S_1 
REMARK    2  A    between atoms: N_10  and  S_1 
REMARK    3  A    between atoms: C_11  and  C_3 
REMARK    4  A    between atoms: C_7  and  C_18 
REMARK    5  A    between atoms: C_20  and  N_10 
REMARK    6  A    between atoms: O_23  and  C_11 
ROOT
ATOM      1  C   UNL d   1       1.264   4.885   1.972  0.00  0.00    -0.008 A 
ATOM      2  C   UNL d   1       1.154   2.641   0.262  0.00  0.00     0.022 A 
ATOM      3  C   UNL d   1       2.429   4.207   1.585  0.00  0.00     0.015 A 
ATOM      4  C   UNL d   1       0.035   4.419   1.488  0.00  0.00     0.015 A 
ATOM      5  C   UNL d   1      -0.019   3.301   0.637  0.00  0.00     0.025 A 
ATOM      6  C   UNL d   1       2.378   3.093   0.742  0.00  0.00     0.025 A 
ENDROOT
BRANCH   2   7
ATOM      7  N   UNL d   1       1.141   1.490  -0.588  0.00  0.00    -0.181 NA
ATOM      8  H   UNL d   1       2.013   0.948  -0.601  0.00  0.00     0.146 HD
BRANCH   7   9
ATOM      9  S   UNL d   1       0.609   1.680  -2.178  0.00  0.00     0.247 S 
ATOM     10  O   UNL d   1       0.885   0.455  -2.893  0.00  0.00    -0.205 OA
ATOM     11  O   UNL d   1      -0.712   2.275  -2.191  0.00  0.00    -0.205 OA
BRANCH   9  12
ATOM     12  C   UNL d   1       1.617   2.847  -2.983  0.00  0.00     0.098 A 
ATOM     13  C   UNL d   1       2.962   2.662  -3.259  0.00  0.00     0.102 A 
ATOM     14  S   UNL d   1       3.595   4.005  -4.131  0.00  0.00    -0.094 SA
ATOM     15  C   UNL d   1       2.098   4.821  -4.117  0.00  0.00     0.052 A 
ATOM     16  C   UNL d   1       1.123   4.096  -3.473  0.00  0.00     0.033 A 
BRANCH  13  17
ATOM     17  C   UNL d   1       3.823   1.562  -2.867  0.00  0.00     0.301 C 
ATOM     18  O   UNL d   1       3.655   0.876  -1.865  0.00  0.00    -0.259 OA
BRANCH  17  19
ATOM     19  O   UNL d   1       4.855   1.428  -3.747  0.00  0.00    -0.322 OA
ATOM     20  C   UNL d   1       5.858   0.447  -3.473  0.00  0.00     0.213 C 
ENDBRANCH  17  19
ENDBRANCH  13  17
ENDBRANCH   9  12
ENDBRANCH   7   9
ENDBRANCH   2   7
BRANCH   1  21
ATOM     21  C   UNL d   1       1.395   6.040   2.853  0.00  0.00     0.060 A 
ATOM     22  N   UNL d   1       2.640   6.561   3.188  0.00  0.00    -0.335 N 
ATOM     23  C   UNL d   1       2.366   7.566   3.966  0.00  0.00     0.147 A 
ATOM     24  HN  UNL d   1       3.559   6.231   2.891  1.00  0.00     0.168 HD
ATOM     25  S   UNL d   1       3.326   8.729   4.782  0.00  0.00    -0.092 SA
ATOM     26  N   UNL d   1       1.037   7.723   4.164  0.00  0.00    -0.335 N 
ATOM     27  C   UNL d   1       1.863   9.394   5.671  0.00  0.00     0.102 C 
ATOM     28  C   UNL d   1       0.614   8.849   4.963  0.00  0.00     0.141 C 
ATOM     29  C   UNL d   1       0.378   6.766   3.463  0.00  0.00     0.123 A 
ENDBRANCH   1  21
TORSDOF 6
