REMARK  3 active torsions:
REMARK  status: ('A' for Active; 'I' for Inactive)
REMARK    1  A    between atoms: C_7  and  C_1 
REMARK       I    between atoms: N_13  and  C_7 
REMARK    2  A    between atoms: N_9  and  N_13 
REMARK    3  A    between atoms: C_12  and  C_18 
ROOT
ATOM      1  C   UNL d   1       1.977  -2.521   0.044  0.00  0.00     0.289 C 
ATOM      2  N   UNL d   1       1.077  -3.568  -0.134  0.00  0.00    -0.265 N 
ATOM      3  O   UNL d   1       3.180  -2.694   0.230  0.00  0.00    -0.264 OA
ATOM      4  H   UNL d   1       0.081  -3.393  -0.155  0.00  0.00     0.190 HD
ENDROOT
BRANCH   1   5
ATOM      5  C   UNL d   1       1.374  -1.206   0.011  0.00  0.00     0.132 A 
ATOM      6  N   UNL d   1       1.837  -0.103   0.714  0.00  0.00    -0.302 N 
ATOM      7  C   UNL d   1       0.968   0.948   0.427  0.00  0.00     0.112 A 
ATOM      8  C   UNL d   1       2.934   0.046   1.571  0.00  0.00     0.099 A 
ATOM      9  C   UNL d   1       1.207   2.198   1.066  0.00  0.00     0.049 A 
ATOM     10  N   UNL d   1       0.051   0.595  -0.442  0.00  0.00    -0.344 N 
ATOM     11  C   UNL d   1       2.261   2.340   1.893  0.00  0.00     0.005 A 
ATOM     12  C   UNL d   1       3.168   1.233   2.155  0.00  0.00     0.018 A 
ATOM     13  C   UNL d   1       0.318  -0.715  -0.751  0.00  0.00     0.040 A 
ATOM     14  HN  UNL d   1      -0.704   1.174  -0.810  1.00  0.00     0.167 HD
ATOM     15  C   UNL d   1      -0.463  -1.367  -1.830  0.00  0.00     0.071 C 
ENDBRANCH   1   5
BRANCH   2  16
ATOM     16  N   UNL d   1       1.542  -4.829  -0.369  0.00  0.00    -0.308 N 
ATOM     17  C   UNL d   1       0.648  -5.755  -0.528  0.00  0.00     0.120 C 
ATOM     18  HN  UNL d   1       2.540  -5.033  -0.419  1.00  0.00     0.186 HD
BRANCH  17  19
ATOM     19  C   UNL d   1       1.044  -7.132  -0.907  0.00  0.00     0.002 A 
ATOM     20  C   UNL d   1       0.103  -8.153  -1.089  0.00  0.00     0.045 A 
ATOM     21 CL   UNL d   1      -1.585  -7.939  -0.787  0.00  0.00    -0.083 Cl
ATOM     22  C   UNL d   1       0.519  -9.412  -1.542  0.00  0.00     0.024 A 
ATOM     23  C   UNL d   1       1.868  -9.657  -1.806  0.00  0.00     0.002 A 
ATOM     24  C   UNL d   1       2.809  -8.652  -1.604  0.00  0.00     0.001 A 
ATOM     25  C   UNL d   1       2.401  -7.396  -1.153  0.00  0.00     0.014 A 
ENDBRANCH  17  19
ENDBRANCH   2  16
TORSDOF 3
