REMARK  5 active torsions:
REMARK  status: ('A' for Active; 'I' for Inactive)
REMARK    1  A    between atoms: C_8  and  C_2 
REMARK    2  A    between atoms: S_9  and  C_5 
REMARK    3  A    between atoms: C_18  and  S_9 
REMARK    4  A    between atoms: C_11  and  C_18 
REMARK       I    between atoms: N_12  and  C_11 
REMARK    5  A    between atoms: C_20  and  N_12 
ROOT
ATOM      1  N   UNL d   1       1.043   0.174   0.179  0.00  0.00    -0.315 N 
ATOM      2  C   UNL d   1       0.125   1.187  -0.009  0.00  0.00     0.134 C 
ATOM      3  N   UNL d   1      -1.074   0.633  -0.087  0.00  0.00    -0.283 N 
ATOM      4  HN  UNL d   1      -1.939   1.119  -0.327  1.00  0.00     0.188 HD
ATOM      5  C   UNL d   1       0.301  -0.945   0.430  0.00  0.00     0.163 C 
ATOM      6  N   UNL d   1      -0.964  -0.699   0.205  0.00  0.00    -0.278 N 
ATOM      7  HN  UNL d   1      -1.726  -1.375   0.241  1.00  0.00     0.189 HD
ATOM      8  C   UNL d   1       2.479   0.235   0.083  0.00  0.00     0.160 C 
ENDROOT
BRANCH   5   9
ATOM      9  S   UNL d   1       0.918  -2.357   1.208  0.00  0.00    -0.083 SA
BRANCH   9  10
ATOM     10  C   UNL d   1      -0.498  -3.486   1.126  0.00  0.00     0.185 C 
BRANCH  10  11
ATOM     11  C   UNL d   1      -1.662  -3.246   2.088  0.00  0.00     0.231 C 
ATOM     12  N   UNL d   1      -1.779  -1.990   2.642  0.00  0.00    -0.327 N 
ATOM     13  H   UNL d   1      -1.191  -1.272   2.237  0.00  0.00     0.169 HD
ATOM     14  O   UNL d   1      -2.447  -4.176   2.291  0.00  0.00    -0.272 OA
BRANCH  12  15
ATOM     15  C   UNL d   1      -2.737  -1.530   3.566  0.00  0.00     0.034 A 
ATOM     16  C   UNL d   1      -3.691  -2.348   4.175  0.00  0.00     0.032 A 
ATOM     17  C   UNL d   1      -4.606  -1.809   5.085  0.00  0.00     0.044 A 
ATOM     18  C   UNL d   1      -4.564  -0.457   5.388  0.00  0.00     0.116 A 
ATOM     19  C   UNL d   1      -3.620   0.374   4.799  0.00  0.00     0.044 A 
ATOM     20  F   UNL d   1      -5.442   0.055   6.261  0.00  0.00    -0.206 F 
ATOM     21  C   UNL d   1      -2.709  -0.162   3.887  0.00  0.00     0.032 A 
ENDBRANCH  12  15
ENDBRANCH  10  11
ENDBRANCH   9  10
ENDBRANCH   5   9
BRANCH   2  22
ATOM     22  C   UNL d   1       0.380   2.626  -0.066  0.00  0.00     0.010 A 
ATOM     23  C   UNL d   1      -0.415   3.442  -0.884  0.00  0.00     0.027 A 
ATOM     24  C   UNL d   1      -0.241   4.836  -0.920  0.00  0.00    -0.025 A 
ATOM     25  C   UNL d   1      -1.043   5.660  -1.726  0.00  0.00     0.012 A 
ATOM     26  C   UNL d   1       0.761   5.428  -0.116  0.00  0.00    -0.026 A 
ATOM     27  C   UNL d   1      -0.850   7.044  -1.747  0.00  0.00     0.001 A 
ATOM     28  C   UNL d   1       0.147   7.620  -0.967  0.00  0.00     0.001 A 
ATOM     29  C   UNL d   1       0.949   6.817  -0.155  0.00  0.00     0.012 A 
ATOM     30  C   UNL d   1       1.542   4.615   0.715  0.00  0.00     0.013 A 
ATOM     31  C   UNL d   1       1.339   3.233   0.754  0.00  0.00     0.016 A 
ENDBRANCH   2  22
TORSDOF 5
