REMARK  4 active torsions:
REMARK  status: ('A' for Active; 'I' for Inactive)
REMARK    1  A    between atoms: C_2  and  C_1 
REMARK       I    between atoms: N_4  and  C_2 
REMARK    2  A    between atoms: C_6  and  C_15 
REMARK       I    between atoms: N_11  and  C_6 
REMARK    3  A    between atoms: C_15  and  N_8 
REMARK    4  A    between atoms: C_19  and  N_11 
ROOT
ATOM      1  C   UNL d   1       2.190   0.102  -1.917  0.00  0.00     0.251 C 
ATOM      2  N   UNL d   1       1.392   0.632  -2.924  0.00  0.00    -0.346 N 
ATOM      3  N   UNL d   1      -1.299   1.813  -3.335  0.00  0.00     0.100 N 
ATOM      4  O   UNL d   1       2.732   0.858  -1.102  0.00  0.00    -0.270 OA
ATOM      5  C   UNL d   1       1.240   2.083  -3.015  0.00  0.00     0.156 C 
ATOM      6  C   UNL d   1       0.422  -0.095  -3.736  0.00  0.00     0.156 C 
ATOM      7  C   UNL d   1      -1.022   0.351  -3.389  0.00  0.00     0.293 C 
ATOM      8  C   UNL d   1      -0.191   2.505  -2.609  0.00  0.00     0.293 C 
ENDROOT
BRANCH   1   9
ATOM      9  C   UNL d   1       2.325  -1.442  -1.765  0.00  0.00     0.245 C 
ATOM     10  O   UNL d   1       2.599  -2.208  -2.940  0.00  0.00    -0.331 OA
ATOM     11  C   UNL d   1       3.928  -2.190  -3.278  0.00  0.00     0.103 C 
ATOM     12  C   UNL d   1       4.273  -2.689  -4.532  0.00  0.00     0.040 C 
ATOM     13  C   UNL d   1       4.920  -1.684  -2.435  0.00  0.00     0.102 C 
ATOM     14  C   UNL d   1       5.587  -2.566  -4.989  0.00  0.00     0.003 C 
ATOM     15  C   UNL d   1       6.547  -1.936  -4.196  0.00  0.00     0.003 C 
ATOM     16  C   UNL d   1       6.217  -1.508  -2.909  0.00  0.00     0.039 C 
ATOM     17  O   UNL d   1       4.686  -1.343  -1.129  0.00  0.00    -0.345 OA
ATOM     18  C   UNL d   1       3.381  -1.766  -0.702  0.00  0.00     0.218 C 
ENDBRANCH   1   9
BRANCH   3  19
ATOM     19  C   UNL d   1      -1.463   2.437  -4.668  0.00  0.00     0.375 C 
BRANCH  19  20
ATOM     20  C   UNL d   1      -2.604   1.855  -5.511  0.00  0.00     0.250 C 
ATOM     21  N   UNL d   1      -3.763   1.542  -4.817  0.00  0.00    -0.326 N 
ATOM     22  H   UNL d   1      -3.703   1.644  -3.809  0.00  0.00     0.169 HD
ATOM     23  O   UNL d   1      -2.440   1.742  -6.727  0.00  0.00    -0.271 OA
BRANCH  21  24
ATOM     24  C   UNL d   1      -4.946   0.986  -5.365  0.00  0.00     0.035 A 
ATOM     25  C   UNL d   1      -5.141   0.780  -6.737  0.00  0.00     0.032 A 
ATOM     26  C   UNL d   1      -6.303   0.172  -7.220  0.00  0.00     0.044 A 
ATOM     27  C   UNL d   1      -7.292  -0.228  -6.330  0.00  0.00     0.116 A 
ATOM     28  C   UNL d   1      -7.138  -0.009  -4.965  0.00  0.00     0.044 A 
ATOM     29  F   UNL d   1      -8.392  -0.826  -6.789  0.00  0.00    -0.206 F 
ATOM     30  C   UNL d   1      -5.971   0.603  -4.483  0.00  0.00     0.032 A 
ENDBRANCH  21  24
ENDBRANCH  19  20
ENDBRANCH   3  19
TORSDOF 4
