REMARK  8 active torsions:
REMARK  status: ('A' for Active; 'I' for Inactive)
REMARK       I    between atoms: N_3  and  C_1 
REMARK    1  A    between atoms: O_6  and  C_1 
REMARK    2  A    between atoms: C_2  and  C_4 
REMARK       I    between atoms: N_5  and  C_2 
REMARK    3  A    between atoms: C_4  and  N_3 
REMARK    4  A    between atoms: C_10  and  C_4 
REMARK    5  A    between atoms: C_11  and  N_5 
REMARK    6  A    between atoms: C_9  and  O_6 
REMARK    7  A    between atoms: C_16  and  C_10 
REMARK    8  A    between atoms: C_12  and  C_11 
ROOT
ATOM      1  C   UNL d   1       1.113  -2.365   0.860  0.00  0.00     0.182 C 
ENDROOT
BRANCH   1   2
ATOM      2  C   UNL d   1       1.827  -2.056   2.206  0.00  0.00     0.241 C 
ATOM      3  N   UNL d   1       3.174  -1.764   2.122  0.00  0.00    -0.355 N 
ATOM      4  H   UNL d   1       3.574  -1.546   1.217  0.00  0.00     0.162 HD
ATOM      5  O   UNL d   1       1.210  -2.020   3.271  0.00  0.00    -0.271 OA
BRANCH   3   6
ATOM      6  C   UNL d   1       3.947  -1.426   3.306  0.00  0.00     0.161 C 
BRANCH   6   7
ATOM      7  C   UNL d   1       5.263  -2.165   3.416  0.00  0.00    -0.041 A 
ATOM      8  C   UNL d   1       6.376  -1.526   3.990  0.00  0.00     0.009 A 
ATOM      9  C   UNL d   1       7.570  -2.221   4.215  0.00  0.00     0.001 A 
ATOM     10  C   UNL d   1       7.665  -3.567   3.877  0.00  0.00     0.000 A 
ATOM     11  C   UNL d   1       6.571  -4.217   3.311  0.00  0.00     0.001 A 
ATOM     12  C   UNL d   1       5.376  -3.525   3.088  0.00  0.00     0.009 A 
ENDBRANCH   6   7
ENDBRANCH   3   6
ENDBRANCH   1   2
BRANCH   1  13
ATOM     13  N   UNL d   1       0.417  -1.132   0.497  0.00  0.00    -0.323 N 
ATOM     14  C   UNL d   1       0.649  -0.462  -0.667  0.00  0.00     0.362 C 
ATOM     15  O   UNL d   1       1.410  -0.853  -1.543  0.00  0.00    -0.238 OA
ATOM     16  H   UNL d   1      -0.195  -0.691   1.173  0.00  0.00     0.165 HD
BRANCH  14  17
ATOM     17  O   UNL d   1      -0.093   0.672  -0.716  0.00  0.00    -0.294 OA
BRANCH  17  18
ATOM     18  C   UNL d   1      -0.084   1.514  -1.907  0.00  0.00     0.061 C 
ATOM     19  C   UNL d   1      -0.692   0.782  -3.111  0.00  0.00     0.046 C 
ATOM     20  C   UNL d   1      -0.979   2.720  -1.577  0.00  0.00     0.046 C 
ATOM     21  C   UNL d   1       1.322   2.041  -2.221  0.00  0.00     0.046 C 
ENDBRANCH  17  18
ENDBRANCH  14  17
ENDBRANCH   1  13
BRANCH   1  22
ATOM     22  C   UNL d   1       0.152  -3.575   1.052  0.00  0.00     0.013 C 
ATOM     23  C   UNL d   1       0.970  -4.829   1.432  0.00  0.00     0.012 C 
BRANCH  22  24
ATOM     24  C   UNL d   1      -0.713  -3.972  -0.167  0.00  0.00     0.002 C 
ATOM     25  C   UNL d   1      -1.785  -2.981  -0.591  0.00  0.00     0.005 C 
ENDBRANCH  22  24
ENDBRANCH   1  22
TORSDOF 8
