REMARK  6 active torsions:
REMARK  status: ('A' for Active; 'I' for Inactive)
REMARK    1  A    between atoms: N_6  and  C_1 
REMARK       I    between atoms: C_8  and  N_6 
REMARK    2  A    between atoms: C_15  and  C_8 
REMARK    3  A    between atoms: C_9  and  C_16 
REMARK    4  A    between atoms: O_14  and  C_9 
REMARK    5  A    between atoms: O_12  and  C_15 
REMARK    6  A    between atoms: C_16  and  O_12 
ROOT
ATOM      1  N   UNL d   1       1.452  -2.456   0.036  0.00  0.00    -0.310 N 
ATOM      2  C   UNL d   1       0.956  -3.735  -0.161  0.00  0.00     0.246 C 
ATOM      3  O   UNL d   1      -0.204  -4.027  -0.439  0.00  0.00    -0.271 OA
ATOM      4  H   UNL d   1       2.263  -2.409   0.645  0.00  0.00     0.170 HD
ENDROOT
BRANCH   1   5
ATOM      5  C   UNL d   1       0.624  -1.349  -0.007  0.00  0.00     0.126 A 
ATOM      6  N   UNL d   1      -0.374  -1.077  -0.918  0.00  0.00    -0.281 N 
ATOM      7  N   UNL d   1      -1.032   0.073  -0.644  0.00  0.00    -0.302 N 
ATOM      8  C   UNL d   1      -0.672  -1.726  -2.174  0.00  0.00     0.179 C 
ATOM      9  C   UNL d   1      -0.430   0.549   0.449  0.00  0.00     0.025 A 
ATOM     10  HN  UNL d   1      -1.813   0.484  -1.157  1.00  0.00     0.186 HD
ATOM     11  C   UNL d   1       0.650  -0.268   0.846  0.00  0.00     0.076 A 
ATOM     12  C   UNL d   1      -0.925   1.787   1.094  0.00  0.00     0.070 C 
ENDBRANCH   1   5
BRANCH   2  13
ATOM     13  C   UNL d   1       2.040  -4.804  -0.034  0.00  0.00     0.271 C 
BRANCH  13  14
ATOM     14  O   UNL d   1       2.962  -4.534   1.029  0.00  0.00    -0.372 OA
BRANCH  14  15
ATOM     15  C   UNL d   1       3.840  -5.649   1.234  0.00  0.00     0.277 C 
BRANCH  15  16
ATOM     16  C   UNL d   1       4.968  -5.657   0.210  0.00  0.00     0.164 C 
ATOM     17  O   UNL d   1       5.364  -6.642  -0.383  0.00  0.00    -0.648 OA
BRANCH  16  18
ATOM     18  O   UNL d   1       5.490  -4.417   0.027  0.00  0.00    -0.775 OA
ATOM     19  H   UNL d   1       5.019  -3.757   0.577  0.00  0.00     0.167 HD
ENDBRANCH  16  18
ENDBRANCH  15  16
ENDBRANCH  14  15
ENDBRANCH  13  14
ENDBRANCH   2  13
TORSDOF 6
