REMARK  2 active torsions:
REMARK  status: ('A' for Active; 'I' for Inactive)
REMARK    1  A    between atoms: C_11  and  N_1 
REMARK    2  A    between atoms: N_14  and  C_8 
ROOT
ATOM      1  N   UNL d   1       2.325  -0.049   0.090  0.00  0.00    -0.244 N 
ATOM      2  C   UNL d   1       1.661   1.175  -0.075  0.00  0.00     0.266 A 
ATOM      3  C   UNL d   1       1.659  -1.282   0.127  0.00  0.00     0.266 A 
ATOM      4  C   UNL d   1       0.176   1.150  -0.078  0.00  0.00     0.045 A 
ATOM      5  C   UNL d   1      -0.523  -0.050   0.043  0.00  0.00     0.008 A 
ATOM      6  C   UNL d   1       0.178  -1.260   0.121  0.00  0.00     0.045 A 
ATOM      7  C   UNL d   1      -1.951  -0.038   0.109  0.00  0.00     0.003 A 
ATOM      8  C   UNL d   1      -2.667   1.208   0.039  0.00  0.00     0.040 A 
ATOM      9  C   UNL d   1      -0.516   2.360  -0.161  0.00  0.00     0.020 A 
ATOM     10  C   UNL d   1      -1.906   2.381  -0.108  0.00  0.00     0.031 A 
ATOM     11  O   UNL d   1       2.207  -2.385   0.132  0.00  0.00    -0.267 OA
ATOM     12  O   UNL d   1       2.202   2.278  -0.161  0.00  0.00    -0.267 OA
ATOM     13  C   UNL d   1      -0.500  -2.482   0.219  0.00  0.00     0.018 A 
ATOM     14  C   UNL d   1      -2.582  -1.296   0.291  0.00  0.00     0.014 A 
ATOM     15  C   UNL d   1      -1.879  -2.499   0.309  0.00  0.00     0.002 A 
ENDROOT
BRANCH   1  16
ATOM     16  C   UNL d   1       3.763  -0.052   0.213  0.00  0.00     0.045 A 
ATOM     17  C   UNL d   1       4.567   0.782  -0.579  0.00  0.00     0.030 A 
ATOM     18  C   UNL d   1       5.959   0.778  -0.443  0.00  0.00     0.002 A 
ATOM     19  C   UNL d   1       6.569  -0.043   0.501  0.00  0.00     0.000 A 
ATOM     20  C   UNL d   1       5.788  -0.871   1.302  0.00  0.00     0.002 A 
ATOM     21  C   UNL d   1       4.398  -0.882   1.151  0.00  0.00     0.030 A 
ENDBRANCH   1  16
BRANCH   8  22
ATOM     22  N   UNL d   1      -4.063   1.293   0.167  0.00  0.00    -0.389 N 
ATOM     23  C   UNL d   1      -4.680   2.532   0.643  0.00  0.00     0.149 C 
ATOM     24  C   UNL d   1      -4.912   0.492  -0.713  0.00  0.00     0.149 C 
ENDBRANCH   8  22
TORSDOF 2
