REMARK  3 active torsions:
REMARK  status: ('A' for Active; 'I' for Inactive)
REMARK    1  A    between atoms: N_2  and  C_1 
REMARK    2  A    between atoms: N_6  and  N_2 
REMARK       I    between atoms: C_3  and  N_6 
REMARK       I    between atoms: N_10  and  C_3 
REMARK    3  A    between atoms: C_15  and  N_10 
ROOT
ATOM      1  N   UNL d   1      -0.156  -2.240   0.192  0.00  0.00    -0.198 NA
ATOM      2  H   UNL d   1       0.715  -2.788   0.187  0.00  0.00     0.153 HD
ENDROOT
BRANCH   1   3
ATOM      3  C   UNL d   1       0.001  -0.958  -0.406  0.00  0.00     0.073 A 
ATOM      4  C   UNL d   1       0.768  -0.004   0.302  0.00  0.00     0.073 A 
ATOM      5 CL   UNL d   1       1.527  -0.377   1.811  0.00  0.00    -0.081 Cl
ATOM      6  C   UNL d   1       0.893   1.290  -0.192  0.00  0.00     0.113 A 
ATOM      7  N   UNL d   1       0.352   1.709  -1.355  0.00  0.00    -0.372 N 
ATOM      8  C   UNL d   1      -0.332   0.777  -2.056  0.00  0.00     0.113 A 
ATOM      9  HN  UNL d   1       0.452   2.669  -1.684  1.00  0.00     0.164 HD
ATOM     10  C   UNL d   1      -0.528  -0.544  -1.646  0.00  0.00     0.073 A 
ATOM     11 CL   UNL d   1      -1.393  -1.559  -2.747  0.00  0.00    -0.081 Cl
ENDBRANCH   1   3
BRANCH   1  12
ATOM     12  N   UNL d   1      -1.252  -3.007  -0.223  0.00  0.00    -0.269 N 
ATOM     13  C   UNL d   1      -1.101  -4.380  -0.164  0.00  0.00     0.330 C 
ATOM     14  O   UNL d   1      -0.039  -4.931   0.116  0.00  0.00    -0.246 OA
ATOM     15  N   UNL d   1      -2.253  -5.042  -0.503  0.00  0.00    -0.342 N 
ATOM     16  H   UNL d   1      -3.054  -4.503  -0.798  0.00  0.00     0.164 HD
ATOM     17  H   UNL d   1      -2.148  -2.636   0.070  0.00  0.00     0.185 HD
BRANCH  15  18
ATOM     18  C   UNL d   1      -2.311  -6.484  -0.594  0.00  0.00     0.120 C 
ATOM     19  C   UNL d   1      -2.787  -7.100   0.708  0.00  0.00     0.026 C 
ENDBRANCH  15  18
ENDBRANCH   1  12
TORSDOF 3
