REMARK  4 active torsions:
REMARK  status: ('A' for Active; 'I' for Inactive)
REMARK    1  A    between atoms: C_9  and  N_1 
REMARK    2  A    between atoms: S_4  and  N_7 
REMARK    3  A    between atoms: C_11  and  S_4 
REMARK    4  A    between atoms: N_7  and  C_10 
ROOT
ATOM      1  C   UNL d   1       3.722   0.331  -0.186  0.00  0.00     0.073 A 
ATOM      2  C   UNL d   1       4.542  -0.566  -0.923  0.00  0.00     0.070 A 
ATOM      3  C   UNL d   1       5.930  -0.594  -0.721  0.00  0.00     0.032 A 
ATOM      4  C   UNL d   1       4.370   1.153   0.761  0.00  0.00     0.032 A 
ATOM      5  C   UNL d   1       6.530   0.216   0.237  0.00  0.00     0.002 A 
ATOM      6  C   UNL d   1       5.749   1.083   0.985  0.00  0.00     0.002 A 
ENDROOT
BRANCH   1   7
ATOM      7  N   UNL d   1       2.268   0.380  -0.271  0.00  0.00    -0.241 N 
ATOM      8  C   UNL d   1       1.569  -0.828  -0.367  0.00  0.00     0.266 C 
ATOM      9  C   UNL d   1       0.099  -0.771  -0.492  0.00  0.00     0.045 A 
ATOM     10  O   UNL d   1       2.071  -1.952  -0.274  0.00  0.00    -0.267 OA
ATOM     11  C   UNL d   1      -0.609  -1.953  -0.744  0.00  0.00     0.018 A 
ATOM     12  C   UNL d   1      -0.571   0.432  -0.289  0.00  0.00     0.006 A 
ATOM     13  C   UNL d   1      -2.000  -1.938  -0.788  0.00  0.00     0.002 A 
ATOM     14  C   UNL d   1      -2.684  -0.748  -0.556  0.00  0.00     0.012 A 
ATOM     15  C   UNL d   1      -1.988   0.443  -0.302  0.00  0.00    -0.024 A 
ATOM     16  C   UNL d   1      -2.672   1.643  -0.054  0.00  0.00     0.012 A 
ATOM     17  C   UNL d   1      -1.970   2.819   0.196  0.00  0.00     0.002 A 
ATOM     18  C   UNL d   1      -0.574   2.809   0.186  0.00  0.00     0.018 A 
ATOM     19  C   UNL d   1       0.128   1.617  -0.062  0.00  0.00     0.045 A 
ATOM     20  C   UNL d   1       1.615   1.621  -0.104  0.00  0.00     0.266 C 
ATOM     21  O   UNL d   1       2.167   2.717  -0.001  0.00  0.00    -0.267 OA
ENDBRANCH   1   7
BRANCH   2  22
ATOM     22  N   UNL d   1       4.062  -1.581  -1.808  0.00  0.00    -0.278 N 
ATOM     23  H   UNL d   1       3.385  -2.221  -1.368  0.00  0.00     0.179 HD
BRANCH  22  24
ATOM     24  S   UNL d   1       3.635  -1.250  -3.391  0.00  0.00     0.263 S 
ATOM     25  O   UNL d   1       2.978  -2.441  -3.892  0.00  0.00    -0.200 OA
ATOM     26  O   UNL d   1       2.969   0.034  -3.438  0.00  0.00    -0.200 OA
BRANCH  24  27
ATOM     27  C   UNL d   1       5.180  -1.134  -4.271  0.00  0.00     0.079 A 
ATOM     28  C   UNL d   1       6.130  -2.156  -4.170  0.00  0.00     0.026 A 
ATOM     29  C   UNL d   1       7.320  -2.068  -4.900  0.00  0.00     0.008 A 
ATOM     30  C   UNL d   1       7.560  -0.976  -5.748  0.00  0.00    -0.062 A 
ATOM     31  C   UNL d   1       6.594   0.034  -5.847  0.00  0.00     0.008 A 
ATOM     32  C   UNL d   1       8.841  -0.888  -6.527  0.00  0.00     0.048 C 
ATOM     33  C   UNL d   1       5.408  -0.042  -5.112  0.00  0.00     0.026 A 
ENDBRANCH  24  27
ENDBRANCH  22  24
ENDBRANCH   2  22
TORSDOF 4
