REMARK  5 active torsions:
REMARK  status: ('A' for Active; 'I' for Inactive)
REMARK    1  A    between atoms: C_3  and  S_1 
REMARK    2  A    between atoms: N_7  and  S_1 
REMARK       I    between atoms: C_2  and  N_4 
REMARK    3  A    between atoms: C_10  and  C_2 
REMARK    4  A    between atoms: N_4  and  N_8 
REMARK    5  A    between atoms: N_8  and  C_13 
ROOT
ATOM      1  C   UNL d   1       0.366   1.788   0.368  0.00  0.00     0.074 A 
ATOM      2  C   UNL d   1      -0.362   1.936   1.548  0.00  0.00     0.026 A 
ATOM      3  C   UNL d   1       0.728   2.907  -0.383  0.00  0.00     0.026 A 
ATOM      4  C   UNL d   1      -0.401   4.357   1.230  0.00  0.00     0.027 A 
ATOM      5  C   UNL d   1       0.352   4.183   0.056  0.00  0.00     0.026 A 
ATOM      6  C   UNL d   1      -0.734   3.215   1.976  0.00  0.00     0.026 A 
ENDROOT
BRANCH   4   7
ATOM      7  N   UNL d   1      -0.652   5.668   1.706  0.00  0.00    -0.203 NA
ATOM      8  H   UNL d   1      -0.521   6.379   0.975  0.00  0.00     0.153 HD
BRANCH   7   9
ATOM      9  N   UNL d   1      -1.920   5.830   2.300  0.00  0.00    -0.283 N 
ATOM     10  C   UNL d   1      -2.505   7.082   2.178  0.00  0.00     0.266 C 
ATOM     11  O   UNL d   1      -2.032   7.992   1.503  0.00  0.00    -0.266 OA
ATOM     12  H   UNL d   1      -2.092   5.287   3.139  0.00  0.00     0.184 HD
BRANCH  10  13
ATOM     13  C   UNL d   1      -3.771   7.271   2.938  0.00  0.00     0.033 A 
ATOM     14  C   UNL d   1      -4.104   8.545   3.411  0.00  0.00     0.017 A 
ATOM     15  C   UNL d   1      -5.306   8.744   4.095  0.00  0.00     0.001 A 
ATOM     16  C   UNL d   1      -6.180   7.675   4.296  0.00  0.00     0.000 A 
ATOM     17  C   UNL d   1      -5.858   6.406   3.816  0.00  0.00     0.001 A 
ATOM     18  C   UNL d   1      -4.655   6.202   3.136  0.00  0.00     0.017 A 
ENDBRANCH  10  13
ENDBRANCH   7   9
ENDBRANCH   4   7
BRANCH   1  19
ATOM     19  S   UNL d   1       0.876   0.179  -0.153  0.00  0.00     0.239 S 
ATOM     20  O   UNL d   1       0.264  -0.817   0.701  0.00  0.00    -0.206 OA
ATOM     21  O   UNL d   1       2.292   0.203  -0.428  0.00  0.00    -0.206 OA
BRANCH  19  22
ATOM     22  N   UNL d   1       0.107   0.013  -1.637  0.00  0.00    -0.225 NA
ATOM     23  H   UNL d   1      -0.627  -0.691  -1.570  0.00  0.00     0.136 HD
ATOM     24  H   UNL d   1       0.803  -0.190  -2.357  0.00  0.00     0.136 HD
ENDBRANCH  19  22
ENDBRANCH   1  19
TORSDOF 5
