REMARK  4 active torsions:
REMARK  status: ('A' for Active; 'I' for Inactive)
REMARK    1  A    between atoms: C_12  and  C_2 
REMARK    2  A    between atoms: C_17  and  C_10 
REMARK    3  A    between atoms: C_15  and  C_11 
REMARK    4  A    between atoms: N_13  and  C_14 
ROOT
ATOM      1  N   UNL d   1       0.305   0.631   0.010  0.00  0.00    -0.235 N 
ATOM      2  C   UNL d   1      -0.805   1.465   0.007  0.00  0.00     0.144 A 
ATOM      3  C   UNL d   1       0.142  -0.759   0.035  0.00  0.00     0.130 A 
ATOM      4  N   UNL d   1       1.616   0.960   0.001  0.00  0.00    -0.295 N 
ATOM      5  HN  UNL d   1       2.012   1.900   0.004  1.00  0.00     0.187 HD
ATOM      6  N   UNL d   1      -1.084  -1.358   0.069  0.00  0.00    -0.340 N 
ATOM      7  HN  UNL d   1      -1.183  -2.372   0.104  1.00  0.00     0.167 HD
ATOM      8  C   UNL d   1      -2.041   0.924   0.025  0.00  0.00     0.067 A 
ATOM      9  C   UNL d   1       1.407  -1.297   0.023  0.00  0.00     0.077 A 
ATOM     10  C   UNL d   1       2.289  -0.196  -0.012  0.00  0.00     0.037 A 
ATOM     11  C   UNL d   1      -2.122  -0.571   0.056  0.00  0.00     0.046 A 
ENDROOT
BRANCH  11  12
ATOM     12  C   UNL d   1      -3.487  -1.171   0.119  0.00  0.00    -0.007 A 
ATOM     13  C   UNL d   1      -4.587  -0.578  -0.510  0.00  0.00     0.049 A 
ATOM     14  C   UNL d   1      -5.854  -1.167  -0.383  0.00  0.00     0.103 A 
ATOM     15  C   UNL d   1      -6.027  -2.351   0.347  0.00  0.00     0.036 A 
ATOM     16  C   UNL d   1      -4.921  -2.953   0.948  0.00  0.00     0.003 A 
ATOM     17  C   UNL d   1      -3.658  -2.367   0.831  0.00  0.00     0.014 A 
BRANCH  14  18
ATOM     18  N   UNL d   1      -7.015  -0.526  -1.012  0.00  0.00    -0.116 N 
ATOM     19  O   UNL d   1      -6.825   0.548  -1.601  0.00  0.00    -0.532 OA
ATOM     20  O   UNL d   1      -8.113  -1.088  -0.909  0.00  0.00    -0.532 OA
ENDBRANCH  14  18
ENDBRANCH  11  12
BRANCH   2  21
ATOM     21  C   UNL d   1      -0.611   2.934   0.001  0.00  0.00     0.434 C 
ATOM     22  F   UNL d   1       0.662   3.390  -0.019  0.00  0.00    -0.165 F 
ATOM     23  F   UNL d   1      -1.233   3.491  -1.076  0.00  0.00    -0.165 F 
ATOM     24  F   UNL d   1      -1.201   3.496   1.093  0.00  0.00    -0.165 F 
ENDBRANCH   2  21
BRANCH  10  25
ATOM     25  C   UNL d   1       3.810  -0.200  -0.017  0.00  0.00    -0.007 C 
ATOM     26  C   UNL d   1       4.329  -0.220   1.433  0.00  0.00     0.021 C 
ATOM     27  C   UNL d   1       4.357  -1.438  -0.758  0.00  0.00     0.021 C 
ATOM     28  C   UNL d   1       4.375   1.052  -0.725  0.00  0.00     0.021 C 
ENDBRANCH  10  25
TORSDOF 4
