REMARK  4 active torsions:
REMARK  status: ('A' for Active; 'I' for Inactive)
REMARK    1  A    between atoms: C_15  and  N_1 
REMARK    2  A    between atoms: N_16  and  C_7 
REMARK    3  A    between atoms: N_13  and  N_16 
REMARK    4  A    between atoms: C_18  and  C_17 
ROOT
ATOM      1  N   UNL d   1      -1.506  -1.072  -0.065  0.00  0.00    -0.239 N 
ATOM      2  C   UNL d   1      -0.186  -0.622  -0.009  0.00  0.00     0.143 A 
ATOM      3  N   UNL d   1      -2.380  -0.021  -0.172  0.00  0.00    -0.302 N 
ATOM      4  HN  UNL d   1      -3.397  -0.059  -0.233  1.00  0.00     0.186 HD
ATOM      5  C   UNL d   1      -0.235   0.763  -0.088  0.00  0.00     0.072 A 
ATOM      6  C   UNL d   1      -1.603   1.061  -0.178  0.00  0.00     0.127 A 
ATOM      7  C   UNL d   1       0.975   1.474  -0.046  0.00  0.00     0.136 A 
ATOM      8  N   UNL d   1       0.944  -1.352   0.099  0.00  0.00    -0.336 N 
ATOM      9  HN  UNL d   1       0.959  -2.370   0.150  1.00  0.00     0.168 HD
ATOM     10  N   UNL d   1       2.119   0.748   0.068  0.00  0.00    -0.337 N 
ATOM     11  HN  UNL d   1       3.024   1.216   0.106  1.00  0.00     0.168 HD
ATOM     12  C   UNL d   1       2.044  -0.589   0.130  0.00  0.00     0.183 A 
ENDROOT
BRANCH   7  13
ATOM     13  N   UNL d   1       1.022   2.881  -0.137  0.00  0.00    -0.285 N 
ATOM     14  H   UNL d   1       0.110   3.325  -0.147  0.00  0.00     0.188 HD
BRANCH  13  15
ATOM     15  N   UNL d   1       2.057   3.508   0.486  0.00  0.00    -0.309 N 
ATOM     16  C   UNL d   1       2.014   4.803   0.449  0.00  0.00     0.118 C 
ATOM     17  HN  UNL d   1       2.810   2.997   0.947  1.00  0.00     0.186 HD
BRANCH  16  18
ATOM     18  C   UNL d   1       3.035   5.634   1.117  0.00  0.00    -0.019 A 
ATOM     19  C   UNL d   1       4.077   5.048   1.842  0.00  0.00     0.014 A 
ATOM     20  C   UNL d   1       5.017   5.856   2.486  0.00  0.00     0.024 A 
ATOM     21  C   UNL d   1       4.913   7.244   2.399  0.00  0.00     0.034 A 
ATOM     22  C   UNL d   1       3.876   7.832   1.673  0.00  0.00     0.024 A 
ATOM     23 CL   UNL d   1       6.069   8.240   3.193  0.00  0.00    -0.084 Cl
ATOM     24  C   UNL d   1       2.932   7.026   1.030  0.00  0.00     0.014 A 
ENDBRANCH  16  18
ENDBRANCH  13  15
ENDBRANCH   7  13
BRANCH   1  25
ATOM     25  C   UNL d   1      -2.012  -2.409  -0.027  0.00  0.00     0.058 A 
ATOM     26  C   UNL d   1      -1.167  -3.518   0.112  0.00  0.00     0.031 A 
ATOM     27  C   UNL d   1      -1.697  -4.813   0.139  0.00  0.00     0.002 A 
ATOM     28  C   UNL d   1      -3.071  -5.013   0.029  0.00  0.00     0.000 A 
ATOM     29  C   UNL d   1      -3.921  -3.919  -0.106  0.00  0.00     0.002 A 
ATOM     30  C   UNL d   1      -3.397  -2.623  -0.133  0.00  0.00     0.031 A 
ENDBRANCH   1  25
TORSDOF 4
