REMARK  5 active torsions:
REMARK  status: ('A' for Active; 'I' for Inactive)
REMARK    1  A    between atoms: N_5  and  C_1 
REMARK    2  A    between atoms: C_2  and  C_10 
REMARK    3  A    between atoms: C_10  and  N_5 
REMARK    4  A    between atoms: C_11  and  N_6 
REMARK    5  A    between atoms: C_12  and  C_11 
ROOT
ATOM      1  C   UNL d   1       1.022  -0.190  -0.103  0.00  0.00     0.167 C 
ATOM      2  S   UNL d   1       0.030  -0.837  -1.278  0.00  0.00    -0.041 SA
ATOM      3  N   UNL d   1       2.374  -0.037  -0.175  0.00  0.00    -0.367 N 
ATOM      4  H   UNL d   1       2.836   0.185   0.699  0.00  0.00     0.161 HD
ENDROOT
BRANCH   1   5
ATOM      5  N   UNL d   1       0.438   0.244   1.051  0.00  0.00    -0.361 N 
ATOM      6  H   UNL d   1      -0.561   0.084   1.078  0.00  0.00     0.162 HD
BRANCH   5   7
ATOM      7  C   UNL d   1       0.951   1.256   1.958  0.00  0.00     0.187 C 
BRANCH   7   8
ATOM      8  C   UNL d   1       1.842   0.650   2.975  0.00  0.00     0.070 A 
ATOM      9  O   UNL d   1       3.162   0.526   2.635  0.00  0.00    -0.325 OA
ATOM     10  C   UNL d   1       3.801  -0.019   3.702  0.00  0.00     0.142 A 
ATOM     11  C   UNL d   1       2.911  -0.243   4.726  0.00  0.00     0.027 A 
ATOM     12  C   UNL d   1       1.648   0.186   4.258  0.00  0.00     0.036 A 
ENDBRANCH   7   8
ENDBRANCH   5   7
ENDBRANCH   1   5
BRANCH   3  13
ATOM     13  C   UNL d   1       3.266  -0.465  -1.244  0.00  0.00     0.126 C 
BRANCH  13  14
ATOM     14  C   UNL d   1       3.640   0.680  -2.197  0.00  0.00    -0.005 C 
ATOM     15  C   UNL d   1       4.360   1.815  -1.466  0.00  0.00     0.011 C 
ATOM     16  C   UNL d   1       4.528   0.140  -3.320  0.00  0.00     0.011 C 
ENDBRANCH  13  14
ENDBRANCH   3  13
TORSDOF 5
