REMARK  5 active torsions:
REMARK  status: ('A' for Active; 'I' for Inactive)
REMARK    1  A    between atoms: C_2  and  N_1 
REMARK    2  A    between atoms: N_4  and  N_1 
REMARK       I    between atoms: C_3  and  N_4 
REMARK    3  A    between atoms: C_7  and  C_3 
REMARK    4  A    between atoms: C_9  and  C_7 
REMARK    5  A    between atoms: C_10  and  C_9 
ROOT
ATOM      1  C   UNL d   1       3.199  -1.087  -0.640  0.00  0.00     0.232 C 
ATOM      2  N   UNL d   1       2.618   0.062  -0.148  0.00  0.00    -0.287 N 
ATOM      3  O   UNL d   1       2.507  -1.977  -1.130  0.00  0.00    -0.272 OA
ATOM      4  H   UNL d   1       1.619   0.203  -0.268  0.00  0.00     0.184 HD
ENDROOT
BRANCH   2   5
ATOM      5  N   UNL d   1       3.379   1.051   0.468  0.00  0.00    -0.200 NA
ATOM      6  H   UNL d   1       3.589   0.844   1.444  0.00  0.00     0.153 HD
BRANCH   5   7
ATOM      7  C   UNL d   1       2.957   2.391   0.287  0.00  0.00     0.066 A 
ATOM      8  C   UNL d   1       2.106   2.841  -0.734  0.00  0.00     0.139 A 
ATOM      9  F   UNL d   1       1.520   1.971  -1.573  0.00  0.00    -0.204 F 
ATOM     10  C   UNL d   1       1.817   4.196  -0.902  0.00  0.00     0.044 A 
ATOM     11  C   UNL d   1       2.398   5.142  -0.061  0.00  0.00     0.003 A 
ATOM     12  C   UNL d   1       3.271   4.727   0.942  0.00  0.00     0.002 A 
ATOM     13  C   UNL d   1       3.555   3.368   1.104  0.00  0.00     0.028 A 
ENDBRANCH   5   7
ENDBRANCH   2   5
BRANCH   1  14
ATOM     14  C   UNL d   1       4.711  -1.173  -0.524  0.00  0.00     0.108 C 
BRANCH  14  15
ATOM     15  C   UNL d   1       5.252  -2.488  -1.073  0.00  0.00     0.048 C 
BRANCH  15  16
ATOM     16  C   UNL d   1       6.759  -2.537  -1.013  0.00  0.00    -0.058 A 
ATOM     17  C   UNL d   1       7.414  -2.991   0.140  0.00  0.00     0.007 A 
ATOM     18  C   UNL d   1       8.809  -3.041   0.187  0.00  0.00     0.001 A 
ATOM     19  C   UNL d   1       9.560  -2.629  -0.912  0.00  0.00     0.000 A 
ATOM     20  C   UNL d   1       8.919  -2.158  -2.056  0.00  0.00     0.001 A 
ATOM     21  C   UNL d   1       7.525  -2.107  -2.105  0.00  0.00     0.007 A 
ENDBRANCH  15  16
ENDBRANCH  14  15
ENDBRANCH   1  14
TORSDOF 5
