REMARK  6 active torsions:
REMARK  status: ('A' for Active; 'I' for Inactive)
REMARK    1  A    between atoms: C_2  and  C_1 
REMARK    2  A    between atoms: C_9  and  C_5 
REMARK    3  A    between atoms: O_14  and  C_9 
REMARK    4  A    between atoms: O_13  and  C_16 
REMARK    5  A    between atoms: C_18  and  O_13 
REMARK    6  A    between atoms: C_17  and  O_14 
ROOT
ATOM      1  O   UNL d   1      -1.434   1.815   5.795  0.00  0.00    -0.345 OA
ENDROOT
BRANCH   1   2
ATOM      2  C   UNL d   1      -0.174   1.191   5.537  0.00  0.00     0.234 C 
BRANCH   2   3
ATOM      3  C   UNL d   1       0.303   1.576   4.153  0.00  0.00     0.055 A 
ATOM      4  N   UNL d   1       0.419   0.562   3.246  0.00  0.00    -0.365 N 
ATOM      5  C   UNL d   1       0.848   0.870   2.000  0.00  0.00     0.104 A 
ATOM      6  HN  UNL d   1       0.190  -0.399   3.499  1.00  0.00     0.165 HD
ATOM      7  C   UNL d   1       1.182   2.153   1.590  0.00  0.00     0.064 A 
ATOM      8  C   UNL d   1       1.066   3.180   2.532  0.00  0.00     0.043 A 
ATOM      9  C   UNL d   1       0.628   2.896   3.826  0.00  0.00     0.059 A 
ATOM     10 CL   UNL d   1       0.543   4.195   4.955  0.00  0.00    -0.082 Cl
BRANCH   7  11
ATOM     11  C   UNL d   1       1.658   2.389   0.192  0.00  0.00     0.418 C 
ATOM     12  F   UNL d   1       1.942   3.694  -0.072  0.00  0.00    -0.166 F 
ATOM     13  F   UNL d   1       0.744   2.009  -0.742  0.00  0.00    -0.166 F 
ATOM     14  F   UNL d   1       2.794   1.696  -0.094  0.00  0.00    -0.166 F 
ENDBRANCH   7  11
ENDBRANCH   2   3
ENDBRANCH   1   2
BRANCH   1  15
ATOM     15  C   UNL d   1      -1.738   2.016   7.113  0.00  0.00     0.069 A 
ATOM     16  C   UNL d   1      -2.558   3.114   7.371  0.00  0.00     0.039 A 
ATOM     17  C   UNL d   1      -2.924   3.429   8.681  0.00  0.00     0.040 A 
ATOM     18  C   UNL d   1      -2.478   2.640   9.742  0.00  0.00     0.076 A 
ATOM     19  C   UNL d   1      -1.715   1.500   9.480  0.00  0.00     0.040 A 
ATOM     20  C   UNL d   1      -1.330   1.197   8.166  0.00  0.00     0.039 A 
BRANCH  18  21
ATOM     21  O   UNL d   1      -2.929   3.010  10.986  0.00  0.00    -0.311 OA
BRANCH  21  22
ATOM     22  C   UNL d   1      -2.138   2.856  12.101  0.00  0.00     0.076 A 
ATOM     23  C   UNL d   1      -0.743   2.905  12.111  0.00  0.00     0.037 A 
ATOM     24  C   UNL d   1      -0.047   2.750  13.314  0.00  0.00     0.003 A 
ATOM     25  C   UNL d   1      -0.743   2.592  14.512  0.00  0.00     0.000 A 
ATOM     26  C   UNL d   1      -2.136   2.594  14.512  0.00  0.00     0.003 A 
ATOM     27  C   UNL d   1      -2.831   2.727  13.309  0.00  0.00     0.037 A 
ENDBRANCH  21  22
ENDBRANCH  18  21
ENDBRANCH   1  15
TORSDOF 6
