REMARK  5 active torsions:
REMARK  status: ('A' for Active; 'I' for Inactive)
REMARK    1  A    between atoms: C_2  and  C_9 
REMARK    2  A    between atoms: O_7  and  C_3 
REMARK    3  A    between atoms: O_8  and  C_6 
REMARK    4  A    between atoms: C_14  and  O_7 
REMARK    5  A    between atoms: C_9  and  O_8 
ROOT
ATOM      1  C   UNL d   1      -0.440  -0.003  -0.081  0.00  0.00     0.111 A 
ATOM      2  C   UNL d   1       0.266   1.213  -0.019  0.00  0.00     0.092 A 
ATOM      3  C   UNL d   1      -1.877   0.001  -0.195  0.00  0.00     0.105 C 
ATOM      4  N   UNL d   1      -3.030  -0.004  -0.306  0.00  0.00    -0.191 NA
ATOM      5  C   UNL d   1       0.269  -1.220  -0.021  0.00  0.00     0.092 A 
ATOM      6  C   UNL d   1       1.665   1.205  -0.025  0.00  0.00     0.038 A 
ATOM      7  C   UNL d   1       2.364   0.003  -0.017  0.00  0.00     0.006 A 
ATOM      8  C   UNL d   1       1.671  -1.205  -0.011  0.00  0.00     0.038 A 
ENDROOT
BRANCH   2   9
ATOM      9  O   UNL d   1      -0.458   2.380   0.010  0.00  0.00    -0.345 OA
BRANCH   9  10
ATOM     10  C   UNL d   1       0.078   3.433   0.830  0.00  0.00     0.120 C 
ATOM     11  C   UNL d   1       0.510   4.582  -0.073  0.00  0.00     0.040 C 
ATOM     12  C   UNL d   1      -1.010   3.880   1.800  0.00  0.00     0.040 C 
ENDBRANCH   9  10
ENDBRANCH   2   9
BRANCH   5  13
ATOM     13  O   UNL d   1      -0.470  -2.379   0.035  0.00  0.00    -0.341 OA
BRANCH  13  14
ATOM     14  C   UNL d   1       0.210  -3.546   0.524  0.00  0.00     0.293 C 
BRANCH  14  15
ATOM     15  C   UNL d   1      -0.751  -4.663   0.914  0.00  0.00     0.408 C 
ATOM     16  F   UNL d   1      -1.950  -4.568   0.307  0.00  0.00    -0.169 F 
ATOM     17  F   UNL d   1      -0.223  -5.867   0.582  0.00  0.00    -0.169 F 
ATOM     18  F   UNL d   1      -0.959  -4.677   2.252  0.00  0.00    -0.169 F 
ENDBRANCH  14  15
ENDBRANCH  13  14
ENDBRANCH   5  13
TORSDOF 5
