REMARK  10 active torsions:
REMARK  status: ('A' for Active; 'I' for Inactive)
REMARK    1  A    between atoms: N_3  and  C_1 
REMARK    2  A    between atoms: C_2  and  N_7 
REMARK    3  A    between atoms: N_4  and  C_2 
REMARK    4  A    between atoms: C_9  and  N_3 
REMARK    5  A    between atoms: C_10  and  N_4 
REMARK    6  A    between atoms: N_7  and  C_23 
REMARK    7  A    between atoms: C_24  and  N_8 
REMARK    8  A    between atoms: O_21  and  C_11 
REMARK    9  A    between atoms: O_22  and  C_12 
REMARK   10  A    between atoms: C_23  and  C_24 
ROOT
ATOM      1  C   UNL d   1       4.638   0.383  -1.279  0.00  0.00     0.141 C 
ENDROOT
BRANCH   1   2
ATOM      2  N   UNL d   1       5.493  -0.714  -1.722  0.00  0.00    -0.365 N 
ATOM      3  H   UNL d   1       5.065  -1.403  -2.329  0.00  0.00     0.161 HD
BRANCH   2   4
ATOM      4  C   UNL d   1       6.855  -0.699  -1.753  0.00  0.00     0.172 C 
ATOM      5  S   UNL d   1       7.812   0.648  -1.487  0.00  0.00    -0.041 SA
BRANCH   4   6
ATOM      6  N   UNL d   1       7.488  -1.870  -2.050  0.00  0.00    -0.333 N 
ATOM      7  H   UNL d   1       8.469  -1.728  -2.275  0.00  0.00     0.168 HD
BRANCH   6   8
ATOM      8  C   UNL d   1       7.119  -3.213  -1.825  0.00  0.00     0.034 A 
ATOM      9  C   UNL d   1       5.975  -3.617  -1.135  0.00  0.00     0.032 A 
ATOM     10  C   UNL d   1       5.747  -4.973  -0.856  0.00  0.00     0.039 A 
ATOM     11  C   UNL d   1       6.668  -5.939  -1.250  0.00  0.00     0.068 A 
ATOM     12  C   UNL d   1       7.801  -5.544  -1.960  0.00  0.00     0.039 A 
ATOM     13  C   UNL d   1       8.029  -4.192  -2.241  0.00  0.00     0.032 A 
BRANCH  11  14
ATOM     14  O   UNL d   1       6.581  -7.281  -1.002  0.00  0.00    -0.356 OA
ATOM     15  C   UNL d   1       5.601  -7.688  -0.054  0.00  0.00     0.210 C 
ENDBRANCH  11  14
ENDBRANCH   6   8
ENDBRANCH   4   6
ENDBRANCH   2   4
ENDBRANCH   1   2
BRANCH   1  16
ATOM     16  C   UNL d   1       3.148   0.087  -1.472  0.00  0.00     0.141 C 
BRANCH  16  17
ATOM     17  N   UNL d   1       2.746   0.183  -2.881  0.00  0.00    -0.365 N 
ATOM     18  C   UNL d   1       2.856  -0.771  -3.835  0.00  0.00     0.172 C 
ATOM     19  S   UNL d   1       3.235  -0.305  -5.391  0.00  0.00    -0.041 SA
ATOM     20  H   UNL d   1       2.843   1.115  -3.273  0.00  0.00     0.161 HD
BRANCH  18  21
ATOM     21  N   UNL d   1       2.749  -2.087  -3.538  0.00  0.00    -0.333 N 
ATOM     22  H   UNL d   1       3.155  -2.704  -4.235  0.00  0.00     0.168 HD
BRANCH  21  23
ATOM     23  C   UNL d   1       1.917  -2.716  -2.592  0.00  0.00     0.034 A 
ATOM     24  C   UNL d   1       0.824  -2.077  -2.001  0.00  0.00     0.032 A 
ATOM     25  C   UNL d   1       0.090  -2.713  -0.999  0.00  0.00     0.039 A 
ATOM     26  C   UNL d   1       0.442  -3.998  -0.590  0.00  0.00     0.068 A 
ATOM     27  C   UNL d   1       1.464  -4.678  -1.255  0.00  0.00     0.039 A 
ATOM     28  C   UNL d   1       2.196  -4.043  -2.261  0.00  0.00     0.032 A 
BRANCH  26  29
ATOM     29  O   UNL d   1      -0.165  -4.680   0.428  0.00  0.00    -0.356 OA
ATOM     30  C   UNL d   1      -0.616  -3.856   1.501  0.00  0.00     0.210 C 
ENDBRANCH  26  29
ENDBRANCH  21  23
ENDBRANCH  18  21
ENDBRANCH  16  17
ENDBRANCH   1  16
TORSDOF 10
