REMARK  6 active torsions:
REMARK  status: ('A' for Active; 'I' for Inactive)
REMARK    1  A    between atoms: C_7  and  C_1 
REMARK    2  A    between atoms: C_12  and  C_6 
REMARK    3  A    between atoms: O_11  and  C_7 
REMARK    4  A    between atoms: N_8  and  O_11 
REMARK    5  A    between atoms: C_13  and  C_10 
REMARK    6  A    between atoms: N_17  and  C_10 
ROOT
ATOM      1  O   UNL d   1       2.378  -2.080  -0.040  0.00  0.00    -0.192 OA
ENDROOT
BRANCH   1   2
ATOM      2  N   UNL d   1       3.715  -1.611  -0.160  0.00  0.00    -0.246 N 
ATOM      3  C   UNL d   1       4.585  -2.571  -0.233  0.00  0.00     0.109 C 
ATOM      4  HN  UNL d   1       3.964  -0.622  -0.186  1.00  0.00     0.196 HD
BRANCH   3   5
ATOM      5  C   UNL d   1       6.034  -2.196  -0.394  0.00  0.00     0.004 A 
ATOM      6  C   UNL d   1       6.501  -0.962   0.076  0.00  0.00     0.016 A 
ATOM      7  C   UNL d   1       7.853  -0.621  -0.055  0.00  0.00     0.024 A 
ATOM      8  C   UNL d   1       8.736  -1.509  -0.668  0.00  0.00     0.034 A 
ATOM      9  C   UNL d   1       8.279  -2.733  -1.155  0.00  0.00     0.024 A 
ATOM     10 CL   UNL d   1      10.397  -1.092  -0.830  0.00  0.00    -0.084 Cl
ATOM     11  C   UNL d   1       6.929  -3.078  -1.018  0.00  0.00     0.016 A 
ENDBRANCH   3   5
BRANCH   3  12
ATOM     12  N   UNL d   1       4.260  -3.905  -0.153  0.00  0.00    -0.286 NA
ATOM     13  H   UNL d   1       3.329  -4.052   0.221  0.00  0.00     0.125 HD
ATOM     14  H   UNL d   1       4.951  -4.493   0.301  0.00  0.00     0.125 HD
ENDBRANCH   3  12
ENDBRANCH   1   2
BRANCH   1  15
ATOM     15  C   UNL d   1       1.522  -0.993   0.023  0.00  0.00     0.333 C 
ATOM     16  O   UNL d   1       1.889   0.180   0.035  0.00  0.00    -0.256 OA
BRANCH  15  17
ATOM     17  C   UNL d   1       0.135  -1.414   0.082  0.00  0.00     0.129 A 
ATOM     18  N   UNL d   1      -0.946  -0.562   0.163  0.00  0.00    -0.291 N 
ATOM     19  N   UNL d   1      -2.135  -1.195   0.199  0.00  0.00    -0.302 N 
ATOM     20  C   UNL d   1      -0.992   0.881   0.237  0.00  0.00     0.178 C 
ATOM     21  C   UNL d   1      -1.844  -2.496   0.140  0.00  0.00     0.036 A 
ATOM     22  HN  UNL d   1      -3.060  -0.771   0.259  1.00  0.00     0.186 HD
ATOM     23  C   UNL d   1      -0.435  -2.681   0.071  0.00  0.00     0.065 A 
BRANCH  21  24
ATOM     24  C   UNL d   1      -2.952  -3.543   0.161  0.00  0.00    -0.007 C 
ATOM     25  C   UNL d   1      -2.826  -4.419   1.422  0.00  0.00     0.021 C 
ATOM     26  C   UNL d   1      -4.364  -2.907   0.173  0.00  0.00     0.021 C 
ATOM     27  C   UNL d   1      -2.862  -4.442  -1.088  0.00  0.00     0.021 C 
ENDBRANCH  21  24
ENDBRANCH  15  17
ENDBRANCH   1  15
TORSDOF 6
