REMARK  3 active torsions:
REMARK  status: ('A' for Active; 'I' for Inactive)
REMARK    1  A    between atoms: S_7  and  C_1 
REMARK    2  A    between atoms: C_2  and  S_7 
REMARK    3  A    between atoms: C_15  and  C_9 
ROOT
ATOM      1  C   UNL d   1       3.745  -3.804  -0.111  0.00  0.00     0.119 A 
ATOM      2  N   UNL d   1       3.075  -4.395  -1.079  0.00  0.00    -0.344 N 
ATOM      3  HN  UNL d   1       2.752  -3.936  -1.931  1.00  0.00     0.167 HD
ATOM      4  C   UNL d   1       2.872  -5.732  -0.770  0.00  0.00     0.050 A 
ATOM      5  S   UNL d   1       4.251  -4.830   1.170  0.00  0.00    -0.074 SA
ATOM      6  C   UNL d   1       3.454  -6.146   0.413  0.00  0.00     0.082 A 
ENDROOT
BRANCH   1   7
ATOM      7  S   UNL d   1       4.249  -2.137  -0.269  0.00  0.00    -0.040 SA
BRANCH   7   8
ATOM      8  C   UNL d   1       3.358  -1.412   1.056  0.00  0.00     0.120 A 
ATOM      9  N   UNL d   1       2.489  -2.050   1.807  0.00  0.00    -0.344 N 
ATOM     10  C   UNL d   1       1.936  -1.183   2.739  0.00  0.00     0.052 A 
ATOM     11  HN  UNL d   1       2.254  -3.038   1.717  1.00  0.00     0.167 HD
ATOM     12  C   UNL d   1       0.957  -1.514   3.698  0.00  0.00     0.054 A 
ATOM     13  C   UNL d   1       2.411   0.129   2.688  0.00  0.00     0.034 A 
ATOM     14  C   UNL d   1       0.482  -0.523   4.562  0.00  0.00     0.036 A 
ATOM     15 CL   UNL d   1      -0.723  -0.920   5.726  0.00  0.00    -0.084 Cl
ATOM     16  C   UNL d   1       0.965   0.779   4.496  0.00  0.00     0.025 A 
ATOM     17  C   UNL d   1       1.942   1.128   3.558  0.00  0.00     0.023 A 
ATOM     18  S   UNL d   1       3.586   0.248   1.439  0.00  0.00    -0.063 SA
ENDBRANCH   7   8
ENDBRANCH   1   7
BRANCH   4  19
ATOM     19  C   UNL d   1       2.134  -6.615  -1.669  0.00  0.00    -0.009 A 
ATOM     20  C   UNL d   1       2.151  -6.374  -3.050  0.00  0.00     0.015 A 
ATOM     21  C   UNL d   1       1.451  -7.208  -3.930  0.00  0.00     0.024 A 
ATOM     22  C   UNL d   1       0.722  -8.285  -3.430  0.00  0.00     0.034 A 
ATOM     23  C   UNL d   1       0.687  -8.533  -2.060  0.00  0.00     0.024 A 
ATOM     24 CL   UNL d   1      -0.144  -9.308  -4.506  0.00  0.00    -0.084 Cl
ATOM     25  C   UNL d   1       1.391  -7.702  -1.182  0.00  0.00     0.015 A 
ENDBRANCH   4  19
TORSDOF 3
