REMARK  3 active torsions:
REMARK  status: ('A' for Active; 'I' for Inactive)
REMARK    1  A    between atoms: O_2  and  S_1 
REMARK    2  A    between atoms: C_4  and  S_1 
REMARK    3  A    between atoms: C_3  and  O_2 
ROOT
ATOM      1  C   UNL d   1       0.513  -0.447  -1.750  0.00  0.00     0.086 A 
ATOM      2  N   UNL d   1      -0.886  -1.760  -6.778  0.00  0.00    -0.191 NA
ATOM      3  C   UNL d   1      -0.581  -1.482  -5.692  0.00  0.00     0.099 C 
ATOM      4  C   UNL d   1       1.036   0.280  -2.825  0.00  0.00     0.027 A 
ATOM      5  C   UNL d   1      -0.355  -1.522  -1.965  0.00  0.00     0.027 A 
ATOM      6  C   UNL d   1      -0.208  -1.132  -4.354  0.00  0.00     0.044 A 
ATOM      7  C   UNL d   1      -0.717  -1.861  -3.271  0.00  0.00     0.024 A 
ATOM      8  C   UNL d   1       0.671  -0.065  -4.128  0.00  0.00     0.024 A 
ENDROOT
BRANCH   1   9
ATOM      9  S   UNL d   1       1.081  -0.068  -0.105  0.00  0.00     0.303 S 
ATOM     10  O   UNL d   1       0.325  -0.901   0.811  0.00  0.00    -0.193 OA
ATOM     11  O   UNL d   1       2.527  -0.164  -0.185  0.00  0.00    -0.193 OA
BRANCH   9  12
ATOM     12  O   UNL d   1       0.650   1.494   0.128  0.00  0.00    -0.228 OA
BRANCH  12  13
ATOM     13  C   UNL d   1       0.887   2.106   1.339  0.00  0.00     0.107 A 
ATOM     14  C   UNL d   1      -0.015   3.071   1.804  0.00  0.00     0.046 A 
ATOM     15  C   UNL d   1       0.189   3.700   3.041  0.00  0.00     0.028 A 
ATOM     16 BR   UNL d   1      -1.547   3.561   0.794  0.00  0.00    -0.048 Br
ATOM     17  C   UNL d   1       1.305   3.379   3.825  0.00  0.00    -0.061 A 
ATOM     18  C   UNL d   1       2.225   2.449   3.338  0.00  0.00     0.009 A 
ATOM     19  C   UNL d   1       1.516   4.019   5.164  0.00  0.00     0.048 C 
ATOM     20  C   UNL d   1       2.022   1.827   2.105  0.00  0.00     0.040 A 
ENDBRANCH  12  13
ENDBRANCH   9  12
ENDBRANCH   1   9
TORSDOF 3
