REMARK  2 active torsions:
REMARK  status: ('A' for Active; 'I' for Inactive)
REMARK    1  A    between atoms: C_9  and  C_4 
REMARK    2  A    between atoms: C_10  and  C_5 
ROOT
ATOM      1  C   UNL d   1       1.945   0.242   0.073  0.00  0.00     0.022 C 
ATOM      2  C   UNL d   1      -0.409   1.243   0.106  0.00  0.00     0.022 C 
ATOM      3  C   UNL d   1       1.070   1.448   0.226  0.00  0.00     0.188 C 
ATOM      4  C   UNL d   1       3.276   0.448   0.112  0.00  0.00     0.031 C 
ATOM      5  C   UNL d   1      -1.183   2.346   0.155  0.00  0.00     0.031 C 
ATOM      6  N   UNL d   1      -0.018  -1.143   0.561  0.00  0.00     0.092 N 
ATOM      7  C   UNL d   1       1.277  -1.087  -0.123  0.00  0.00     0.315 C 
ATOM      8  C   UNL d   1      -0.916  -0.161  -0.051  0.00  0.00     0.315 C 
ATOM      9  O   UNL d   1       1.547   2.564   0.421  0.00  0.00    -0.287 OA
ATOM     10  C   UNL d   1      -0.592  -2.486   0.467  0.00  0.00     0.310 C 
ENDROOT
BRANCH   4  11
ATOM     11  C   UNL d   1       4.208  -0.602  -0.106  0.00  0.00     0.005 A 
ATOM     12  S   UNL d   1       4.828  -0.876  -1.688  0.00  0.00    -0.102 SA
ATOM     13  C   UNL d   1       5.784  -2.191  -1.164  0.00  0.00     0.050 A 
ATOM     14  C   UNL d   1       5.654  -2.417   0.187  0.00  0.00     0.008 A 
ATOM     15  C   UNL d   1       4.752  -1.497   0.797  0.00  0.00     0.019 A 
ENDBRANCH   4  11
BRANCH   5  16
ATOM     16  C   UNL d   1      -2.598   2.270   0.048  0.00  0.00     0.005 A 
ATOM     17  S   UNL d   1      -3.360   2.312  -1.493  0.00  0.00    -0.102 SA
ATOM     18  C   UNL d   1      -4.915   2.127  -0.807  0.00  0.00     0.050 A 
ATOM     19  C   UNL d   1      -4.869   2.063   0.567  0.00  0.00     0.008 A 
ATOM     20  C   UNL d   1      -3.535   2.162   1.059  0.00  0.00     0.019 A 
ENDBRANCH   5  16
TORSDOF 2
