REMARK  7 active torsions:
REMARK  status: ('A' for Active; 'I' for Inactive)
REMARK    1  A    between atoms: N_2  and  C_1 
REMARK    2  A    between atoms: S_3  and  N_7 
REMARK    3  A    between atoms: S_10  and  C_4 
REMARK    4  A    between atoms: C_11  and  C_5 
REMARK    5  A    between atoms: N_7  and  C_12 
REMARK    6  A    between atoms: C_13  and  S_10 
REMARK    7  A    between atoms: O_21  and  C_11 
ROOT
ATOM      1  C   UNL d   1      -1.419  -0.242  -0.155  0.00  0.00     0.137 A 
ATOM      2  C   UNL d   1      -0.847   1.007   0.070  0.00  0.00     0.108 A 
ATOM      3  C   UNL d   1       0.730  -1.295   0.069  0.00  0.00     0.057 A 
ATOM      4  C   UNL d   1      -0.639  -1.405  -0.161  0.00  0.00     0.058 A 
ATOM      5  N   UNL d   1       0.496   1.119   0.242  0.00  0.00    -0.357 N 
ATOM      6  HN  UNL d   1       0.932   2.034   0.362  1.00  0.00     0.166 HD
ATOM      7  C   UNL d   1       1.249  -0.019   0.252  0.00  0.00     0.106 A 
ENDROOT
BRANCH   2   8
ATOM      8  S   UNL d   1      -1.807   2.501   0.247  0.00  0.00    -0.068 SA
BRANCH   8   9
ATOM      9  C   UNL d   1      -0.682   3.864  -0.031  0.00  0.00     0.034 A 
ATOM     10  C   UNL d   1       0.090   4.050  -1.194  0.00  0.00     0.059 A 
ATOM     11  C   UNL d   1       0.865   5.206  -1.345  0.00  0.00     0.031 A 
ATOM     12  C   UNL d   1       0.878   6.185  -0.352  0.00  0.00     0.002 A 
ATOM     13  C   UNL d   1       0.105   6.020   0.791  0.00  0.00     0.002 A 
ATOM     14  C   UNL d   1      -0.675   4.872   0.947  0.00  0.00     0.021 A 
BRANCH  10  15
ATOM     15  N   UNL d   1       0.111   3.091  -2.244  0.00  0.00    -0.284 N 
ATOM     16  H   UNL d   1       0.274   2.119  -1.989  0.00  0.00     0.178 HD
BRANCH  15  17
ATOM     17  S   UNL d   1      -0.686   3.362  -3.685  0.00  0.00     0.227 S 
ATOM     18  O   UNL d   1      -0.303   4.651  -4.213  0.00  0.00    -0.206 OA
ATOM     19  O   UNL d   1      -0.499   2.150  -4.458  0.00  0.00    -0.206 OA
ATOM     20  C   UNL d   1      -2.406   3.429  -3.218  0.00  0.00     0.186 C 
ENDBRANCH  15  17
ENDBRANCH  10  15
ENDBRANCH   8   9
ENDBRANCH   2   8
BRANCH   1  21
ATOM     21  N   UNL d   1      -2.837  -0.386  -0.379  0.00  0.00    -0.113 N 
ATOM     22  O   UNL d   1      -3.327   0.220  -1.339  0.00  0.00    -0.532 OA
ATOM     23  O   UNL d   1      -3.443  -1.161   0.373  0.00  0.00    -0.532 OA
ENDBRANCH   1  21
BRANCH   3  24
ATOM     24  C   UNL d   1       1.636  -2.463   0.156  0.00  0.00     0.294 C 
ATOM     25  O   UNL d   1       2.826  -2.373   0.398  0.00  0.00    -0.259 OA
BRANCH  24  26
ATOM     26  O   UNL d   1       0.936  -3.605  -0.047  0.00  0.00    -0.322 OA
ATOM     27  C   UNL d   1       1.709  -4.803   0.063  0.00  0.00     0.213 C 
ENDBRANCH  24  26
ENDBRANCH   3  24
TORSDOF 7
