REMARK  7 active torsions:
REMARK  status: ('A' for Active; 'I' for Inactive)
REMARK    1  A    between atoms: S_2  and  C_1 
REMARK    2  A    between atoms: C_3  and  C_1 
REMARK    3  A    between atoms: C_4  and  C_1 
REMARK    4  A    between atoms: C_6  and  S_2 
REMARK    5  A    between atoms: C_5  and  C_3 
REMARK    6  A    between atoms: C_10  and  C_5 
REMARK    7  A    between atoms: N_11  and  C_8 
ROOT
ATOM      1  C   UNL d   1       1.120  -0.038  -0.218  0.00  0.00     0.094 C 
ENDROOT
BRANCH   1   2
ATOM      2  S   UNL d   1       0.663   0.863  -1.772  0.00  0.00    -0.118 SA
BRANCH   2   3
ATOM      3  C   UNL d   1      -1.114   1.027  -1.589  0.00  0.00     0.022 A 
ATOM      4  C   UNL d   1      -1.985   0.318  -2.445  0.00  0.00     0.022 A 
ATOM      5  C   UNL d   1      -3.366   0.505  -2.312  0.00  0.00     0.024 A 
ATOM      6  C   UNL d   1      -3.877   1.425  -1.395  0.00  0.00     0.002 A 
ATOM      7  C   UNL d   1      -3.012   2.143  -0.573  0.00  0.00     0.001 A 
ATOM      8  C   UNL d   1      -1.634   1.946  -0.669  0.00  0.00     0.020 A 
BRANCH   4   9
ATOM      9  N   UNL d   1      -1.519  -0.725  -3.265  0.00  0.00    -0.302 NA
ATOM     10  H   UNL d   1      -0.514  -0.658  -3.441  0.00  0.00     0.124 HD
ATOM     11  H   UNL d   1      -2.054  -0.853  -4.118  0.00  0.00     0.124 HD
ENDBRANCH   4   9
ENDBRANCH   2   3
ENDBRANCH   1   2
BRANCH   1  12
ATOM     12  C   UNL d   1       0.340  -1.342   0.034  0.00  0.00     0.104 C 
BRANCH  12  13
ATOM     13  C   UNL d   1       0.485  -2.443  -1.006  0.00  0.00     0.161 C 
ATOM     14  O   UNL d   1       1.183  -2.338  -2.013  0.00  0.00    -0.292 OA
BRANCH  13  15
ATOM     15  C   UNL d   1      -0.250  -3.728  -0.784  0.00  0.00     0.010 A 
ATOM     16  C   UNL d   1      -1.121  -3.927   0.294  0.00  0.00     0.015 A 
ATOM     17  C   UNL d   1      -1.793  -5.145   0.441  0.00  0.00     0.001 A 
ATOM     18  C   UNL d   1      -1.597  -6.170  -0.483  0.00  0.00     0.000 A 
ATOM     19  C   UNL d   1      -0.726  -5.986  -1.553  0.00  0.00     0.001 A 
ATOM     20  C   UNL d   1      -0.054  -4.770  -1.703  0.00  0.00     0.015 A 
ENDBRANCH  13  15
ENDBRANCH  12  13
ENDBRANCH   1  12
BRANCH   1  21
ATOM     21  C   UNL d   1       2.632  -0.227  -0.054  0.00  0.00    -0.022 A 
ATOM     22  C   UNL d   1       3.256  -0.155   1.210  0.00  0.00     0.041 A 
ATOM     23 CL   UNL d   1       2.375   0.196   2.658  0.00  0.00    -0.084 Cl
ATOM     24  C   UNL d   1       4.631  -0.386   1.350  0.00  0.00     0.024 A 
ATOM     25  C   UNL d   1       5.414  -0.699   0.242  0.00  0.00     0.002 A 
ATOM     26  C   UNL d   1       4.823  -0.780  -1.012  0.00  0.00     0.001 A 
ATOM     27  C   UNL d   1       3.452  -0.549  -1.155  0.00  0.00     0.010 A 
ENDBRANCH   1  21
TORSDOF 7
