REMARK  2 active torsions:
REMARK  status: ('A' for Active; 'I' for Inactive)
REMARK    1  A    between atoms: C_9  and  C_6 
REMARK    2  A    between atoms: C_13  and  C_9 
ROOT
ATOM      1  N   UNL d   1      -0.451  -1.712   0.074  0.00  0.00    -0.356 N 
ATOM      2  HN  UNL d   1      -0.231  -2.708   0.113  1.00  0.00     0.166 HD
ATOM      3  N   UNL d   1      -1.059   1.026  -0.023  0.00  0.00    -0.356 N 
ATOM      4  HN  UNL d   1      -1.280   2.022  -0.053  1.00  0.00     0.166 HD
ATOM      5  C   UNL d   1      -1.736  -1.274   0.056  0.00  0.00     0.028 A 
ATOM      6  C   UNL d   1      -2.041   0.087  -0.004  0.00  0.00     0.032 A 
ATOM      7  C   UNL d   1       0.215   0.595  -0.000  0.00  0.00     0.059 A 
ATOM      8  C   UNL d   1       0.521  -0.782   0.039  0.00  0.00     0.059 A 
ATOM      9  C   UNL d   1      -2.790  -2.339   0.087  0.00  0.00     0.070 C 
ATOM     10  C   UNL d   1       1.254   1.519  -0.023  0.00  0.00     0.032 A 
ATOM     11  C   UNL d   1       1.855  -1.177   0.038  0.00  0.00     0.032 A 
ATOM     12  C   UNL d   1       2.588   1.113  -0.021  0.00  0.00     0.002 A 
ATOM     13  C   UNL d   1       2.891  -0.243   0.005  0.00  0.00     0.002 A 
ENDROOT
BRANCH   6  14
ATOM     14  C   UNL d   1      -3.449   0.618  -0.064  0.00  0.00     0.059 C 
BRANCH  14  15
ATOM     15  C   UNL d   1      -4.098   0.844   1.304  0.00  0.00     0.002 C 
ATOM     16  C   UNL d   1      -3.410   1.918   2.135  0.00  0.00     0.005 C 
ENDBRANCH  14  15
ENDBRANCH   6  14
TORSDOF 2
