REMARK  3 active torsions:
REMARK  status: ('A' for Active; 'I' for Inactive)
REMARK       I    between atoms: C_7  and  N_1 
REMARK    1  A    between atoms: O_9  and  C_7 
REMARK    2  A    between atoms: C_11  and  O_9 
REMARK    3  A    between atoms: C_12  and  C_11 
ROOT
ATOM      1  N   UNL d   1       2.408   1.849  -0.694  0.00  0.00    -0.239 N 
ATOM      2  C   UNL d   1       2.978   0.639  -0.128  0.00  0.00     0.124 A 
ATOM      3  C   UNL d   1       3.424   2.828  -0.884  0.00  0.00     0.327 A 
ATOM      4  C   UNL d   1       4.455   0.941   0.097  0.00  0.00     0.111 A 
ATOM      5  C   UNL d   1       3.561   0.604   1.255  0.00  0.00     0.055 A 
ATOM      6  N   UNL d   1       4.624   2.273  -0.395  0.00  0.00    -0.336 N 
ATOM      7  C   UNL d   1       1.038   2.011  -0.790  0.00  0.00     0.371 C 
ATOM      8  O   UNL d   1       3.354   3.932  -1.399  0.00  0.00    -0.247 OA
ATOM      9  O   UNL d   1       0.241   1.097  -0.593  0.00  0.00    -0.238 OA
ATOM     10  H   UNL d   1       5.493   2.786  -0.442  0.00  0.00     0.164 HD
ENDROOT
BRANCH   7  11
ATOM     11  O   UNL d   1       0.668   3.285  -1.085  0.00  0.00    -0.299 OA
BRANCH  11  12
ATOM     12  C   UNL d   1      -0.742   3.535  -1.109  0.00  0.00     0.219 C 
BRANCH  12  13
ATOM     13  C   UNL d   1      -1.051   4.920  -0.586  0.00  0.00    -0.034 A 
ATOM     14  C   UNL d   1      -0.151   5.986  -0.729  0.00  0.00     0.009 A 
ATOM     15  C   UNL d   1      -0.484   7.262  -0.270  0.00  0.00     0.001 A 
ATOM     16  C   UNL d   1      -1.722   7.491   0.327  0.00  0.00     0.000 A 
ATOM     17  C   UNL d   1      -2.630   6.444   0.466  0.00  0.00     0.001 A 
ATOM     18  C   UNL d   1      -2.298   5.168   0.009  0.00  0.00     0.009 A 
ENDBRANCH  12  13
ENDBRANCH  11  12
ENDBRANCH   7  11
TORSDOF 3
