REMARK  9 active torsions:
REMARK  status: ('A' for Active; 'I' for Inactive)
REMARK    1  A    between atoms: C_3  and  S_1 
REMARK    2  A    between atoms: N_16  and  S_1 
REMARK    3  A    between atoms: C_2  and  C_9 
REMARK    4  A    between atoms: C_9  and  N_5 
REMARK    5  A    between atoms: N_6  and  C_7 
REMARK       I    between atoms: C_13  and  N_6 
REMARK    6  A    between atoms: N_10  and  C_27 
REMARK    7  A    between atoms: C_30  and  N_16 
REMARK    8  A    between atoms: C_27  and  C_28 
REMARK    9  A    between atoms: C_28  and  C_30 
ROOT
ATOM      1  C   UNL d   1       5.283  -1.412  -0.029  0.00  0.00     0.134 C 
ENDROOT
BRANCH   1   2
ATOM      2  C   UNL d   1       4.711  -0.629   1.146  0.00  0.00     0.050 C 
BRANCH   2   3
ATOM      3  C   UNL d   1       5.201  -1.209   2.479  0.00  0.00     0.274 C 
BRANCH   3   4
ATOM      4  N   UNL d   1       6.665  -1.325   2.551  0.00  0.00     0.091 N 
ATOM      5  C   UNL d   1       7.352  -0.015   2.506  0.00  0.00     0.302 C 
ATOM      6  C   UNL d   1       7.212   0.807   3.804  0.00  0.00     0.303 C 
ATOM      7  N   UNL d   1       7.663   0.095   5.017  0.00  0.00     0.096 N 
ATOM      8  C   UNL d   1       6.994  -1.226   5.074  0.00  0.00     0.303 C 
ATOM      9  C   UNL d   1       7.086  -2.053   3.766  0.00  0.00     0.302 C 
BRANCH   7  10
ATOM     10  C   UNL d   1       9.128  -0.076   5.069  0.00  0.00     0.316 C 
BRANCH  10  11
ATOM     11  C   UNL d   1       9.915   1.213   5.090  0.00  0.00     0.030 A 
ATOM     12  C   UNL d   1      10.794   1.487   4.033  0.00  0.00     0.126 A 
ATOM     13  F   UNL d   1      10.900   0.627   3.009  0.00  0.00    -0.205 F 
ATOM     14  C   UNL d   1      11.579   2.637   4.004  0.00  0.00     0.043 A 
ATOM     15  C   UNL d   1      11.494   3.554   5.046  0.00  0.00     0.005 A 
ATOM     16  C   UNL d   1      10.619   3.311   6.105  0.00  0.00     0.024 A 
ATOM     17  C   UNL d   1       9.838   2.148   6.132  0.00  0.00     0.045 A 
ATOM     18 CL   UNL d   1       8.808   1.920   7.501  0.00  0.00    -0.084 Cl
ENDBRANCH  10  11
ENDBRANCH   7  10
ENDBRANCH   3   4
ENDBRANCH   2   3
ENDBRANCH   1   2
BRANCH   1  19
ATOM     19  N   UNL d   1       4.798  -0.851  -1.293  0.00  0.00    -0.315 N 
ATOM     20  H   UNL d   1       3.849  -0.487  -1.350  0.00  0.00     0.172 HD
BRANCH  19  21
ATOM     21  S   UNL d   1       5.342  -1.553  -2.723  0.00  0.00     0.258 S 
ATOM     22  O   UNL d   1       4.536  -1.011  -3.789  0.00  0.00    -0.201 OA
ATOM     23  O   UNL d   1       6.788  -1.499  -2.733  0.00  0.00    -0.201 OA
BRANCH  21  24
ATOM     24  C   UNL d   1       4.846  -3.245  -2.497  0.00  0.00     0.081 A 
ATOM     25  C   UNL d   1       3.490  -3.530  -2.322  0.00  0.00     0.051 A 
ATOM     26  C   UNL d   1       3.102  -4.838  -2.031  0.00  0.00     0.062 A 
ATOM     27 CL   UNL d   1       1.418  -5.142  -1.765  0.00  0.00    -0.082 Cl
ATOM     28  C   UNL d   1       4.054  -5.870  -1.915  0.00  0.00     0.056 A 
ATOM     29  C   UNL d   1       5.404  -5.562  -2.126  0.00  0.00     0.033 A 
ATOM     30  C   UNL d   1       5.804  -4.254  -2.412  0.00  0.00     0.027 A 
BRANCH  28  31
ATOM     31  N   UNL d   1       3.605  -7.176  -1.601  0.00  0.00    -0.326 N 
ATOM     32  C   UNL d   1       4.383  -8.262  -1.251  0.00  0.00     0.218 C 
ATOM     33  O   UNL d   1       5.596  -8.258  -1.071  0.00  0.00    -0.274 OA
ATOM     34  C   UNL d   1       3.596  -9.537  -1.086  0.00  0.00     0.117 C 
ATOM     35  H   UNL d   1       2.597  -7.285  -1.558  0.00  0.00     0.169 HD
ENDBRANCH  28  31
ENDBRANCH  21  24
ENDBRANCH  19  21
ENDBRANCH   1  19
TORSDOF 9
