REMARK  1 active torsions:
REMARK  status: ('A' for Active; 'I' for Inactive)
REMARK    1  A    between atoms: C_13  and  C_6 
ROOT
ATOM      1  C   UNL d   1       0.763  -0.323   0.006  0.00  0.00    -0.017 A 
ATOM      2  C   UNL d   1       1.445   0.910   0.002  0.00  0.00    -0.026 A 
ATOM      3  C   UNL d   1       1.556  -1.491   0.017  0.00  0.00     0.025 A 
ATOM      4  C   UNL d   1       2.861   0.944   0.003  0.00  0.00     0.052 A 
ATOM      5  C   UNL d   1      -0.723  -0.376   0.011  0.00  0.00    -0.019 A 
ATOM      6  C   UNL d   1       2.965  -1.482   0.013  0.00  0.00    -0.024 A 
ATOM      7  N   UNL d   1       4.176   3.181   0.016  0.00  0.00    -0.191 NA
ATOM      8  C   UNL d   1       3.588   2.185   0.008  0.00  0.00     0.100 C 
ATOM      9  C   UNL d   1       3.599  -0.240   0.002  0.00  0.00     0.035 A 
ATOM     10  C   UNL d   1       0.696   2.217   0.041  0.00  0.00     0.045 A 
ATOM     11  C   UNL d   1      -1.473   0.814   0.005  0.00  0.00    -0.047 A 
ATOM     12  C   UNL d   1      -0.824   2.166  -0.048  0.00  0.00     0.044 A 
ATOM     13  C   UNL d   1      -1.455  -1.585   0.014  0.00  0.00     0.013 A 
ATOM     14  C   UNL d   1      -2.882   0.780   0.011  0.00  0.00     0.008 A 
ATOM     15  C   UNL d   1      -2.854  -1.612   0.017  0.00  0.00     0.001 A 
ATOM     16  C   UNL d   1      -3.570  -0.426   0.018  0.00  0.00     0.001 A 
ENDROOT
BRANCH   6  17
ATOM     17  C   UNL d   1       3.739  -2.740   0.052  0.00  0.00    -0.026 A 
ATOM     18  C   UNL d   1       3.254  -3.913  -0.555  0.00  0.00     0.012 A 
ATOM     19  C   UNL d   1       3.940  -5.124  -0.445  0.00  0.00     0.001 A 
ATOM     20  C   UNL d   1       5.145  -5.181   0.245  0.00  0.00     0.000 A 
ATOM     21  C   UNL d   1       5.674  -4.024   0.811  0.00  0.00     0.001 A 
ATOM     22  C   UNL d   1       4.975  -2.821   0.720  0.00  0.00     0.012 A 
ENDBRANCH   6  17
TORSDOF 1
