REMARK  3 active torsions:
REMARK  status: ('A' for Active; 'I' for Inactive)
REMARK    1  A    between atoms: C_7  and  C_10 
REMARK    2  A    between atoms: O_15  and  C_7 
REMARK    3  A    between atoms: C_18  and  O_15 
ROOT
ATOM      1  N   UNL d   1      -0.550   1.432  -0.004  0.00  0.00    -0.356 N 
ATOM      2  HN  UNL d   1      -0.550   2.452   0.001  1.00  0.00     0.166 HD
ATOM      3  N   UNL d   1      -0.552  -1.376  -0.050  0.00  0.00    -0.356 N 
ATOM      4  HN  UNL d   1      -0.554  -2.395  -0.079  1.00  0.00     0.166 HD
ATOM      5  C   UNL d   1       0.599   0.733  -0.011  0.00  0.00     0.060 A 
ATOM      6  C   UNL d   1       0.597  -0.681  -0.046  0.00  0.00     0.059 A 
ATOM      7  C   UNL d   1      -1.709   0.726  -0.005  0.00  0.00     0.028 A 
ATOM      8  C   UNL d   1      -1.709  -0.669  -0.013  0.00  0.00     0.028 A 
ATOM      9  C   UNL d   1       3.024   0.720   0.080  0.00  0.00     0.041 A 
ATOM     10  C   UNL d   1       1.808   1.412   0.046  0.00  0.00     0.049 A 
ATOM     11  C   UNL d   1       3.020  -0.675   0.007  0.00  0.00     0.020 A 
ATOM     12  C   UNL d   1       1.806  -1.359  -0.055  0.00  0.00     0.033 A 
ATOM     13  C   UNL d   1      -2.977   1.523   0.014  0.00  0.00     0.070 C 
ATOM     14  C   UNL d   1      -2.976  -1.467   0.035  0.00  0.00     0.070 C 
ENDROOT
BRANCH   9  15
ATOM     15  C   UNL d   1       4.326   1.406   0.291  0.00  0.00     0.293 C 
ATOM     16  O   UNL d   1       5.395   0.819   0.333  0.00  0.00    -0.259 OA
BRANCH  15  17
ATOM     17  O   UNL d   1       4.118   2.719   0.554  0.00  0.00    -0.318 OA
BRANCH  17  18
ATOM     18  C   UNL d   1       5.203   3.403   1.195  0.00  0.00     0.174 C 
ATOM     19  C   UNL d   1       5.012   3.282   2.697  0.00  0.00     0.034 C 
ENDBRANCH  17  18
ENDBRANCH  15  17
ENDBRANCH   9  15
TORSDOF 3
