REMARK  6 active torsions:
REMARK  status: ('A' for Active; 'I' for Inactive)
REMARK    1  A    between atoms: C_12  and  C_1 
REMARK    2  A    between atoms: O_16  and  C_3 
REMARK       I    between atoms: C_4  and  N_11 
REMARK    3  A    between atoms: C_5  and  C_4 
REMARK    4  A    between atoms: N_11  and  N_7 
REMARK    5  A    between atoms: C_20  and  C_14 
REMARK    6  A    between atoms: O_18  and  C_20 
ROOT
ATOM      1  N   UNL d   1      -0.786   6.045   0.354  0.00  0.00    -0.308 N 
ATOM      2  HN  UNL d   1      -0.982   6.968   0.742  1.00  0.00     0.186 HD
ATOM      3  C   UNL d   1      -1.724   5.197   0.077  0.00  0.00     0.121 C 
ENDROOT
BRANCH   1   4
ATOM      4  N   UNL d   1       0.484   5.620   0.089  0.00  0.00    -0.266 N 
ATOM      5  C   UNL d   1       1.531   6.512   0.227  0.00  0.00     0.270 C 
ATOM      6  O   UNL d   1       1.394   7.714   0.448  0.00  0.00    -0.266 OA
ATOM      7  H   UNL d   1       0.661   4.623   0.078  0.00  0.00     0.190 HD
BRANCH   5   8
ATOM      8  C   UNL d   1       2.918   5.992   0.007  0.00  0.00     0.042 A 
ATOM      9  C   UNL d   1       3.451   4.764   0.451  0.00  0.00    -0.019 A 
ATOM     10  C   UNL d   1       4.814   4.497   0.179  0.00  0.00     0.010 A 
ATOM     11  C   UNL d   1       5.624   5.397  -0.513  0.00  0.00     0.001 A 
ATOM     12  C   UNL d   1       5.088   6.594  -0.964  0.00  0.00     0.001 A 
ATOM     13  C   UNL d   1       3.752   6.887  -0.697  0.00  0.00     0.018 A 
BRANCH   9  14
ATOM     14  C   UNL d   1       2.703   3.648   1.139  0.00  0.00     0.203 C 
BRANCH  14  15
ATOM     15  O   UNL d   1       1.644   4.077   1.968  0.00  0.00    -0.396 OA
ATOM     16  H   UNL d   1       2.035   4.529   2.736  0.00  0.00     0.209 HD
ENDBRANCH  14  15
ENDBRANCH   9  14
ENDBRANCH   5   8
ENDBRANCH   1   4
BRANCH   3  17
ATOM     17  C   UNL d   1      -3.133   5.502   0.393  0.00  0.00     0.017 A 
ATOM     18  C   UNL d   1      -4.161   4.711  -0.125  0.00  0.00     0.099 A 
ATOM     19  C   UNL d   1      -5.490   5.011   0.197  0.00  0.00     0.069 A 
ATOM     20 CL   UNL d   1      -6.776   4.056  -0.448  0.00  0.00    -0.081 Cl
ATOM     21  C   UNL d   1      -5.797   6.077   1.039  0.00  0.00     0.050 A 
ATOM     22  C   UNL d   1      -4.762   6.856   1.558  0.00  0.00     0.036 A 
ATOM     23  C   UNL d   1      -3.435   6.581   1.235  0.00  0.00     0.039 A 
ATOM     24 CL   UNL d   1      -5.132   8.163   2.614  0.00  0.00    -0.084 Cl
BRANCH  18  25
ATOM     25  O   UNL d   1      -3.862   3.657  -0.949  0.00  0.00    -0.358 OA
ATOM     26  H   UNL d   1      -4.705   3.252  -1.229  0.00  0.00     0.217 HD
ENDBRANCH  18  25
ENDBRANCH   3  17
TORSDOF 6
