REMARK  2 active torsions:
REMARK  status: ('A' for Active; 'I' for Inactive)
REMARK       I    between atoms: N_2  and  C_1 
REMARK       I    between atoms: N_4  and  C_1 
REMARK    1  A    between atoms: C_3  and  N_2 
REMARK    2  A    between atoms: C_10  and  N_4 
ROOT
ATOM      1  C   UNL d   1       0.789  -0.556   0.351  0.00  0.00     0.321 C 
ATOM      2  N   UNL d   1       0.242   0.524   1.011  0.00  0.00    -0.338 N 
ATOM      3  N   UNL d   1      -0.018  -0.958  -0.696  0.00  0.00    -0.309 N 
ATOM      4  O   UNL d   1       1.876  -1.029   0.657  0.00  0.00    -0.247 OA
ATOM      5  H   UNL d   1      -0.764   0.602   0.983  0.00  0.00     0.164 HD
ATOM      6  H   UNL d   1      -0.735  -0.302  -0.965  0.00  0.00     0.170 HD
ENDROOT
BRANCH   2   7
ATOM      7  C   UNL d   1       0.906   1.089   2.183  0.00  0.00     0.094 C 
ATOM      8  C   UNL d   1       0.575   0.333   3.492  0.00  0.00     0.064 C 
ATOM      9  C   UNL d   1       0.710   1.423   4.513  0.00  0.00    -0.050 A 
ATOM     10  C   UNL d   1       0.815   1.296   5.889  0.00  0.00     0.007 A 
ATOM     11  C   UNL d   1       0.673   2.683   3.908  0.00  0.00    -0.050 A 
ATOM     12  C   UNL d   1       0.895   2.459   6.659  0.00  0.00     0.001 A 
ATOM     13  C   UNL d   1       0.857   3.724   6.050  0.00  0.00     0.001 A 
ATOM     14  C   UNL d   1       0.739   3.842   4.663  0.00  0.00     0.007 A 
ATOM     15  C   UNL d   1       0.513   2.563   2.425  0.00  0.00     0.064 C 
ENDBRANCH   2   7
BRANCH   3  16
ATOM     16  C   UNL d   1       0.237  -2.023  -1.586  0.00  0.00     0.037 A 
ATOM     17  C   UNL d   1       1.183  -3.022  -1.339  0.00  0.00     0.053 A 
ATOM     18  C   UNL d   1       1.416  -4.016  -2.291  0.00  0.00     0.036 A 
ATOM     19 CL   UNL d   1       2.593  -5.234  -1.984  0.00  0.00    -0.084 Cl
ATOM     20  C   UNL d   1       0.707  -4.032  -3.489  0.00  0.00     0.024 A 
ATOM     21  C   UNL d   1      -0.260  -3.058  -3.729  0.00  0.00     0.004 A 
ATOM     22  C   UNL d   1      -0.500  -2.064  -2.777  0.00  0.00     0.029 A 
ENDBRANCH   3  16
TORSDOF 2
