REMARK  5 active torsions:
REMARK  status: ('A' for Active; 'I' for Inactive)
REMARK    1  A    between atoms: C_9  and  C_1 
REMARK    2  A    between atoms: C_6  and  C_2 
REMARK    3  A    between atoms: O_20  and  C_9 
REMARK    4  A    between atoms: O_19  and  C_10 
REMARK    5  A    between atoms: C_21  and  O_20 
ROOT
ATOM      1  C   UNL d   1       2.522  -0.629  -0.080  0.00  0.00     0.072 A 
ATOM      2  C   UNL d   1       2.417   0.757  -0.046  0.00  0.00     0.133 A 
ATOM      3  N   UNL d   1       1.185   1.369  -0.053  0.00  0.00    -0.351 N 
ATOM      4  HN  UNL d   1       1.128   2.387  -0.062  1.00  0.00     0.166 HD
ATOM      5  C   UNL d   1       0.078  -0.761  -0.037  0.00  0.00     0.043 A 
ATOM      6  C   UNL d   1       1.339  -1.387  -0.064  0.00  0.00     0.038 A 
ATOM      7  C   UNL d   1       0.057   0.639  -0.049  0.00  0.00     0.048 A 
ATOM      8  C   UNL d   1      -1.162  -1.418  -0.013  0.00  0.00     0.152 A 
ATOM      9  N   UNL d   1      -2.351  -0.796  -0.028  0.00  0.00    -0.346 N 
ATOM     10  HN  UNL d   1      -3.228  -1.316  -0.025  1.00  0.00     0.167 HD
ATOM     11  C   UNL d   1      -1.162   1.291  -0.054  0.00  0.00     0.047 A 
ATOM     12  C   UNL d   1      -2.328   0.548  -0.048  0.00  0.00     0.092 A 
ENDROOT
BRANCH   1  13
ATOM     13  C   UNL d   1       3.777  -1.402  -0.078  0.00  0.00     0.295 C 
ATOM     14  O   UNL d   1       3.882  -2.445   0.553  0.00  0.00    -0.259 OA
BRANCH  13  15
ATOM     15  O   UNL d   1       4.681  -0.872  -0.920  0.00  0.00    -0.318 OA
BRANCH  15  16
ATOM     16  C   UNL d   1       5.926  -1.589  -1.013  0.00  0.00     0.174 C 
ATOM     17  C   UNL d   1       6.785  -1.389   0.226  0.00  0.00     0.034 C 
ENDBRANCH  15  16
ENDBRANCH  13  15
ENDBRANCH   1  13
BRANCH   2  18
ATOM     18  C   UNL d   1       3.618   1.689   0.018  0.00  0.00     0.433 C 
ATOM     19  F   UNL d   1       4.767   1.133   0.491  0.00  0.00    -0.165 F 
ATOM     20  F   UNL d   1       3.926   2.231  -1.195  0.00  0.00    -0.165 F 
ATOM     21  F   UNL d   1       3.399   2.754   0.848  0.00  0.00    -0.165 F 
ENDBRANCH   2  18
BRANCH   8  22
ATOM     22  O   UNL d   1      -1.260  -2.779   0.030  0.00  0.00    -0.345 OA
ATOM     23  H   UNL d   1      -0.546  -3.108   0.596  0.00  0.00     0.219 HD
ENDBRANCH   8  22
TORSDOF 5
