REMARK  1 active torsions:
REMARK  status: ('A' for Active; 'I' for Inactive)
REMARK    1  A    between atoms: C_6  and  C_1 
ROOT
ATOM      1  C   UNL d   1      -0.307   1.133  -0.004  0.00  0.00     0.144 A 
ATOM      2  N   UNL d   1       0.394  -0.855  -0.481  0.00  0.00    -0.007 NA
ATOM      3  N   UNL d   1       0.387   0.455  -0.899  0.00  0.00    -0.270 N 
ATOM      4  HN  UNL d   1       0.831   0.829  -1.738  1.00  0.00     0.185 HD
ATOM      5  N   UNL d   1      -0.280  -0.995   0.650  0.00  0.00    -0.007 NA
ATOM      6  N   UNL d   1      -0.715   0.236   0.948  0.00  0.00    -0.270 N 
ATOM      7  H   UNL d   1      -1.267   0.393   1.781  0.00  0.00     0.185 HD
ENDROOT
BRANCH   1   8
ATOM      8  C   UNL d   1      -0.608   2.560   0.004  0.00  0.00     0.049 A 
ATOM      9  C   UNL d   1      -1.342   3.155   1.037  0.00  0.00     0.130 A 
ATOM     10  F   UNL d   1      -1.787   2.412   2.064  0.00  0.00    -0.205 F 
ATOM     11  C   UNL d   1      -1.631   4.518   1.036  0.00  0.00     0.043 A 
ATOM     12  C   UNL d   1      -1.184   5.317  -0.013  0.00  0.00     0.003 A 
ATOM     13  C   UNL d   1      -0.450   4.748  -1.053  0.00  0.00     0.001 A 
ATOM     14  C   UNL d   1      -0.163   3.378  -1.044  0.00  0.00     0.018 A 
ENDBRANCH   1   8
TORSDOF 1
