REMARK  1 active torsions:
REMARK  status: ('A' for Active; 'I' for Inactive)
REMARK    1  A    between atoms: C_15  and  C_3 
ROOT
ATOM      1  N   UNL d   1       1.097  -2.795   0.635  0.00  0.00    -0.353 N 
ATOM      2  HN  UNL d   1       1.635  -2.431  -0.152  1.00  0.00     0.166 HD
ATOM      3  C   UNL d   1       1.673  -3.634   1.442  0.00  0.00     0.054 C 
ATOM      4  C   UNL d   1       1.256  -1.195   3.074  0.00  0.00     0.236 C 
ATOM      5  N   UNL d   1       0.115  -1.986   3.208  0.00  0.00    -0.223 NA
ATOM      6  C   UNL d   1      -0.231  -2.365   0.794  0.00  0.00     0.055 C 
ATOM      7  C   UNL d   1       2.820  -3.029   2.192  0.00  0.00     0.007 A 
ATOM      8  C   UNL d   1      -0.737  -1.977   2.054  0.00  0.00     0.042 C 
ATOM      9  C   UNL d   1       2.583  -1.885   2.992  0.00  0.00     0.039 A 
ATOM     10  C   UNL d   1      -0.970  -2.008  -0.336  0.00  0.00     0.038 C 
ATOM     11  C   UNL d   1      -2.057  -1.548   2.194  0.00  0.00     0.033 C 
ATOM     12  C   UNL d   1      -2.233  -1.401  -0.217  0.00  0.00    -0.054 C 
ATOM     13  C   UNL d   1      -2.835  -1.302   1.054  0.00  0.00    -0.054 C 
ATOM     14  O   UNL d   1       1.218   0.035   3.061  0.00  0.00    -0.274 OA
ATOM     15  C   UNL d   1       4.124  -3.524   2.058  0.00  0.00     0.015 A 
ATOM     16  C   UNL d   1       3.653  -1.285   3.664  0.00  0.00     0.017 A 
ATOM     17  C   UNL d   1      -2.880  -0.815  -1.442  0.00  0.00     0.049 C 
ATOM     18  C   UNL d   1      -4.278  -0.906   1.210  0.00  0.00     0.049 C 
ATOM     19  C   UNL d   1       5.171  -2.933   2.762  0.00  0.00     0.001 A 
ATOM     20  C   UNL d   1       4.936  -1.817   3.569  0.00  0.00     0.001 A 
ATOM     21  H   UNL d   1       0.391  -2.930   3.434  0.00  0.00     0.137 HD
ENDROOT
BRANCH   3  22
ATOM     22  C   UNL d   1       1.218  -4.996   1.915  0.00  0.00    -0.009 C 
ATOM     23  C   UNL d   1       2.141  -6.053   1.873  0.00  0.00     0.014 C 
ATOM     24  C   UNL d   1       1.925  -7.237   2.585  0.00  0.00     0.001 C 
ATOM     25  C   UNL d   1       0.761  -7.395   3.326  0.00  0.00     0.000 C 
ATOM     26  C   UNL d   1      -0.214  -6.403   3.289  0.00  0.00     0.001 C 
ATOM     27  C   UNL d   1      -0.001  -5.222   2.564  0.00  0.00     0.014 C 
ENDBRANCH   3  22
TORSDOF 1
