REMARK  7 active torsions:
REMARK  status: ('A' for Active; 'I' for Inactive)
REMARK    1  A    between atoms: O_13  and  C_1 
REMARK    2  A    between atoms: O_16  and  C_2 
REMARK    3  A    between atoms: O_15  and  C_3 
REMARK       I    between atoms: C_4  and  N_9 
REMARK    4  A    between atoms: O_14  and  C_4 
REMARK    5  A    between atoms: N_9  and  N_5 
REMARK    6  A    between atoms: C_12  and  C_10 
REMARK    7  A    between atoms: C_17  and  O_14 
ROOT
ATOM      1  C   UNL d   1       1.353  -0.368  -0.072  0.00  0.00     0.135 A 
ATOM      2  C   UNL d   1       0.407  -1.416   0.036  0.00  0.00     0.105 A 
ATOM      3  C   UNL d   1       0.903   0.963  -0.139  0.00  0.00     0.105 A 
ATOM      4  C   UNL d   1      -0.961  -1.137  -0.067  0.00  0.00     0.052 A 
ATOM      5  C   UNL d   1      -0.468   1.228  -0.176  0.00  0.00     0.052 A 
ATOM      6  C   UNL d   1      -1.392   0.183  -0.172  0.00  0.00    -0.014 A 
ENDROOT
BRANCH   6   7
ATOM      7  C   UNL d   1      -2.838   0.459  -0.246  0.00  0.00     0.118 C 
ATOM      8  N   UNL d   1      -3.260   1.667  -0.406  0.00  0.00    -0.307 N 
ATOM      9  HN  UNL d   1      -2.613   2.451  -0.493  1.00  0.00     0.186 HD
BRANCH   8  10
ATOM     10  N   UNL d   1      -4.605   1.848  -0.455  0.00  0.00    -0.246 N 
ATOM     11  C   UNL d   1      -5.123   3.120  -0.402  0.00  0.00     0.379 C 
ATOM     12  O   UNL d   1      -4.470   4.157  -0.399  0.00  0.00    -0.237 OA
ATOM     13  H   UNL d   1      -5.245   1.068  -0.347  0.00  0.00     0.192 HD
BRANCH  11  14
ATOM     14  O   UNL d   1      -6.471   3.054  -0.278  0.00  0.00    -0.303 OA
BRANCH  14  15
ATOM     15  C   UNL d   1      -7.087   4.291   0.098  0.00  0.00     0.176 C 
ATOM     16  C   UNL d   1      -7.118   4.368   1.613  0.00  0.00     0.034 C 
ENDBRANCH  14  15
ENDBRANCH  11  14
ENDBRANCH   8  10
ENDBRANCH   6   7
BRANCH   3  17
ATOM     17  O   UNL d   1       1.665   2.100  -0.085  0.00  0.00    -0.353 OA
ATOM     18  C   UNL d   1       2.894   2.083  -0.794  0.00  0.00     0.210 C 
ENDBRANCH   3  17
BRANCH   2  19
ATOM     19  O   UNL d   1       0.888  -2.682   0.271  0.00  0.00    -0.353 OA
ATOM     20  C   UNL d   1      -0.025  -3.623   0.828  0.00  0.00     0.210 C 
ENDBRANCH   2  19
BRANCH   1  21
ATOM     21  O   UNL d   1       2.700  -0.602   0.063  0.00  0.00    -0.351 OA
ATOM     22  C   UNL d   1       3.247  -1.514  -0.890  0.00  0.00     0.210 C 
ENDBRANCH   1  21
TORSDOF 7
