REMARK  4 active torsions:
REMARK  status: ('A' for Active; 'I' for Inactive)
REMARK    1  A    between atoms: S_7  and  C_3 
REMARK    2  A    between atoms: S_8  and  C_4 
REMARK    3  A    between atoms: O_9  and  C_5 
REMARK    4  A    between atoms: O_10  and  C_6 
ROOT
ATOM      1  C   UNL d   1       1.388  -0.246  -0.073  0.00  0.00     0.059 A 
ATOM      2  C   UNL d   1      -1.334   0.226   0.037  0.00  0.00     0.059 A 
ATOM      3  C   UNL d   1      -0.457   1.319   0.084  0.00  0.00     0.036 A 
ATOM      4  C   UNL d   1       0.509  -1.349  -0.102  0.00  0.00     0.036 A 
ATOM      5  C   UNL d   1       0.920   1.075  -0.002  0.00  0.00     0.086 A 
ATOM      6  C   UNL d   1      -0.873  -1.097  -0.066  0.00  0.00     0.086 A 
ENDROOT
BRANCH   3   7
ATOM      7  S   UNL d   1      -1.082   3.008   0.167  0.00  0.00    -0.132 SA
ATOM      8  C   UNL d   1      -2.613   2.817   1.122  0.00  0.00     0.095 C 
ENDBRANCH   3   7
BRANCH   5   9
ATOM      9  O   UNL d   1       1.767   2.154   0.055  0.00  0.00    -0.355 OA
ATOM     10  C   UNL d   1       2.966   2.044  -0.705  0.00  0.00     0.210 C 
ENDBRANCH   5   9
BRANCH   6  11
ATOM     11  O   UNL d   1      -1.747  -2.152  -0.076  0.00  0.00    -0.355 OA
ATOM     12  C   UNL d   1      -3.043  -1.914  -0.617  0.00  0.00     0.210 C 
ENDBRANCH   6  11
BRANCH   4  13
ATOM     13  S   UNL d   1       1.357  -2.935  -0.217  0.00  0.00    -0.132 SA
ATOM     14  C   UNL d   1       0.054  -4.191  -0.179  0.00  0.00     0.095 C 
ENDBRANCH   4  13
TORSDOF 4
