REMARK  6 active torsions:
REMARK  status: ('A' for Active; 'I' for Inactive)
REMARK    1  A    between atoms: N_2  and  C_1 
REMARK       I    between atoms: C_5  and  N_3 
REMARK    2  A    between atoms: C_19  and  C_5 
REMARK    3  A    between atoms: C_10  and  C_20 
REMARK    4  A    between atoms: O_18  and  C_10 
REMARK    5  A    between atoms: S_17  and  C_19 
REMARK    6  A    between atoms: C_20  and  S_17 
ROOT
ATOM      1  C   UNL d   1      -0.181  -1.253  -0.016  0.00  0.00     0.103 A 
ATOM      2  C   UNL d   1      -0.450  -0.411  -1.109  0.00  0.00     0.083 A 
ATOM      3  C   UNL d   1       0.094  -0.670  -2.407  0.00  0.00     0.102 C 
ATOM      4  N   UNL d   1       0.507  -0.882  -3.473  0.00  0.00    -0.191 NA
ATOM      5  N   UNL d   1      -0.647  -0.954   1.221  0.00  0.00    -0.355 N 
ATOM      6  HN  UNL d   1      -0.439  -1.557   2.017  1.00  0.00     0.166 HD
ATOM      7  C   UNL d   1      -1.230   0.734  -0.920  0.00  0.00     0.027 A 
ATOM      8  C   UNL d   1      -1.395   0.164   1.375  0.00  0.00     0.089 A 
ATOM      9  C   UNL d   1      -1.714   1.029   0.346  0.00  0.00     0.019 A 
ENDROOT
BRANCH   1  10
ATOM     10  N   UNL d   1       0.620  -2.390  -0.176  0.00  0.00    -0.265 NA
ATOM     11  C   UNL d   1       1.305  -2.862   1.042  0.00  0.00     0.117 C 
ATOM     12  C   UNL d   1       2.391  -3.888   0.638  0.00  0.00     0.140 C 
ATOM     13  N   UNL d   1       1.868  -4.961  -0.235  0.00  0.00    -0.349 N 
ATOM     14  C   UNL d   1       1.027  -4.495  -1.351  0.00  0.00     0.140 C 
ATOM     15  C   UNL d   1       2.280  -6.279  -0.224  0.00  0.00     0.229 C 
ATOM     16  C   UNL d   1      -0.052  -3.506  -0.877  0.00  0.00     0.117 C 
ATOM     17  O   UNL d   1       1.839  -7.114  -1.026  0.00  0.00    -0.273 OA
BRANCH  15  18
ATOM     18  C   UNL d   1       3.222  -6.760   0.869  0.00  0.00     0.177 C 
BRANCH  18  19
ATOM     19  S   UNL d   1       2.267  -7.290   2.331  0.00  0.00    -0.149 SA
BRANCH  19  20
ATOM     20  C   UNL d   1       1.171  -8.552   1.593  0.00  0.00     0.184 C 
BRANCH  20  21
ATOM     21  C   UNL d   1       1.937  -9.704   0.983  0.00  0.00     0.149 C 
ATOM     22  O   UNL d   1       2.362 -10.655   1.626  0.00  0.00    -0.649 OA
BRANCH  21  23
ATOM     23  O   UNL d   1       2.142  -9.600  -0.350  0.00  0.00    -0.776 OA
ATOM     24  H   UNL d   1       1.824  -8.758  -0.762  0.00  0.00     0.167 HD
ENDBRANCH  21  23
ENDBRANCH  20  21
ENDBRANCH  19  20
ENDBRANCH  18  19
ENDBRANCH  15  18
ENDBRANCH   1  10
TORSDOF 6
