REMARK  4 active torsions:
REMARK  status: ('A' for Active; 'I' for Inactive)
REMARK    1  A    between atoms: N_6  and  C_1 
REMARK    2  A    between atoms: C_7  and  C_2 
REMARK       I    between atoms: C_8  and  N_6 
REMARK    3  A    between atoms: O_11  and  C_7 
REMARK    4  A    between atoms: C_15  and  O_11 
ROOT
ATOM      1  C   UNL d   1      -2.140  -0.771  -0.036  0.00  0.00     0.093 A 
ATOM      2  C   UNL d   1      -1.045  -1.632  -0.021  0.00  0.00     0.080 A 
ATOM      3  S   UNL d   1      -1.682   0.861  -0.103  0.00  0.00    -0.075 SA
ATOM      4  C   UNL d   1       0.199  -0.883  -0.029  0.00  0.00    -0.026 A 
ATOM      5  C   UNL d   1      -0.033   0.479  -0.069  0.00  0.00    -0.008 A 
ATOM      6  C   UNL d   1       1.604  -1.423  -0.001  0.00  0.00     0.041 C 
ATOM      7  C   UNL d   1       1.014   1.548  -0.033  0.00  0.00     0.047 C 
ATOM      8  C   UNL d   1       2.635  -0.354   0.390  0.00  0.00     0.005 C 
ATOM      9  C   UNL d   1       2.396   0.964  -0.351  0.00  0.00     0.005 C 
ENDROOT
BRANCH   1  10
ATOM     10  N   UNL d   1      -3.478  -1.145   0.004  0.00  0.00    -0.321 N 
ATOM     11  C   UNL d   1      -4.583  -0.315   0.045  0.00  0.00     0.218 C 
ATOM     12  O   UNL d   1      -4.604   0.911   0.044  0.00  0.00    -0.274 OA
ATOM     13  C   UNL d   1      -5.884  -1.082   0.100  0.00  0.00     0.117 C 
ATOM     14  H   UNL d   1      -3.633  -2.150   0.049  0.00  0.00     0.169 HD
ENDBRANCH   1  10
BRANCH   2  15
ATOM     15  C   UNL d   1      -1.212  -3.088   0.050  0.00  0.00     0.296 C 
ATOM     16  O   UNL d   1      -2.308  -3.625   0.189  0.00  0.00    -0.259 OA
BRANCH  15  17
ATOM     17  O   UNL d   1      -0.031  -3.763   0.004  0.00  0.00    -0.318 OA
BRANCH  17  18
ATOM     18  C   UNL d   1      -0.059  -5.132   0.425  0.00  0.00     0.174 C 
ATOM     19  C   UNL d   1       0.139  -5.176   1.930  0.00  0.00     0.034 C 
ENDBRANCH  17  18
ENDBRANCH  15  17
ENDBRANCH   2  15
TORSDOF 4
