REMARK  3 active torsions:
REMARK  status: ('A' for Active; 'I' for Inactive)
REMARK    1  A    between atoms: C_9  and  N_2 
REMARK    2  A    between atoms: N_10  and  C_9 
REMARK    3  A    between atoms: C_11  and  N_10 
ROOT
ATOM      1  C   UNL d   1       2.121  -2.388  -0.133  0.00  0.00     0.240 C 
ENDROOT
BRANCH   1   2
ATOM      2  N   UNL d   1       1.593  -1.027  -0.082  0.00  0.00    -0.260 N 
ATOM      3  N   UNL d   1       1.966  -0.193   0.913  0.00  0.00    -0.018 NA
ATOM      4  N   UNL d   1       1.316   0.951   0.733  0.00  0.00    -0.282 N 
ATOM      5  C   UNL d   1       0.529   0.826  -0.383  0.00  0.00     0.074 A 
ATOM      6  HN  UNL d   1       1.390   1.780   1.323  1.00  0.00     0.184 HD
ATOM      7  C   UNL d   1      -0.348   1.734  -0.993  0.00  0.00     0.033 A 
ATOM      8  C   UNL d   1       0.689  -0.442  -0.929  0.00  0.00     0.078 A 
ATOM      9  C   UNL d   1      -1.040   1.328  -2.143  0.00  0.00     0.002 A 
ATOM     10  C   UNL d   1      -0.860   0.048  -2.673  0.00  0.00     0.002 A 
ATOM     11  C   UNL d   1       0.011  -0.869  -2.077  0.00  0.00     0.033 A 
ENDBRANCH   1   2
BRANCH   1  12
ATOM     12  N   UNL d   1       3.587  -2.467  -0.162  0.00  0.00    -0.272 NA
ATOM     13  H   UNL d   1       3.987  -1.829   0.526  0.00  0.00     0.129 HD
BRANCH  12  14
ATOM     14  C   UNL d   1       4.194  -3.732  -0.175  0.00  0.00     0.052 A 
ATOM     15  C   UNL d   1       3.630  -4.884  -0.761  0.00  0.00     0.179 A 
ATOM     16  C   UNL d   1       4.329  -6.086  -0.824  0.00  0.00     0.195 A 
ATOM     17  F   UNL d   1       2.394  -4.850  -1.284  0.00  0.00    -0.201 F 
ATOM     18  F   UNL d   1       3.757  -7.162  -1.384  0.00  0.00    -0.199 F 
ATOM     19  C   UNL d   1       5.614  -6.163  -0.318  0.00  0.00     0.158 A 
ATOM     20  C   UNL d   1       6.218  -5.044   0.238  0.00  0.00     0.047 A 
ATOM     21  F   UNL d   1       6.294  -7.318  -0.373  0.00  0.00    -0.203 F 
ATOM     22  C   UNL d   1       5.516  -3.833   0.291  0.00  0.00     0.030 A 
ENDBRANCH  12  14
ENDBRANCH   1  12
TORSDOF 3
