REMARK  6 active torsions:
REMARK  status: ('A' for Active; 'I' for Inactive)
REMARK    1  A    between atoms: C_9  and  N_1 
REMARK    2  A    between atoms: C_7  and  N_10 
REMARK    3  A    between atoms: N_11  and  C_7 
REMARK    4  A    between atoms: C_8  and  C_9 
REMARK       I    between atoms: N_12  and  C_8 
REMARK    5  A    between atoms: N_10  and  N_12 
REMARK    6  A    between atoms: C_15  and  N_11 
ROOT
ATOM      1  C   UNL d   1       1.319  -2.396   2.113  0.00  0.00     0.249 C 
ATOM      2  N   UNL d   1       1.567  -3.701   2.491  0.00  0.00    -0.267 N 
ATOM      3  O   UNL d   1       2.240  -1.577   2.241  0.00  0.00    -0.270 OA
ATOM      4  H   UNL d   1       2.513  -3.924   2.792  0.00  0.00     0.190 HD
ENDROOT
BRANCH   1   5
ATOM      5  C   UNL d   1      -0.076  -2.001   1.608  0.00  0.00     0.206 C 
BRANCH   5   6
ATOM      6  N   UNL d   1      -0.003  -1.195   0.357  0.00  0.00    -0.239 NA
ATOM      7  C   UNL d   1       0.043  -2.058  -0.779  0.00  0.00     0.033 A 
ATOM      8  C   UNL d   1      -1.065  -2.238  -1.630  0.00  0.00     0.027 A 
ATOM      9  C   UNL d   1       1.252  -2.696  -1.103  0.00  0.00     0.025 A 
ATOM     10  C   UNL d   1      -0.943  -3.024  -2.783  0.00  0.00     0.021 A 
ATOM     11  S   UNL d   1      -2.657  -1.514  -1.274  0.00  0.00    -0.087 SA
ATOM     12  C   UNL d   1       0.271  -3.635  -3.097  0.00  0.00     0.001 A 
ATOM     13  C   UNL d   1       1.365  -3.480  -2.251  0.00  0.00     0.002 A 
ATOM     14  C   UNL d   1      -2.158  -0.126  -0.275  0.00  0.00     0.027 A 
ATOM     15  C   UNL d   1      -0.938  -0.117   0.426  0.00  0.00     0.033 A 
ATOM     16  C   UNL d   1      -3.017   0.980  -0.203  0.00  0.00     0.021 A 
ATOM     17  C   UNL d   1      -0.593   1.025   1.169  0.00  0.00     0.025 A 
ATOM     18  C   UNL d   1      -1.439   2.135   1.210  0.00  0.00     0.002 A 
ATOM     19  C   UNL d   1      -2.653   2.110   0.529  0.00  0.00     0.001 A 
ENDBRANCH   5   6
ENDBRANCH   1   5
BRANCH   2  20
ATOM     20  N   UNL d   1       0.643  -4.748   2.410  0.00  0.00    -0.274 N 
ATOM     21  H   UNL d   1       0.668  -5.345   1.583  0.00  0.00     0.189 HD
BRANCH  20  22
ATOM     22  C   UNL d   1      -0.489  -4.791   3.219  0.00  0.00     0.191 C 
ATOM     23  S   UNL d   1      -1.683  -5.880   2.829  0.00  0.00    -0.039 SA
BRANCH  22  24
ATOM     24  N   UNL d   1      -0.440  -3.846   4.220  0.00  0.00    -0.332 N 
ATOM     25  H   UNL d   1       0.513  -3.562   4.415  0.00  0.00     0.168 HD
BRANCH  24  26
ATOM     26  C   UNL d   1      -1.429  -3.045   4.820  0.00  0.00     0.034 A 
ATOM     27  C   UNL d   1      -2.801  -3.143   4.598  0.00  0.00     0.029 A 
ATOM     28  C   UNL d   1      -3.674  -2.200   5.152  0.00  0.00     0.002 A 
ATOM     29  C   UNL d   1      -3.184  -1.146   5.920  0.00  0.00     0.000 A 
ATOM     30  C   UNL d   1      -1.817  -1.040   6.149  0.00  0.00     0.002 A 
ATOM     31  C   UNL d   1      -0.949  -1.988   5.611  0.00  0.00     0.029 A 
ENDBRANCH  24  26
ENDBRANCH  22  24
ENDBRANCH  20  22
ENDBRANCH   2  20
TORSDOF 6
