REMARK  3 active torsions:
REMARK  status: ('A' for Active; 'I' for Inactive)
REMARK    1  A    between atoms: C_3  and  C_1 
REMARK    2  A    between atoms: C_10  and  C_2 
REMARK    3  A    between atoms: C_9  and  C_8 
ROOT
ATOM      1  C   UNL d   1       0.218  -2.765   0.068  0.00  0.00     0.089 A 
ATOM      2  N   UNL d   1       1.018  -3.223   1.010  0.00  0.00    -0.347 N 
ATOM      3  HN  UNL d   1       1.411  -2.664   1.767  1.00  0.00     0.167 HD
ATOM      4  C   UNL d   1       1.243  -4.575   0.821  0.00  0.00     0.074 A 
ATOM      5  S   UNL d   1      -0.350  -3.955  -1.040  0.00  0.00    -0.081 SA
ATOM      6  C   UNL d   1       0.624  -5.134  -0.275  0.00  0.00     0.084 A 
ENDROOT
BRANCH   1   7
ATOM      7  C   UNL d   1      -0.103  -1.311  -0.038  0.00  0.00     0.059 A 
ATOM      8  C   UNL d   1       0.650  -0.198   0.450  0.00  0.00     0.085 A 
ATOM      9  N   UNL d   1       0.037   0.949   0.111  0.00  0.00    -0.259 N 
ATOM     10  O   UNL d   1      -1.122   0.600  -0.545  0.00  0.00    -0.241 OA
ATOM     11  HN  UNL d   1       0.367   1.895   0.302  1.00  0.00     0.195 HD
ATOM     12  C   UNL d   1      -1.210  -0.752  -0.639  0.00  0.00     0.088 A 
ATOM     13  C   UNL d   1      -2.435  -1.265  -1.282  0.00  0.00     0.080 C 
BRANCH   8  14
ATOM     14  C   UNL d   1       1.945  -0.168   1.127  0.00  0.00     0.054 A 
ATOM     15  C   UNL d   1       2.193   0.600   2.278  0.00  0.00     0.049 A 
ATOM     16 CL   UNL d   1       0.981   1.566   3.052  0.00  0.00    -0.083 Cl
ATOM     17  C   UNL d   1       3.462   0.597   2.881  0.00  0.00     0.025 A 
ATOM     18  C   UNL d   1       4.493  -0.184   2.362  0.00  0.00     0.005 A 
ATOM     19  C   UNL d   1       4.266  -0.944   1.221  0.00  0.00     0.043 A 
ATOM     20  C   UNL d   1       3.014  -0.914   0.606  0.00  0.00     0.130 A 
ATOM     21  F   UNL d   1       2.869  -1.613  -0.531  0.00  0.00    -0.205 F 
ENDBRANCH   8  14
ENDBRANCH   1   7
BRANCH   4  22
ATOM     22  C   UNL d   1       2.094  -5.366   1.751  0.00  0.00     0.104 A 
ATOM     23  O   UNL d   1       2.427  -6.681   1.578  0.00  0.00    -0.308 OA
ATOM     24  C   UNL d   1       3.186  -7.046   2.645  0.00  0.00     0.086 A 
ATOM     25  C   UNL d   1       3.733  -8.311   2.851  0.00  0.00     0.040 A 
ATOM     26  C   UNL d   1       3.339  -5.977   3.520  0.00  0.00     0.002 A 
ATOM     27  C   UNL d   1       4.464  -8.487   4.032  0.00  0.00     0.026 A 
ATOM     28  C   UNL d   1       4.624  -7.437   4.941  0.00  0.00     0.035 A 
ATOM     29  C   UNL d   1       4.072  -6.172   4.704  0.00  0.00     0.038 A 
ATOM     30 CL   UNL d   1       5.518  -7.704   6.389  0.00  0.00    -0.084 Cl
ATOM     31  C   UNL d   1       2.646  -4.893   2.923  0.00  0.00     0.054 A 
ENDBRANCH   4  22
TORSDOF 3
