REMARK  1 active torsions:
REMARK  status: ('A' for Active; 'I' for Inactive)
REMARK    1  A    between atoms: C_8  and  C_1 
ROOT
ATOM      1  C   UNL d   1      -0.535  -1.687  -0.675  0.00  0.00     0.049 C 
ATOM      2  C   UNL d   1       0.587  -0.752  -0.394  0.00  0.00     0.007 A 
ATOM      3  C   UNL d   1       0.421   0.627  -0.541  0.00  0.00     0.052 A 
ATOM      4  C   UNL d   1      -0.875   1.142  -0.986  0.00  0.00     0.294 C 
ATOM      5  N   UNL d   1      -1.668  -1.661  -0.056  0.00  0.00    -0.386 N 
ATOM      6  HN  UNL d   1      -2.389  -2.327  -0.335  1.00  0.00     0.159 HD
ATOM      7  O   UNL d   1      -1.552   1.513   0.123  0.00  0.00    -0.316 OA
ATOM      8  O   UNL d   1      -1.263   1.183  -2.138  0.00  0.00    -0.259 OA
ATOM      9  C   UNL d   1       1.794  -1.256   0.103  0.00  0.00     0.015 A 
ATOM     10  C   UNL d   1      -1.968  -0.723   1.029  0.00  0.00     0.146 C 
ATOM     11  C   UNL d   1       1.439   1.514  -0.183  0.00  0.00     0.018 A 
ATOM     12  C   UNL d   1      -2.579   0.576   0.482  0.00  0.00     0.198 C 
ATOM     13  C   UNL d   1       2.816  -0.372   0.459  0.00  0.00     0.001 A 
ATOM     14  C   UNL d   1       2.638   1.008   0.320  0.00  0.00     0.001 A 
ENDROOT
BRANCH   1  15
ATOM     15  C   UNL d   1      -0.333  -2.736  -1.729  0.00  0.00    -0.009 A 
ATOM     16  C   UNL d   1      -1.056  -3.934  -1.633  0.00  0.00     0.014 A 
ATOM     17  C   UNL d   1      -0.879  -4.944  -2.581  0.00  0.00     0.001 A 
ATOM     18  C   UNL d   1       0.010  -4.758  -3.637  0.00  0.00     0.000 A 
ATOM     19  C   UNL d   1       0.716  -3.561  -3.753  0.00  0.00     0.001 A 
ATOM     20  C   UNL d   1       0.545  -2.549  -2.804  0.00  0.00     0.014 A 
ENDBRANCH   1  15
TORSDOF 1
