REMARK  3 active torsions:
REMARK  status: ('A' for Active; 'I' for Inactive)
REMARK    1  A    between atoms: N_7  and  C_2 
REMARK    2  A    between atoms: C_16  and  C_3 
REMARK       I    between atoms: C_6  and  N_9 
REMARK    3  A    between atoms: C_14  and  C_6 
ROOT
ATOM      1  C   UNL d   1       1.368   0.431   0.967  0.00  0.00     0.048 A 
ATOM      2  C   UNL d   1       1.610   1.384  -0.070  0.00  0.00     0.097 A 
ATOM      3  C   UNL d   1       1.528   0.381   2.428  0.00  0.00    -0.003 A 
ATOM      4  C   UNL d   1       0.844  -0.784   0.528  0.00  0.00     0.089 A 
ATOM      5  C   UNL d   1       1.219  -0.875   2.929  0.00  0.00     0.065 A 
ATOM      6  S   UNL d   1       0.652  -1.950   1.745  0.00  0.00    -0.082 SA
ATOM      7  N   UNL d   1       1.262   1.042  -1.342  0.00  0.00    -0.342 N 
ATOM      8  HN  UNL d   1       1.402   1.706  -2.103  1.00  0.00     0.167 HD
ATOM      9  N   UNL d   1       0.512  -1.125  -0.728  0.00  0.00    -0.346 N 
ATOM     10  HN  UNL d   1       0.127  -2.035  -0.981  1.00  0.00     0.167 HD
ATOM     11  C   UNL d   1       0.737  -0.160  -1.597  0.00  0.00     0.182 A 
ENDROOT
BRANCH   2  12
ATOM     12  N   UNL d   1       2.292   2.602   0.099  0.00  0.00    -0.265 NA
ATOM     13  C   UNL d   1       2.931   3.072  -1.162  0.00  0.00     0.117 C 
ATOM     14  C   UNL d   1       3.804   4.311  -0.894  0.00  0.00     0.140 C 
ATOM     15  N   UNL d   1       3.043   5.370  -0.201  0.00  0.00    -0.349 N 
ATOM     16  C   UNL d   1       3.059   6.651  -0.719  0.00  0.00     0.227 C 
ATOM     17  C   UNL d   1       2.378   4.876   1.009  0.00  0.00     0.140 C 
ATOM     18  O   UNL d   1       3.696   6.878  -1.756  0.00  0.00    -0.273 OA
ATOM     19  C   UNL d   1       1.463   3.669   0.696  0.00  0.00     0.117 C 
BRANCH  16  20
ATOM     20  C   UNL d   1       2.304   7.818  -0.027  0.00  0.00     0.030 C 
ATOM     21  C   UNL d   1       2.931   8.154   1.334  0.00  0.00     0.025 C 
ATOM     22  C   UNL d   1       2.468   9.080  -0.915  0.00  0.00     0.025 C 
ATOM     23  C   UNL d   1       0.791   7.562   0.069  0.00  0.00     0.025 C 
ENDBRANCH  16  20
ENDBRANCH   2  12
BRANCH   3  24
ATOM     24  C   UNL d   1       1.893   1.424   3.392  0.00  0.00    -0.024 A 
ATOM     25  C   UNL d   1       1.106   1.618   4.545  0.00  0.00     0.012 A 
ATOM     26  C   UNL d   1       1.391   2.640   5.451  0.00  0.00     0.001 A 
ATOM     27  C   UNL d   1       2.460   3.497   5.213  0.00  0.00     0.000 A 
ATOM     28  C   UNL d   1       3.270   3.293   4.098  0.00  0.00     0.001 A 
ATOM     29  C   UNL d   1       3.003   2.249   3.205  0.00  0.00     0.012 A 
ENDBRANCH   3  24
TORSDOF 3
