REMARK  5 active torsions:
REMARK  status: ('A' for Active; 'I' for Inactive)
REMARK    1  A    between atoms: O_6  and  N_1 
REMARK    2  A    between atoms: C_5  and  C_3 
REMARK    3  A    between atoms: N_14  and  C_3 
REMARK    4  A    between atoms: C_4  and  O_6 
REMARK    5  A    between atoms: C_12  and  C_4 
ROOT
ATOM      1  N   UNL d   1       0.961  -0.164  -0.008  0.00  0.00    -0.246 N 
ATOM      2  HN  UNL d   1       1.965  -0.297  -0.135  1.00  0.00     0.196 HD
ATOM      3  C   UNL d   1       0.284   0.780  -0.583  0.00  0.00     0.109 C 
ENDROOT
BRANCH   3   4
ATOM      4  C   UNL d   1       1.048   1.720  -1.460  0.00  0.00     0.007 A 
ATOM      5  C   UNL d   1       0.627   3.040  -1.625  0.00  0.00     0.057 A 
ATOM      6  C   UNL d   1       1.385   3.902  -2.413  0.00  0.00     0.123 A 
ATOM      7  F   UNL d   1       0.982   5.174  -2.547  0.00  0.00    -0.206 F 
ATOM      8  C   UNL d   1       2.555   3.477  -3.050  0.00  0.00    -0.023 A 
ATOM      9  C   UNL d   1       2.966   2.150  -2.887  0.00  0.00     0.011 A 
ATOM     10  C   UNL d   1       3.360   4.441  -3.867  0.00  0.00     0.051 C 
ATOM     11  C   UNL d   1       2.219   1.278  -2.091  0.00  0.00     0.015 A 
ENDBRANCH   3   4
BRANCH   3  12
ATOM     12  N   UNL d   1      -1.074   0.952  -0.445  0.00  0.00    -0.286 NA
ATOM     13  H   UNL d   1      -1.530   0.125  -0.074  0.00  0.00     0.125 HD
ATOM     14  H   UNL d   1      -1.554   1.321  -1.259  0.00  0.00     0.125 HD
ENDBRANCH   3  12
BRANCH   1  15
ATOM     15  O   UNL d   1       0.163  -0.986   0.810  0.00  0.00    -0.193 OA
BRANCH  15  16
ATOM     16  C   UNL d   1       0.944  -1.978   1.338  0.00  0.00     0.315 C 
ATOM     17  O   UNL d   1       2.133  -2.191   1.138  0.00  0.00    -0.257 OA
BRANCH  16  18
ATOM     18  C   UNL d   1       0.111  -2.880   2.169  0.00  0.00     0.041 A 
ATOM     19  C   UNL d   1      -1.030  -2.435   2.849  0.00  0.00     0.017 A 
ATOM     20  C   UNL d   1      -1.772  -3.334   3.620  0.00  0.00     0.001 A 
ATOM     21  C   UNL d   1      -1.378  -4.670   3.716  0.00  0.00     0.000 A 
ATOM     22  C   UNL d   1      -0.235  -5.112   3.051  0.00  0.00     0.001 A 
ATOM     23  C   UNL d   1       0.512  -4.218   2.285  0.00  0.00     0.017 A 
ENDBRANCH  16  18
ENDBRANCH  15  16
ENDBRANCH   1  15
TORSDOF 5
