REMARK  13 active torsions:
REMARK  status: ('A' for Active; 'I' for Inactive)
REMARK    1  A    between atoms: C_2  and  S_1 
REMARK    2  A    between atoms: N_4  and  S_1 
REMARK    3  A    between atoms: C_13  and  N_4 
REMARK    4  A    between atoms: C_23  and  N_4 
REMARK    5  A    between atoms: C_11  and  O_28 
REMARK    6  A    between atoms: C_12  and  O_27 
REMARK       I    between atoms: N_22  and  C_12 
REMARK    7  A    between atoms: C_20  and  C_13 
REMARK    8  A    between atoms: C_17  and  C_21 
REMARK    9  A    between atoms: N_37  and  C_17 
REMARK   10  A    between atoms: O_27  and  N_18 
REMARK   11  A    between atoms: C_21  and  C_23 
REMARK   12  A    between atoms: C_36  and  N_22 
REMARK   13  A    between atoms: O_28  and  C_38 
ROOT
ATOM      1  C   UNL d   1       0.866   3.454  -5.706  0.00  0.00     0.092 C 
ENDROOT
BRANCH   1   2
ATOM      2  C   UNL d   1       1.641   2.227  -6.157  0.00  0.00     0.077 C 
ATOM      3  N   UNL d   1       2.876   2.058  -5.759  0.00  0.00    -0.249 N 
ATOM      4  HN  UNL d   1       3.418   2.704  -5.185  1.00  0.00     0.196 HD
BRANCH   3   5
ATOM      5  O   UNL d   1       3.326   0.813  -6.270  0.00  0.00    -0.180 OA
BRANCH   5   6
ATOM      6  C   UNL d   1       4.601   0.442  -5.903  0.00  0.00     0.387 C 
ATOM      7  N   UNL d   1       5.311   1.390  -5.198  0.00  0.00    -0.301 N 
ATOM      8  H   UNL d   1       4.777   2.232  -5.022  0.00  0.00     0.171 HD
ATOM      9  O   UNL d   1       5.008  -0.668  -6.235  0.00  0.00    -0.236 OA
BRANCH   7  10
ATOM     10  C   UNL d   1       6.632   1.271  -4.701  0.00  0.00     0.037 A 
ATOM     11  C   UNL d   1       7.428   0.132  -4.877  0.00  0.00     0.032 A 
ATOM     12  C   UNL d   1       8.712   0.034  -4.318  0.00  0.00     0.039 A 
ATOM     13  C   UNL d   1       9.250   1.096  -3.600  0.00  0.00     0.078 A 
ATOM     14  C   UNL d   1       8.463   2.239  -3.423  0.00  0.00     0.039 A 
ATOM     15  C   UNL d   1       7.175   2.333  -3.969  0.00  0.00     0.032 A 
BRANCH  13  16
ATOM     16  O   UNL d   1      10.477   1.157  -3.020  0.00  0.00    -0.255 OA
BRANCH  16  17
ATOM     17  C   UNL d   1      11.506   0.250  -3.400  0.00  0.00     0.530 C 
ATOM     18  F   UNL d   1      11.345  -0.271  -4.632  0.00  0.00    -0.144 F 
ATOM     19  F   UNL d   1      12.680   0.927  -3.395  0.00  0.00    -0.144 F 
ATOM     20  F   UNL d   1      11.596  -0.751  -2.499  0.00  0.00    -0.144 F 
ENDBRANCH  16  17
ENDBRANCH  13  16
ENDBRANCH   7  10
ENDBRANCH   5   6
ENDBRANCH   3   5
BRANCH   2  21
ATOM     21  N   UNL d   1       0.950   1.339  -6.947  0.00  0.00    -0.291 NA
ATOM     22  H   UNL d   1       0.239   1.751  -7.556  0.00  0.00     0.125 HD
ATOM     23  H   UNL d   1       1.538   0.676  -7.438  0.00  0.00     0.125 HD
ENDBRANCH   2  21
ENDBRANCH   1   2
BRANCH   1  24
ATOM     24  C   UNL d   1       1.450   4.777  -6.174  0.00  0.00     0.143 C 
BRANCH  24  25
ATOM     25  N   UNL d   1       1.634   4.896  -7.651  0.00  0.00    -0.300 N 
BRANCH  25  26
ATOM     26  S   UNL d   1       0.216   5.012  -8.595  0.00  0.00     0.263 S 
ATOM     27  O   UNL d   1      -0.566   3.815  -8.383  0.00  0.00    -0.200 OA
ATOM     28  O   UNL d   1      -0.376   6.310  -8.345  0.00  0.00    -0.200 OA
BRANCH  26  29
ATOM     29  C   UNL d   1       0.790   4.982 -10.259  0.00  0.00     0.109 A 
ATOM     30  C   UNL d   1       1.347   3.826 -10.852  0.00  0.00     0.090 A 
ATOM     31  N   UNL d   1       1.469   2.597 -10.318  0.00  0.00    -0.309 N 
ATOM     32  C   UNL d   1       1.917   3.902 -12.251  0.00  0.00     0.068 A 
ATOM     33  S   UNL d   1       2.179   1.636 -11.468  0.00  0.00     0.068 SA
ATOM     34  HN  UNL d   1       1.180   2.311  -9.382  1.00  0.00     0.176 HD
ATOM     35  N   UNL d   1       2.422   2.738 -12.684  0.00  0.00    -0.310 N 
ATOM     36  HN  UNL d   1       2.868   2.564 -13.585  1.00  0.00     0.176 HD
ATOM     37  C   UNL d   1       1.906   5.114 -12.983  0.00  0.00     0.032 A 
ATOM     38  C   UNL d   1       1.299   6.213 -12.357  0.00  0.00     0.004 A 
ATOM     39  C   UNL d   1       0.751   6.149 -11.060  0.00  0.00     0.028 A 
ENDBRANCH  26  29
ENDBRANCH  25  26
BRANCH  25  40
ATOM     40  C   UNL d   1       2.783   5.776  -8.010  0.00  0.00     0.200 C 
BRANCH  40  41
ATOM     41  C   UNL d   1       2.496   7.236  -8.023  0.00  0.00     0.071 A 
ATOM     42  O   UNL d   1       2.675   7.866  -9.221  0.00  0.00    -0.325 OA
ATOM     43  C   UNL d   1       2.437   9.188  -9.027  0.00  0.00     0.142 A 
ATOM     44  C   UNL d   1       2.110   9.423  -7.712  0.00  0.00     0.027 A 
ATOM     45  C   UNL d   1       2.141   8.166  -7.062  0.00  0.00     0.036 A 
ENDBRANCH  40  41
ENDBRANCH  25  40
ENDBRANCH  24  25
ENDBRANCH   1  24
TORSDOF 13
