REMARK  5 active torsions:
REMARK  status: ('A' for Active; 'I' for Inactive)
REMARK    1  A    between atoms: C_4  and  N_7 
REMARK       I    between atoms: C_8  and  N_7 
REMARK    2  A    between atoms: C_19  and  C_8 
REMARK    3  A    between atoms: S_12  and  C_19 
REMARK    4  A    between atoms: C_22  and  S_12 
REMARK    5  A    between atoms: C_15  and  C_22 
ROOT
ATOM      1  N   UNL d   1      -2.469  -1.195  -2.887  0.00  0.00    -0.356 N 
ATOM      2  C   UNL d   1      -3.762  -0.715  -2.904  0.00  0.00     0.227 C 
ATOM      3  O   UNL d   1      -4.070   0.404  -3.300  0.00  0.00    -0.273 OA
ATOM      4  H   UNL d   1      -2.349  -2.052  -2.363  0.00  0.00     0.162 HD
ENDROOT
BRANCH   2   5
ATOM      5  C   UNL d   1      -4.819  -1.736  -2.469  0.00  0.00     0.176 C 
BRANCH   5   6
ATOM      6  S   UNL d   1      -4.149  -2.857  -1.193  0.00  0.00    -0.155 SA
BRANCH   6   7
ATOM      7  C   UNL d   1      -5.571  -3.969  -0.964  0.00  0.00     0.112 C 
BRANCH   7   8
ATOM      8  C   UNL d   1      -5.196  -5.021   0.053  0.00  0.00    -0.049 A 
ATOM      9  C   UNL d   1      -5.414  -4.794   1.420  0.00  0.00     0.009 A 
ATOM     10  C   UNL d   1      -4.949  -5.703   2.373  0.00  0.00     0.024 A 
ATOM     11  C   UNL d   1      -4.262  -6.844   1.962  0.00  0.00     0.034 A 
ATOM     12  C   UNL d   1      -4.050  -7.092   0.608  0.00  0.00     0.024 A 
ATOM     13 CL   UNL d   1      -3.649  -7.941   3.138  0.00  0.00    -0.084 Cl
ATOM     14  C   UNL d   1      -4.516  -6.184  -0.345  0.00  0.00     0.009 A 
ENDBRANCH   7   8
ENDBRANCH   6   7
ENDBRANCH   5   6
ENDBRANCH   2   5
BRANCH   1  15
ATOM     15  C   UNL d   1      -1.292  -0.373  -3.165  0.00  0.00     0.088 C 
ATOM     16  C   UNL d   1      -0.847   0.438  -1.931  0.00  0.00     0.061 C 
ATOM     17  C   UNL d   1       0.207  -0.275  -1.061  0.00  0.00     0.225 C 
ATOM     18  N   UNL d   1       1.340  -0.614  -1.947  0.00  0.00     0.093 N 
ATOM     19  C   UNL d   1      -0.287  -1.627  -0.536  0.00  0.00     0.038 C 
ATOM     20  C   UNL d   1       0.825  -1.786  -2.677  0.00  0.00     0.225 C 
ATOM     21  C   UNL d   1       2.569  -0.901  -1.203  0.00  0.00     0.310 C 
ATOM     22  C   UNL d   1      -0.157  -1.244  -3.734  0.00  0.00     0.061 C 
ATOM     23  C   UNL d   1       0.165  -2.637  -1.591  0.00  0.00     0.038 C 
ENDBRANCH   1  15
TORSDOF 5
