REMARK  3 active torsions:
REMARK  status: ('A' for Active; 'I' for Inactive)
REMARK    1  A    between atoms: C_2  and  C_1 
REMARK       I    between atoms: N_8  and  C_2 
REMARK    2  A    between atoms: C_13  and  C_5 
REMARK    3  A    between atoms: C_11  and  N_8 
ROOT
ATOM      1  C   UNL d   1       0.195  -4.962  -0.790  0.00  0.00    -0.086 C 
ATOM      2  C   UNL d   1       0.391  -5.271  -1.939  0.00  0.00     0.015 C 
ATOM      3  C   UNL d   1      -0.048  -4.480   0.591  0.00  0.00     0.088 C 
ATOM      4  C   UNL d   1       1.278  -4.336   1.362  0.00  0.00     0.053 C 
ATOM      5  C   UNL d   1      -0.899  -5.550   1.299  0.00  0.00     0.053 C 
ENDROOT
BRANCH   3   6
ATOM      6  N   UNL d   1      -0.761  -3.185   0.573  0.00  0.00    -0.337 N 
ATOM      7  C   UNL d   1      -0.279  -2.126  -0.179  0.00  0.00     0.257 C 
ATOM      8  O   UNL d   1       0.671  -2.258  -0.948  0.00  0.00    -0.267 OA
ATOM      9  H   UNL d   1      -1.288  -2.945   1.399  0.00  0.00     0.164 HD
BRANCH   7  10
ATOM     10  C   UNL d   1      -0.817  -0.795   0.047  0.00  0.00     0.092 A 
ATOM     11  C   UNL d   1      -2.110  -0.176   0.206  0.00  0.00     0.083 A 
ATOM     12  N   UNL d   1      -1.944   1.163   0.273  0.00  0.00    -0.259 N 
ATOM     13  O   UNL d   1      -0.615   1.432   0.189  0.00  0.00    -0.241 OA
ATOM     14  HN  UNL d   1      -2.689   1.854   0.370  1.00  0.00     0.195 HD
ATOM     15  C   UNL d   1       0.063   0.279   0.072  0.00  0.00     0.090 A 
ATOM     16  C   UNL d   1       1.535   0.404   0.015  0.00  0.00     0.080 C 
BRANCH  11  17
ATOM     17  C   UNL d   1      -3.505  -0.659   0.328  0.00  0.00    -0.006 A 
ATOM     18  C   UNL d   1      -4.550   0.297   0.364  0.00  0.00     0.014 A 
ATOM     19  C   UNL d   1      -5.868  -0.050   0.667  0.00  0.00     0.001 A 
ATOM     20  C   UNL d   1      -6.181  -1.374   0.932  0.00  0.00     0.000 A 
ATOM     21  C   UNL d   1      -5.188  -2.346   0.832  0.00  0.00     0.001 A 
ATOM     22  C   UNL d   1      -3.866  -1.995   0.510  0.00  0.00     0.014 A 
ENDBRANCH  11  17
ENDBRANCH   7  10
ENDBRANCH   3   6
TORSDOF 3
