REMARK  6 active torsions:
REMARK  status: ('A' for Active; 'I' for Inactive)
REMARK    1  A    between atoms: C_8  and  C_2 
REMARK    2  A    between atoms: C_14  and  C_7 
REMARK    3  A    between atoms: O_16  and  C_8 
REMARK    4  A    between atoms: O_10  and  C_14 
REMARK    5  A    between atoms: C_12  and  O_10 
REMARK    6  A    between atoms: C_20  and  O_16 
ROOT
ATOM      1  C   UNL d   1      -0.777   1.224  -0.010  0.00  0.00     0.039 A 
ATOM      2  C   UNL d   1      -1.405   0.027   0.004  0.00  0.00     0.121 A 
ATOM      3  C   UNL d   1       0.713   1.183  -0.036  0.00  0.00     0.255 A 
ATOM      4  N   UNL d   1      -0.736  -1.187   0.029  0.00  0.00    -0.339 N 
ATOM      5  HN  UNL d   1      -1.254  -2.064   0.069  1.00  0.00     0.167 HD
ATOM      6  N   UNL d   1       1.286  -0.046  -0.054  0.00  0.00    -0.311 N 
ATOM      7  C   UNL d   1       0.553  -1.187  -0.001  0.00  0.00     0.109 A 
ATOM      8  O   UNL d   1       1.397   2.202  -0.026  0.00  0.00    -0.268 OA
ATOM      9  C   UNL d   1      -1.330   2.619  -0.005  0.00  0.00     0.056 C 
ATOM     10  H   UNL d   1       2.297  -0.064  -0.093  0.00  0.00     0.170 HD
ENDROOT
BRANCH   7  11
ATOM     11  C   UNL d   1       1.323  -2.495   0.061  0.00  0.00     0.252 C 
BRANCH  11  12
ATOM     12  O   UNL d   1       1.637  -2.916  -1.260  0.00  0.00    -0.342 OA
BRANCH  12  13
ATOM     13  C   UNL d   1       2.342  -4.091  -1.357  0.00  0.00     0.090 A 
ATOM     14  C   UNL d   1       3.180  -4.260  -2.471  0.00  0.00     0.067 A 
ATOM     15 CL   UNL d   1       3.354  -3.018  -3.662  0.00  0.00    -0.081 Cl
ATOM     16  C   UNL d   1       3.920  -5.435  -2.635  0.00  0.00     0.026 A 
ATOM     17  C   UNL d   1       3.824  -6.459  -1.694  0.00  0.00     0.002 A 
ATOM     18  C   UNL d   1       2.978  -6.313  -0.599  0.00  0.00     0.003 A 
ATOM     19  C   UNL d   1       2.234  -5.139  -0.435  0.00  0.00     0.038 A 
ENDBRANCH  12  13
ENDBRANCH  11  12
ENDBRANCH   7  11
BRANCH   2  20
ATOM     20  C   UNL d   1      -2.922  -0.048   0.014  0.00  0.00     0.310 C 
ATOM     21  O   UNL d   1      -3.694   0.898   0.045  0.00  0.00    -0.258 OA
BRANCH  20  22
ATOM     22  O   UNL d   1      -3.312  -1.356  -0.021  0.00  0.00    -0.317 OA
BRANCH  22  23
ATOM     23  C   UNL d   1      -4.726  -1.600  -0.022  0.00  0.00     0.175 C 
ATOM     24  C   UNL d   1      -5.280  -1.491  -1.430  0.00  0.00     0.034 C 
ENDBRANCH  22  23
ENDBRANCH  20  22
ENDBRANCH   2  20
TORSDOF 6
