REMARK  3 active torsions:
REMARK  status: ('A' for Active; 'I' for Inactive)
REMARK    1  A    between atoms: C_9  and  N_1 
REMARK    2  A    between atoms: C_7  and  N_3 
REMARK    3  A    between atoms: C_14  and  C_9 
ROOT
ATOM      1  N   UNL d   1      -0.671   1.152  -0.089  0.00  0.00    -0.260 N 
ATOM      2  C   UNL d   1      -1.381  -0.045  -0.239  0.00  0.00     0.336 A 
ATOM      3  N   UNL d   1      -0.620  -1.222  -0.096  0.00  0.00    -0.271 N 
ATOM      4  C   UNL d   1       0.706   1.243   0.051  0.00  0.00     0.274 A 
ATOM      5  C   UNL d   1       1.450  -0.033   0.079  0.00  0.00     0.128 A 
ATOM      6  C   UNL d   1       0.758  -1.175   0.036  0.00  0.00     0.130 A 
ATOM      7  C   UNL d   1       2.868  -0.030   0.161  0.00  0.00     0.106 C 
ATOM      8  N   UNL d   1       4.026  -0.090   0.210  0.00  0.00    -0.191 NA
ATOM      9  O   UNL d   1      -2.595  -0.048  -0.453  0.00  0.00    -0.246 OA
ATOM     10  O   UNL d   1       1.311   2.309   0.141  0.00  0.00    -0.266 OA
ENDROOT
BRANCH   1  11
ATOM     11  C   UNL d   1      -1.446   2.391  -0.038  0.00  0.00     0.175 C 
BRANCH  11  12
ATOM     12  C   UNL d   1      -1.938   2.684   1.369  0.00  0.00    -0.040 A 
ATOM     13  C   UNL d   1      -1.150   3.425   2.263  0.00  0.00     0.010 A 
ATOM     14  C   UNL d   1      -1.561   3.609   3.587  0.00  0.00     0.024 A 
ATOM     15  C   UNL d   1      -2.761   3.054   4.025  0.00  0.00     0.034 A 
ATOM     16  C   UNL d   1      -3.571   2.345   3.142  0.00  0.00     0.024 A 
ATOM     17 CL   UNL d   1      -3.234   3.224   5.671  0.00  0.00    -0.084 Cl
ATOM     18  C   UNL d   1      -3.162   2.164   1.819  0.00  0.00     0.010 A 
ENDBRANCH  11  12
ENDBRANCH   1  11
BRANCH   3  19
ATOM     19  C   UNL d   1      -1.323  -2.475  -0.040  0.00  0.00     0.065 A 
ATOM     20  C   UNL d   1      -1.218  -3.353   1.058  0.00  0.00     0.061 A 
ATOM     21 CL   UNL d   1      -0.261  -2.994   2.456  0.00  0.00    -0.082 Cl
ATOM     22  C   UNL d   1      -1.982  -4.527   1.103  0.00  0.00     0.026 A 
ATOM     23  C   UNL d   1      -2.844  -4.846   0.055  0.00  0.00     0.002 A 
ATOM     24  C   UNL d   1      -2.942  -3.998  -1.044  0.00  0.00     0.002 A 
ATOM     25  C   UNL d   1      -2.191  -2.821  -1.090  0.00  0.00     0.032 A 
ENDBRANCH   3  19
TORSDOF 3
