REMARK  5 active torsions:
REMARK  status: ('A' for Active; 'I' for Inactive)
REMARK    1  A    between atoms: C_2  and  S_1 
REMARK    2  A    between atoms: N_11  and  S_1 
REMARK    3  A    between atoms: C_3  and  C_12 
REMARK    4  A    between atoms: C_17  and  C_6 
REMARK    5  A    between atoms: C_12  and  N_11 
ROOT
ATOM      1  N   UNL d   1       0.469   1.492  -0.471  0.00  0.00    -0.311 N 
ATOM      2  H   UNL d   1      -0.544   1.492  -0.584  0.00  0.00     0.172 HD
ENDROOT
BRANCH   1   3
ATOM      3  S   UNL d   1       1.026   0.043   0.178  0.00  0.00     0.265 S 
ATOM      4  O   UNL d   1       0.378  -1.026  -0.544  0.00  0.00    -0.200 OA
ATOM      5  O   UNL d   1       2.461   0.132   0.309  0.00  0.00    -0.200 OA
BRANCH   3   6
ATOM      6  C   UNL d   1       0.426  -0.089   1.849  0.00  0.00     0.121 A 
ATOM      7  S   UNL d   1      -1.266  -0.057   2.055  0.00  0.00    -0.076 SA
ATOM      8  C   UNL d   1      -1.144  -0.247   3.764  0.00  0.00     0.016 A 
ATOM      9  C   UNL d   1      -2.203  -0.333   4.690  0.00  0.00     0.019 A 
ATOM     10  C   UNL d   1       0.190  -0.309   4.175  0.00  0.00    -0.017 A 
ATOM     11  C   UNL d   1      -1.906  -0.468   6.048  0.00  0.00     0.001 A 
ATOM     12  C   UNL d   1      -0.588  -0.523   6.481  0.00  0.00     0.001 A 
ATOM     13  C   UNL d   1       0.460  -0.449   5.558  0.00  0.00     0.013 A 
ATOM     14  C   UNL d   1       1.082  -0.220   3.055  0.00  0.00     0.045 A 
ENDBRANCH   3   6
ENDBRANCH   1   3
BRANCH   1  15
ATOM     15  C   UNL d   1       1.061   2.716   0.069  0.00  0.00     0.176 C 
BRANCH  15  16
ATOM     16  C   UNL d   1       0.443   3.881  -0.617  0.00  0.00     0.021 A 
ATOM     17  C   UNL d   1       0.883   4.619  -1.768  0.00  0.00     0.075 A 
ATOM     18  N   UNL d   1       0.061   5.662  -1.983  0.00  0.00    -0.260 N 
ATOM     19  O   UNL d   1      -0.942   5.580  -1.051  0.00  0.00    -0.242 OA
ATOM     20  HN  UNL d   1       0.164   6.378  -2.703  1.00  0.00     0.195 HD
ATOM     21  C   UNL d   1      -0.729   4.512  -0.249  0.00  0.00     0.083 A 
ATOM     22  C   UNL d   1      -1.751   4.257   0.783  0.00  0.00     0.079 C 
BRANCH  17  23
ATOM     23  C   UNL d   1       2.004   4.380  -2.687  0.00  0.00    -0.007 A 
ATOM     24  C   UNL d   1       2.603   5.453  -3.370  0.00  0.00     0.014 A 
ATOM     25  C   UNL d   1       3.604   5.232  -4.322  0.00  0.00     0.001 A 
ATOM     26  C   UNL d   1       4.025   3.935  -4.600  0.00  0.00     0.000 A 
ATOM     27  C   UNL d   1       3.451   2.862  -3.924  0.00  0.00     0.001 A 
ATOM     28  C   UNL d   1       2.446   3.082  -2.978  0.00  0.00     0.014 A 
ENDBRANCH  17  23
ENDBRANCH  15  16
ENDBRANCH   1  15
TORSDOF 5
