REMARK  8 active torsions:
REMARK  status: ('A' for Active; 'I' for Inactive)
REMARK    1  A    between atoms: C_3  and  C_1 
REMARK       I    between atoms: N_4  and  C_1 
REMARK    2  A    between atoms: S_2  and  C_3 
REMARK    3  A    between atoms: C_5  and  S_2 
REMARK    4  A    between atoms: C_9  and  C_3 
REMARK    5  A    between atoms: C_6  and  N_4 
REMARK    6  A    between atoms: C_10  and  C_6 
REMARK    7  A    between atoms: N_12  and  C_8 
REMARK    8  A    between atoms: C_11  and  C_10 
ROOT
ATOM      1  C   UNL d   1       0.079  -1.481   1.100  0.00  0.00     0.177 C 
ENDROOT
BRANCH   1   2
ATOM      2  S   UNL d   1       0.160  -1.406   2.962  0.00  0.00    -0.109 SA
BRANCH   2   3
ATOM      3  C   UNL d   1       1.302  -2.690   3.512  0.00  0.00     0.022 A 
ATOM      4  C   UNL d   1       0.941  -3.477   4.638  0.00  0.00     0.022 A 
ATOM      5  C   UNL d   1       1.892  -4.314   5.241  0.00  0.00     0.024 A 
ATOM      6  C   UNL d   1       3.211  -4.321   4.796  0.00  0.00     0.002 A 
ATOM      7  C   UNL d   1       3.571  -3.545   3.697  0.00  0.00     0.001 A 
ATOM      8  C   UNL d   1       2.623  -2.738   3.055  0.00  0.00     0.020 A 
BRANCH   4   9
ATOM      9  N   UNL d   1      -0.403  -3.590   5.058  0.00  0.00    -0.302 NA
ATOM     10  H   UNL d   1      -0.956  -2.790   4.755  0.00  0.00     0.124 HD
ATOM     11  H   UNL d   1      -0.504  -3.790   6.048  0.00  0.00     0.124 HD
ENDBRANCH   4   9
ENDBRANCH   2   3
ENDBRANCH   1   2
BRANCH   1  12
ATOM     12  C   UNL d   1       1.203  -0.592   0.481  0.00  0.00     0.236 C 
ATOM     13  N   UNL d   1       0.943   0.765   0.428  0.00  0.00    -0.351 N 
ATOM     14  H   UNL d   1       0.006   1.050   0.692  0.00  0.00     0.163 HD
ATOM     15  O   UNL d   1       2.262  -1.094   0.089  0.00  0.00    -0.272 OA
BRANCH  13  16
ATOM     16  C   UNL d   1       1.801   1.871  -0.048  0.00  0.00     0.026 C 
ATOM     17  C   UNL d   1       1.572   3.030   0.971  0.00  0.00     0.038 C 
ATOM     18  C   UNL d   1       3.306   1.571   0.012  0.00  0.00     0.038 C 
BRANCH  16  19
ATOM     19  C   UNL d   1       1.347   2.459  -1.425  0.00  0.00     0.038 C 
BRANCH  19  20
ATOM     20  C   UNL d   1       1.282   1.665  -2.764  0.00  0.00    -0.049 C 
ATOM     21  C   UNL d   1       0.175   0.605  -2.746  0.00  0.00     0.014 C 
ATOM     22  C   UNL d   1       0.923   2.689  -3.873  0.00  0.00     0.014 C 
ATOM     23  C   UNL d   1       2.606   1.005  -3.161  0.00  0.00     0.014 C 
ENDBRANCH  19  20
ENDBRANCH  16  19
ENDBRANCH  13  16
ENDBRANCH   1  12
BRANCH   1  24
ATOM     24  C   UNL d   1      -1.311  -1.056   0.577  0.00  0.00    -0.035 A 
ATOM     25  C   UNL d   1      -2.128  -0.123   1.249  0.00  0.00     0.009 A 
ATOM     26  C   UNL d   1      -3.312   0.353   0.682  0.00  0.00     0.001 A 
ATOM     27  C   UNL d   1      -3.708  -0.091  -0.573  0.00  0.00     0.000 A 
ATOM     28  C   UNL d   1      -2.928  -1.024  -1.252  0.00  0.00     0.001 A 
ATOM     29  C   UNL d   1      -1.742  -1.507  -0.681  0.00  0.00     0.009 A 
ENDBRANCH   1  24
TORSDOF 8
