REMARK  6 active torsions:
REMARK  status: ('A' for Active; 'I' for Inactive)
REMARK    1  A    between atoms: C_2  and  C_1 
REMARK       I    between atoms: C_3  and  N_9 
REMARK       I    between atoms: N_11  and  C_3 
REMARK    2  A    between atoms: C_13  and  C_6 
REMARK    3  A    between atoms: N_9  and  C_18 
REMARK    4  A    between atoms: C_25  and  N_11 
REMARK    5  A    between atoms: O_17  and  C_13 
REMARK    6  A    between atoms: C_20  and  O_17 
ROOT
ATOM      1  C   UNL d   1      -2.792  -1.608   9.811  0.00  0.00     0.036 A 
ATOM      2  C   UNL d   1      -2.233  -1.131   7.094  0.00  0.00     0.069 A 
ATOM      3  C   UNL d   1      -3.310  -0.479   9.164  0.00  0.00     0.032 A 
ATOM      4  C   UNL d   1      -2.065  -2.531   9.059  0.00  0.00     0.032 A 
ATOM      5  C   UNL d   1      -3.035  -0.244   7.811  0.00  0.00     0.039 A 
ATOM      6  C   UNL d   1      -1.795  -2.302   7.707  0.00  0.00     0.039 A 
ENDROOT
BRANCH   2   7
ATOM      7  O   UNL d   1      -1.924  -0.775   5.808  0.00  0.00    -0.345 OA
BRANCH   7   8
ATOM      8  C   UNL d   1      -0.617  -1.200   5.391  0.00  0.00     0.234 C 
BRANCH   8   9
ATOM      9  C   UNL d   1      -0.086  -0.317   4.284  0.00  0.00     0.055 A 
ATOM     10  N   UNL d   1       0.188  -0.937   3.099  0.00  0.00    -0.365 N 
ATOM     11  C   UNL d   1       0.698  -0.191   2.092  0.00  0.00     0.104 A 
ATOM     12  HN  UNL d   1       0.014  -1.935   2.976  1.00  0.00     0.165 HD
ATOM     13  C   UNL d   1       0.959   1.166   2.193  0.00  0.00     0.064 A 
ATOM     14  C   UNL d   1       0.689   1.786   3.417  0.00  0.00     0.043 A 
ATOM     15  C   UNL d   1       0.168   1.042   4.478  0.00  0.00     0.059 A 
ATOM     16 CL   UNL d   1      -0.093   1.847   5.979  0.00  0.00    -0.082 Cl
BRANCH  13  17
ATOM     17  C   UNL d   1       1.514   1.905   1.017  0.00  0.00     0.418 C 
ATOM     18  F   UNL d   1       1.705   3.233   1.253  0.00  0.00    -0.166 F 
ATOM     19  F   UNL d   1       0.702   1.834  -0.073  0.00  0.00    -0.166 F 
ATOM     20  F   UNL d   1       2.720   1.420   0.618  0.00  0.00    -0.166 F 
ENDBRANCH  13  17
ENDBRANCH   8   9
ENDBRANCH   7   8
ENDBRANCH   2   7
BRANCH   1  21
ATOM     21  N   UNL d   1      -3.006  -1.730  11.200  0.00  0.00    -0.309 N 
ATOM     22  C   UNL d   1      -2.537  -2.734  12.030  0.00  0.00     0.321 C 
ATOM     23  N   UNL d   1      -2.847  -2.467  13.350  0.00  0.00    -0.339 N 
ATOM     24  O   UNL d   1      -1.942  -3.743  11.686  0.00  0.00    -0.247 OA
ATOM     25  H   UNL d   1      -2.929  -1.491  13.591  0.00  0.00     0.164 HD
ATOM     26  H   UNL d   1      -3.579  -1.028  11.637  0.00  0.00     0.170 HD
BRANCH  23  27
ATOM     27  C   UNL d   1      -2.508  -3.369  14.448  0.00  0.00     0.078 C 
ATOM     28  C   UNL d   1      -3.111  -4.762  14.270  0.00  0.00     0.032 C 
ATOM     29  C   UNL d   1      -1.004  -3.448  14.707  0.00  0.00     0.032 C 
ENDBRANCH  23  27
ENDBRANCH   1  21
TORSDOF 6
