REMARK  6 active torsions:
REMARK  status: ('A' for Active; 'I' for Inactive)
REMARK    1  A    between atoms: C_9  and  C_1 
REMARK       I    between atoms: C_2  and  N_5 
REMARK    2  A    between atoms: C_7  and  C_2 
REMARK    3  A    between atoms: N_5  and  C_8 
REMARK    4  A    between atoms: C_8  and  C_9 
REMARK    5  A    between atoms: C_10  and  C_8 
REMARK    6  A    between atoms: O_21  and  C_10 
ROOT
ATOM      1  C   UNL d   1       3.555  -2.432  -0.092  0.00  0.00     0.189 C 
ENDROOT
BRANCH   1   2
ATOM      2  N   UNL d   1       4.255  -1.494   0.789  0.00  0.00    -0.342 N 
ATOM      3  C   UNL d   1       5.312  -0.730   0.344  0.00  0.00     0.259 C 
ATOM      4  O   UNL d   1       5.665  -0.752  -0.833  0.00  0.00    -0.267 OA
ATOM      5  H   UNL d   1       4.191  -1.623   1.790  0.00  0.00     0.163 HD
BRANCH   3   6
ATOM      6  C   UNL d   1       5.973   0.084   1.359  0.00  0.00     0.072 A 
ATOM      7  S   UNL d   1       5.454   0.108   2.995  0.00  0.00    -0.097 SA
ATOM      8  C   UNL d   1       6.642   1.255   3.432  0.00  0.00     0.050 A 
ATOM      9  C   UNL d   1       7.435   1.609   2.364  0.00  0.00     0.009 A 
ATOM     10  C   UNL d   1       7.051   0.930   1.170  0.00  0.00     0.025 A 
ENDBRANCH   3   6
ENDBRANCH   1   2
BRANCH   1  11
ATOM     11  C   UNL d   1       2.130  -2.697   0.416  0.00  0.00     0.075 C 
BRANCH  11  12
ATOM     12  C   UNL d   1       1.132  -1.601   0.128  0.00  0.00    -0.037 A 
ATOM     13  C   UNL d   1       0.717  -0.567   1.057  0.00  0.00    -0.011 A 
ATOM     14  C   UNL d   1      -0.373   0.158   0.562  0.00  0.00     0.015 A 
ATOM     15  C   UNL d   1       1.195  -0.230   2.350  0.00  0.00     0.037 A 
ATOM     16  C   UNL d   1      -1.026   1.143   1.333  0.00  0.00     0.021 A 
ATOM     17  S   UNL d   1      -0.770  -0.315  -1.042  0.00  0.00    -0.101 SA
ATOM     18  C   UNL d   1      -0.542   1.437   2.608  0.00  0.00     0.025 A 
ATOM     19  C   UNL d   1       0.571   0.772   3.099  0.00  0.00     0.035 A 
ATOM     20 CL   UNL d   1       1.190   1.175   4.654  0.00  0.00    -0.084 Cl
ATOM     21  C   UNL d   1       0.435  -1.515  -1.062  0.00  0.00     0.058 A 
ENDBRANCH  11  12
ENDBRANCH   1  11
BRANCH   1  22
ATOM     22  C   UNL d   1       4.254  -3.798  -0.210  0.00  0.00     0.281 C 
ATOM     23  O   UNL d   1       3.850  -4.698  -0.938  0.00  0.00    -0.263 OA
BRANCH  22  24
ATOM     24  O   UNL d   1       5.315  -3.918   0.641  0.00  0.00    -0.325 OA
ATOM     25  C   UNL d   1       5.973  -5.186   0.584  0.00  0.00     0.213 C 
ENDBRANCH  22  24
ENDBRANCH   1  22
TORSDOF 6
