REMARK  8 active torsions:
REMARK  status: ('A' for Active; 'I' for Inactive)
REMARK    1  A    between atoms: C_2  and  C_1 
REMARK    2  A    between atoms: C_11  and  C_1 
REMARK    3  A    between atoms: N_3  and  C_10 
REMARK    4  A    between atoms: C_12  and  C_4 
REMARK    5  A    between atoms: C_7  and  C_5 
REMARK    6  A    between atoms: C_16  and  C_5 
REMARK    7  A    between atoms: C_8  and  C_7 
REMARK    8  A    between atoms: C_15  and  C_8 
ROOT
ATOM      1  C   UNL d   1       1.337  -0.255  -0.612  0.00  0.00    -0.004 C 
ATOM      2  C   UNL d   1       0.509   0.752  -1.047  0.00  0.00     0.066 C 
ATOM      3  C   UNL d   1       0.905   2.126  -1.105  0.00  0.00     0.101 C 
ATOM      4  N   UNL d   1       1.184   3.256  -1.124  0.00  0.00    -0.191 NA
ENDROOT
BRANCH   2   5
ATOM      5  C   UNL d   1      -0.858   0.464  -1.578  0.00  0.00    -0.014 A 
ATOM      6  C   UNL d   1      -1.865  -0.127  -0.794  0.00  0.00     0.015 A 
ATOM      7  C   UNL d   1      -3.046  -0.594  -1.385  0.00  0.00     0.037 A 
ATOM      8  C   UNL d   1      -3.241  -0.434  -2.763  0.00  0.00     0.102 A 
ATOM      9  C   UNL d   1      -2.284   0.230  -3.541  0.00  0.00     0.037 A 
ATOM     10  C   UNL d   1      -1.101   0.672  -2.948  0.00  0.00     0.015 A 
BRANCH   8  11
ATOM     11  N   UNL d   1      -4.428  -1.007  -3.409  0.00  0.00    -0.116 N 
ATOM     12  O   UNL d   1      -5.221  -1.644  -2.701  0.00  0.00    -0.532 OA
ATOM     13  O   UNL d   1      -4.558  -0.836  -4.630  0.00  0.00    -0.532 OA
ENDBRANCH   8  11
ENDBRANCH   2   5
BRANCH   1  14
ATOM     14  C   UNL d   1       0.796  -1.640  -0.578  0.00  0.00     0.022 C 
ATOM     15  C   UNL d   1       0.873  -2.624   0.362  0.00  0.00    -0.040 C 
BRANCH  15  16
ATOM     16  C   UNL d   1       1.675  -2.512   1.656  0.00  0.00     0.123 C 
BRANCH  16  17
ATOM     17  C   UNL d   1       0.934  -2.212   2.974  0.00  0.00     0.163 C 
ATOM     18  O   UNL d   1       0.189  -3.003   3.547  0.00  0.00    -0.292 OA
BRANCH  17  19
ATOM     19  C   UNL d   1       1.246  -0.949   3.680  0.00  0.00     0.010 A 
ATOM     20  C   UNL d   1       1.145   0.273   3.026  0.00  0.00     0.015 A 
ATOM     21  C   UNL d   1       1.531   1.447   3.675  0.00  0.00     0.007 A 
ATOM     22  C   UNL d   1       1.980   1.411   4.999  0.00  0.00    -0.062 A 
ATOM     23  C   UNL d   1       2.013   0.185   5.675  0.00  0.00     0.007 A 
ATOM     24  C   UNL d   1       2.481   2.665   5.653  0.00  0.00     0.048 C 
ATOM     25  C   UNL d   1       1.641  -0.993   5.020  0.00  0.00     0.015 A 
ENDBRANCH  17  19
ENDBRANCH  16  17
ENDBRANCH  15  16
BRANCH  15  26
ATOM     26  C   UNL d   1       0.160  -3.934   0.083  0.00  0.00    -0.029 A 
ATOM     27  C   UNL d   1      -0.276  -4.312  -1.207  0.00  0.00     0.012 A 
ATOM     28  C   UNL d   1      -0.990  -5.498  -1.441  0.00  0.00     0.001 A 
ATOM     29  C   UNL d   1      -1.276  -6.359  -0.392  0.00  0.00     0.000 A 
ATOM     30  C   UNL d   1      -0.827  -6.043   0.880  0.00  0.00     0.001 A 
ATOM     31  C   UNL d   1      -0.111  -4.859   1.104  0.00  0.00     0.012 A 
ENDBRANCH  15  26
ENDBRANCH   1  14
BRANCH   1  32
ATOM     32  C   UNL d   1       2.780  -0.024  -0.253  0.00  0.00    -0.024 C 
ATOM     33  C   UNL d   1       3.214   1.007   0.591  0.00  0.00     0.013 C 
ATOM     34  C   UNL d   1       4.497   0.994   1.148  0.00  0.00     0.007 C 
ATOM     35  C   UNL d   1       5.382  -0.048   0.867  0.00  0.00    -0.062 C 
ATOM     36  C   UNL d   1       5.012  -1.007  -0.078  0.00  0.00     0.007 C 
ATOM     37  C   UNL d   1       6.683  -0.144   1.605  0.00  0.00     0.048 C 
ATOM     38  C   UNL d   1       3.732  -0.984  -0.643  0.00  0.00     0.013 C 
ENDBRANCH   1  32
TORSDOF 8
