REMARK  4 active torsions:
REMARK  status: ('A' for Active; 'I' for Inactive)
REMARK    1  A    between atoms: C_7  and  C_1 
REMARK    2  A    between atoms: C_9  and  C_6 
REMARK    3  A    between atoms: S_8  and  C_7 
REMARK    4  A    between atoms: C_11  and  S_8 
ROOT
ATOM      1  C   UNL d   1       0.194  -1.147   0.251  0.00  0.00     0.109 C 
ATOM      2  N   UNL d   1      -0.632  -0.088  -0.056  0.00  0.00    -0.292 N 
ATOM      3  C   UNL d   1       1.433  -0.548   0.452  0.00  0.00     0.063 C 
ATOM      4  N   UNL d   1       0.022   1.079  -0.217  0.00  0.00    -0.302 N 
ATOM      5  HN  UNL d   1      -0.368   1.970  -0.525  1.00  0.00     0.186 HD
ATOM      6  C   UNL d   1       1.288   0.821   0.114  0.00  0.00     0.036 C 
ATOM      7  C   UNL d   1      -2.068  -0.046  -0.218  0.00  0.00     0.178 C 
ENDROOT
BRANCH   1   8
ATOM      8  C   UNL d   1      -0.212  -2.541   0.335  0.00  0.00     0.241 C 
ATOM      9  O   UNL d   1      -1.372  -2.920   0.350  0.00  0.00    -0.278 OA
BRANCH   8  10
ATOM     10  S   UNL d   1       1.151  -3.667   0.326  0.00  0.00    -0.046 SA
BRANCH  10  11
ATOM     11  C   UNL d   1       0.532  -5.290   0.733  0.00  0.00     0.008 A 
ATOM     12  C   UNL d   1      -0.619  -5.539   1.487  0.00  0.00     0.019 A 
ATOM     13  C   UNL d   1      -0.995  -6.848   1.810  0.00  0.00     0.001 A 
ATOM     14  C   UNL d   1      -0.211  -7.926   1.408  0.00  0.00     0.000 A 
ATOM     15  C   UNL d   1       0.949  -7.696   0.676  0.00  0.00     0.001 A 
ATOM     16  C   UNL d   1       1.314  -6.388   0.339  0.00  0.00     0.019 A 
ENDBRANCH  10  11
ENDBRANCH   8  10
ENDBRANCH   1   8
BRANCH   6  17
ATOM     17  C   UNL d   1       2.353   1.904   0.041  0.00  0.00    -0.007 C 
ATOM     18  C   UNL d   1       3.086   1.815  -1.314  0.00  0.00     0.021 C 
ATOM     19  C   UNL d   1       1.739   3.316   0.169  0.00  0.00     0.021 C 
ATOM     20  C   UNL d   1       3.391   1.743   1.170  0.00  0.00     0.021 C 
ENDBRANCH   6  17
TORSDOF 4
