REMARK  10 active torsions:
REMARK  status: ('A' for Active; 'I' for Inactive)
REMARK    1  A    between atoms: C_4  and  C_1 
REMARK    2  A    between atoms: C_5  and  C_1 
REMARK    3  A    between atoms: N_6  and  C_2 
REMARK    4  A    between atoms: C_3  and  O_7 
REMARK    5  A    between atoms: O_16  and  C_4 
REMARK    6  A    between atoms: O_15  and  C_5 
REMARK    7  A    between atoms: C_13  and  N_6 
REMARK    8  A    between atoms: O_7  and  C_14 
REMARK    9  A    between atoms: C_21  and  O_15 
REMARK   10  A    between atoms: C_22  and  O_16 
ROOT
ATOM      1  N   UNL d   1       0.959   2.393  -0.561  0.00  0.00    -0.365 N 
ATOM      2  H   UNL d   1       1.945   2.350  -0.835  0.00  0.00     0.165 HD
ENDROOT
BRANCH   1   3
ATOM      3  C   UNL d   1       0.407   1.183  -0.206  0.00  0.00     0.112 C 
ATOM      4  C   UNL d   1       1.032   0.002  -0.012  0.00  0.00     0.129 C 
BRANCH   4   5
ATOM      5  C   UNL d   1       0.249  -1.240   0.182  0.00  0.00     0.300 C 
ATOM      6  O   UNL d   1       0.671  -2.357  -0.081  0.00  0.00    -0.259 OA
BRANCH   5   7
ATOM      7  O   UNL d   1      -1.022  -0.970   0.584  0.00  0.00    -0.318 OA
BRANCH   7   8
ATOM      8  C   UNL d   1      -1.940  -2.071   0.498  0.00  0.00     0.174 C 
ATOM      9  C   UNL d   1      -2.459  -2.181  -0.926  0.00  0.00     0.034 C 
ENDBRANCH   7   8
ENDBRANCH   5   7
ENDBRANCH   4   5
BRANCH   4  10
ATOM     10  C   UNL d   1       2.504  -0.058  -0.163  0.00  0.00     0.300 C 
ATOM     11  O   UNL d   1       3.158   0.742  -0.822  0.00  0.00    -0.259 OA
BRANCH  10  12
ATOM     12  O   UNL d   1       3.011  -1.101   0.538  0.00  0.00    -0.318 OA
BRANCH  12  13
ATOM     13  C   UNL d   1       4.383  -1.429   0.275  0.00  0.00     0.174 C 
ATOM     14  C   UNL d   1       4.445  -2.372  -0.914  0.00  0.00     0.034 C 
ENDBRANCH  12  13
ENDBRANCH  10  12
ENDBRANCH   4  10
ENDBRANCH   1   3
BRANCH   1  15
ATOM     15  C   UNL d   1       0.293   3.581  -0.904  0.00  0.00     0.032 A 
ATOM     16  C   UNL d   1      -0.971   3.927  -0.416  0.00  0.00     0.032 A 
ATOM     17  C   UNL d   1      -1.592   5.128  -0.789  0.00  0.00     0.039 A 
ATOM     18  C   UNL d   1      -0.955   6.001  -1.668  0.00  0.00     0.078 A 
ATOM     19  C   UNL d   1       0.279   5.638  -2.204  0.00  0.00     0.039 A 
ATOM     20  C   UNL d   1       0.903   4.450  -1.817  0.00  0.00     0.032 A 
BRANCH  18  21
ATOM     21  O   UNL d   1      -1.426   7.210  -2.092  0.00  0.00    -0.255 OA
BRANCH  21  22
ATOM     22  C   UNL d   1      -2.420   7.831  -1.296  0.00  0.00     0.530 C 
ATOM     23  F   UNL d   1      -2.100   7.809   0.016  0.00  0.00    -0.144 F 
ATOM     24  F   UNL d   1      -2.529   9.124  -1.675  0.00  0.00    -0.144 F 
ATOM     25  F   UNL d   1      -3.618   7.236  -1.477  0.00  0.00    -0.144 F 
ENDBRANCH  21  22
ENDBRANCH  18  21
ENDBRANCH   1  15
TORSDOF 10
