REMARK  5 active torsions:
REMARK  status: ('A' for Active; 'I' for Inactive)
REMARK    1  A    between atoms: C_8  and  N_1 
REMARK    2  A    between atoms: C_7  and  C_2 
REMARK    3  A    between atoms: N_12  and  C_9 
REMARK    4  A    between atoms: C_18  and  N_12 
REMARK    5  A    between atoms: C_17  and  C_18 
ROOT
ATOM      1  N   UNL d   1       0.484  -0.132  -0.998  0.00  0.00    -0.225 N 
ATOM      2  C   UNL d   1       1.132  -0.678   0.112  0.00  0.00     0.139 A 
ATOM      3  N   UNL d   1      -0.809   0.033   0.713  0.00  0.00    -0.007 NA
ATOM      4  N   UNL d   1      -0.755   0.253  -0.589  0.00  0.00     0.001 NA
ATOM      5  N   UNL d   1       0.342  -0.551   1.163  0.00  0.00    -0.270 N 
ATOM      6  HN  UNL d   1       0.550  -0.832   2.121  1.00  0.00     0.185 HD
ENDROOT
BRANCH   2   7
ATOM      7  C   UNL d   1       2.409  -1.283   0.048  0.00  0.00     0.062 C 
ATOM      8  C   UNL d   1       2.545  -2.594  -0.169  0.00  0.00     0.061 C 
BRANCH   8   9
ATOM      9  N   UNL d   1       3.733  -3.301  -0.222  0.00  0.00    -0.298 NA
ATOM     10  H   UNL d   1       4.515  -2.706  -0.495  0.00  0.00     0.127 HD
BRANCH   9  11
ATOM     11  C   UNL d   1       4.149  -4.060   0.963  0.00  0.00     0.130 C 
BRANCH  11  12
ATOM     12  C   UNL d   1       5.069  -5.191   0.586  0.00  0.00    -0.045 A 
ATOM     13  C   UNL d   1       6.378  -5.258   1.084  0.00  0.00     0.008 A 
ATOM     14  C   UNL d   1       7.191  -6.357   0.796  0.00  0.00     0.001 A 
ATOM     15  C   UNL d   1       6.705  -7.399   0.008  0.00  0.00     0.000 A 
ATOM     16  C   UNL d   1       5.410  -7.338  -0.502  0.00  0.00     0.001 A 
ATOM     17  C   UNL d   1       4.597  -6.241  -0.217  0.00  0.00     0.008 A 
ENDBRANCH  11  12
ENDBRANCH   9  11
ENDBRANCH   8   9
ENDBRANCH   2   7
BRANCH   1  18
ATOM     18  C   UNL d   1       0.892   0.093  -2.344  0.00  0.00     0.056 A 
ATOM     19  C   UNL d   1      -0.090   0.387  -3.307  0.00  0.00     0.032 A 
ATOM     20  C   UNL d   1       0.268   0.640  -4.636  0.00  0.00     0.021 A 
ATOM     21  C   UNL d   1       1.609   0.622  -5.004  0.00  0.00     0.011 A 
ATOM     22  C   UNL d   1       2.592   0.337  -4.062  0.00  0.00     0.021 A 
ATOM     23 BR   UNL d   1       2.101   1.004  -6.788  0.00  0.00    -0.051 Br
ATOM     24  C   UNL d   1       2.238   0.069  -2.734  0.00  0.00     0.032 A 
ENDBRANCH   1  18
TORSDOF 5
