REMARK  6 active torsions:
REMARK  status: ('A' for Active; 'I' for Inactive)
REMARK    1  A    between atoms: C_12  and  C_2 
REMARK    2  A    between atoms: S_13  and  C_5 
REMARK    3  A    between atoms: C_8  and  C_9 
REMARK    4  A    between atoms: C_19  and  S_13 
REMARK    5  A    between atoms: C_14  and  C_19 
REMARK    6  A    between atoms: C_16  and  C_14 
ROOT
ATOM      1  S   UNL d   1       1.159  -0.006   0.194  0.00  0.00    -0.043 SA
ATOM      2  C   UNL d   1      -0.066   1.192  -0.005  0.00  0.00     0.118 A 
ATOM      3  N   UNL d   1      -1.287   0.684  -0.054  0.00  0.00    -0.291 N 
ATOM      4  HN  UNL d   1      -2.128   1.245  -0.186  1.00  0.00     0.187 HD
ATOM      5  C   UNL d   1      -0.086  -1.177   0.247  0.00  0.00     0.129 A 
ATOM      6  N   UNL d   1      -1.297  -0.692   0.093  0.00  0.00    -0.287 N 
ATOM      7  HN  UNL d   1      -2.144  -1.262   0.083  1.00  0.00     0.188 HD
ENDROOT
BRANCH   2   8
ATOM      8  C   UNL d   1       0.266   2.624  -0.087  0.00  0.00     0.067 A 
ATOM      9  N   UNL d   1       1.583   2.956  -0.039  0.00  0.00    -0.363 N 
ATOM     10  C   UNL d   1       1.910   4.269  -0.096  0.00  0.00     0.104 A 
ATOM     11  HN  UNL d   1       2.303   2.238   0.038  1.00  0.00     0.165 HD
ATOM     12  C   UNL d   1       0.985   5.295  -0.201  0.00  0.00     0.063 A 
ATOM     13  C   UNL d   1      -0.366   4.937  -0.250  0.00  0.00     0.020 A 
ATOM     14  C   UNL d   1      -0.731   3.590  -0.194  0.00  0.00     0.033 A 
BRANCH  12  15
ATOM     15  C   UNL d   1       1.429   6.724  -0.263  0.00  0.00     0.418 C 
ATOM     16  F   UNL d   1       2.781   6.878  -0.190  0.00  0.00    -0.166 F 
ATOM     17  F   UNL d   1       1.047   7.338  -1.415  0.00  0.00    -0.166 F 
ATOM     18  F   UNL d   1       0.914   7.474   0.749  0.00  0.00    -0.166 F 
ENDBRANCH  12  15
ENDBRANCH   2   8
BRANCH   5  19
ATOM     19  S   UNL d   1       0.245  -2.870   0.504  0.00  0.00    -0.096 SA
BRANCH  19  20
ATOM     20  C   UNL d   1      -1.426  -3.584   0.442  0.00  0.00     0.165 C 
BRANCH  20  21
ATOM     21  C   UNL d   1      -1.392  -5.081   0.726  0.00  0.00     0.169 C 
ATOM     22  O   UNL d   1      -0.357  -5.718   0.907  0.00  0.00    -0.291 OA
BRANCH  21  23
ATOM     23  C   UNL d   1      -2.689  -5.828   0.800  0.00  0.00     0.013 A 
ATOM     24  C   UNL d   1      -3.926  -5.221   0.572  0.00  0.00     0.057 A 
ATOM     25  C   UNL d   1      -5.091  -5.977   0.699  0.00  0.00     0.117 A 
ATOM     26  F   UNL d   1      -6.277  -5.389   0.492  0.00  0.00    -0.206 F 
ATOM     27  C   UNL d   1      -5.052  -7.324   1.043  0.00  0.00     0.042 A 
ATOM     28  C   UNL d   1      -3.822  -7.940   1.254  0.00  0.00     0.004 A 
ATOM     29  C   UNL d   1      -2.647  -7.195   1.131  0.00  0.00     0.015 A 
ENDBRANCH  21  23
ENDBRANCH  20  21
ENDBRANCH  19  20
ENDBRANCH   5  19
TORSDOF 6
