REMARK  5 active torsions:
REMARK  status: ('A' for Active; 'I' for Inactive)
REMARK    1  A    between atoms: C_2  and  S_1 
REMARK    2  A    between atoms: N_5  and  S_1 
REMARK    3  A    between atoms: N_4  and  C_3 
REMARK    4  A    between atoms: C_6  and  N_5 
REMARK    5  A    between atoms: O_14  and  C_11 
ROOT
ATOM      1  S   UNL d   1       0.362  -0.035  -0.101  0.00  0.00     0.265 S 
ATOM      2  O   UNL d   1      -0.359   0.934  -0.893  0.00  0.00    -0.200 OA
ATOM      3  O   UNL d   1       1.717  -0.398  -0.472  0.00  0.00    -0.200 OA
ENDROOT
BRANCH   1   4
ATOM      4  C   UNL d   1      -0.595  -1.527  -0.167  0.00  0.00     0.112 A 
ATOM      5  C   UNL d   1      -1.990  -1.575  -0.005  0.00  0.00     0.126 A 
ATOM      6  C   UNL d   1      -2.682  -2.770  -0.300  0.00  0.00     0.038 A 
ATOM      7  C   UNL d   1      -2.006  -3.886  -0.795  0.00  0.00     0.003 A 
ATOM      8  C   UNL d   1      -0.630  -3.831  -0.982  0.00  0.00     0.002 A 
ATOM      9  C   UNL d   1       0.068  -2.667  -0.662  0.00  0.00     0.028 A 
BRANCH   5  10
ATOM     10  N   UNL d   1      -2.800  -0.441   0.458  0.00  0.00    -0.114 N 
ATOM     11  O   UNL d   1      -2.260   0.437   1.142  0.00  0.00    -0.532 OA
ATOM     12  O   UNL d   1      -4.015  -0.473   0.214  0.00  0.00    -0.532 OA
ENDBRANCH   5  10
ENDBRANCH   1   4
BRANCH   1  13
ATOM     13  N   UNL d   1       0.379   0.532   1.484  0.00  0.00    -0.278 N 
ATOM     14  H   UNL d   1      -0.451   1.117   1.643  0.00  0.00     0.179 HD
BRANCH  13  15
ATOM     15  C   UNL d   1       0.783  -0.249   2.614  0.00  0.00     0.075 A 
ATOM     16  C   UNL d   1       2.093  -0.336   3.111  0.00  0.00     0.095 A 
ATOM     17  C   UNL d   1       2.313  -1.033   4.316  0.00  0.00     0.039 A 
ATOM     18  C   UNL d   1       1.271  -1.622   5.030  0.00  0.00     0.003 A 
ATOM     19  C   UNL d   1      -0.019  -1.547   4.533  0.00  0.00     0.002 A 
ATOM     20  C   UNL d   1      -0.255  -0.870   3.336  0.00  0.00     0.033 A 
BRANCH  16  21
ATOM     21  O   UNL d   1       3.259   0.191   2.637  0.00  0.00    -0.354 OA
ATOM     22  C   UNL d   1       3.238   1.272   1.724  0.00  0.00     0.210 C 
ENDBRANCH  16  21
ENDBRANCH  13  15
ENDBRANCH   1  13
TORSDOF 5
