REMARK  6 active torsions:
REMARK  status: ('A' for Active; 'I' for Inactive)
REMARK    1  A    between atoms: C_2  and  C_1 
REMARK    2  A    between atoms: C_13  and  C_5 
REMARK    3  A    between atoms: C_12  and  N_6 
REMARK    4  A    between atoms: C_15  and  N_7 
REMARK    5  A    between atoms: C_21  and  C_15 
REMARK    6  A    between atoms: O_16  and  C_21 
ROOT
ATOM      1  C   UNL d   1      -0.389   1.164   0.196  0.00  0.00     0.021 C 
ATOM      2  N   UNL d   1       0.943  -0.665   0.541  0.00  0.00    -0.293 N 
ATOM      3  HN  UNL d   1       1.744  -1.265   0.737  1.00  0.00     0.187 HD
ATOM      4  C   UNL d   1       0.950   0.662   0.356  0.00  0.00     0.069 C 
ATOM      5  N   UNL d   1      -0.352  -1.042   0.415  0.00  0.00    -0.267 N 
ATOM      6  C   UNL d   1      -1.187   0.048   0.368  0.00  0.00     0.129 C 
ENDROOT
BRANCH   1   7
ATOM      7  C   UNL d   1      -0.780   2.561  -0.133  0.00  0.00     0.187 C 
ATOM      8  N   UNL d   1      -1.970   2.749  -0.940  0.00  0.00    -0.332 N 
ATOM      9  C   UNL d   1      -2.471   4.053  -0.855  0.00  0.00     0.230 C 
ATOM     10  O   UNL d   1      -3.228   4.560  -1.678  0.00  0.00    -0.273 OA
ATOM     11  C   UNL d   1      -1.946   4.796   0.359  0.00  0.00     0.179 C 
ATOM     12  S   UNL d   1      -1.138   3.537   1.356  0.00  0.00    -0.129 SA
BRANCH   8  13
ATOM     13  C   UNL d   1      -2.229   1.972  -2.153  0.00  0.00     0.153 C 
BRANCH  13  14
ATOM     14  C   UNL d   1      -1.271   2.266  -3.308  0.00  0.00     0.184 C 
BRANCH  14  15
ATOM     15  O   UNL d   1       0.041   1.823  -2.978  0.00  0.00    -0.399 OA
ATOM     16  H   UNL d   1       0.583   1.901  -3.784  0.00  0.00     0.209 HD
ENDBRANCH  14  15
ENDBRANCH  13  14
ENDBRANCH   8  13
ENDBRANCH   1   7
BRANCH   4  17
ATOM     17  C   UNL d   1       2.222   1.408   0.249  0.00  0.00    -0.007 A 
ATOM     18  C   UNL d   1       3.347   0.802  -0.327  0.00  0.00     0.014 A 
ATOM     19  C   UNL d   1       4.501   1.546  -0.596  0.00  0.00     0.001 A 
ATOM     20  C   UNL d   1       4.548   2.907  -0.297  0.00  0.00     0.000 A 
ATOM     21  C   UNL d   1       3.467   3.507   0.336  0.00  0.00     0.001 A 
ATOM     22  C   UNL d   1       2.334   2.750   0.640  0.00  0.00     0.014 A 
ENDBRANCH   4  17
BRANCH   5  23
ATOM     23  C   UNL d   1      -0.706  -2.417   0.273  0.00  0.00     0.056 A 
ATOM     24  C   UNL d   1      -2.017  -2.798  -0.054  0.00  0.00     0.031 A 
ATOM     25  C   UNL d   1      -2.328  -4.146  -0.260  0.00  0.00     0.002 A 
ATOM     26  C   UNL d   1      -1.341  -5.121  -0.131  0.00  0.00     0.000 A 
ATOM     27  C   UNL d   1      -0.040  -4.752   0.202  0.00  0.00     0.002 A 
ATOM     28  C   UNL d   1       0.281  -3.406   0.399  0.00  0.00     0.031 A 
ENDBRANCH   5  23
TORSDOF 6
