REMARK  4 active torsions:
REMARK  status: ('A' for Active; 'I' for Inactive)
REMARK    1  A    between atoms: C_3  and  C_1 
REMARK       I    between atoms: N_4  and  C_1 
REMARK    2  A    between atoms: C_2  and  C_5 
REMARK    3  A    between atoms: C_8  and  N_4 
REMARK    4  A    between atoms: O_14  and  C_7 
ROOT
ATOM      1  C   UNL d   1       0.950   0.622  -0.232  0.00  0.00     0.259 C 
ATOM      2  N   UNL d   1       0.445   0.325   1.025  0.00  0.00    -0.323 N 
ATOM      3  O   UNL d   1       1.831   1.425  -0.499  0.00  0.00    -0.267 OA
ATOM      4  H   UNL d   1      -0.291  -0.369   1.073  0.00  0.00     0.169 HD
ENDROOT
BRANCH   2   5
ATOM      5  C   UNL d   1       0.883   0.847   2.262  0.00  0.00     0.035 A 
ATOM      6  C   UNL d   1       1.939   1.752   2.391  0.00  0.00     0.045 A 
ATOM      7  C   UNL d   1       2.364   2.195   3.656  0.00  0.00     0.050 A 
ATOM      8  C   UNL d   1       1.701   1.729   4.799  0.00  0.00     0.016 A 
ATOM      9  C   UNL d   1       0.632   0.843   4.680  0.00  0.00     0.003 A 
ATOM     10  C   UNL d   1       0.227   0.404   3.417  0.00  0.00     0.029 A 
BRANCH   7  11
ATOM     11  C   UNL d   1       3.538   3.133   3.791  0.00  0.00     0.417 C 
ATOM     12  F   UNL d   1       4.014   3.604   2.606  0.00  0.00    -0.166 F 
ATOM     13  F   UNL d   1       3.242   4.234   4.537  0.00  0.00    -0.166 F 
ATOM     14  F   UNL d   1       4.599   2.541   4.409  0.00  0.00    -0.166 F 
ENDBRANCH   7  11
ENDBRANCH   2   5
BRANCH   1  15
ATOM     15  C   UNL d   1       0.321  -0.141  -1.339  0.00  0.00     0.065 A 
ATOM     16  C   UNL d   1       1.073  -0.806  -2.319  0.00  0.00     0.084 A 
ATOM     17  C   UNL d   1       0.411  -1.406  -3.396  0.00  0.00     0.038 A 
ATOM     18  C   UNL d   1      -0.981  -1.371  -3.491  0.00  0.00     0.003 A 
ATOM     19  C   UNL d   1      -1.728  -0.718  -2.514  0.00  0.00     0.001 A 
ATOM     20  C   UNL d   1      -1.082  -0.100  -1.444  0.00  0.00     0.020 A 
BRANCH  16  21
ATOM     21  O   UNL d   1       2.438  -0.870  -2.390  0.00  0.00    -0.355 OA
ATOM     22  C   UNL d   1       3.074  -1.409  -1.235  0.00  0.00     0.210 C 
ENDBRANCH  16  21
ENDBRANCH   1  15
TORSDOF 4
