REMARK  6 active torsions:
REMARK  status: ('A' for Active; 'I' for Inactive)
REMARK    1  A    between atoms: C_2  and  C_1 
REMARK       I    between atoms: C_3  and  N_6 
REMARK       I    between atoms: N_10  and  C_3 
REMARK    2  A    between atoms: N_6  and  C_11 
REMARK    3  A    between atoms: C_16  and  C_7 
REMARK    4  A    between atoms: C_17  and  N_10 
REMARK    5  A    between atoms: S_13  and  C_16 
REMARK    6  A    between atoms: C_14  and  S_13 
ROOT
ATOM      1  C   UNL d   1      -2.120  -4.420   7.206  0.00  0.00     0.053 A 
ATOM      2  C   UNL d   1      -1.881  -4.960   5.923  0.00  0.00     0.027 A 
ATOM      3  C   UNL d   1      -1.859  -5.226   8.342  0.00  0.00     0.031 A 
ATOM      4  C   UNL d   1      -1.345  -6.270   5.853  0.00  0.00     0.021 A 
ATOM      5  C   UNL d   1      -1.370  -6.527   8.237  0.00  0.00     0.002 A 
ATOM      6  C   UNL d   1      -1.089  -7.043   6.987  0.00  0.00     0.002 A 
ENDROOT
BRANCH   2   7
ATOM      7  S   UNL d   1      -2.265  -4.339   4.285  0.00  0.00    -0.122 SA
BRANCH   7   8
ATOM      8  C   UNL d   1      -1.408  -2.735   4.137  0.00  0.00     0.138 C 
BRANCH   8   9
ATOM      9  C   UNL d   1      -1.442  -2.170   2.723  0.00  0.00     0.040 A 
ATOM     10  N   UNL d   1      -0.219  -1.914   2.163  0.00  0.00    -0.366 N 
ATOM     11  C   UNL d   1      -0.175  -1.359   0.923  0.00  0.00     0.104 A 
ATOM     12  HN  UNL d   1       0.641  -2.135   2.666  1.00  0.00     0.165 HD
ATOM     13  C   UNL d   1      -1.297  -1.045   0.176  0.00  0.00     0.064 A 
ATOM     14  C   UNL d   1      -2.540  -1.313   0.749  0.00  0.00     0.043 A 
ATOM     15  C   UNL d   1      -2.623  -1.858   2.035  0.00  0.00     0.058 A 
ATOM     16 CL   UNL d   1      -4.208  -2.049   2.684  0.00  0.00    -0.082 Cl
BRANCH  13  17
ATOM     17  C   UNL d   1      -1.156  -0.402  -1.168  0.00  0.00     0.418 C 
ATOM     18  F   UNL d   1      -2.336  -0.274  -1.836  0.00  0.00    -0.166 F 
ATOM     19  F   UNL d   1      -0.331  -1.093  -2.002  0.00  0.00    -0.166 F 
ATOM     20  F   UNL d   1      -0.638   0.855  -1.088  0.00  0.00    -0.166 F 
ENDBRANCH  13  17
ENDBRANCH   8   9
ENDBRANCH   7   8
ENDBRANCH   2   7
BRANCH   1  21
ATOM     21  N   UNL d   1      -2.536  -3.117   7.559  0.00  0.00    -0.307 N 
ATOM     22  C   UNL d   1      -3.320  -2.215   6.872  0.00  0.00     0.325 C 
ATOM     23  N   UNL d   1      -3.098  -0.946   7.393  0.00  0.00    -0.309 N 
ATOM     24  O   UNL d   1      -4.079  -2.495   5.963  0.00  0.00    -0.247 OA
ATOM     25  H   UNL d   1      -2.285  -0.870   7.986  0.00  0.00     0.170 HD
ATOM     26  H   UNL d   1      -2.531  -2.918   8.549  0.00  0.00     0.170 HD
BRANCH  23  27
ATOM     27  C   UNL d   1      -3.673   0.268   6.970  0.00  0.00     0.037 A 
ATOM     28  C   UNL d   1      -3.082   1.451   7.433  0.00  0.00     0.053 A 
ATOM     29  C   UNL d   1      -3.572   2.689   7.018  0.00  0.00     0.036 A 
ATOM     30 CL   UNL d   1      -2.812   4.133   7.564  0.00  0.00    -0.084 Cl
ATOM     31  C   UNL d   1      -4.663   2.765   6.157  0.00  0.00     0.024 A 
ATOM     32  C   UNL d   1      -5.272   1.591   5.717  0.00  0.00     0.004 A 
ATOM     33  C   UNL d   1      -4.779   0.347   6.123  0.00  0.00     0.029 A 
ENDBRANCH  23  27
ENDBRANCH   1  21
TORSDOF 6
