REMARK  7 active torsions:
REMARK  status: ('A' for Active; 'I' for Inactive)
REMARK    1  A    between atoms: C_2  and  S_1 
REMARK    2  A    between atoms: N_3  and  S_1 
REMARK    3  A    between atoms: S_6  and  N_3 
REMARK    4  A    between atoms: C_10  and  C_5 
REMARK    5  A    between atoms: C_13  and  S_6 
REMARK    6  A    between atoms: O_16  and  C_7 
REMARK    7  A    between atoms: O_20  and  C_10 
ROOT
ATOM      1  S   UNL d   1       1.203   0.123  -0.026  0.00  0.00     0.278 S 
ATOM      2  O   UNL d   1       2.574  -0.028  -0.467  0.00  0.00    -0.199 OA
ATOM      3  O   UNL d   1       0.854   0.217   1.377  0.00  0.00    -0.199 OA
ENDROOT
BRANCH   1   4
ATOM      4  C   UNL d   1       0.437  -1.418  -0.525  0.00  0.00     0.155 A 
ATOM      5  C   UNL d   1       0.744  -2.757  -0.324  0.00  0.00     0.115 A 
ATOM      6  C   UNL d   1      -0.155  -3.649  -1.016  0.00  0.00     0.081 A 
ATOM      7  C   UNL d   1      -1.131  -2.927  -1.683  0.00  0.00     0.071 A 
ATOM      8  S   UNL d   1      -0.990  -1.248  -1.461  0.00  0.00    -0.085 SA
BRANCH   5   9
ATOM      9  O   UNL d   1       1.841  -3.213   0.335  0.00  0.00    -0.353 OA
ATOM     10  C   UNL d   1       1.993  -2.710   1.659  0.00  0.00     0.210 C 
ENDBRANCH   5   9
BRANCH   6  11
ATOM     11  C   UNL d   1      -0.137  -5.109  -1.085  0.00  0.00     0.296 C 
ATOM     12  O   UNL d   1      -0.878  -5.740  -1.834  0.00  0.00    -0.259 OA
BRANCH  11  13
ATOM     13  O   UNL d   1       0.742  -5.695  -0.223  0.00  0.00    -0.322 OA
ATOM     14  C   UNL d   1       0.737  -7.123  -0.270  0.00  0.00     0.213 C 
ENDBRANCH  11  13
ENDBRANCH   6  11
ENDBRANCH   1   4
BRANCH   1  15
ATOM     15  N   UNL d   1       0.454   1.368  -0.885  0.00  0.00    -0.235 N 
ATOM     16  HN  UNL d   1      -0.184   1.131  -1.645  1.00  0.00     0.189 HD
BRANCH  15  17
ATOM     17  S   UNL d   1       0.724   2.965  -0.532  0.00  0.00     0.061 S 
ATOM     18  O   UNL d   1       2.123   3.311  -0.482  0.00  0.00    -0.244 OA
ATOM     19  C   UNL d   1      -0.086   3.841  -1.834  0.00  0.00     0.143 C 
BRANCH  17  20
ATOM     20  C   UNL d   1      -0.089   3.315   0.972  0.00  0.00     0.038 A 
ATOM     21  C   UNL d   1       0.642   3.849   2.033  0.00  0.00     0.022 A 
ATOM     22  C   UNL d   1       0.015   4.070   3.260  0.00  0.00     0.008 A 
ATOM     23  C   UNL d   1      -1.337   3.747   3.435  0.00  0.00    -0.062 A 
ATOM     24  C   UNL d   1      -2.069   3.256   2.347  0.00  0.00     0.008 A 
ATOM     25  C   UNL d   1      -1.990   3.951   4.771  0.00  0.00     0.048 C 
ATOM     26  C   UNL d   1      -1.448   3.034   1.115  0.00  0.00     0.022 A 
ENDBRANCH  17  20
ENDBRANCH  15  17
ENDBRANCH   1  15
TORSDOF 7
