REMARK  6 active torsions:
REMARK  status: ('A' for Active; 'I' for Inactive)
REMARK    1  A    between atoms: C_2  and  S_1 
REMARK    2  A    between atoms: C_9  and  S_1 
REMARK    3  A    between atoms: C_20  and  C_10 
REMARK    4  A    between atoms: C_13  and  C_14 
REMARK    5  A    between atoms: O_19  and  C_20 
REMARK    6  A    between atoms: C_21  and  O_19 
ROOT
ATOM      1  C   UNL d   1       0.441  -0.573   1.536  0.00  0.00     0.101 A 
ATOM      2  C   UNL d   1      -0.824  -1.063   1.785  0.00  0.00     0.030 A 
ATOM      3  N   UNL d   1      -1.221  -1.351   3.052  0.00  0.00    -0.346 N 
ATOM      4  HN  UNL d   1      -2.160  -1.702   3.236  1.00  0.00     0.167 HD
ATOM      5  C   UNL d   1       1.275  -0.414   2.622  0.00  0.00     0.115 A 
ATOM      6  N   UNL d   1       0.908  -0.697   3.890  0.00  0.00    -0.352 N 
ATOM      7  HN  UNL d   1       1.546  -0.567   4.675  1.00  0.00     0.166 HD
ATOM      8  C   UNL d   1      -0.344  -1.161   4.063  0.00  0.00     0.106 A 
ATOM      9  C   UNL d   1      -1.877  -1.321   0.752  0.00  0.00     0.070 C 
ENDROOT
BRANCH   8  10
ATOM     10  C   UNL d   1      -0.796  -1.522   5.462  0.00  0.00     0.252 C 
BRANCH  10  11
ATOM     11  O   UNL d   1      -1.346  -0.371   6.112  0.00  0.00    -0.344 OA
BRANCH  11  12
ATOM     12  C   UNL d   1      -1.766  -0.564   7.399  0.00  0.00     0.069 A 
ATOM     13  C   UNL d   1      -1.773   0.571   8.207  0.00  0.00     0.037 A 
ATOM     14  C   UNL d   1      -2.204   0.500   9.537  0.00  0.00     0.011 A 
ATOM     15  C   UNL d   1      -2.660  -0.708  10.096  0.00  0.00    -0.050 A 
ATOM     16  C   UNL d   1      -2.653  -1.837   9.260  0.00  0.00     0.011 A 
ATOM     17  C   UNL d   1      -2.215  -1.768   7.930  0.00  0.00     0.037 A 
BRANCH  15  18
ATOM     18  C   UNL d   1      -3.138  -0.764  11.558  0.00  0.00    -0.024 C 
ATOM     19  C   UNL d   1      -3.637  -2.166  11.979  0.00  0.00     0.019 C 
ATOM     20  C   UNL d   1      -1.979  -0.377  12.501  0.00  0.00     0.019 C 
ATOM     21  C   UNL d   1      -4.308   0.218  11.787  0.00  0.00     0.019 C 
ENDBRANCH  15  18
ENDBRANCH  11  12
ENDBRANCH  10  11
ENDBRANCH   8  10
BRANCH   1  22
ATOM     22  S   UNL d   1       1.028  -0.140  -0.056  0.00  0.00     0.210 S 
ATOM     23  O   UNL d   1       0.873  -1.323  -0.883  0.00  0.00    -0.217 OA
ATOM     24  O   UNL d   1       2.332   0.481   0.108  0.00  0.00    -0.217 OA
BRANCH  22  25
ATOM     25  C   UNL d   1      -0.006   1.137  -0.741  0.00  0.00     0.064 A 
ATOM     26  C   UNL d   1      -0.611   2.080   0.096  0.00  0.00     0.025 A 
ATOM     27  C   UNL d   1      -1.445   3.052  -0.461  0.00  0.00     0.025 A 
ATOM     28  C   UNL d   1      -1.662   3.081  -1.839  0.00  0.00     0.034 A 
ATOM     29  C   UNL d   1      -1.057   2.139  -2.672  0.00  0.00     0.025 A 
ATOM     30 CL   UNL d   1      -2.684   4.288  -2.516  0.00  0.00    -0.084 Cl
ATOM     31  C   UNL d   1      -0.228   1.158  -2.123  0.00  0.00     0.025 A 
ENDBRANCH  22  25
ENDBRANCH   1  22
TORSDOF 6
