REMARK  2 active torsions:
REMARK  status: ('A' for Active; 'I' for Inactive)
REMARK    1  A    between atoms: C_8  and  C_1 
REMARK    2  A    between atoms: O_14  and  N_12 
ROOT
ATOM      1  C   UNL d   1       1.374   2.970   2.314  0.00  0.00     0.002 C 
ATOM      2  C   UNL d   1       1.845   5.160   1.083  0.00  0.00    -0.042 C 
ATOM      3  C   UNL d   1       2.109   5.043   3.606  0.00  0.00    -0.042 C 
ATOM      4  C   UNL d   1      -0.210   4.951   2.564  0.00  0.00    -0.042 C 
ATOM      5  C   UNL d   1       1.933   3.623   1.021  0.00  0.00     0.024 C 
ATOM      6  C   UNL d   1       2.196   3.501   3.512  0.00  0.00     0.024 C 
ATOM      7  C   UNL d   1      -0.098   3.411   2.483  0.00  0.00     0.024 C 
ATOM      8  C   UNL d   1       2.657   5.655   2.298  0.00  0.00     0.018 C 
ATOM      9  C   UNL d   1       0.366   5.563   1.268  0.00  0.00     0.018 C 
ATOM     10  C   UNL d   1       0.627   5.450   3.763  0.00  0.00     0.018 C 
ATOM     11  C   UNL d   1       2.923   5.544   4.803  0.00  0.00     0.015 C 
ATOM     12  C   UNL d   1      -1.675   5.366   2.736  0.00  0.00     0.015 C 
ATOM     13  C   UNL d   1       2.400   5.771  -0.208  0.00  0.00     0.015 C 
ENDROOT
BRANCH   1  14
ATOM     14  C   UNL d   1       1.468   1.429   2.233  0.00  0.00     0.014 C 
ATOM     15  N   UNL d   1       1.977   0.885   1.163  0.00  0.00    -0.277 N 
ATOM     16  HN  UNL d   1       2.324   1.416   0.365  1.00  0.00     0.193 HD
ATOM     17  C   UNL d   1       0.965   0.599   3.397  0.00  0.00     0.066 C 
BRANCH  15  18
ATOM     18  O   UNL d   1       1.990  -0.510   1.238  0.00  0.00    -0.290 OA
ATOM     19  H   UNL d   1       2.389  -0.761   0.385  0.00  0.00     0.244 HD
ENDBRANCH  15  18
ENDBRANCH   1  14
TORSDOF 2
