REMARK  4 active torsions:
REMARK  status: ('A' for Active; 'I' for Inactive)
REMARK    1  A    between atoms: C_11  and  C_3 
REMARK    2  A    between atoms: C_15  and  C_10 
REMARK       I    between atoms: N_13  and  C_11 
REMARK       I    between atoms: C_12  and  N_14 
REMARK    3  A    between atoms: C_16  and  C_12 
REMARK    4  A    between atoms: N_14  and  N_13 
ROOT
ATOM      1  C   UNL d   1       0.409   0.499   0.114  0.00  0.00     0.172 A 
ATOM      2  N   UNL d   1       0.005  -0.800   0.045  0.00  0.00    -0.235 N 
ATOM      3  C   UNL d   1      -2.025   0.179   0.084  0.00  0.00     0.102 A 
ATOM      4  N   UNL d   1       1.708   0.611   0.079  0.00  0.00    -0.319 N 
ATOM      5  HN  UNL d   1       2.285   1.451   0.115  1.00  0.00     0.169 HD
ATOM      6  N   UNL d   1       1.076  -1.602  -0.026  0.00  0.00    -0.276 N 
ATOM      7  HN  UNL d   1       1.111  -2.620  -0.073  1.00  0.00     0.189 HD
ATOM      8  C   UNL d   1      -1.365  -0.999   0.030  0.00  0.00     0.055 A 
ATOM      9  S   UNL d   1      -0.940   1.584   0.176  0.00  0.00    -0.044 SA
ATOM     10  C   UNL d   1       2.097  -0.720  -0.019  0.00  0.00     0.132 A 
ATOM     11  C   UNL d   1      -1.910  -2.384  -0.071  0.00  0.00     0.072 C 
ENDROOT
BRANCH   3  12
ATOM     12  C   UNL d   1      -3.509   0.342   0.029  0.00  0.00     0.279 C 
ATOM     13  N   UNL d   1      -3.990   1.619   0.195  0.00  0.00    -0.262 N 
ATOM     14  H   UNL d   1      -3.406   2.429   0.399  0.00  0.00     0.190 HD
ATOM     15  O   UNL d   1      -4.260  -0.613  -0.171  0.00  0.00    -0.265 OA
BRANCH  13  16
ATOM     16  N   UNL d   1      -5.368   1.849   0.047  0.00  0.00    -0.263 N 
ATOM     17  C   UNL d   1      -5.895   3.018   0.558  0.00  0.00     0.270 C 
ATOM     18  O   UNL d   1      -5.222   3.857   1.149  0.00  0.00    -0.266 OA
ATOM     19  H   UNL d   1      -5.937   1.051  -0.230  0.00  0.00     0.190 HD
BRANCH  17  20
ATOM     20  C   UNL d   1      -7.354   3.231   0.352  0.00  0.00     0.033 A 
ATOM     21  C   UNL d   1      -8.084   3.915   1.333  0.00  0.00     0.019 A 
ATOM     22  C   UNL d   1      -9.438   4.201   1.133  0.00  0.00     0.025 A 
ATOM     23  C   UNL d   1     -10.058   3.818  -0.056  0.00  0.00     0.034 A 
ATOM     24  C   UNL d   1      -9.338   3.140  -1.040  0.00  0.00     0.025 A 
ATOM     25 CL   UNL d   1     -11.714   4.202  -0.320  0.00  0.00    -0.084 Cl
ATOM     26  C   UNL d   1      -7.986   2.843  -0.838  0.00  0.00     0.019 A 
ENDBRANCH  17  20
ENDBRANCH  13  16
ENDBRANCH   3  12
BRANCH  10  27
ATOM     27  C   UNL d   1       3.493  -1.143  -0.136  0.00  0.00     0.009 A 
ATOM     28  C   UNL d   1       4.546  -0.229  -0.005  0.00  0.00     0.017 A 
ATOM     29  C   UNL d   1       5.875  -0.655  -0.131  0.00  0.00     0.025 A 
ATOM     30  C   UNL d   1       6.157  -1.996  -0.391  0.00  0.00     0.034 A 
ATOM     31  C   UNL d   1       5.123  -2.918  -0.523  0.00  0.00     0.025 A 
ATOM     32 CL   UNL d   1       7.788  -2.518  -0.553  0.00  0.00    -0.084 Cl
ATOM     33  C   UNL d   1       3.799  -2.492  -0.395  0.00  0.00     0.017 A 
ENDBRANCH  10  27
TORSDOF 4
