REMARK  4 active torsions:
REMARK  status: ('A' for Active; 'I' for Inactive)
REMARK    1  A    between atoms: C_4  and  C_1 
REMARK    2  A    between atoms: O_12  and  C_5 
REMARK    3  A    between atoms: O_13  and  C_6 
REMARK    4  A    between atoms: O_14  and  C_7 
ROOT
ATOM      1  C   UNL d   1       3.227   0.184  -1.167  0.00  0.00    -0.009 A 
ATOM      2  C   UNL d   1       4.786   0.381  -3.538  0.00  0.00     0.135 A 
ATOM      3  C   UNL d   1       3.374   0.319  -3.613  0.00  0.00     0.104 A 
ATOM      4  C   UNL d   1       5.398   0.360  -2.266  0.00  0.00     0.104 A 
ATOM      5  C   UNL d   1       2.619   0.210  -2.431  0.00  0.00     0.050 A 
ATOM      6  C   UNL d   1       4.622   0.242  -1.106  0.00  0.00     0.050 A 
ENDROOT
BRANCH   1   7
ATOM      7  C   UNL d   1       2.380   0.048   0.090  0.00  0.00     0.239 A 
ATOM      8  N   UNL d   1       2.175  -1.376   0.419  0.00  0.00    -0.260 NA
ATOM      9  C   UNL d   1       2.800  -1.434   1.682  0.00  0.00     0.044 A 
ATOM     10  H   UNL d   1       2.648  -2.002  -0.227  0.00  0.00     0.130 HD
ATOM     11  C   UNL d   1       3.007  -2.558   2.457  0.00  0.00     0.026 A 
ATOM     12  C   UNL d   1       3.213  -0.193   2.121  0.00  0.00     0.092 A 
ATOM     13  C   UNL d   1       3.652  -2.400   3.689  0.00  0.00     0.002 A 
ATOM     14  C   UNL d   1       4.068  -1.129   4.126  0.00  0.00     0.003 A 
ATOM     15  C   UNL d   1       3.847  -0.003   3.332  0.00  0.00     0.039 A 
ATOM     16  O   UNL d   1       2.969   0.783   1.196  0.00  0.00    -0.324 OA
ENDBRANCH   1   7
BRANCH   3  17
ATOM     17  O   UNL d   1       2.788   0.372  -4.851  0.00  0.00    -0.353 OA
ATOM     18  C   UNL d   1       1.372   0.311  -4.948  0.00  0.00     0.210 C 
ENDBRANCH   3  17
BRANCH   4  19
ATOM     19  O   UNL d   1       6.746   0.385  -1.994  0.00  0.00    -0.353 OA
ATOM     20  C   UNL d   1       7.565   1.161  -2.859  0.00  0.00     0.210 C 
ENDBRANCH   4  19
BRANCH   2  21
ATOM     21  O   UNL d   1       5.655   0.426  -4.597  0.00  0.00    -0.351 OA
ATOM     22  C   UNL d   1       5.181   0.403  -5.932  0.00  0.00     0.210 C 
ENDBRANCH   2  21
TORSDOF 4
