REMARK  7 active torsions:
REMARK  status: ('A' for Active; 'I' for Inactive)
REMARK       I    between atoms: N_4  and  C_1 
REMARK    1  A    between atoms: C_9  and  C_1 
REMARK    2  A    between atoms: N_2  and  N_4 
REMARK    3  A    between atoms: C_6  and  C_8 
REMARK    4  A    between atoms: C_12  and  C_7 
REMARK    5  A    between atoms: C_13  and  C_9 
REMARK    6  A    between atoms: O_18  and  C_10 
REMARK    7  A    between atoms: C_11  and  C_13 
ROOT
ATOM      1  C   UNL d   1       0.966   0.141  -0.086  0.00  0.00     0.236 C 
ATOM      2  N   UNL d   1       0.315   0.711  -1.173  0.00  0.00    -0.270 N 
ATOM      3  O   UNL d   1       0.381  -0.366   0.875  0.00  0.00    -0.272 OA
ATOM      4  H   UNL d   1       0.809   1.099  -1.965  0.00  0.00     0.190 HD
ENDROOT
BRANCH   2   5
ATOM      5  N   UNL d   1      -1.050   0.734  -1.162  0.00  0.00    -0.309 N 
ATOM      6  C   UNL d   1      -1.667   1.286  -2.156  0.00  0.00     0.107 C 
ATOM      7  HN  UNL d   1      -1.572   0.325  -0.387  1.00  0.00     0.186 HD
BRANCH   6   8
ATOM      8  C   UNL d   1      -3.146   1.319  -2.141  0.00  0.00     0.019 C 
ATOM      9  C   UNL d   1      -3.882   1.909  -3.092  0.00  0.00     0.013 C 
BRANCH   9  10
ATOM     10  C   UNL d   1      -5.357   1.967  -3.037  0.00  0.00    -0.036 A 
ATOM     11  C   UNL d   1      -6.057   2.023  -1.820  0.00  0.00     0.011 A 
ATOM     12  C   UNL d   1      -7.452   2.100  -1.794  0.00  0.00     0.001 A 
ATOM     13  C   UNL d   1      -8.171   2.137  -2.984  0.00  0.00     0.000 A 
ATOM     14  C   UNL d   1      -7.493   2.101  -4.204  0.00  0.00     0.001 A 
ATOM     15  C   UNL d   1      -6.095   2.022  -4.227  0.00  0.00     0.011 A 
ENDBRANCH   9  10
ENDBRANCH   6   8
ENDBRANCH   2   5
BRANCH   1  16
ATOM     16  C   UNL d   1       2.484   0.074  -0.154  0.00  0.00     0.109 C 
BRANCH  16  17
ATOM     17  C   UNL d   1       3.169   1.298  -0.751  0.00  0.00     0.048 C 
BRANCH  17  18
ATOM     18  C   UNL d   1       4.681   1.255  -0.671  0.00  0.00    -0.058 A 
ATOM     19  C   UNL d   1       5.450   1.208  -1.844  0.00  0.00     0.010 A 
ATOM     20  C   UNL d   1       6.846   1.249  -1.783  0.00  0.00     0.037 A 
ATOM     21  C   UNL d   1       7.480   1.333  -0.551  0.00  0.00     0.065 A 
ATOM     22  C   UNL d   1       6.741   1.358   0.626  0.00  0.00     0.037 A 
ATOM     23  C   UNL d   1       5.343   1.319   0.565  0.00  0.00     0.010 A 
BRANCH  21  24
ATOM     24  O   UNL d   1       8.842   1.399  -0.542  0.00  0.00    -0.361 OA
ATOM     25  H   UNL d   1       9.142   1.494   0.377  0.00  0.00     0.217 HD
ENDBRANCH  21  24
ENDBRANCH  17  18
ENDBRANCH  16  17
ENDBRANCH   1  16
TORSDOF 7
