REMARK  6 active torsions:
REMARK  status: ('A' for Active; 'I' for Inactive)
REMARK    1  A    between atoms: C_6  and  C_1 
REMARK    2  A    between atoms: C_10  and  C_3 
REMARK       I    between atoms: N_11  and  C_6 
REMARK    3  A    between atoms: C_7  and  C_9 
REMARK       I    between atoms: C_9  and  N_12 
REMARK    4  A    between atoms: N_12  and  N_11 
REMARK    5  A    between atoms: O_21  and  C_13 
REMARK    6  A    between atoms: O_20  and  C_14 
ROOT
ATOM      1  C   UNL d   1      -0.428   2.496   0.921  0.00  0.00     0.278 C 
ATOM      2  N   UNL d   1      -1.690   2.980   0.628  0.00  0.00    -0.262 N 
ATOM      3  O   UNL d   1      -0.270   1.310   1.219  0.00  0.00    -0.265 OA
ATOM      4  H   UNL d   1      -1.872   3.922   0.286  0.00  0.00     0.190 HD
ENDROOT
BRANCH   2   5
ATOM      5  N   UNL d   1      -2.762   2.069   0.558  0.00  0.00    -0.263 N 
ATOM      6  C   UNL d   1      -3.990   2.498   0.089  0.00  0.00     0.275 C 
ATOM      7  O   UNL d   1      -4.149   3.647  -0.323  0.00  0.00    -0.266 OA
ATOM      8  H   UNL d   1      -2.645   1.175   1.035  0.00  0.00     0.190 HD
BRANCH   6   9
ATOM      9  C   UNL d   1      -5.113   1.496   0.123  0.00  0.00     0.100 A 
ATOM     10  C   UNL d   1      -5.241   0.567   1.184  0.00  0.00     0.086 A 
ATOM     11  C   UNL d   1      -6.354  -0.285   1.230  0.00  0.00     0.038 A 
ATOM     12  C   UNL d   1      -7.307  -0.266   0.216  0.00  0.00     0.005 A 
ATOM     13  C   UNL d   1      -7.163   0.610  -0.853  0.00  0.00     0.038 A 
ATOM     14  C   UNL d   1      -6.084   1.505  -0.906  0.00  0.00     0.086 A 
BRANCH  10  15
ATOM     15  O   UNL d   1      -4.268   0.557   2.155  0.00  0.00    -0.355 OA
ATOM     16  C   UNL d   1      -4.218  -0.586   3.007  0.00  0.00     0.210 C 
ENDBRANCH  10  15
BRANCH  14  17
ATOM     17  O   UNL d   1      -5.892   2.348  -1.973  0.00  0.00    -0.355 OA
ATOM     18  C   UNL d   1      -7.043   2.685  -2.740  0.00  0.00     0.210 C 
ENDBRANCH  14  17
ENDBRANCH   6   9
ENDBRANCH   2   5
BRANCH   1  19
ATOM     19  C   UNL d   1       0.687   3.424   0.854  0.00  0.00     0.091 A 
ATOM     20  S   UNL d   1       0.546   5.113   0.620  0.00  0.00    -0.065 SA
ATOM     21  C   UNL d   1       2.266   5.283   0.698  0.00  0.00     0.086 A 
ATOM     22  N   UNL d   1       2.914   4.147   0.873  0.00  0.00    -0.358 N 
ATOM     23  C   UNL d   1       2.023   3.100   0.981  0.00  0.00     0.113 A 
ATOM     24  HN  UNL d   1       3.929   4.056   0.922  1.00  0.00     0.166 HD
BRANCH  21  25
ATOM     25  C   UNL d   1       2.937   6.580   0.523  0.00  0.00     0.013 A 
ATOM     26  C   UNL d   1       2.369   7.799   0.886  0.00  0.00     0.101 A 
ATOM     27  N   UNL d   1       2.972   9.008   0.735  0.00  0.00    -0.374 N 
ATOM     28  C   UNL d   1       4.212   9.009   0.199  0.00  0.00     0.087 A 
ATOM     29  HN  UNL d   1       2.510   9.873   1.013  1.00  0.00     0.164 HD
ATOM     30  C   UNL d   1       4.879   7.859  -0.182  0.00  0.00     0.018 A 
ATOM     31  C   UNL d   1       4.232   6.634  -0.011  0.00  0.00     0.017 A 
ENDBRANCH  21  25
ENDBRANCH   1  19
TORSDOF 6
