REMARK  7 active torsions:
REMARK  status: ('A' for Active; 'I' for Inactive)
REMARK    1  A    between atoms: N_2  and  C_1 
REMARK    2  A    between atoms: N_7  and  C_3 
REMARK    3  A    between atoms: C_6  and  C_5 
REMARK    4  A    between atoms: O_20  and  C_6 
REMARK    5  A    between atoms: C_14  and  N_7 
REMARK    6  A    between atoms: C_15  and  N_8 
REMARK    7  A    between atoms: C_21  and  C_15 
ROOT
ATOM      1  N   UNL d   1       1.069  -2.595   0.045  0.00  0.00    -0.383 N 
ATOM      2  H   UNL d   1       0.737  -2.430  -0.902  0.00  0.00     0.160 HD
ENDROOT
BRANCH   1   3
ATOM      3  C   UNL d   1       0.032  -2.753   0.953  0.00  0.00     0.061 A 
ATOM      4  C   UNL d   1       0.053  -3.373   2.216  0.00  0.00     0.130 A 
ATOM      5  C   UNL d   1      -0.970  -3.207   3.163  0.00  0.00     0.056 A 
ATOM      6  C   UNL d   1      -2.127  -2.519   2.815  0.00  0.00     0.042 A 
ATOM      7  C   UNL d   1      -2.255  -1.980   1.540  0.00  0.00     0.020 A 
ATOM      8  C   UNL d   1      -1.167  -2.067   0.646  0.00  0.00     0.032 A 
BRANCH   4   9
ATOM      9  N   UNL d   1       0.998  -4.420   2.546  0.00  0.00    -0.113 N 
ATOM     10  O   UNL d   1       1.076  -5.385   1.774  0.00  0.00    -0.532 OA
ATOM     11  O   UNL d   1       1.590  -4.325   3.633  0.00  0.00    -0.532 OA
ENDBRANCH   4   9
BRANCH   6  12
ATOM     12  C   UNL d   1      -3.196  -2.474   3.827  0.00  0.00     0.293 C 
ATOM     13  O   UNL d   1      -2.989  -2.214   5.000  0.00  0.00    -0.259 OA
BRANCH  12  14
ATOM     14  O   UNL d   1      -4.333  -2.972   3.288  0.00  0.00    -0.323 OA
ATOM     15  C   UNL d   1      -5.289  -3.374   4.270  0.00  0.00     0.213 C 
ENDBRANCH  12  14
ENDBRANCH   6  12
ENDBRANCH   1   3
BRANCH   1  16
ATOM     16  C   UNL d   1       2.463  -3.081   0.081  0.00  0.00     0.085 C 
ATOM     17  C   UNL d   1       3.297  -2.555   1.250  0.00  0.00     0.055 C 
ATOM     18  C   UNL d   1       3.537  -1.054   1.178  0.00  0.00     0.275 C 
ATOM     19  N   UNL d   1       4.128  -0.617  -0.089  0.00  0.00     0.092 N 
ATOM     20  C   UNL d   1       3.414  -1.139  -1.260  0.00  0.00     0.275 C 
ATOM     21  C   UNL d   1       3.186  -2.653  -1.208  0.00  0.00     0.055 C 
BRANCH  19  22
ATOM     22  C   UNL d   1       4.285   0.858  -0.130  0.00  0.00     0.311 C 
BRANCH  22  23
ATOM     23  C   UNL d   1       2.992   1.657  -0.152  0.00  0.00    -0.030 A 
ATOM     24  C   UNL d   1       2.319   1.975   1.040  0.00  0.00     0.009 A 
ATOM     25  C   UNL d   1       1.045   2.543   1.007  0.00  0.00     0.001 A 
ATOM     26  C   UNL d   1       0.442   2.833  -0.214  0.00  0.00     0.000 A 
ATOM     27  C   UNL d   1       1.124   2.582  -1.403  0.00  0.00     0.001 A 
ATOM     28  C   UNL d   1       2.394   2.005  -1.372  0.00  0.00     0.009 A 
ENDBRANCH  22  23
ENDBRANCH  19  22
ENDBRANCH   1  16
TORSDOF 7
