REMARK  5 active torsions:
REMARK  status: ('A' for Active; 'I' for Inactive)
REMARK    1  A    between atoms: N_2  and  S_1 
REMARK    2  A    between atoms: C_6  and  S_1 
REMARK       I    between atoms: C_8  and  N_2 
REMARK    3  A    between atoms: C_3  and  C_7 
REMARK    4  A    between atoms: O_21  and  C_5 
REMARK    5  A    between atoms: N_9  and  C_19 
ROOT
ATOM      1  C   UNL d   1       0.444   1.675  -0.540  0.00  0.00     0.080 A 
ATOM      2  C   UNL d   1      -0.829   1.799  -1.098  0.00  0.00     0.027 A 
ATOM      3  C   UNL d   1       1.225   2.808  -0.302  0.00  0.00     0.027 A 
ATOM      4  C   UNL d   1      -0.504   4.203  -1.302  0.00  0.00     0.032 A 
ATOM      5  C   UNL d   1       0.746   4.063  -0.687  0.00  0.00     0.031 A 
ATOM      6  C   UNL d   1      -1.298   3.060  -1.473  0.00  0.00     0.031 A 
ENDROOT
BRANCH   4   7
ATOM      7  N   UNL d   1      -0.912   5.496  -1.673  0.00  0.00    -0.365 N 
ATOM      8  C   UNL d   1      -1.549   5.654  -2.791  0.00  0.00     0.102 C 
ATOM      9  HN  UNL d   1      -0.710   6.296  -1.073  1.00  0.00     0.165 HD
BRANCH   8  10
ATOM     10  C   UNL d   1      -1.990   6.987  -3.251  0.00  0.00     0.016 A 
ATOM     11  C   UNL d   1      -2.803   7.105  -4.383  0.00  0.00     0.099 A 
ATOM     12  C   UNL d   1      -3.202   8.373  -4.820  0.00  0.00     0.069 A 
ATOM     13 CL   UNL d   1      -4.209   8.535  -6.213  0.00  0.00    -0.081 Cl
ATOM     14  C   UNL d   1      -2.793   9.519  -4.142  0.00  0.00     0.050 A 
ATOM     15  C   UNL d   1      -1.982   9.392  -3.015  0.00  0.00     0.036 A 
ATOM     16  C   UNL d   1      -1.581   8.136  -2.563  0.00  0.00     0.039 A 
ATOM     17 CL   UNL d   1      -1.465  10.805  -2.181  0.00  0.00    -0.084 Cl
BRANCH  11  18
ATOM     18  O   UNL d   1      -3.206   5.979  -5.051  0.00  0.00    -0.358 OA
ATOM     19  H   UNL d   1      -3.775   6.259  -5.795  0.00  0.00     0.217 HD
ENDBRANCH  11  18
ENDBRANCH   8  10
ENDBRANCH   4   7
BRANCH   1  20
ATOM     20  S   UNL d   1       1.066   0.070  -0.110  0.00  0.00     0.265 S 
ATOM     21  O   UNL d   1       2.095   0.255   0.893  0.00  0.00    -0.200 OA
ATOM     22  O   UNL d   1      -0.040  -0.830   0.119  0.00  0.00    -0.200 OA
BRANCH  20  23
ATOM     23  N   UNL d   1       1.882  -0.382  -1.487  0.00  0.00    -0.251 N 
ATOM     24  C   UNL d   1       1.293  -0.610  -2.737  0.00  0.00     0.227 C 
ATOM     25  O   UNL d   1       0.091  -0.530  -2.942  0.00  0.00    -0.273 OA
ATOM     26  C   UNL d   1       2.259  -0.933  -3.842  0.00  0.00     0.118 C 
ATOM     27  H   UNL d   1       2.886  -0.428  -1.353  0.00  0.00     0.181 HD
ENDBRANCH  20  23
ENDBRANCH   1  20
TORSDOF 5
