REMARK  2 active torsions:
REMARK  status: ('A' for Active; 'I' for Inactive)
REMARK    1  A    between atoms: C_2  and  S_1 
REMARK    2  A    between atoms: C_4  and  S_1 
ROOT
ATOM      1  N   UNL d   1       3.725  -1.659   1.721  0.00  0.00    -0.196 NA
ATOM      2  C   UNL d   1       2.950   0.155   0.009  0.00  0.00     0.269 C 
ATOM      3  C   UNL d   1       3.365  -0.865   0.953  0.00  0.00     0.074 C 
ENDROOT
BRANCH   2   4
ATOM      4  S   UNL d   1       1.185   0.207   0.020  0.00  0.00     0.189 S 
ATOM      5  O   UNL d   1       0.762   1.367  -0.743  0.00  0.00    -0.222 OA
ATOM      6  O   UNL d   1       0.707  -1.106  -0.388  0.00  0.00    -0.222 OA
BRANCH   4   7
ATOM      7  C   UNL d   1       0.654   0.469   1.697  0.00  0.00     0.081 A 
ATOM      8  C   UNL d   1       0.873   1.679   2.363  0.00  0.00     0.055 A 
ATOM      9 CL   UNL d   1       1.815   2.975   1.727  0.00  0.00    -0.083 Cl
ATOM     10  C   UNL d   1       0.322   1.872   3.636  0.00  0.00     0.025 A 
ATOM     11  C   UNL d   1      -0.435   0.869   4.244  0.00  0.00     0.002 A 
ATOM     12  C   UNL d   1      -0.633  -0.343   3.589  0.00  0.00     0.002 A 
ATOM     13  C   UNL d   1      -0.094  -0.544   2.318  0.00  0.00     0.025 A 
ENDBRANCH   4   7
ENDBRANCH   2   4
TORSDOF 2
