REMARK  4 active torsions:
REMARK  status: ('A' for Active; 'I' for Inactive)
REMARK    1  A    between atoms: N_12  and  C_3 
REMARK    2  A    between atoms: C_13  and  C_10 
REMARK    3  A    between atoms: C_16  and  C_11 
REMARK       I    between atoms: C_14  and  N_15 
REMARK    4  A    between atoms: C_17  and  C_14 
ROOT
ATOM      1  N   UNL d   1       0.316   0.653   0.012  0.00  0.00    -0.224 N 
ATOM      2  C   UNL d   1       0.154  -0.737   0.001  0.00  0.00     0.131 A 
ATOM      3  C   UNL d   1      -0.821   1.517   0.005  0.00  0.00     0.129 A 
ATOM      4  N   UNL d   1       1.641   0.982   0.005  0.00  0.00    -0.294 N 
ATOM      5  HN  UNL d   1       2.044   1.919   0.013  1.00  0.00     0.187 HD
ATOM      6  C   UNL d   1      -2.038   0.938  -0.002  0.00  0.00     0.084 A 
ATOM      7  N   UNL d   1      -1.064  -1.344   0.024  0.00  0.00    -0.337 N 
ATOM      8  HN  UNL d   1      -1.155  -2.360   0.030  1.00  0.00     0.167 HD
ATOM      9  C   UNL d   1       1.415  -1.276  -0.017  0.00  0.00     0.077 A 
ATOM     10  C   UNL d   1      -2.111  -0.564   0.037  0.00  0.00     0.121 A 
ATOM     11  C   UNL d   1       2.303  -0.182  -0.015  0.00  0.00     0.037 A 
ENDROOT
BRANCH   3  12
ATOM     12  N   UNL d   1      -0.673   2.929   0.034  0.00  0.00    -0.363 N 
ATOM     13  C   UNL d   1       0.536   3.557   0.654  0.00  0.00     0.144 C 
ATOM     14  C   UNL d   1       0.252   5.010   1.077  0.00  0.00     0.146 C 
ATOM     15  N   UNL d   1      -0.276   5.790  -0.054  0.00  0.00    -0.345 N 
ATOM     16  C   UNL d   1       0.431   6.928  -0.477  0.00  0.00     0.253 C 
ATOM     17  C   UNL d   1      -1.482   5.180  -0.629  0.00  0.00     0.146 C 
ATOM     18  O   UNL d   1       1.374   7.387   0.154  0.00  0.00    -0.267 OA
ATOM     19  C   UNL d   1      -1.175   3.743  -1.103  0.00  0.00     0.144 C 
BRANCH  16  20
ATOM     20  C   UNL d   1       0.037   7.630  -1.729  0.00  0.00     0.032 A 
ATOM     21  C   UNL d   1       0.248   9.010  -1.832  0.00  0.00     0.018 A 
ATOM     22  C   UNL d   1      -0.095   9.696  -3.012  0.00  0.00     0.025 A 
ATOM     23  C   UNL d   1      -0.671   9.010  -4.077  0.00  0.00     0.034 A 
ATOM     24  C   UNL d   1      -0.887   7.641  -3.993  0.00  0.00     0.025 A 
ATOM     25 CL   UNL d   1      -1.078   9.833  -5.525  0.00  0.00    -0.084 Cl
ATOM     26  C   UNL d   1      -0.478   6.955  -2.852  0.00  0.00     0.018 A 
ENDBRANCH  16  20
ENDBRANCH   3  12
BRANCH  10  27
ATOM     27  C   UNL d   1      -3.503  -1.195   0.107  0.00  0.00     0.432 C 
ATOM     28  F   UNL d   1      -4.502  -0.266   0.153  0.00  0.00    -0.165 F 
ATOM     29  F   UNL d   1      -3.767  -1.988  -0.960  0.00  0.00    -0.165 F 
ATOM     30  F   UNL d   1      -3.660  -1.967   1.221  0.00  0.00    -0.165 F 
ENDBRANCH  10  27
BRANCH  11  31
ATOM     31  C   UNL d   1       3.822  -0.205  -0.010  0.00  0.00    -0.007 C 
ATOM     32  C   UNL d   1       4.340  -0.244   1.440  0.00  0.00     0.021 C 
ATOM     33  C   UNL d   1       4.348  -1.446  -0.761  0.00  0.00     0.021 C 
ATOM     34  C   UNL d   1       4.401   1.048  -0.703  0.00  0.00     0.021 C 
ENDBRANCH  11  31
TORSDOF 4
