REMARK  2 active torsions:
REMARK  status: ('A' for Active; 'I' for Inactive)
REMARK    1  A    between atoms: C_6  and  C_1 
REMARK       I    between atoms: N_7  and  C_6 
REMARK    2  A    between atoms: C_9  and  N_7 
ROOT
ATOM      1  C   UNL d   1      -2.408  -0.090  -0.314  0.00  0.00     0.102 A 
ATOM      2  N   UNL d   1      -1.591   1.012  -0.169  0.00  0.00    -0.351 N 
ATOM      3  C   UNL d   1      -1.575  -1.194  -0.273  0.00  0.00     0.049 A 
ATOM      4  C   UNL d   1      -0.267   0.649  -0.132  0.00  0.00     0.044 A 
ATOM      5  C   UNL d   1      -0.225  -0.743  -0.155  0.00  0.00    -0.001 A 
ATOM      6  C   UNL d   1       1.025  -1.398  -0.091  0.00  0.00    -0.049 A 
ATOM      7  C   UNL d   1       0.883   1.448  -0.092  0.00  0.00     0.037 A 
ATOM      8  C   UNL d   1       2.188  -0.595  -0.078  0.00  0.00     0.014 A 
ATOM      9  C   UNL d   1       2.125   0.803  -0.095  0.00  0.00    -0.059 A 
ATOM     10  C   UNL d   1       1.183  -2.892  -0.074  0.00  0.00     0.049 C 
ATOM     11  C   UNL d   1       3.400   1.596  -0.151  0.00  0.00     0.048 C 
ATOM     12  H   UNL d   1      -1.940   1.962  -0.156  0.00  0.00     0.166 HD
ENDROOT
BRANCH   1  13
ATOM     13  C   UNL d   1      -3.838   0.068  -0.484  0.00  0.00     0.272 C 
ATOM     14  N   UNL d   1      -4.542  -1.109  -0.666  0.00  0.00    -0.319 N 
ATOM     15  H   UNL d   1      -4.073  -1.961  -0.386  0.00  0.00     0.169 HD
ATOM     16  O   UNL d   1      -4.344   1.184  -0.410  0.00  0.00    -0.266 OA
BRANCH  14  17
ATOM     17  C   UNL d   1      -5.925  -1.195  -0.944  0.00  0.00     0.074 A 
ATOM     18  C   UNL d   1      -6.657  -0.188  -1.592  0.00  0.00     0.144 A 
ATOM     19  C   UNL d   1      -8.039  -0.279  -1.742  0.00  0.00     0.062 A 
ATOM     20  F   UNL d   1      -6.046   0.855  -2.171  0.00  0.00    -0.204 F 
ATOM     21  C   UNL d   1      -8.705  -1.402  -1.267  0.00  0.00     0.009 A 
ATOM     22  C   UNL d   1      -7.988  -2.455  -0.698  0.00  0.00     0.020 A 
ATOM     23  I   UNL d   1     -10.774  -1.506  -1.402  0.00  0.00    -0.044 I 
ATOM     24  C   UNL d   1      -6.598  -2.356  -0.549  0.00  0.00     0.034 A 
ENDBRANCH  14  17
ENDBRANCH   1  13
TORSDOF 2
