REMARK  4 active torsions:
REMARK  status: ('A' for Active; 'I' for Inactive)
REMARK    1  A    between atoms: O_3  and  C_1 
REMARK    2  A    between atoms: C_5  and  O_3 
REMARK    3  A    between atoms: C_8  and  C_4 
REMARK       I    between atoms: N_15  and  C_5 
REMARK    4  A    between atoms: C_11  and  C_9 
ROOT
ATOM      1  C   UNL d   1      -0.165  -1.016  -0.358  0.00  0.00     0.175 C 
ATOM      2  C   UNL d   1       0.512   0.170  -0.656  0.00  0.00     0.111 C 
ATOM      3  C   UNL d   1      -0.182   1.371  -0.475  0.00  0.00     0.075 C 
ATOM      4  N   UNL d   1      -1.504  -1.080  -0.135  0.00  0.00    -0.334 N 
ATOM      5  HN  UNL d   1      -1.971  -1.974   0.016  1.00  0.00     0.168 HD
ATOM      6  C   UNL d   1      -2.198   0.081  -0.118  0.00  0.00     0.052 C 
ATOM      7  C   UNL d   1      -1.559   1.313  -0.198  0.00  0.00     0.048 C 
ATOM      8  C   UNL d   1       1.825   0.134  -1.227  0.00  0.00     0.104 C 
ATOM      9  N   UNL d   1       2.858   0.088  -1.758  0.00  0.00    -0.191 NA
ENDROOT
BRANCH   1  10
ATOM     10  O   UNL d   1       0.467  -2.271  -0.351  0.00  0.00    -0.242 OA
BRANCH  10  11
ATOM     11  C   UNL d   1       1.584  -2.374   0.476  0.00  0.00     0.368 C 
ATOM     12  N   UNL d   1       2.183  -3.625   0.425  0.00  0.00    -0.336 N 
ATOM     13  C   UNL d   1       3.480  -3.782   1.057  0.00  0.00     0.154 C 
ATOM     14  C   UNL d   1       1.393  -4.827   0.240  0.00  0.00     0.154 C 
ATOM     15  O   UNL d   1       2.029  -1.444   1.143  0.00  0.00    -0.238 OA
ENDBRANCH  10  11
ENDBRANCH   1  10
BRANCH   3  16
ATOM     16  C   UNL d   1       0.455   2.732  -0.570  0.00  0.00     0.419 C 
ATOM     17  F   UNL d   1       1.784   2.736  -0.832  0.00  0.00    -0.166 F 
ATOM     18  F   UNL d   1      -0.123   3.494  -1.537  0.00  0.00    -0.166 F 
ATOM     19  F   UNL d   1       0.305   3.430   0.590  0.00  0.00    -0.166 F 
ENDBRANCH   3  16
BRANCH   6  20
ATOM     20  C   UNL d   1      -3.664  -0.067  -0.108  0.00  0.00     0.031 A 
ATOM     21  S   UNL d   1      -4.683   1.195  -0.694  0.00  0.00    -0.100 SA
ATOM     22  C   UNL d   1      -6.098   0.265  -0.491  0.00  0.00     0.050 A 
ATOM     23  C   UNL d   1      -5.823  -0.978   0.028  0.00  0.00     0.008 A 
ATOM     24  C   UNL d   1      -4.426  -1.168   0.249  0.00  0.00     0.021 A 
ENDBRANCH   6  20
TORSDOF 4
