REMARK  2 active torsions:
REMARK  status: ('A' for Active; 'I' for Inactive)
REMARK    1  A    between atoms: C_5  and  C_1 
REMARK    2  A    between atoms: O_10  and  C_5 
ROOT
ATOM      1  C   UNL d   1      -2.356  -0.281   0.001  0.00  0.00     0.110 A 
ATOM      2  C   UNL d   1      -1.401   0.841   0.008  0.00  0.00     0.203 A 
ATOM      3  C   UNL d   1      -1.853  -1.524  -0.012  0.00  0.00     0.165 A 
ATOM      4  C   UNL d   1       0.031   0.500  -0.002  0.00  0.00     0.049 A 
ATOM      5  O   UNL d   1      -0.520  -1.865  -0.014  0.00  0.00    -0.321 OA
ATOM      6  C   UNL d   1       0.398  -0.845  -0.006  0.00  0.00     0.089 A 
ATOM      7  O   UNL d   1      -1.800   2.002   0.023  0.00  0.00    -0.286 OA
ATOM      8  C   UNL d   1       1.007   1.500  -0.004  0.00  0.00     0.018 A 
ATOM      9  C   UNL d   1       1.746  -1.199  -0.004  0.00  0.00     0.038 A 
ATOM     10  C   UNL d   1       2.356   1.144  -0.007  0.00  0.00     0.001 A 
ATOM     11  C   UNL d   1       2.725  -0.203  -0.004  0.00  0.00     0.003 A 
ENDROOT
BRANCH   1  12
ATOM     12  C   UNL d   1      -3.823  -0.109   0.011  0.00  0.00     0.182 C 
ATOM     13  O   UNL d   1      -4.607  -1.047   0.002  0.00  0.00    -0.646 OA
BRANCH  12  14
ATOM     14  O   UNL d   1      -4.237   1.175   0.033  0.00  0.00    -0.772 OA
ATOM     15  H   UNL d   1      -3.505   1.839   0.038  0.00  0.00     0.167 HD
ENDBRANCH  12  14
ENDBRANCH   1  12
TORSDOF 2
