REMARK  5 active torsions:
REMARK  status: ('A' for Active; 'I' for Inactive)
REMARK    1  A    between atoms: C_3  and  C_1 
REMARK    2  A    between atoms: C_12  and  N_2 
REMARK    3  A    between atoms: C_6  and  C_10 
REMARK       I    between atoms: N_7  and  C_6 
REMARK    4  A    between atoms: C_11  and  N_7 
REMARK    5  A    between atoms: C_16  and  C_12 
ROOT
ATOM      1  C   UNL d   1      -4.085   3.227  -1.378  0.00  0.00     0.032 A 
ATOM      2  C   UNL d   1      -3.285   2.072  -1.287  0.00  0.00     0.026 A 
ATOM      3  C   UNL d   1      -3.441   1.159  -0.235  0.00  0.00    -0.039 A 
ATOM      4  C   UNL d   1      -5.065   3.453  -0.406  0.00  0.00     0.017 A 
ATOM      5  C   UNL d   1      -5.212   2.561   0.659  0.00  0.00     0.002 A 
ATOM      6  C   UNL d   1      -4.403   1.426   0.746  0.00  0.00     0.009 A 
ENDROOT
BRANCH   3   7
ATOM      7  C   UNL d   1      -2.644  -0.129  -0.198  0.00  0.00     0.170 C 
BRANCH   7   8
ATOM      8  N   UNL d   1      -3.363  -1.227  -0.846  0.00  0.00    -0.320 N 
ATOM      9  C   UNL d   1      -3.201  -1.439  -2.211  0.00  0.00     0.110 A 
ATOM     10  C   UNL d   1      -3.896  -2.381  -2.871  0.00  0.00     0.063 A 
ATOM     11  C   UNL d   1      -4.844  -3.193  -2.129  0.00  0.00     0.023 A 
ATOM     12  C   UNL d   1      -5.024  -3.015  -0.815  0.00  0.00     0.075 A 
ATOM     13  C   UNL d   1      -4.251  -1.980  -0.082  0.00  0.00     0.247 A 
ATOM     14  O   UNL d   1      -4.436  -1.843   1.130  0.00  0.00    -0.268 OA
BRANCH  10  15
ATOM     15  C   UNL d   1      -3.740  -2.594  -4.352  0.00  0.00     0.418 C 
ATOM     16  F   UNL d   1      -4.633  -3.483  -4.857  0.00  0.00    -0.166 F 
ATOM     17  F   UNL d   1      -3.905  -1.439  -5.047  0.00  0.00    -0.166 F 
ATOM     18  F   UNL d   1      -2.504  -3.064  -4.660  0.00  0.00    -0.166 F 
ENDBRANCH  10  15
ENDBRANCH   7   8
ENDBRANCH   3   7
BRANCH   1  19
ATOM     19  C   UNL d   1      -3.850   4.137  -2.542  0.00  0.00     0.256 C 
ATOM     20  N   UNL d   1      -4.386   5.418  -2.467  0.00  0.00    -0.322 N 
ATOM     21  H   UNL d   1      -4.690   5.735  -1.561  0.00  0.00     0.169 HD
ATOM     22  O   UNL d   1      -3.133   3.727  -3.451  0.00  0.00    -0.267 OA
BRANCH  20  23
ATOM     23  C   UNL d   1      -4.114   6.415  -3.437  0.00  0.00     0.041 A 
ATOM     24  C   UNL d   1      -3.884   7.750  -3.055  0.00  0.00    -0.035 A 
ATOM     25  C   UNL d   1      -3.962   8.264  -1.644  0.00  0.00     0.050 C 
ATOM     26  C   UNL d   1      -3.471   8.671  -4.040  0.00  0.00     0.009 A 
ATOM     27  C   UNL d   1      -3.338   8.294  -5.376  0.00  0.00     0.001 A 
ATOM     28  C   UNL d   1      -3.649   6.996  -5.758  0.00  0.00     0.002 A 
ATOM     29  C   UNL d   1      -4.036   6.066  -4.794  0.00  0.00     0.030 A 
ENDBRANCH  20  23
ENDBRANCH   1  19
TORSDOF 5
