REMARK  7 active torsions:
REMARK  status: ('A' for Active; 'I' for Inactive)
REMARK    1  A    between atoms: C_14  and  C_2 
REMARK    2  A    between atoms: C_15  and  C_3 
REMARK    3  A    between atoms: S_17  and  C_6 
REMARK    4  A    between atoms: C_13  and  C_14 
REMARK    5  A    between atoms: C_25  and  S_17 
REMARK    6  A    between atoms: C_18  and  C_25 
REMARK       I    between atoms: N_21  and  C_18 
REMARK    7  A    between atoms: C_28  and  N_21 
ROOT
ATOM      1  N   UNL d   1       1.015   0.079   0.262  0.00  0.00    -0.319 N 
ATOM      2  C   UNL d   1       0.165   1.079  -0.168  0.00  0.00     0.107 A 
ATOM      3  C   UNL d   1       0.243  -1.050   0.328  0.00  0.00     0.162 A 
ATOM      4  N   UNL d   1      -1.008   0.533  -0.460  0.00  0.00    -0.286 N 
ATOM      5  HN  UNL d   1      -1.816   1.023  -0.843  1.00  0.00     0.188 HD
ATOM      6  N   UNL d   1      -0.949  -0.800  -0.158  0.00  0.00    -0.278 N 
ATOM      7  HN  UNL d   1      -1.699  -1.479  -0.289  1.00  0.00     0.189 HD
ATOM      8  C   UNL d   1       2.424   0.191   0.549  0.00  0.00     0.159 C 
ENDROOT
BRANCH   2   9
ATOM      9  C   UNL d   1       0.446   2.543  -0.174  0.00  0.00     0.164 C 
BRANCH   9  10
ATOM     10  C   UNL d   1       1.506   2.977  -1.114  0.00  0.00     0.155 A 
ATOM     11  N   UNL d   1       2.788   2.707  -1.090  0.00  0.00    -0.321 N 
ATOM     12  C   UNL d   1       3.304   3.545  -2.060  0.00  0.00     0.156 A 
ATOM     13  HN  UNL d   1       3.285   2.040  -0.499  1.00  0.00     0.169 HD
ATOM     14  N   UNL d   1       2.366   4.287  -2.677  0.00  0.00    -0.241 N 
ATOM     15  O   UNL d   1       1.176   3.914  -2.049  0.00  0.00    -0.222 OA
ATOM     16  HN  UNL d   1       2.495   4.965  -3.428  1.00  0.00     0.196 HD
BRANCH  12  17
ATOM     17  C   UNL d   1       4.739   3.643  -2.310  0.00  0.00     0.094 A 
ATOM     18  N   UNL d   1       5.548   2.764  -1.652  0.00  0.00    -0.360 N 
ATOM     19  C   UNL d   1       6.876   2.919  -1.852  0.00  0.00     0.105 A 
ATOM     20  HN  UNL d   1       5.174   2.033  -1.046  1.00  0.00     0.165 HD
ATOM     21  C   UNL d   1       7.394   3.908  -2.670  0.00  0.00     0.104 A 
ATOM     22  N   UNL d   1       6.606   4.781  -3.335  0.00  0.00    -0.372 N 
ATOM     23  C   UNL d   1       5.270   4.625  -3.137  0.00  0.00     0.121 A 
ATOM     24  HN  UNL d   1       6.987   5.506  -3.943  1.00  0.00     0.164 HD
ENDBRANCH  12  17
ENDBRANCH   9  10
ENDBRANCH   2   9
BRANCH   3  25
ATOM     25  S   UNL d   1       0.765  -2.544   1.017  0.00  0.00    -0.083 SA
BRANCH  25  26
ATOM     26  C   UNL d   1      -0.741  -3.547   0.920  0.00  0.00     0.185 C 
BRANCH  26  27
ATOM     27  C   UNL d   1      -1.747  -3.181   2.003  0.00  0.00     0.231 C 
ATOM     28  N   UNL d   1      -2.588  -2.145   1.639  0.00  0.00    -0.327 N 
ATOM     29  H   UNL d   1      -2.357  -1.659   0.771  0.00  0.00     0.169 HD
ATOM     30  O   UNL d   1      -1.791  -3.817   3.054  0.00  0.00    -0.272 OA
BRANCH  28  31
ATOM     31  C   UNL d   1      -3.713  -1.653   2.327  0.00  0.00     0.034 A 
ATOM     32  C   UNL d   1      -4.120  -2.100   3.585  0.00  0.00     0.029 A 
ATOM     33  C   UNL d   1      -5.283  -1.591   4.174  0.00  0.00     0.002 A 
ATOM     34  C   UNL d   1      -6.049  -0.637   3.508  0.00  0.00     0.000 A 
ATOM     35  C   UNL d   1      -5.643  -0.174   2.260  0.00  0.00     0.002 A 
ATOM     36  C   UNL d   1      -4.475  -0.672   1.678  0.00  0.00     0.029 A 
ENDBRANCH  28  31
ENDBRANCH  26  27
ENDBRANCH  25  26
ENDBRANCH   3  25
TORSDOF 7
