REMARK  4 active torsions:
REMARK  status: ('A' for Active; 'I' for Inactive)
REMARK       I    between atoms: N_3  and  C_1 
REMARK       I    between atoms: N_6  and  C_1 
REMARK    1  A    between atoms: C_2  and  O_7 
REMARK    2  A    between atoms: C_4  and  N_3 
REMARK    3  A    between atoms: C_13  and  N_6 
REMARK    4  A    between atoms: O_7  and  C_14 
ROOT
ATOM      1  C   UNL d   1       0.639  -0.158   1.156  0.00  0.00     0.321 C 
ATOM      2  N   UNL d   1       0.355   1.113   0.705  0.00  0.00    -0.334 N 
ATOM      3  N   UNL d   1      -0.247  -1.093   0.668  0.00  0.00    -0.309 N 
ATOM      4  O   UNL d   1       1.592  -0.376   1.893  0.00  0.00    -0.247 OA
ATOM      5  H   UNL d   1      -0.524   1.311   0.257  0.00  0.00     0.165 HD
ATOM      6  H   UNL d   1      -0.946  -0.755   0.026  0.00  0.00     0.170 HD
ENDROOT
BRANCH   2   7
ATOM      7  C   UNL d   1       1.144   2.245   1.181  0.00  0.00     0.120 C 
ATOM      8  C   UNL d   1       1.129   3.364   0.156  0.00  0.00    -0.029 A 
ATOM      9  C   UNL d   1       0.567   4.624   0.436  0.00  0.00    -0.050 A 
ATOM     10  C   UNL d   1       1.709   3.139  -1.105  0.00  0.00     0.010 A 
ATOM     11  C   UNL d   1       0.634   5.640  -0.529  0.00  0.00     0.007 A 
ATOM     12  C   UNL d   1      -0.046   4.931   1.779  0.00  0.00     0.039 C 
ATOM     13  C   UNL d   1       1.218   5.403  -1.773  0.00  0.00     0.001 A 
ATOM     14  C   UNL d   1       1.748   4.149  -2.062  0.00  0.00     0.001 A 
ATOM     15  C   UNL d   1      -0.477   3.669   2.520  0.00  0.00     0.007 C 
ATOM     16  C   UNL d   1       0.683   2.682   2.584  0.00  0.00     0.030 C 
ENDBRANCH   2   7
BRANCH   3  17
ATOM     17  C   UNL d   1      -0.231  -2.484   0.915  0.00  0.00     0.036 A 
ATOM     18  C   UNL d   1       0.699  -3.116   1.745  0.00  0.00     0.032 A 
ATOM     19  C   UNL d   1       0.684  -4.505   1.922  0.00  0.00     0.039 A 
ATOM     20  C   UNL d   1      -0.241  -5.288   1.244  0.00  0.00     0.078 A 
ATOM     21  C   UNL d   1      -1.212  -4.660   0.460  0.00  0.00     0.039 A 
ATOM     22  C   UNL d   1      -1.204  -3.269   0.291  0.00  0.00     0.032 A 
BRANCH  20  23
ATOM     23  O   UNL d   1      -0.344  -6.642   1.319  0.00  0.00    -0.255 OA
BRANCH  23  24
ATOM     24  C   UNL d   1       0.851  -7.415   1.423  0.00  0.00     0.530 C 
ATOM     25  F   UNL d   1       1.992  -6.701   1.347  0.00  0.00    -0.144 F 
ATOM     26  F   UNL d   1       0.840  -8.092   2.592  0.00  0.00    -0.144 F 
ATOM     27  F   UNL d   1       0.864  -8.319   0.418  0.00  0.00    -0.144 F 
ENDBRANCH  23  24
ENDBRANCH  20  23
ENDBRANCH   3  17
TORSDOF 4
