REMARK  4 active torsions:
REMARK  status: ('A' for Active; 'I' for Inactive)
REMARK    1  A    between atoms: S_8  and  C_1 
REMARK    2  A    between atoms: C_3  and  C_2 
REMARK    3  A    between atoms: C_5  and  C_3 
REMARK    4  A    between atoms: C_4  and  S_8 
ROOT
ATOM      1  C   UNL d   1      -1.981   4.362   0.041  0.00  0.00     0.062 C 
ATOM      2  C   UNL d   1      -1.503   3.172  -0.350  0.00  0.00     0.054 C 
ENDROOT
BRANCH   1   3
ATOM      3  C   UNL d   1      -3.371   4.848  -0.142  0.00  0.00     0.182 C 
ATOM      4  O   UNL d   1      -3.561   6.047  -0.329  0.00  0.00    -0.288 OA
BRANCH   3   5
ATOM      5  C   UNL d   1      -4.527   3.919  -0.068  0.00  0.00     0.014 A 
ATOM      6  C   UNL d   1      -4.512   2.759   0.712  0.00  0.00     0.017 A 
ATOM      7  C   UNL d   1      -5.637   1.930   0.759  0.00  0.00     0.020 A 
ATOM      8  C   UNL d   1      -6.784   2.278   0.049  0.00  0.00     0.011 A 
ATOM      9  C   UNL d   1      -6.825   3.450  -0.703  0.00  0.00     0.020 A 
ATOM     10 BR   UNL d   1      -8.305   1.157   0.123  0.00  0.00    -0.051 Br
ATOM     11  C   UNL d   1      -5.697   4.272  -0.759  0.00  0.00     0.017 A 
ENDBRANCH   3   5
ENDBRANCH   1   3
BRANCH   2  12
ATOM     12  S   UNL d   1       0.172   2.812  -0.096  0.00  0.00    -0.099 SA
BRANCH  12  13
ATOM     13  C   UNL d   1       0.645   1.891  -1.572  0.00  0.00     0.048 A 
ATOM     14  C   UNL d   1       0.421   2.350  -2.888  0.00  0.00     0.052 A 
ATOM     15 CL   UNL d   1      -0.461   3.792  -3.270  0.00  0.00    -0.083 Cl
ATOM     16  C   UNL d   1       0.953   1.667  -3.994  0.00  0.00     0.025 A 
ATOM     17  C   UNL d   1       1.737   0.533  -3.819  0.00  0.00     0.003 A 
ATOM     18  C   UNL d   1       1.970   0.058  -2.535  0.00  0.00     0.025 A 
ATOM     19  C   UNL d   1       1.427   0.720  -1.424  0.00  0.00     0.052 A 
ATOM     20 CL   UNL d   1       1.796   0.020   0.123  0.00  0.00    -0.083 Cl
ENDBRANCH  12  13
ENDBRANCH   2  12
TORSDOF 4
