REMARK  4 active torsions:
REMARK  status: ('A' for Active; 'I' for Inactive)
REMARK    1  A    between atoms: C_4  and  C_2 
REMARK    2  A    between atoms: C_11  and  C_3 
REMARK    3  A    between atoms: O_7  and  C_4 
REMARK    4  A    between atoms: C_8  and  O_7 
ROOT
ATOM      1  S   UNL d   1      -0.881  -0.042  -0.580  0.00  0.00    -0.084 SA
ATOM      2  C   UNL d   1       0.197   1.252  -0.252  0.00  0.00     0.081 A 
ATOM      3  C   UNL d   1       0.286  -1.243  -0.214  0.00  0.00     0.016 A 
ATOM      4  C   UNL d   1       1.448   0.770   0.082  0.00  0.00     0.026 A 
ATOM      5  C   UNL d   1       1.502  -0.656   0.090  0.00  0.00     0.021 A 
ENDROOT
BRANCH   2   6
ATOM      6  C   UNL d   1      -0.202   2.647  -0.372  0.00  0.00     0.305 C 
ATOM      7  O   UNL d   1       0.498   3.616  -0.086  0.00  0.00    -0.258 OA
BRANCH   6   8
ATOM      8  O   UNL d   1      -1.492   2.739  -0.902  0.00  0.00    -0.273 OA
BRANCH   8   9
ATOM      9  C   UNL d   1      -1.802   3.895  -1.636  0.00  0.00     0.101 A 
ATOM     10  C   UNL d   1      -1.095   4.252  -2.792  0.00  0.00     0.069 A 
ATOM     11  C   UNL d   1      -1.517   5.342  -3.551  0.00  0.00     0.050 A 
ATOM     12 CL   UNL d   1       0.241   3.331  -3.386  0.00  0.00    -0.081 Cl
ATOM     13  C   UNL d   1      -2.662   6.043  -3.176  0.00  0.00     0.035 A 
ATOM     14  C   UNL d   1      -3.392   5.664  -2.049  0.00  0.00     0.026 A 
ATOM     15 CL   UNL d   1      -3.198   7.365  -4.139  0.00  0.00    -0.084 Cl
ATOM     16  C   UNL d   1      -2.962   4.585  -1.271  0.00  0.00     0.041 A 
ENDBRANCH   8   9
ENDBRANCH   6   8
ENDBRANCH   2   6
BRANCH   3  17
ATOM     17  C   UNL d   1      -0.072  -2.674  -0.199  0.00  0.00    -0.019 A 
ATOM     18  C   UNL d   1      -0.975  -3.241  -1.114  0.00  0.00     0.014 A 
ATOM     19  C   UNL d   1      -1.295  -4.604  -1.054  0.00  0.00     0.024 A 
ATOM     20  C   UNL d   1      -0.712  -5.414  -0.083  0.00  0.00     0.034 A 
ATOM     21  C   UNL d   1       0.184  -4.873   0.833  0.00  0.00     0.024 A 
ATOM     22 CL   UNL d   1      -1.099  -7.088  -0.012  0.00  0.00    -0.084 Cl
ATOM     23  C   UNL d   1       0.501  -3.513   0.773  0.00  0.00     0.014 A 
ENDBRANCH   3  17
TORSDOF 4
