REMARK  1 active torsions:
REMARK  status: ('A' for Active; 'I' for Inactive)
REMARK    1  A    between atoms: N_7  and  C_5 
ROOT
ATOM      1  C   UNL d   1      -1.268  -0.712  -0.061  0.00  0.00     0.264 C 
ATOM      2  C   UNL d   1       1.261  -0.758   0.002  0.00  0.00     0.264 C 
ATOM      3  N   UNL d   1      -1.133   0.651  -0.106  0.00  0.00    -0.277 N 
ATOM      4  N   UNL d   1       1.180   0.608  -0.069  0.00  0.00    -0.277 N 
ATOM      5  C   UNL d   1      -0.017  -1.522  -0.097  0.00  0.00     0.339 C 
ATOM      6  C   UNL d   1       0.037   1.346  -0.061  0.00  0.00     0.329 C 
ATOM      7  O   UNL d   1      -2.387  -1.214   0.037  0.00  0.00    -0.270 OA
ATOM      8  O   UNL d   1       2.352  -1.301   0.173  0.00  0.00    -0.270 OA
ATOM      9  O   UNL d   1       0.058   2.567   0.029  0.00  0.00    -0.247 OA
ATOM     10  H   UNL d   1      -1.983   1.199  -0.070  0.00  0.00     0.173 HD
ATOM     11  H   UNL d   1       2.048   1.124   0.005  0.00  0.00     0.173 HD
ENDROOT
BRANCH   5  12
ATOM     12  N   UNL d   1       0.000  -2.206  -1.412  0.00  0.00    -0.132 N 
ATOM     13  O   UNL d   1      -0.064  -3.442  -1.409  0.00  0.00    -0.535 OA
ATOM     14  O   UNL d   1       0.074  -1.495  -2.426  0.00  0.00    -0.535 OA
ENDBRANCH   5  12
TORSDOF 1
