REMARK  5 active torsions:
REMARK  status: ('A' for Active; 'I' for Inactive)
REMARK    1  A    between atoms: C_8  and  C_1 
REMARK    2  A    between atoms: C_18  and  C_4 
REMARK    3  A    between atoms: C_5  and  C_6 
REMARK       I    between atoms: N_15  and  C_8 
REMARK    4  A    between atoms: C_9  and  N_13 
REMARK    5  A    between atoms: N_13  and  N_15 
ROOT
ATOM      1  C   UNL d   1       0.275  -2.700   0.098  0.00  0.00     0.271 C 
ATOM      2  N   UNL d   1       1.559  -2.982   0.543  0.00  0.00    -0.281 N 
ATOM      3  O   UNL d   1      -0.497  -3.603  -0.225  0.00  0.00    -0.266 OA
ATOM      4  H   UNL d   1       2.267  -2.261   0.632  0.00  0.00     0.184 HD
ENDROOT
BRANCH   2   5
ATOM      5  N   UNL d   1       2.066  -4.283   0.371  0.00  0.00    -0.186 NA
ATOM      6  H   UNL d   1       1.334  -4.981   0.178  0.00  0.00     0.154 HD
BRANCH   5   7
ATOM      7  C   UNL d   1       2.884  -4.787   1.404  0.00  0.00     0.120 A 
ATOM      8  N   UNL d   1       2.719  -6.108   1.659  0.00  0.00    -0.353 N 
ATOM      9  C   UNL d   1       3.549  -6.714   2.547  0.00  0.00     0.105 A 
ATOM     10  HN  UNL d   1       1.983  -6.638   1.191  1.00  0.00     0.166 HD
ATOM     11  C   UNL d   1       4.560  -6.065   3.232  0.00  0.00     0.065 A 
ATOM     12  C   UNL d   1       4.711  -4.700   2.992  0.00  0.00     0.044 A 
ATOM     13  C   UNL d   1       3.887  -4.056   2.063  0.00  0.00     0.074 A 
ATOM     14 CL   UNL d   1       4.232  -2.391   1.763  0.00  0.00    -0.081 Cl
BRANCH  11  15
ATOM     15  C   UNL d   1       5.463  -6.824   4.154  0.00  0.00     0.418 C 
ATOM     16  F   UNL d   1       6.414  -6.044   4.737  0.00  0.00    -0.166 F 
ATOM     17  F   UNL d   1       4.790  -7.419   5.176  0.00  0.00    -0.166 F 
ATOM     18  F   UNL d   1       6.138  -7.817   3.517  0.00  0.00    -0.166 F 
ENDBRANCH  11  15
ENDBRANCH   5   7
ENDBRANCH   2   5
BRANCH   1  19
ATOM     19  C   UNL d   1      -0.094  -1.290   0.056  0.00  0.00     0.093 A 
ATOM     20  C   UNL d   1      -1.412  -0.698   0.092  0.00  0.00     0.083 A 
ATOM     21  N   UNL d   1      -1.321   0.638  -0.029  0.00  0.00    -0.259 N 
ATOM     22  O   UNL d   1       0.003   0.944  -0.115  0.00  0.00    -0.241 OA
ATOM     23  HN  UNL d   1      -2.098   1.298  -0.053  1.00  0.00     0.195 HD
ATOM     24  C   UNL d   1       0.744  -0.186  -0.059  0.00  0.00     0.090 A 
ATOM     25  C   UNL d   1       2.197   0.060  -0.148  0.00  0.00     0.080 C 
BRANCH  20  26
ATOM     26  C   UNL d   1      -2.745  -1.284   0.284  0.00  0.00    -0.006 A 
ATOM     27  C   UNL d   1      -3.871  -0.645  -0.268  0.00  0.00     0.014 A 
ATOM     28  C   UNL d   1      -5.164  -1.118  -0.024  0.00  0.00     0.001 A 
ATOM     29  C   UNL d   1      -5.350  -2.244   0.771  0.00  0.00     0.000 A 
ATOM     30  C   UNL d   1      -4.247  -2.892   1.321  0.00  0.00     0.001 A 
ATOM     31  C   UNL d   1      -2.954  -2.411   1.088  0.00  0.00     0.014 A 
ENDBRANCH  20  26
ENDBRANCH   1  19
TORSDOF 5
