REMARK  1 active torsions:
REMARK  status: ('A' for Active; 'I' for Inactive)
REMARK    1  A    between atoms: O_11  and  C_5 
ROOT
ATOM      1  C   UNL d   1      -0.008  -0.777   0.001  0.00  0.00     0.027 A 
ATOM      2  N   UNL d   1       1.175   1.337  -0.055  0.00  0.00    -0.359 N 
ATOM      3  HN  UNL d   1       1.156   2.356  -0.078  1.00  0.00     0.166 HD
ATOM      4  C   UNL d   1       0.030   0.635  -0.035  0.00  0.00     0.045 A 
ATOM      5  C   UNL d   1       1.240  -1.430   0.015  0.00  0.00     0.080 A 
ATOM      6  C   UNL d   1       2.426  -0.709  -0.003  0.00  0.00     0.062 A 
ATOM      7  C   UNL d   1       2.354   0.672  -0.045  0.00  0.00     0.008 A 
ATOM      8  C   UNL d   1      -1.265  -1.428   0.019  0.00  0.00     0.058 A 
ATOM      9  C   UNL d   1      -1.167   1.342  -0.053  0.00  0.00     0.033 A 
ATOM     10  C   UNL d   1      -2.440  -0.686  -0.008  0.00  0.00     0.117 A 
ATOM     11  C   UNL d   1      -2.404   0.696  -0.044  0.00  0.00     0.044 A 
ATOM     12  F   UNL d   1      -3.619  -1.319   0.001  0.00  0.00    -0.206 F 
ATOM     13  C   UNL d   1       3.596   1.509  -0.082  0.00  0.00     0.068 C 
ENDROOT
BRANCH   5  14
ATOM     14  O   UNL d   1       1.390  -2.791   0.041  0.00  0.00    -0.360 OA
ATOM     15  H   UNL d   1       0.528  -3.224  -0.053  0.00  0.00     0.217 HD
ENDBRANCH   5  14
TORSDOF 1
