REMARK  5 active torsions:
REMARK  status: ('A' for Active; 'I' for Inactive)
REMARK    1  A    between atoms: C_2  and  C_1 
REMARK       I    between atoms: N_4  and  C_2 
REMARK    2  A    between atoms: C_3  and  N_5 
REMARK    3  A    between atoms: N_5  and  N_4 
REMARK    4  A    between atoms: O_12  and  C_7 
REMARK    5  A    between atoms: O_11  and  C_8 
ROOT
ATOM      1  C   UNL d   1       2.942  -0.238   0.348  0.00  0.00     0.275 C 
ATOM      2  N   UNL d   1       3.592  -1.329  -0.204  0.00  0.00    -0.263 N 
ATOM      3  O   UNL d   1       3.542   0.588   1.033  0.00  0.00    -0.266 OA
ATOM      4  H   UNL d   1       3.093  -2.110  -0.625  0.00  0.00     0.190 HD
ENDROOT
BRANCH   1   5
ATOM      5  C   UNL d   1       1.480  -0.119   0.075  0.00  0.00     0.100 A 
ATOM      6  C   UNL d   1       0.623  -1.236   0.177  0.00  0.00     0.086 A 
ATOM      7  C   UNL d   1      -0.754  -1.062  -0.020  0.00  0.00     0.038 A 
ATOM      8  C   UNL d   1      -1.278   0.198  -0.302  0.00  0.00     0.005 A 
ATOM      9  C   UNL d   1      -0.433   1.299  -0.410  0.00  0.00     0.038 A 
ATOM     10  C   UNL d   1       0.946   1.154  -0.220  0.00  0.00     0.086 A 
BRANCH   6  11
ATOM     11  O   UNL d   1       1.190  -2.455   0.457  0.00  0.00    -0.355 OA
ATOM     12  C   UNL d   1       0.316  -3.488   0.904  0.00  0.00     0.210 C 
ENDBRANCH   6  11
BRANCH  10  13
ATOM     13  O   UNL d   1       1.824   2.195  -0.385  0.00  0.00    -0.355 OA
ATOM     14  C   UNL d   1       1.308   3.508  -0.203  0.00  0.00     0.210 C 
ENDBRANCH  10  13
ENDBRANCH   1   5
BRANCH   2  15
ATOM     15  N   UNL d   1       4.952  -1.491   0.095  0.00  0.00    -0.274 N 
ATOM     16  H   UNL d   1       5.357  -0.700   0.593  0.00  0.00     0.189 HD
BRANCH  15  17
ATOM     17  C   UNL d   1       5.750  -2.340  -0.627  0.00  0.00     0.184 C 
ATOM     18  S   UNL d   1       5.241  -3.480  -1.730  0.00  0.00    -0.040 SA
ATOM     19  N   UNL d   1       7.075  -2.214  -0.345  0.00  0.00    -0.375 N 
ATOM     20  H   UNL d   1       7.424  -1.587   0.365  0.00  0.00     0.158 HD
ATOM     21  H   UNL d   1       7.734  -2.826  -0.809  0.00  0.00     0.158 HD
ENDBRANCH  15  17
ENDBRANCH   2  15
TORSDOF 5
