REMARK  8 active torsions:
REMARK  status: ('A' for Active; 'I' for Inactive)
REMARK    1  A    between atoms: N_8  and  C_1 
REMARK    2  A    between atoms: N_9  and  C_1 
REMARK    3  A    between atoms: N_2  and  N_9 
REMARK    4  A    between atoms: C_4  and  C_17 
REMARK    5  A    between atoms: O_20  and  C_5 
REMARK    6  A    between atoms: C_17  and  N_8 
REMARK    7  A    between atoms: O_21  and  C_10 
REMARK    8  A    between atoms: C_18  and  C_16 
ROOT
ATOM      1  N   UNL d   1       3.143   1.264  -0.168  0.00  0.00    -0.309 N 
ATOM      2  HN  UNL d   1       2.693   2.179  -0.161  1.00  0.00     0.186 HD
ATOM      3  C   UNL d   1       4.411   1.133  -0.388  0.00  0.00     0.118 C 
ENDROOT
BRANCH   1   4
ATOM      4  N   UNL d   1       2.441   0.119   0.053  0.00  0.00    -0.277 N 
ATOM      5  H   UNL d   1       2.895  -0.788   0.043  0.00  0.00     0.189 HD
BRANCH   4   6
ATOM      6  C   UNL d   1       1.065   0.175   0.165  0.00  0.00     0.186 C 
ATOM      7  S   UNL d   1       0.177  -1.225   0.325  0.00  0.00    -0.040 SA
BRANCH   6   8
ATOM      8  N   UNL d   1       0.579   1.457   0.114  0.00  0.00    -0.360 N 
ATOM      9  H   UNL d   1       1.324   2.108  -0.121  0.00  0.00     0.162 HD
BRANCH   8  10
ATOM     10  C   UNL d   1      -0.769   1.831  -0.248  0.00  0.00     0.187 C 
BRANCH  10  11
ATOM     11  C   UNL d   1      -0.905   3.307  -0.185  0.00  0.00     0.070 A 
ATOM     12  O   UNL d   1      -0.544   4.005  -1.302  0.00  0.00    -0.325 OA
ATOM     13  C   UNL d   1      -0.790   5.317  -1.048  0.00  0.00     0.142 A 
ATOM     14  C   UNL d   1      -1.293   5.475   0.222  0.00  0.00     0.027 A 
ATOM     15  C   UNL d   1      -1.359   4.178   0.785  0.00  0.00     0.036 A 
ENDBRANCH  10  11
ENDBRANCH   8  10
ENDBRANCH   6   8
ENDBRANCH   4   6
ENDBRANCH   1   4
BRANCH   3  16
ATOM     16  C   UNL d   1       5.246   2.330  -0.624  0.00  0.00    -0.017 A 
ATOM     17  C   UNL d   1       6.620   2.182  -0.845  0.00  0.00     0.052 A 
ATOM     18  C   UNL d   1       7.414   3.316  -1.049  0.00  0.00     0.102 A 
ATOM     19  C   UNL d   1       6.811   4.585  -1.028  0.00  0.00     0.099 A 
ATOM     20  C   UNL d   1       5.439   4.730  -0.817  0.00  0.00     0.040 A 
ATOM     21  C   UNL d   1       4.657   3.599  -0.616  0.00  0.00     0.016 A 
BRANCH  18  22
ATOM     22  O   UNL d   1       8.767   3.301  -1.266  0.00  0.00    -0.353 OA
ATOM     23  C   UNL d   1       9.417   2.040  -1.312  0.00  0.00     0.210 C 
ENDBRANCH  18  22
BRANCH  19  24
ATOM     24  O   UNL d   1       7.584   5.698  -1.217  0.00  0.00    -0.358 OA
ATOM     25  H   UNL d   1       7.029   6.489  -1.139  0.00  0.00     0.217 HD
ENDBRANCH  19  24
ENDBRANCH   3  16
TORSDOF 8
