REMARK  2 active torsions:
REMARK  status: ('A' for Active; 'I' for Inactive)
REMARK    1  A    between atoms: C_11  and  C_5 
REMARK    2  A    between atoms: C_17  and  C_9 
ROOT
ATOM      1  C   UNL d   1      -0.328  -0.697   0.020  0.00  0.00     0.112 A 
ATOM      2  N   UNL d   1      -1.582  -1.102   0.052  0.00  0.00    -0.340 N 
ATOM      3  HN  UNL d   1      -1.920  -2.063   0.106  1.00  0.00     0.167 HD
ATOM      4  N   UNL d   1      -0.246   0.688  -0.017  0.00  0.00    -0.317 N 
ATOM      5  C   UNL d   1      -2.339   0.047  -0.001  0.00  0.00     0.060 A 
ATOM      6  C   UNL d   1      -1.531   1.165  -0.036  0.00  0.00     0.128 A 
ATOM      7  C   UNL d   1       0.898  -1.420   0.032  0.00  0.00     0.056 A 
ATOM      8  C   UNL d   1       0.955   1.388  -0.022  0.00  0.00     0.098 A 
ATOM      9  C   UNL d   1       2.082  -0.763   0.019  0.00  0.00    -0.054 A 
ATOM     10  C   UNL d   1       2.112   0.703   0.002  0.00  0.00     0.025 A 
ENDROOT
BRANCH   5  11
ATOM     11  C   UNL d   1      -3.791   0.053   0.007  0.00  0.00    -0.008 A 
ATOM     12  C   UNL d   1      -4.490  -0.966   0.664  0.00  0.00     0.014 A 
ATOM     13  C   UNL d   1      -5.888  -0.966   0.696  0.00  0.00     0.007 A 
ATOM     14  C   UNL d   1      -6.612   0.048   0.057  0.00  0.00    -0.062 A 
ATOM     15  C   UNL d   1      -5.917   1.060  -0.613  0.00  0.00     0.007 A 
ATOM     16  C   UNL d   1      -8.111   0.044   0.101  0.00  0.00     0.048 C 
ATOM     17  C   UNL d   1      -4.519   1.063  -0.636  0.00  0.00     0.014 A 
ENDBRANCH   5  11
BRANCH   9  18
ATOM     18  C   UNL d   1       3.401  -1.497   0.078  0.00  0.00     0.034 C 
ATOM     19  C   UNL d   1       4.283  -1.282  -1.146  0.00  0.00     0.010 C 
ENDBRANCH   9  18
TORSDOF 2
