REMARK  6 active torsions:
REMARK  status: ('A' for Active; 'I' for Inactive)
REMARK    1  A    between atoms: N_2  and  S_1 
REMARK    2  A    between atoms: C_7  and  S_1 
REMARK    3  A    between atoms: N_5  and  N_2 
REMARK    4  A    between atoms: C_3  and  N_6 
REMARK    5  A    between atoms: C_4  and  N_5 
REMARK    6  A    between atoms: N_6  and  C_4 
ROOT
ATOM      1  N   UNL d   1       0.958  -1.311   2.223  0.00  0.00    -0.266 N 
ATOM      2  H   UNL d   1       1.263  -2.154   1.739  0.00  0.00     0.190 HD
ENDROOT
BRANCH   1   3
ATOM      3  C   UNL d   1       1.523  -1.085   3.450  0.00  0.00     0.191 C 
ATOM      4  S   UNL d   1       2.054   0.413   3.985  0.00  0.00    -0.039 SA
BRANCH   3   5
ATOM      5  N   UNL d   1       1.562  -2.122   4.344  0.00  0.00    -0.329 N 
ATOM      6  H   UNL d   1       1.670  -1.771   5.294  0.00  0.00     0.168 HD
BRANCH   5   7
ATOM      7  C   UNL d   1       0.985  -3.419   4.252  0.00  0.00     0.078 A 
ATOM      8  C   UNL d   1       1.141  -4.296   3.162  0.00  0.00     0.062 A 
ATOM      9 CL   UNL d   1       2.237  -3.991   1.857  0.00  0.00    -0.082 Cl
ATOM     10  C   UNL d   1       0.503  -5.543   3.150  0.00  0.00     0.026 A 
ATOM     11  C   UNL d   1      -0.268  -5.957   4.234  0.00  0.00     0.003 A 
ATOM     12  C   UNL d   1      -0.378  -5.134   5.352  0.00  0.00     0.026 A 
ATOM     13  C   UNL d   1       0.254  -3.887   5.365  0.00  0.00     0.062 A 
ATOM     14 CL   UNL d   1       0.071  -2.915   6.788  0.00  0.00    -0.082 Cl
ENDBRANCH   5   7
ENDBRANCH   3   5
ENDBRANCH   1   3
BRANCH   1  15
ATOM     15  N   UNL d   1       0.566  -0.203   1.364  0.00  0.00    -0.221 N 
ATOM     16  H   UNL d   1       0.348   0.706   1.780  0.00  0.00     0.200 HD
BRANCH  15  17
ATOM     17  S   UNL d   1       1.211  -0.090  -0.198  0.00  0.00     0.276 S 
ATOM     18  O   UNL d   1       2.634  -0.356  -0.100  0.00  0.00    -0.199 OA
ATOM     19  O   UNL d   1       0.694   1.115  -0.793  0.00  0.00    -0.199 OA
BRANCH  17  20
ATOM     20  C   UNL d   1       0.453  -1.466  -1.013  0.00  0.00     0.081 A 
ATOM     21  C   UNL d   1      -0.937  -1.552  -1.057  0.00  0.00     0.026 A 
ATOM     22  C   UNL d   1      -1.532  -2.629  -1.713  0.00  0.00     0.008 A 
ATOM     23  C   UNL d   1      -0.744  -3.611  -2.329  0.00  0.00    -0.062 A 
ATOM     24  C   UNL d   1       0.652  -3.524  -2.253  0.00  0.00     0.008 A 
ATOM     25  C   UNL d   1      -1.403  -4.723  -3.088  0.00  0.00     0.048 C 
ATOM     26  C   UNL d   1       1.255  -2.453  -1.595  0.00  0.00     0.026 A 
ENDBRANCH  17  20
ENDBRANCH  15  17
ENDBRANCH   1  15
TORSDOF 6
