REMARK  4 active torsions:
REMARK  status: ('A' for Active; 'I' for Inactive)
REMARK    1  A    between atoms: O_13  and  C_3 
REMARK    2  A    between atoms: C_12  and  C_10 
REMARK    3  A    between atoms: C_14  and  C_11 
REMARK    4  A    between atoms: C_18  and  O_13 
ROOT
ATOM      1  N   UNL d   1       0.251   0.617  -0.025  0.00  0.00    -0.217 N 
ATOM      2  C   UNL d   1       0.130  -0.778   0.000  0.00  0.00     0.132 A 
ATOM      3  C   UNL d   1      -0.906   1.420  -0.080  0.00  0.00     0.173 C 
ATOM      4  N   UNL d   1       1.563   0.991   0.003  0.00  0.00    -0.294 N 
ATOM      5  HN  UNL d   1       1.933   1.941   0.029  1.00  0.00     0.187 HD
ATOM      6  N   UNL d   1      -1.076  -1.418   0.019  0.00  0.00    -0.337 N 
ATOM      7  HN  UNL d   1      -1.139  -2.434   0.089  1.00  0.00     0.167 HD
ATOM      8  C   UNL d   1       1.406  -1.275   0.016  0.00  0.00     0.077 A 
ATOM      9  C   UNL d   1      -2.107   0.822  -0.193  0.00  0.00     0.092 C 
ATOM     10  C   UNL d   1      -2.147  -0.671  -0.057  0.00  0.00     0.122 C 
ATOM     11  C   UNL d   1       2.262  -0.152  -0.012  0.00  0.00     0.037 A 
ENDROOT
BRANCH   3  12
ATOM     12  O   UNL d   1      -0.741   2.808  -0.077  0.00  0.00    -0.292 OA
BRANCH  12  13
ATOM     13  C   UNL d   1      -1.654   3.603   0.587  0.00  0.00     0.078 A 
ATOM     14  C   UNL d   1      -2.340   3.203   1.740  0.00  0.00     0.039 A 
ATOM     15  C   UNL d   1      -3.275   4.054   2.334  0.00  0.00     0.026 A 
ATOM     16  C   UNL d   1      -3.483   5.327   1.809  0.00  0.00     0.034 A 
ATOM     17  C   UNL d   1      -2.765   5.755   0.694  0.00  0.00     0.026 A 
ATOM     18 CL   UNL d   1      -4.624   6.378   2.553  0.00  0.00    -0.084 Cl
ATOM     19  C   UNL d   1      -1.850   4.891   0.081  0.00  0.00     0.039 A 
ENDBRANCH  12  13
ENDBRANCH   3  12
BRANCH  10  20
ATOM     20  C   UNL d   1      -3.532  -1.312   0.043  0.00  0.00     0.432 C 
ATOM     21  F   UNL d   1      -4.538  -0.391   0.021  0.00  0.00    -0.165 F 
ATOM     22  F   UNL d   1      -3.783  -2.175  -0.975  0.00  0.00    -0.165 F 
ATOM     23  F   UNL d   1      -3.691  -2.009   1.202  0.00  0.00    -0.165 F 
ENDBRANCH  10  20
BRANCH  11  24
ATOM     24  C   UNL d   1       3.787  -0.152  -0.015  0.00  0.00    -0.007 C 
ATOM     25  C   UNL d   1       4.311  -0.191   1.433  0.00  0.00     0.021 C 
ATOM     26  C   UNL d   1       4.336  -1.388  -0.764  0.00  0.00     0.021 C 
ATOM     27  C   UNL d   1       4.357   1.099  -0.714  0.00  0.00     0.021 C 
ENDBRANCH  11  24
TORSDOF 4
