REMARK  8 active torsions:
REMARK  status: ('A' for Active; 'I' for Inactive)
REMARK    1  A    between atoms: C_4  and  C_1 
REMARK    2  A    between atoms: C_5  and  C_1 
REMARK    3  A    between atoms: N_6  and  N_2 
REMARK    4  A    between atoms: O_12  and  C_4 
REMARK    5  A    between atoms: O_11  and  C_5 
REMARK    6  A    between atoms: C_7  and  N_6 
REMARK    7  A    between atoms: C_17  and  O_11 
REMARK    8  A    between atoms: C_16  and  O_12 
ROOT
ATOM      1  C   UNL d   1       1.098   0.034  -0.009  0.00  0.00     0.199 C 
ATOM      2  N   UNL d   1       0.342   0.733   0.798  0.00  0.00    -0.290 N 
ATOM      3  HN  UNL d   1      -0.670   0.609   0.810  1.00  0.00     0.187 HD
ENDROOT
BRANCH   1   4
ATOM      4  C   UNL d   1       0.407  -0.851  -1.021  0.00  0.00     0.317 C 
ATOM      5  O   UNL d   1       0.830  -1.945  -1.335  0.00  0.00    -0.257 OA
BRANCH   4   6
ATOM      6  O   UNL d   1      -0.617  -0.159  -1.563  0.00  0.00    -0.317 OA
BRANCH   6   7
ATOM      7  C   UNL d   1      -1.157  -0.651  -2.794  0.00  0.00     0.175 C 
ATOM      8  C   UNL d   1      -0.550   0.171  -3.915  0.00  0.00     0.034 C 
ENDBRANCH   6   7
ENDBRANCH   4   6
ENDBRANCH   1   4
BRANCH   1   9
ATOM      9  C   UNL d   1       2.606   0.139  -0.025  0.00  0.00     0.317 C 
ATOM     10  O   UNL d   1       3.258   0.339   0.985  0.00  0.00    -0.257 OA
BRANCH   9  11
ATOM     11  O   UNL d   1       3.040   0.134  -1.300  0.00  0.00    -0.317 OA
BRANCH  11  12
ATOM     12  C   UNL d   1       4.386   0.587  -1.498  0.00  0.00     0.175 C 
ATOM     13  C   UNL d   1       4.325   2.060  -1.857  0.00  0.00     0.034 C 
ENDBRANCH  11  12
ENDBRANCH   9  11
ENDBRANCH   1   9
BRANCH   2  14
ATOM     14  N   UNL d   1       0.948   1.630   1.619  0.00  0.00    -0.298 N 
ATOM     15  H   UNL d   1       1.930   1.516   1.906  0.00  0.00     0.187 HD
BRANCH  14  16
ATOM     16  C   UNL d   1       0.165   2.333   2.561  0.00  0.00     0.069 A 
ATOM     17  C   UNL d   1       0.766   3.223   3.471  0.00  0.00     0.062 A 
ATOM     18 CL   UNL d   1       2.484   3.435   3.499  0.00  0.00    -0.082 Cl
ATOM     19  C   UNL d   1      -0.004   3.959   4.377  0.00  0.00     0.026 A 
ATOM     20  C   UNL d   1      -1.392   3.832   4.375  0.00  0.00     0.002 A 
ATOM     21  C   UNL d   1      -2.008   2.985   3.457  0.00  0.00     0.002 A 
ATOM     22  C   UNL d   1      -1.236   2.255   2.550  0.00  0.00     0.033 A 
ENDBRANCH  14  16
ENDBRANCH   2  14
TORSDOF 8
