REMARK  3 active torsions:
REMARK  status: ('A' for Active; 'I' for Inactive)
REMARK    1  A    between atoms: C_11  and  C_3 
REMARK    2  A    between atoms: C_12  and  C_8 
REMARK    3  A    between atoms: O_19  and  N_13 
ROOT
ATOM      1  C   UNL d   1       6.732   1.068  -0.030  0.00  0.00     0.172 A 
ATOM      2  N   UNL d   1       7.188  -0.217  -0.009  0.00  0.00    -0.235 N 
ATOM      3  C   UNL d   1       8.820   1.113  -0.008  0.00  0.00     0.207 A 
ATOM      4  N   UNL d   1       7.696   1.940  -0.027  0.00  0.00    -0.316 N 
ATOM      5  HN  UNL d   1       7.644   2.959  -0.037  1.00  0.00     0.169 HD
ATOM      6  N   UNL d   1       8.535  -0.215   0.007  0.00  0.00    -0.273 N 
ATOM      7  HN  UNL d   1       9.176  -1.008   0.025  1.00  0.00     0.189 HD
ATOM      8  C   UNL d   1       4.972  -0.627  -0.021  0.00  0.00     0.057 A 
ATOM      9  C   UNL d   1       6.202  -1.189  -0.003  0.00  0.00     0.052 A 
ATOM     10  S   UNL d   1       5.005   1.142  -0.048  0.00  0.00    -0.048 SA
ATOM     11  C   UNL d   1       6.563  -2.634   0.024  0.00  0.00     0.072 C 
ENDROOT
BRANCH   8  12
ATOM     12  C   UNL d   1       3.678  -1.369  -0.026  0.00  0.00     0.047 C 
ATOM     13  N   UNL d   1       3.627  -2.535  -0.615  0.00  0.00    -0.272 N 
ATOM     14  HN  UNL d   1       4.420  -2.973  -1.084  1.00  0.00     0.194 HD
ATOM     15  C   UNL d   1       2.465  -0.762   0.654  0.00  0.00     0.072 C 
BRANCH  13  16
ATOM     16  O   UNL d   1       2.355  -3.111  -0.526  0.00  0.00    -0.290 OA
ATOM     17  H   UNL d   1       2.472  -3.960  -0.992  0.00  0.00     0.244 HD
ENDBRANCH  13  16
ENDBRANCH   8  12
BRANCH   3  18
ATOM     18  C   UNL d   1      10.237   1.651  -0.004  0.00  0.00     0.450 C 
ATOM     19  F   UNL d   1      10.284   3.012  -0.018  0.00  0.00    -0.163 F 
ATOM     20  F   UNL d   1      10.933   1.255   1.096  0.00  0.00    -0.163 F 
ATOM     21  F   UNL d   1      10.948   1.232  -1.087  0.00  0.00    -0.163 F 
ENDBRANCH   3  18
TORSDOF 3
