REMARK  8 active torsions:
REMARK  status: ('A' for Active; 'I' for Inactive)
REMARK    1  A    between atoms: C_7  and  C_1 
REMARK    2  A    between atoms: S_2  and  C_10 
REMARK    3  A    between atoms: N_9  and  S_2 
REMARK    4  A    between atoms: C_12  and  C_4 
REMARK    5  A    between atoms: C_8  and  C_5 
REMARK    6  A    between atoms: O_31  and  C_8 
REMARK    7  A    between atoms: C_29  and  N_9 
REMARK    8  A    between atoms: C_30  and  C_29 
ROOT
ATOM      1  C   UNL d   1       5.049   3.067   0.150  0.00  0.00     0.074 A 
ATOM      2  C   UNL d   1       2.677   1.539   0.045  0.00  0.00    -0.025 A 
ATOM      3  C   UNL d   1       4.064   3.240   1.116  0.00  0.00     0.025 A 
ATOM      4  C   UNL d   1       4.854   2.161  -0.895  0.00  0.00     0.025 A 
ATOM      5  C   UNL d   1       3.678   1.388  -0.930  0.00  0.00     0.014 A 
ATOM      6  C   UNL d   1       2.881   2.502   1.042  0.00  0.00     0.014 A 
ENDROOT
BRANCH   1   7
ATOM      7  S   UNL d   1       6.448   4.169   0.187  0.00  0.00     0.241 S 
ATOM      8  O   UNL d   1       6.942   4.273  -1.165  0.00  0.00    -0.206 OA
ATOM      9  O   UNL d   1       6.047   5.340   0.940  0.00  0.00    -0.206 OA
BRANCH   7  10
ATOM     10  N   UNL d   1       7.583   3.314   1.153  0.00  0.00    -0.211 NA
ATOM     11  H   UNL d   1       7.114   2.772   1.877  0.00  0.00     0.140 HD
BRANCH  10  12
ATOM     12  C   UNL d   1       8.457   2.507   0.304  0.00  0.00     0.143 C 
BRANCH  12  13
ATOM     13  C   UNL d   1       9.603   1.721   0.876  0.00  0.00    -0.042 A 
ATOM     14  C   UNL d   1      10.386   1.129  -0.131  0.00  0.00     0.048 A 
ATOM     15  C   UNL d   1      11.312   0.195   0.214  0.00  0.00     0.105 A 
ATOM     16  O   UNL d   1      12.008  -0.568  -0.672  0.00  0.00    -0.323 OA
ATOM     17  C   UNL d   1      11.535  -0.151   1.522  0.00  0.00     0.105 A 
ATOM     18  C   UNL d   1      12.376  -1.635   0.214  0.00  0.00     0.352 C 
ATOM     19  O   UNL d   1      12.377  -1.222   1.603  0.00  0.00    -0.323 OA
ATOM     20  C   UNL d   1      10.883   0.494   2.555  0.00  0.00     0.040 A 
ATOM     21  C   UNL d   1       9.890   1.440   2.229  0.00  0.00     0.011 A 
ENDBRANCH  12  13
ENDBRANCH  10  12
ENDBRANCH   7  10
ENDBRANCH   1   7
BRANCH   2  22
ATOM     22  C   UNL d   1       1.441   0.734  -0.017  0.00  0.00    -0.002 A 
ATOM     23  C   UNL d   1       0.751   0.257   1.098  0.00  0.00     0.100 A 
ATOM     24  S   UNL d   1      -0.629  -0.663   0.640  0.00  0.00    -0.079 SA
ATOM     25  C   UNL d   1      -0.316  -0.498  -1.023  0.00  0.00     0.081 A 
ATOM     26  C   UNL d   1       0.802   0.290  -1.238  0.00  0.00     0.038 A 
BRANCH  23  27
ATOM     27  C   UNL d   1       1.020   0.408   2.568  0.00  0.00     0.424 C 
ATOM     28  F   UNL d   1       0.287  -0.431   3.347  0.00  0.00    -0.166 F 
ATOM     29  F   UNL d   1       2.322   0.168   2.875  0.00  0.00    -0.166 F 
ATOM     30  F   UNL d   1       0.736   1.663   3.008  0.00  0.00    -0.166 F 
ENDBRANCH  23  27
BRANCH  25  31
ATOM     31  C   UNL d   1      -1.184  -1.169  -1.980  0.00  0.00     0.299 C 
ATOM     32  O   UNL d   1      -2.141  -1.886  -1.707  0.00  0.00    -0.259 OA
BRANCH  31  33
ATOM     33  O   UNL d   1      -0.776  -0.894  -3.249  0.00  0.00    -0.322 OA
ATOM     34  C   UNL d   1      -1.567  -1.526  -4.261  0.00  0.00     0.213 C 
ENDBRANCH  31  33
ENDBRANCH  25  31
ENDBRANCH   2  22
TORSDOF 8
