REMARK  6 active torsions:
REMARK  status: ('A' for Active; 'I' for Inactive)
REMARK    1  A    between atoms: C_5  and  S_1 
REMARK    2  A    between atoms: N_9  and  S_1 
REMARK       I    between atoms: C_2  and  N_6 
REMARK    3  A    between atoms: C_3  and  C_2 
REMARK    4  A    between atoms: O_12  and  C_4 
REMARK    5  A    between atoms: N_6  and  C_7 
REMARK    6  A    between atoms: C_19  and  O_12 
ROOT
ATOM      1  C   UNL d   1      -0.625   0.446   6.280  0.00  0.00     0.260 C 
ATOM      2  N   UNL d   1      -0.951   0.547   4.936  0.00  0.00    -0.322 N 
ATOM      3  O   UNL d   1      -0.158  -0.537   6.842  0.00  0.00    -0.267 OA
ATOM      4  H   UNL d   1      -1.601   1.277   4.675  0.00  0.00     0.169 HD
ENDROOT
BRANCH   1   5
ATOM      5  C   UNL d   1      -0.849   1.677   7.062  0.00  0.00     0.083 A 
ATOM      6  C   UNL d   1      -1.639   1.708   8.206  0.00  0.00     0.163 A 
ATOM      7  N   UNL d   1      -1.718   2.808   9.004  0.00  0.00    -0.346 N 
ATOM      8  C   UNL d   1      -1.015   3.901   8.644  0.00  0.00     0.090 A 
ATOM      9  HN  UNL d   1      -2.292   2.805   9.848  1.00  0.00     0.167 HD
ATOM     10  C   UNL d   1      -0.237   3.967   7.501  0.00  0.00     0.018 A 
ATOM     11  C   UNL d   1      -0.150   2.834   6.698  0.00  0.00     0.023 A 
BRANCH   6  12
ATOM     12  O   UNL d   1      -2.395   0.586   8.528  0.00  0.00    -0.293 OA
BRANCH  12  13
ATOM     13  C   UNL d   1      -3.432   0.738   9.424  0.00  0.00     0.077 A 
ATOM     14  C   UNL d   1      -4.399   1.743   9.312  0.00  0.00     0.037 A 
ATOM     15  C   UNL d   1      -5.428   1.834  10.253  0.00  0.00     0.003 A 
ATOM     16  C   UNL d   1      -5.514   0.901  11.284  0.00  0.00     0.000 A 
ATOM     17  C   UNL d   1      -4.578  -0.130  11.371  0.00  0.00     0.003 A 
ATOM     18  C   UNL d   1      -3.541  -0.215  10.437  0.00  0.00     0.037 A 
ENDBRANCH  12  13
ENDBRANCH   6  12
ENDBRANCH   1   5
BRANCH   2  19
ATOM     19  C   UNL d   1      -0.609  -0.405   3.945  0.00  0.00     0.042 A 
ATOM     20  C   UNL d   1       0.543  -1.192   4.074  0.00  0.00     0.055 A 
ATOM     21  C   UNL d   1       0.891  -2.108   3.075  0.00  0.00     0.081 A 
ATOM     22  C   UNL d   1       0.080  -2.269   1.952  0.00  0.00     0.026 A 
ATOM     23  C   UNL d   1      -1.054  -1.471   1.806  0.00  0.00     0.010 A 
ATOM     24  C   UNL d   1      -1.393  -0.511   2.778  0.00  0.00    -0.035 A 
ATOM     25  C   UNL d   1      -2.579   0.379   2.521  0.00  0.00     0.050 C 
BRANCH  21  26
ATOM     26  S   UNL d   1       2.487  -2.906   3.125  0.00  0.00     0.260 S 
ATOM     27  O   UNL d   1       3.417  -1.959   3.700  0.00  0.00    -0.200 OA
ATOM     28  O   UNL d   1       2.724  -3.466   1.811  0.00  0.00    -0.200 OA
BRANCH  26  29
ATOM     29  N   UNL d   1       2.286  -4.197   4.207  0.00  0.00    -0.315 N 
ATOM     30  C   UNL d   1       2.183  -3.868   5.637  0.00  0.00     0.162 C 
ATOM     31  C   UNL d   1       1.406  -5.295   3.784  0.00  0.00     0.162 C 
ENDBRANCH  26  29
ENDBRANCH  21  26
ENDBRANCH   2  19
TORSDOF 6
