REMARK  7 active torsions:
REMARK  status: ('A' for Active; 'I' for Inactive)
REMARK    1  A    between atoms: C_4  and  C_3 
REMARK    2  A    between atoms: O_21  and  C_7 
REMARK    3  A    between atoms: C_9  and  O_20 
REMARK       I    between atoms: N_12  and  C_9 
REMARK    4  A    between atoms: C_10  and  C_16 
REMARK    5  A    between atoms: C_24  and  C_11 
REMARK    6  A    between atoms: C_22  and  N_12 
REMARK    7  A    between atoms: O_20  and  C_24 
ROOT
ATOM      1  N   UNL d   1       1.162   1.374  -0.012  0.00  0.00    -0.352 N 
ATOM      2  HN  UNL d   1       1.112   2.392   0.012  1.00  0.00     0.166 HD
ATOM      3  C   UNL d   1       2.368   0.743  -0.011  0.00  0.00     0.119 A 
ATOM      4  C   UNL d   1       0.052  -0.770  -0.062  0.00  0.00     0.025 A 
ATOM      5  C   UNL d   1       0.040   0.639  -0.045  0.00  0.00     0.045 A 
ATOM      6  C   UNL d   1       1.310  -1.412  -0.017  0.00  0.00     0.082 A 
ATOM      7  C   UNL d   1       2.474  -0.646   0.002  0.00  0.00     0.072 A 
ATOM      8  C   UNL d   1      -1.179  -1.467  -0.142  0.00  0.00     0.037 A 
ATOM      9  C   UNL d   1      -1.181   1.299  -0.086  0.00  0.00     0.032 A 
ATOM     10  C   UNL d   1      -2.394  -0.782  -0.219  0.00  0.00     0.018 A 
ATOM     11  C   UNL d   1      -2.392   0.607  -0.180  0.00  0.00     0.023 A 
ENDROOT
BRANCH  10  12
ATOM     12  C   UNL d   1      -3.629  -1.497  -0.315  0.00  0.00    -0.065 C 
ATOM     13  C   UNL d   1      -4.672  -2.100  -0.318  0.00  0.00    -0.074 C 
BRANCH  13  14
ATOM     14  C   UNL d   1      -5.912  -2.867  -0.150  0.00  0.00     0.274 C 
BRANCH  14  15
ATOM     15  O   UNL d   1      -6.694  -2.892  -1.353  0.00  0.00    -0.292 OA
BRANCH  15  16
ATOM     16  C   UNL d   1      -7.176  -4.111  -1.701  0.00  0.00     0.366 C 
ATOM     17  N   UNL d   1      -8.141  -4.139  -2.673  0.00  0.00    -0.303 N 
ATOM     18  H   UNL d   1      -8.430  -5.091  -2.854  0.00  0.00     0.171 HD
ATOM     19  O   UNL d   1      -6.830  -5.168  -1.180  0.00  0.00    -0.238 OA
BRANCH  17  20
ATOM     20  C   UNL d   1      -8.901  -3.131  -3.293  0.00  0.00     0.036 A 
ATOM     21  C   UNL d   1      -8.711  -1.762  -3.112  0.00  0.00     0.029 A 
ATOM     22  C   UNL d   1      -9.600  -0.843  -3.683  0.00  0.00     0.002 A 
ATOM     23  C   UNL d   1     -10.677  -1.283  -4.451  0.00  0.00     0.000 A 
ATOM     24  C   UNL d   1     -10.848  -2.643  -4.678  0.00  0.00     0.002 A 
ATOM     25  C   UNL d   1      -9.961  -3.560  -4.108  0.00  0.00     0.029 A 
ENDBRANCH  17  20
ENDBRANCH  15  16
ENDBRANCH  14  15
ENDBRANCH  13  14
ENDBRANCH  10  12
BRANCH   6  26
ATOM     26  O   UNL d   1       1.289  -2.785  -0.012  0.00  0.00    -0.355 OA
ATOM     27  C   UNL d   1       2.533  -3.473  -0.001  0.00  0.00     0.210 C 
ENDBRANCH   6  26
BRANCH   3  28
ATOM     28  C   UNL d   1       3.644   1.572  -0.072  0.00  0.00     0.432 C 
ATOM     29  F   UNL d   1       3.446   2.920  -0.069  0.00  0.00    -0.165 F 
ATOM     30  F   UNL d   1       4.484   1.315   0.973  0.00  0.00    -0.165 F 
ATOM     31  F   UNL d   1       4.376   1.307  -1.195  0.00  0.00    -0.165 F 
ENDBRANCH   3  28
TORSDOF 7
