REMARK  5 active torsions:
REMARK  status: ('A' for Active; 'I' for Inactive)
REMARK    1  A    between atoms: C_4  and  S_1 
REMARK    2  A    between atoms: C_5  and  S_1 
REMARK    3  A    between atoms: C_2  and  S_11 
REMARK    4  A    between atoms: C_14  and  C_5 
REMARK    5  A    between atoms: S_11  and  C_14 
ROOT
ATOM      1  S   UNL d   1       1.070   0.091  -0.033  0.00  0.00     0.176 S 
ATOM      2  O   UNL d   1       2.496  -0.112   0.138  0.00  0.00    -0.223 OA
ATOM      3  O   UNL d   1       0.549   1.367  -0.484  0.00  0.00    -0.223 OA
ENDROOT
BRANCH   1   4
ATOM      4  C   UNL d   1       0.289  -0.278   1.524  0.00  0.00     0.059 A 
ATOM      5  C   UNL d   1       0.938  -1.108   2.445  0.00  0.00     0.026 A 
ATOM      6  C   UNL d   1       0.328  -1.376   3.672  0.00  0.00     0.044 A 
ATOM      7  C   UNL d   1      -0.908  -0.808   3.967  0.00  0.00     0.116 A 
ATOM      8  C   UNL d   1      -1.549   0.029   3.058  0.00  0.00     0.044 A 
ATOM      9  F   UNL d   1      -1.488  -1.067   5.145  0.00  0.00    -0.206 F 
ATOM     10  C   UNL d   1      -0.948   0.304   1.828  0.00  0.00     0.026 A 
ENDBRANCH   1   4
BRANCH   1  11
ATOM     11  C   UNL d   1       0.450  -1.179  -1.113  0.00  0.00     0.156 C 
BRANCH  11  12
ATOM     12  C   UNL d   1       0.970  -0.963  -2.523  0.00  0.00     0.095 C 
BRANCH  12  13
ATOM     13  S   UNL d   1       0.293  -2.261  -3.601  0.00  0.00    -0.122 SA
BRANCH  13  14
ATOM     14  C   UNL d   1       1.015  -1.893  -5.161  0.00  0.00     0.041 A 
ATOM     15  S   UNL d   1       1.363  -3.152  -6.271  0.00  0.00    -0.095 SA
ATOM     16  C   UNL d   1       1.932  -2.052  -7.449  0.00  0.00     0.051 A 
ATOM     17  C   UNL d   1       1.861  -0.749  -7.011  0.00  0.00     0.009 A 
ATOM     18  C   UNL d   1       1.330  -0.657  -5.689  0.00  0.00     0.026 A 
ENDBRANCH  13  14
ENDBRANCH  12  13
ENDBRANCH  11  12
ENDBRANCH   1  11
TORSDOF 5
