REMARK  2 active torsions:
REMARK  status: ('A' for Active; 'I' for Inactive)
REMARK       I    between atoms: C_2  and  N_1 
REMARK    1  A    between atoms: C_11  and  C_2 
REMARK    2  A    between atoms: N_3  and  C_10 
ROOT
ATOM      1  N   UNL d   1       0.617   1.450   0.669  0.00  0.00    -0.307 N 
ATOM      2  C   UNL d   1       0.776   2.028   1.947  0.00  0.00     0.258 C 
ATOM      3  C   UNL d   1       1.736   1.560  -0.272  0.00  0.00     0.098 C 
ATOM      4  N   UNL d   1       0.983  -1.357  -0.309  0.00  0.00    -0.325 N 
ATOM      5  C   UNL d   1      -0.455   0.618   0.284  0.00  0.00     0.064 A 
ATOM      6  C   UNL d   1       2.276  -0.951  -0.319  0.00  0.00     0.224 C 
ATOM      7  C   UNL d   1       2.737   0.450  -0.036  0.00  0.00     0.128 C 
ATOM      8  C   UNL d   1      -0.253  -0.709  -0.137  0.00  0.00     0.061 A 
ATOM      9  O   UNL d   1       1.776   2.700   2.230  0.00  0.00    -0.267 OA
ATOM     10  O   UNL d   1       3.125  -1.825  -0.544  0.00  0.00    -0.273 OA
ATOM     11  C   UNL d   1       1.326   1.728  -1.743  0.00  0.00     0.033 C 
ATOM     12  C   UNL d   1      -1.758   1.144   0.333  0.00  0.00     0.032 A 
ATOM     13  C   UNL d   1      -1.382  -1.507  -0.392  0.00  0.00     0.032 A 
ATOM     14  C   UNL d   1      -2.862   0.345   0.042  0.00  0.00     0.002 A 
ATOM     15  C   UNL d   1      -2.674  -0.989  -0.299  0.00  0.00     0.002 A 
ATOM     16  H   UNL d   1       0.941  -2.343  -0.543  0.00  0.00     0.169 HD
ENDROOT
BRANCH   2  17
ATOM     17  C   UNL d   1      -0.237   1.890   3.039  0.00  0.00     0.032 A 
ATOM     18  C   UNL d   1      -0.977   0.727   3.298  0.00  0.00     0.019 A 
ATOM     19  C   UNL d   1      -1.983   0.727   4.272  0.00  0.00     0.037 A 
ATOM     20  C   UNL d   1      -2.199   1.874   5.047  0.00  0.00     0.102 A 
ATOM     21  C   UNL d   1      -1.394   3.004   4.878  0.00  0.00     0.037 A 
ATOM     22  C   UNL d   1      -0.421   3.007   3.874  0.00  0.00     0.019 A 
BRANCH  20  23
ATOM     23  N   UNL d   1      -3.287   1.896   6.030  0.00  0.00    -0.116 N 
ATOM     24  O   UNL d   1      -3.307   2.829   6.846  0.00  0.00    -0.532 OA
ATOM     25  O   UNL d   1      -4.130   0.990   5.973  0.00  0.00    -0.532 OA
ENDBRANCH  20  23
ENDBRANCH   2  17
TORSDOF 2
