REMARK  4 active torsions:
REMARK  status: ('A' for Active; 'I' for Inactive)
REMARK    1  A    between atoms: C_6  and  C_1 
REMARK    2  A    between atoms: C_7  and  C_2 
REMARK    3  A    between atoms: C_18  and  N_3 
REMARK       I    between atoms: N_9  and  C_6 
REMARK    4  A    between atoms: C_12  and  N_11 
ROOT
ATOM      1  C   UNL d   1      -0.595   2.506   0.318  0.00  0.00     0.257 C 
ATOM      2  N   UNL d   1       0.346   3.522   0.206  0.00  0.00    -0.345 N 
ATOM      3  N   UNL d   1       2.528   5.324   0.003  0.00  0.00    -0.377 N 
ATOM      4  O   UNL d   1      -0.727   1.643  -0.548  0.00  0.00    -0.267 OA
ATOM      5  C   UNL d   1       1.163   3.560  -1.017  0.00  0.00     0.146 C 
ATOM      6  C   UNL d   1       0.371   4.771   0.993  0.00  0.00     0.146 C 
ATOM      7  C   UNL d   1       2.598   4.037  -0.727  0.00  0.00     0.143 C 
ATOM      8  C   UNL d   1       1.819   5.218   1.287  0.00  0.00     0.143 C 
ENDROOT
BRANCH   1   9
ATOM      9  C   UNL d   1      -1.383   2.439   1.534  0.00  0.00     0.082 A 
ATOM     10  C   UNL d   1      -2.746   2.182   1.663  0.00  0.00     0.157 A 
ATOM     11  N   UNL d   1      -3.014   2.163   3.023  0.00  0.00    -0.251 N 
ATOM     12  N   UNL d   1      -1.860   2.251   3.745  0.00  0.00    -0.303 N 
ATOM     13  C   UNL d   1      -0.901   2.440   2.850  0.00  0.00     0.127 A 
ATOM     14  HN  UNL d   1      -1.757   2.186   4.757  1.00  0.00     0.186 HD
BRANCH  10  15
ATOM     15  C   UNL d   1      -3.756   1.861   0.639  0.00  0.00     0.435 C 
ATOM     16  F   UNL d   1      -3.236   1.620  -0.587  0.00  0.00    -0.165 F 
ATOM     17  F   UNL d   1      -4.479   0.762   0.965  0.00  0.00    -0.165 F 
ATOM     18  F   UNL d   1      -4.631   2.881   0.456  0.00  0.00    -0.165 F 
ENDBRANCH  10  15
BRANCH  11  19
ATOM     19  C   UNL d   1      -4.235   2.091   3.761  0.00  0.00     0.057 A 
ATOM     20  C   UNL d   1      -4.189   1.577   5.070  0.00  0.00     0.031 A 
ATOM     21  C   UNL d   1      -5.338   1.523   5.860  0.00  0.00     0.002 A 
ATOM     22  C   UNL d   1      -6.544   2.002   5.361  0.00  0.00     0.000 A 
ATOM     23  C   UNL d   1      -6.600   2.530   4.073  0.00  0.00     0.002 A 
ATOM     24  C   UNL d   1      -5.452   2.575   3.272  0.00  0.00     0.031 A 
ENDBRANCH  11  19
ENDBRANCH   1   9
BRANCH   3  25
ATOM     25  C   UNL d   1       3.637   6.163  -0.126  0.00  0.00     0.044 A 
ATOM     26  C   UNL d   1       3.883   6.835  -1.358  0.00  0.00     0.017 A 
ATOM     27  C   UNL d   1       5.027   7.659  -1.454  0.00  0.00     0.046 A 
ATOM     28  C   UNL d   1       3.014   6.752  -2.474  0.00  0.00     0.018 A 
ATOM     29  C   UNL d   1       5.290   8.308  -2.651  0.00  0.00     0.054 A 
ATOM     30  N   UNL d   1       5.866   7.853  -0.426  0.00  0.00    -0.365 N 
ATOM     31  C   UNL d   1       4.446   8.177  -3.753  0.00  0.00     0.036 A 
ATOM     32  C   UNL d   1       3.299   7.405  -3.669  0.00  0.00     0.025 A 
ATOM     33 CL   UNL d   1       4.820   8.981  -5.226  0.00  0.00    -0.084 Cl
ATOM     34  C   UNL d   1       5.594   7.233   0.739  0.00  0.00     0.090 A 
ATOM     35  HN  UNL d   1       6.686   8.451  -0.524  1.00  0.00     0.165 HD
ATOM     36  C   UNL d   1       4.514   6.391   0.934  0.00  0.00     0.047 A 
ENDBRANCH   3  25
TORSDOF 4
