REMARK  5 active torsions:
REMARK  status: ('A' for Active; 'I' for Inactive)
REMARK    1  A    between atoms: N_2  and  S_1 
REMARK    2  A    between atoms: C_3  and  S_1 
REMARK    3  A    between atoms: N_4  and  N_2 
REMARK    4  A    between atoms: N_9  and  C_8 
REMARK    5  A    between atoms: C_15  and  C_14 
ROOT
ATOM      1  N   UNL d   1      -1.250  -1.432   2.240  0.00  0.00    -0.223 N 
ATOM      2  H   UNL d   1      -0.575  -0.785   1.831  0.00  0.00     0.200 HD
ENDROOT
BRANCH   1   3
ATOM      3  S   UNL d   1      -2.789  -0.778   2.513  0.00  0.00     0.276 S 
ATOM      4  O   UNL d   1      -2.718   0.615   2.116  0.00  0.00    -0.199 OA
ATOM      5  O   UNL d   1      -3.258  -1.162   3.827  0.00  0.00    -0.199 OA
BRANCH   3   6
ATOM      6  C   UNL d   1      -3.771  -1.636   1.301  0.00  0.00     0.081 A 
ATOM      7  C   UNL d   1      -4.373  -2.851   1.637  0.00  0.00     0.027 A 
ATOM      8  C   UNL d   1      -5.168  -3.512   0.695  0.00  0.00     0.025 A 
ATOM      9  C   UNL d   1      -5.359  -2.947  -0.567  0.00  0.00     0.034 A 
ATOM     10  C   UNL d   1      -4.771  -1.725  -0.895  0.00  0.00     0.025 A 
ATOM     11 CL   UNL d   1      -6.333  -3.763  -1.728  0.00  0.00    -0.084 Cl
ATOM     12  C   UNL d   1      -3.977  -1.059   0.043  0.00  0.00     0.027 A 
ENDBRANCH   3   6
ENDBRANCH   1   3
BRANCH   1  13
ATOM     13  N   UNL d   1      -1.020  -2.829   2.413  0.00  0.00    -0.302 N 
ATOM     14  C   UNL d   1       0.190  -3.227   2.176  0.00  0.00     0.119 C 
ATOM     15  HN  UNL d   1      -1.757  -3.471   2.703  1.00  0.00     0.186 HD
BRANCH  14  16
ATOM     16  C   UNL d   1       0.560  -4.648   2.319  0.00  0.00    -0.019 A 
ATOM     17  C   UNL d   1      -0.385  -5.591   2.716  0.00  0.00     0.015 A 
ATOM     18  C   UNL d   1      -0.026  -6.941   2.826  0.00  0.00     0.030 A 
ATOM     19  C   UNL d   1       1.272  -7.394   2.539  0.00  0.00     0.029 A 
ATOM     20  C   UNL d   1       2.200  -6.410   2.147  0.00  0.00     0.030 A 
ATOM     21  C   UNL d   1       1.861  -5.052   2.041  0.00  0.00     0.015 A 
BRANCH  19  22
ATOM     22  N   UNL d   1       1.619  -8.742   2.558  0.00  0.00    -0.390 N 
ATOM     23  C   UNL d   1       2.932  -9.145   3.062  0.00  0.00     0.149 C 
ATOM     24  C   UNL d   1       0.592  -9.776   2.668  0.00  0.00     0.149 C 
ENDBRANCH  19  22
ENDBRANCH  14  16
ENDBRANCH   1  13
TORSDOF 5
