REMARK  4 active torsions:
REMARK  status: ('A' for Active; 'I' for Inactive)
REMARK    1  A    between atoms: N_2  and  C_1 
REMARK       I    between atoms: C_3  and  N_2 
REMARK    2  A    between atoms: C_10  and  N_2 
REMARK    3  A    between atoms: C_4  and  C_3 
REMARK    4  A    between atoms: N_7  and  C_9 
ROOT
ATOM      1  N   UNL d   1      -3.318  -1.423  -0.242  0.00  0.00    -0.258 N 
ATOM      2  C   UNL d   1      -3.499  -2.799   0.015  0.00  0.00     0.267 C 
ATOM      3  O   UNL d   1      -4.517  -3.427  -0.276  0.00  0.00    -0.267 OA
ENDROOT
BRANCH   1   4
ATOM      4  C   UNL d   1      -2.053  -0.869  -0.505  0.00  0.00     0.159 A 
ATOM      5  N   UNL d   1      -1.714   0.387  -0.301  0.00  0.00    -0.335 N 
ATOM      6  C   UNL d   1      -0.440   0.640  -0.773  0.00  0.00     0.051 A 
ATOM      7  HN  UNL d   1      -2.312   1.081   0.146  1.00  0.00     0.168 HD
ATOM      8  C   UNL d   1       0.199   1.896  -0.792  0.00  0.00     0.031 A 
ATOM      9  C   UNL d   1       0.234  -0.469  -1.277  0.00  0.00     0.035 A 
ATOM     10  C   UNL d   1       1.497   2.005  -1.300  0.00  0.00     0.002 A 
ATOM     11  C   UNL d   1       2.168   0.876  -1.760  0.00  0.00     0.002 A 
ATOM     12  C   UNL d   1       1.553  -0.380  -1.752  0.00  0.00     0.021 A 
ATOM     13  S   UNL d   1      -0.820  -1.827  -1.229  0.00  0.00    -0.051 SA
ENDBRANCH   1   4
BRANCH   1  14
ATOM     14  C   UNL d   1      -4.467  -0.537  -0.327  0.00  0.00     0.046 A 
ATOM     15  C   UNL d   1      -5.693  -0.892   0.269  0.00  0.00     0.054 A 
ATOM     16  C   UNL d   1      -6.816  -0.062   0.176  0.00  0.00     0.036 A 
ATOM     17 CL   UNL d   1      -8.298  -0.545   0.907  0.00  0.00    -0.084 Cl
ATOM     18  C   UNL d   1      -6.751   1.151  -0.498  0.00  0.00     0.024 A 
ATOM     19  C   UNL d   1      -5.554   1.534  -1.087  0.00  0.00     0.004 A 
ATOM     20  C   UNL d   1      -4.434   0.696  -1.009  0.00  0.00     0.030 A 
ENDBRANCH   1  14
BRANCH   2  21
ATOM     21  C   UNL d   1      -2.494  -3.557   0.820  0.00  0.00     0.066 A 
ATOM     22  C   UNL d   1      -2.290  -4.930   0.635  0.00  0.00     0.119 A 
ATOM     23  C   UNL d   1      -1.384  -5.657   1.423  0.00  0.00     0.043 A 
ATOM     24  C   UNL d   1      -0.639  -4.997   2.405  0.00  0.00    -0.060 A 
ATOM     25  C   UNL d   1      -0.856  -3.631   2.620  0.00  0.00     0.008 A 
ATOM     26  C   UNL d   1       0.370  -5.755   3.216  0.00  0.00     0.048 C 
ATOM     27  C   UNL d   1      -1.795  -2.923   1.860  0.00  0.00     0.020 A 
BRANCH  22  28
ATOM     28  N   UNL d   1      -2.933  -5.648  -0.452  0.00  0.00    -0.115 N 
ATOM     29  O   UNL d   1      -2.601  -5.318  -1.599  0.00  0.00    -0.532 OA
ATOM     30  O   UNL d   1      -3.662  -6.599  -0.143  0.00  0.00    -0.532 OA
ENDBRANCH  22  28
ENDBRANCH   2  21
TORSDOF 4
