REMARK  3 active torsions:
REMARK  status: ('A' for Active; 'I' for Inactive)
REMARK    1  A    between atoms: C_2  and  S_1 
REMARK    2  A    between atoms: C_12  and  S_1 
REMARK    3  A    between atoms: C_6  and  C_3 
ROOT
ATOM      1  C   UNL d   1       0.613  -1.020  -1.255  0.00  0.00     0.101 A 
ATOM      2  C   UNL d   1      -0.123  -2.386  -3.491  0.00  0.00     0.113 A 
ATOM      3  N   UNL d   1       0.456  -3.062  -2.475  0.00  0.00    -0.346 N 
ATOM      4  HN  UNL d   1       0.610  -4.068  -2.542  1.00  0.00     0.167 HD
ATOM      5  C   UNL d   1       0.829  -2.378  -1.364  0.00  0.00     0.030 A 
ATOM      6  N   UNL d   1      -0.413  -1.073  -3.427  0.00  0.00    -0.352 N 
ATOM      7  HN  UNL d   1      -0.894  -0.596  -4.190  1.00  0.00     0.166 HD
ATOM      8  C   UNL d   1      -0.040  -0.419  -2.309  0.00  0.00     0.115 A 
ATOM      9  C   UNL d   1       1.455  -3.238  -0.311  0.00  0.00     0.070 C 
ENDROOT
BRANCH   1  10
ATOM     10  S   UNL d   1       1.021  -0.036   0.138  0.00  0.00     0.210 S 
ATOM     11  O   UNL d   1       1.219  -0.901   1.281  0.00  0.00    -0.217 OA
ATOM     12  O   UNL d   1       0.033   1.027   0.211  0.00  0.00    -0.217 OA
BRANCH  10  13
ATOM     13  C   UNL d   1       2.588   0.757  -0.197  0.00  0.00     0.064 A 
ATOM     14  C   UNL d   1       2.610   1.985  -0.870  0.00  0.00     0.025 A 
ATOM     15  C   UNL d   1       3.832   2.622  -1.108  0.00  0.00     0.025 A 
ATOM     16  C   UNL d   1       5.018   2.040  -0.659  0.00  0.00     0.034 A 
ATOM     17  C   UNL d   1       4.992   0.835   0.045  0.00  0.00     0.025 A 
ATOM     18 CL   UNL d   1       6.521   2.817  -0.969  0.00  0.00    -0.084 Cl
ATOM     19  C   UNL d   1       3.774   0.191   0.283  0.00  0.00     0.025 A 
ENDBRANCH  10  13
ENDBRANCH   1  10
BRANCH   2  20
ATOM     20  C   UNL d   1      -0.430  -3.175  -4.761  0.00  0.00     0.220 C 
ATOM     21  O   UNL d   1      -0.959  -2.380  -5.840  0.00  0.00    -0.333 OA
ATOM     22  C   UNL d   1       0.032  -1.671  -6.472  0.00  0.00     0.103 A 
ATOM     23  C   UNL d   1      -0.371  -0.557  -7.204  0.00  0.00     0.040 A 
ATOM     24  C   UNL d   1       1.388  -1.993  -6.366  0.00  0.00     0.102 A 
ATOM     25  C   UNL d   1       0.589   0.271  -7.788  0.00  0.00     0.003 A 
ATOM     26  C   UNL d   1       1.946  -0.026  -7.648  0.00  0.00     0.003 A 
ATOM     27  C   UNL d   1       2.345  -1.163  -6.944  0.00  0.00     0.039 A 
ATOM     28  O   UNL d   1       1.856  -3.083  -5.681  0.00  0.00    -0.345 OA
ATOM     29  C   UNL d   1       0.795  -3.950  -5.251  0.00  0.00     0.216 C 
ENDBRANCH   2  20
TORSDOF 3
