REMARK  5 active torsions:
REMARK  status: ('A' for Active; 'I' for Inactive)
REMARK    1  A    between atoms: C_9  and  N_1 
REMARK    2  A    between atoms: C_10  and  N_3 
REMARK    3  A    between atoms: N_6  and  C_5 
REMARK    4  A    between atoms: C_19  and  N_6 
REMARK    5  A    between atoms: C_20  and  N_6 
ROOT
ATOM      1  C   UNL d   1       5.155   0.117  -0.230  0.00  0.00     0.030 A 
ATOM      2  C   UNL d   1       4.490  -1.112  -0.099  0.00  0.00     0.031 A 
ATOM      3  C   UNL d   1       4.343   1.260  -0.284  0.00  0.00     0.031 A 
ATOM      4  C   UNL d   1       2.303  -0.047  -0.046  0.00  0.00     0.048 A 
ATOM      5  C   UNL d   1       2.947   1.182  -0.181  0.00  0.00     0.033 A 
ATOM      6  C   UNL d   1       3.093  -1.198  -0.009  0.00  0.00     0.033 A 
ENDROOT
BRANCH   4   7
ATOM      7  N   UNL d   1       0.903  -0.056   0.103  0.00  0.00    -0.300 N 
ATOM      8  N   UNL d   1       0.360  -0.966  -0.560  0.00  0.00    -0.300 N 
ATOM      9  HN  UNL d   1       0.872  -1.680  -1.077  1.00  0.00     0.187 HD
ATOM     10  HN  UNL d   1       0.390   0.605   0.686  1.00  0.00     0.187 HD
BRANCH   8  11
ATOM     11  C   UNL d   1      -1.048  -0.883  -0.505  0.00  0.00     0.048 A 
ATOM     12  C   UNL d   1      -1.741   0.338  -0.557  0.00  0.00     0.032 A 
ATOM     13  C   UNL d   1      -3.138   0.373  -0.572  0.00  0.00     0.021 A 
ATOM     14  C   UNL d   1      -3.857  -0.819  -0.545  0.00  0.00     0.011 A 
ATOM     15  C   UNL d   1      -3.191  -2.042  -0.492  0.00  0.00     0.021 A 
ATOM     16 BR   UNL d   1      -5.745  -0.777  -0.595  0.00  0.00    -0.051 Br
ATOM     17  C   UNL d   1      -1.790  -2.070  -0.477  0.00  0.00     0.032 A 
ENDBRANCH   8  11
ENDBRANCH   4   7
BRANCH   1  18
ATOM     18  N   UNL d   1       6.539   0.208  -0.273  0.00  0.00    -0.382 N 
BRANCH  18  19
ATOM     19  C   UNL d   1       7.196   1.216  -1.110  0.00  0.00     0.118 C 
ATOM     20  C   UNL d   1       7.760   2.355  -0.274  0.00  0.00     0.026 C 
ENDBRANCH  18  19
BRANCH  18  21
ATOM     21  C   UNL d   1       7.393  -0.761   0.422  0.00  0.00     0.118 C 
ATOM     22  C   UNL d   1       7.236  -0.650   1.934  0.00  0.00     0.026 C 
ENDBRANCH  18  21
ENDBRANCH   1  18
TORSDOF 5
