REMARK  3 active torsions:
REMARK  status: ('A' for Active; 'I' for Inactive)
REMARK    1  A    between atoms: C_8  and  C_1 
REMARK    2  A    between atoms: C_5  and  C_2 
REMARK    3  A    between atoms: N_4  and  C_9 
ROOT
ATOM      1  C   UNL d   1      -2.388  -0.203  -0.077  0.00  0.00     0.054 A 
ATOM      2  C   UNL d   1      -1.521  -1.293  -0.046  0.00  0.00     0.005 A 
ATOM      3  N   UNL d   1      -1.585   0.920  -0.027  0.00  0.00    -0.354 N 
ATOM      4  C   UNL d   1      -0.174  -0.798  -0.016  0.00  0.00     0.003 A 
ATOM      5  C   UNL d   1      -0.252   0.593  -0.016  0.00  0.00     0.043 A 
ATOM      6  C   UNL d   1       1.113  -1.384  -0.014  0.00  0.00     0.014 A 
ATOM      7  C   UNL d   1       0.874   1.425  -0.012  0.00  0.00     0.030 A 
ATOM      8  C   UNL d   1       2.251  -0.569  -0.012  0.00  0.00     0.001 A 
ATOM      9  C   UNL d   1       2.131   0.817  -0.014  0.00  0.00     0.002 A 
ATOM     10  H   UNL d   1      -1.930   1.868  -0.000  0.00  0.00     0.166 HD
ENDROOT
BRANCH   1  11
ATOM     11  C   UNL d   1      -3.857  -0.081  -0.095  0.00  0.00    -0.008 A 
ATOM     12  C   UNL d   1      -4.474   1.009  -0.731  0.00  0.00     0.026 A 
ATOM     13  C   UNL d   1      -5.867   1.196  -0.682  0.00  0.00    -0.025 A 
ATOM     14  C   UNL d   1      -6.476   2.318  -1.267  0.00  0.00     0.012 A 
ATOM     15  C   UNL d   1      -6.670   0.246  -0.015  0.00  0.00    -0.026 A 
ATOM     16  C   UNL d   1      -7.856   2.509  -1.176  0.00  0.00     0.001 A 
ATOM     17  C   UNL d   1      -8.645   1.574  -0.513  0.00  0.00     0.001 A 
ATOM     18  C   UNL d   1      -8.058   0.445   0.058  0.00  0.00     0.012 A 
ATOM     19  C   UNL d   1      -6.062  -0.865   0.579  0.00  0.00     0.013 A 
ATOM     20  C   UNL d   1      -4.673  -1.014   0.554  0.00  0.00     0.014 A 
ENDBRANCH   1  11
BRANCH   2  21
ATOM     21  C   UNL d   1      -1.946  -2.663  -0.085  0.00  0.00     0.038 C 
ATOM     22  C   UNL d   1      -1.323  -3.676   0.528  0.00  0.00     0.168 C 
BRANCH  22  23
ATOM     23  N   UNL d   1      -1.862  -5.009   0.459  0.00  0.00    -0.127 N 
ATOM     24  O   UNL d   1      -2.932  -5.197  -0.139  0.00  0.00    -0.532 OA
ATOM     25  O   UNL d   1      -1.201  -5.887   1.025  0.00  0.00    -0.532 OA
ENDBRANCH  22  23
ENDBRANCH   2  21
TORSDOF 3
