REMARK  4 active torsions:
REMARK  status: ('A' for Active; 'I' for Inactive)
REMARK    1  A    between atoms: C_4  and  C_1 
REMARK       I    between atoms: N_7  and  C_4 
REMARK    2  A    between atoms: N_8  and  N_7 
REMARK    3  A    between atoms: C_11  and  N_8 
REMARK    4  A    between atoms: O_19  and  C_12 
ROOT
ATOM      1  C   UNL d   1       3.711  -0.190   0.320  0.00  0.00     0.274 C 
ATOM      2  N   UNL d   1       4.622  -1.241   0.425  0.00  0.00    -0.282 N 
ATOM      3  O   UNL d   1       2.669  -0.357  -0.319  0.00  0.00    -0.266 OA
ATOM      4  H   UNL d   1       5.583  -1.047   0.686  0.00  0.00     0.184 HD
ENDROOT
BRANCH   1   5
ATOM      5  C   UNL d   1       4.084   1.065   0.963  0.00  0.00     0.097 A 
ATOM      6  S   UNL d   1       3.069   2.422   0.680  0.00  0.00    -0.082 SA
ATOM      7  C   UNL d   1       3.999   3.458   1.680  0.00  0.00     0.017 A 
ATOM      8  C   UNL d   1       3.739   4.816   1.954  0.00  0.00     0.020 A 
ATOM      9  C   UNL d   1       5.094   2.791   2.228  0.00  0.00     0.004 A 
ATOM     10  C   UNL d   1       4.593   5.511   2.811  0.00  0.00     0.001 A 
ATOM     11  C   UNL d   1       5.688   4.876   3.376  0.00  0.00     0.001 A 
ATOM     12  C   UNL d   1       5.948   3.532   3.090  0.00  0.00     0.014 A 
ATOM     13  C   UNL d   1       5.136   1.413   1.790  0.00  0.00     0.068 A 
ATOM     14 CL   UNL d   1       6.402   0.364   2.310  0.00  0.00    -0.082 Cl
ENDBRANCH   1   5
BRANCH   2  15
ATOM     15  N   UNL d   1       4.445  -2.308  -0.474  0.00  0.00    -0.203 NA
ATOM     16  H   UNL d   1       3.532  -2.253  -0.945  0.00  0.00     0.153 HD
BRANCH  15  17
ATOM     17  C   UNL d   1       4.687  -3.605   0.038  0.00  0.00     0.027 A 
ATOM     18  C   UNL d   1       5.425  -3.861   1.197  0.00  0.00     0.028 A 
ATOM     19  C   UNL d   1       5.753  -5.173   1.562  0.00  0.00     0.038 A 
ATOM     20  C   UNL d   1       5.364  -6.257   0.774  0.00  0.00     0.068 A 
ATOM     21  C   UNL d   1       4.635  -6.018  -0.387  0.00  0.00     0.038 A 
ATOM     22  C   UNL d   1       4.310  -4.703  -0.752  0.00  0.00     0.028 A 
BRANCH  20  23
ATOM     23  O   UNL d   1       5.797  -7.474   1.218  0.00  0.00    -0.356 OA
ATOM     24  C   UNL d   1       5.179  -8.625   0.656  0.00  0.00     0.210 C 
ENDBRANCH  20  23
ENDBRANCH  15  17
ENDBRANCH   2  15
TORSDOF 4
