REMARK  4 active torsions:
REMARK  status: ('A' for Active; 'I' for Inactive)
REMARK    1  A    between atoms: C_3  and  C_1 
REMARK    2  A    between atoms: C_4  and  CA_2 
REMARK       I    between atoms: N_5  and  C_3 
REMARK    3  A    between atoms: OXT_16  and  C_4 
REMARK    4  A    between atoms: C_14  and  N_5 
ROOT
ATOM      1  N   UNL d   1      -2.934  -9.940  -1.043  0.00  0.00    -0.191 NA
ATOM      2  C   UNL d   1      -2.618  -8.871  -0.723  0.00  0.00     0.099 C 
ATOM      3  C   UNL d   1      -1.365  -4.932   0.290  0.00  0.00     0.035 A 
ATOM      4  C   UNL d   1      -2.213  -7.549  -0.343  0.00  0.00     0.044 A 
ATOM      5  C   UNL d   1      -2.612  -5.154  -0.300  0.00  0.00     0.031 A 
ATOM      6  C   UNL d   1      -0.562  -6.038   0.597  0.00  0.00     0.031 A 
ATOM      7  C   UNL d   1      -3.031  -6.452  -0.624  0.00  0.00     0.025 A 
ATOM      8  C   UNL d   1      -0.984  -7.338   0.288  0.00  0.00     0.025 A 
ENDROOT
BRANCH   3   9
ATOM      9  N   UNL d   1      -0.836  -3.647   0.538  0.00  0.00    -0.322 N 
ATOM     10  C   UNL d   1      -1.488  -2.431   0.396  0.00  0.00     0.275 C 
ATOM     11  O   UNL d   1      -2.680  -2.262   0.167  0.00  0.00    -0.266 OA
ATOM     12  H   UNL d   1       0.149  -3.592   0.778  0.00  0.00     0.169 HD
BRANCH  10  13
ATOM     13  C   UNL d   1      -0.595  -1.239   0.462  0.00  0.00     0.134 A 
ATOM     14  CA  UNL d   1      -1.068   0.005   0.856  0.00  0.00     0.139 A 
ATOM     15  N   UNL d   1      -0.338   1.151   0.672  0.00  0.00    -0.357 N 
ATOM     16  C   UNL d   1       0.874   0.986   0.099  0.00  0.00     0.105 A 
ATOM     17  HN  UNL d   1      -0.688   2.068   0.950  1.00  0.00     0.165 HD
ATOM     18  C   UNL d   1       1.372  -0.264  -0.235  0.00  0.00     0.105 A 
ATOM     19  N   UNL d   1       0.662  -1.407  -0.064  0.00  0.00    -0.358 N 
ATOM     20  HN  UNL d   1       1.035  -2.325  -0.307  1.00  0.00     0.165 HD
BRANCH  14  21
ATOM     21  C   UNL d   1      -2.263   0.114   1.717  0.00  0.00     0.196 C 
ATOM     22  O   UNL d   1      -2.563  -0.662   2.609  0.00  0.00    -0.645 OA
BRANCH  21  23
ATOM     23  OXT UNL d   1      -2.959   1.248   1.505  0.00  0.00    -0.772 OA
ATOM     24  HXT UNL d   1      -3.659   1.236   2.189  0.00  0.00     0.167 HD
ENDBRANCH  21  23
ENDBRANCH  14  21
ENDBRANCH  10  13
ENDBRANCH   3   9
TORSDOF 4
