REMARK  2 active torsions:
REMARK  status: ('A' for Active; 'I' for Inactive)
REMARK    1  A    between atoms: C_2  and  C_1 
REMARK    2  A    between atoms: C_8  and  C_2 
ROOT
ATOM      1  C   UNL d   1      -2.532  -0.863  -0.305  0.00  0.00     0.035 A 
ATOM      2  C   UNL d   1      -2.671   0.494   0.033  0.00  0.00     0.028 A 
ATOM      3  C   UNL d   1      -1.259  -1.454  -0.256  0.00  0.00     0.056 A 
ATOM      4  C   UNL d   1      -1.539   1.250   0.365  0.00  0.00     0.059 A 
ATOM      5  C   UNL d   1      -0.131  -0.684   0.033  0.00  0.00     0.103 A 
ATOM      6  C   UNL d   1      -0.272   0.668   0.333  0.00  0.00     0.103 A 
ATOM      7  O   UNL d   1       1.059  -1.352   0.120  0.00  0.00    -0.348 OA
ATOM      8  O   UNL d   1       0.776   1.470   0.698  0.00  0.00    -0.348 OA
ATOM      9 BR   UNL d   1      -4.330   1.418   0.038  0.00  0.00    -0.050 Br
ATOM     10  C   UNL d   1       2.715   0.402  -0.331  0.00  0.00     0.053 C 
ATOM     11  C   UNL d   1       2.032  -0.872  -0.807  0.00  0.00     0.178 C 
ATOM     12  C   UNL d   1       1.751   1.579  -0.335  0.00  0.00     0.178 C 
ENDROOT
BRANCH   1  13
ATOM     13  C   UNL d   1      -3.694  -1.728  -0.636  0.00  0.00     0.193 C 
ATOM     14  O   UNL d   1      -4.698  -1.675   0.067  0.00  0.00    -0.287 OA
BRANCH  13  15
ATOM     15  C   UNL d   1      -3.661  -2.701  -1.770  0.00  0.00     0.015 A 
ATOM     16  C   UNL d   1      -2.777  -2.588  -2.852  0.00  0.00     0.017 A 
ATOM     17  C   UNL d   1      -2.812  -3.529  -3.889  0.00  0.00     0.020 A 
ATOM     18  C   UNL d   1      -3.739  -4.571  -3.855  0.00  0.00     0.011 A 
ATOM     19  C   UNL d   1      -4.625  -4.691  -2.788  0.00  0.00     0.020 A 
ATOM     20 BR   UNL d   1      -3.812  -5.812  -5.278  0.00  0.00    -0.051 Br
ATOM     21  C   UNL d   1      -4.585  -3.757  -1.749  0.00  0.00     0.017 A 
ENDBRANCH  13  15
ENDBRANCH   1  13
TORSDOF 2
