REMARK  4 active torsions:
REMARK  status: ('A' for Active; 'I' for Inactive)
REMARK    1  A    between atoms: N_2  and  C_1 
REMARK       I    between atoms: C_4  and  N_2 
REMARK    2  A    between atoms: C_5  and  C_3 
REMARK    3  A    between atoms: C_8  and  C_4 
REMARK    4  A    between atoms: O_11  and  C_5 
ROOT
ATOM      1  C   UNL d   1      -2.441   1.918   0.700  0.00  0.00     0.124 A 
ATOM      2  C   UNL d   1      -3.471   1.760  -0.229  0.00  0.00     0.081 A 
ATOM      3  N   UNL d   1      -2.635   1.769   2.034  0.00  0.00    -0.351 N 
ATOM      4  HN  UNL d   1      -1.856   1.821   2.691  1.00  0.00     0.166 HD
ATOM      5  C   UNL d   1      -4.768   1.529   0.248  0.00  0.00     0.023 A 
ATOM      6  C   UNL d   1      -3.897   1.548   2.463  0.00  0.00     0.090 A 
ATOM      7  C   UNL d   1      -4.988   1.447   1.619  0.00  0.00     0.018 A 
ENDROOT
BRANCH   1   8
ATOM      8  N   UNL d   1      -1.128   2.295   0.393  0.00  0.00    -0.312 N 
ATOM      9  C   UNL d   1      -0.811   3.254  -0.547  0.00  0.00     0.230 C 
ATOM     10  O   UNL d   1      -1.664   3.874  -1.187  0.00  0.00    -0.272 OA
ATOM     11  H   UNL d   1      -0.497   2.167   1.172  0.00  0.00     0.170 HD
BRANCH   9  12
ATOM     12  C   UNL d   1       0.691   3.594  -0.637  0.00  0.00     0.030 C 
ATOM     13  C   UNL d   1       1.522   2.315  -0.823  0.00  0.00     0.025 C 
ATOM     14  C   UNL d   1       0.934   4.517  -1.845  0.00  0.00     0.025 C 
ATOM     15  C   UNL d   1       1.134   4.326   0.639  0.00  0.00     0.025 C 
ENDBRANCH   9  12
ENDBRANCH   1   8
BRANCH   2  16
ATOM     16  C   UNL d   1      -3.209   1.595  -1.673  0.00  0.00     0.179 C 
ATOM     17  O   UNL d   1      -2.348   0.853  -2.113  0.00  0.00    -0.646 OA
BRANCH  16  18
ATOM     18  O   UNL d   1      -4.100   2.255  -2.448  0.00  0.00    -0.773 OA
ATOM     19  H   UNL d   1      -4.527   3.001  -1.986  0.00  0.00     0.167 HD
ENDBRANCH  16  18
ENDBRANCH   2  16
TORSDOF 4
