REMARK  1 active torsions:
REMARK  status: ('A' for Active; 'I' for Inactive)
REMARK    1  A    between atoms: C_5  and  C_3 
REMARK       I    between atoms: N_8  and  C_5 
ROOT
ATOM      1  C   UNL d   1      -1.242  -0.658  -0.065  0.00  0.00     0.042 A 
ATOM      2  C   UNL d   1      -0.041  -1.539  -0.139  0.00  0.00     0.195 A 
ATOM      3  C   UNL d   1      -2.597  -0.942  -0.036  0.00  0.00     0.047 A 
ATOM      4  C   UNL d   1      -0.764   0.670  -0.043  0.00  0.00    -0.010 A 
ATOM      5  C   UNL d   1       1.145  -0.647  -0.084  0.00  0.00     0.026 A 
ATOM      6  C   UNL d   1       0.683   0.674  -0.042  0.00  0.00    -0.011 A 
ATOM      7  O   UNL d   1       0.006  -2.737  -0.295  0.00  0.00    -0.287 OA
ATOM      8  C   UNL d   1      -1.647   1.739  -0.013  0.00  0.00     0.013 A 
ATOM      9  C   UNL d   1      -3.484   0.148   0.034  0.00  0.00     0.018 A 
ATOM     10  C   UNL d   1       2.490  -0.972  -0.088  0.00  0.00     0.016 A 
ATOM     11  C   UNL d   1       1.589   1.720  -0.001  0.00  0.00     0.013 A 
ATOM     12  C   UNL d   1      -3.016   1.472   0.021  0.00  0.00     0.002 A 
ATOM     13  C   UNL d   1       2.957   1.418  -0.005  0.00  0.00     0.001 A 
ATOM     14  C   UNL d   1       3.403   0.083  -0.048  0.00  0.00     0.001 A 
ENDROOT
BRANCH   3  15
ATOM     15  C   UNL d   1      -3.139  -2.311   0.104  0.00  0.00     0.254 C 
ATOM     16  N   UNL d   1      -4.240  -2.692  -0.671  0.00  0.00    -0.348 N 
ATOM     17  C   UNL d   1      -4.963  -3.910  -0.311  0.00  0.00     0.126 C 
ATOM     18  C   UNL d   1      -4.703  -2.034  -1.895  0.00  0.00     0.126 C 
ATOM     19  C   UNL d   1      -4.941  -4.918  -1.455  0.00  0.00     0.020 C 
ATOM     20  C   UNL d   1      -5.465  -4.289  -2.745  0.00  0.00     0.003 C 
ATOM     21  C   UNL d   1      -4.702  -3.007  -3.072  0.00  0.00     0.020 C 
ATOM     22  O   UNL d   1      -2.673  -3.009   0.999  0.00  0.00    -0.267 OA
ENDBRANCH   3  15
TORSDOF 1
