REMARK  6 active torsions:
REMARK  status: ('A' for Active; 'I' for Inactive)
REMARK    1  A    between atoms: C_2  and  C_1 
REMARK       I    between atoms: N_3  and  C_1 
REMARK    2  A    between atoms: C_9  and  N_3 
REMARK    3  A    between atoms: O_15  and  C_4 
REMARK    4  A    between atoms: O_18  and  C_5 
REMARK    5  A    between atoms: O_19  and  C_6 
REMARK    6  A    between atoms: C_7  and  C_9 
ROOT
ATOM      1  C   UNL d   1       1.076  -0.192   0.006  0.00  0.00     0.252 C 
ATOM      2  N   UNL d   1       0.234   0.356  -0.939  0.00  0.00    -0.349 N 
ATOM      3  O   UNL d   1       2.266  -0.410  -0.185  0.00  0.00    -0.268 OA
ATOM      4  H   UNL d   1      -0.763   0.348  -0.781  0.00  0.00     0.163 HD
ENDROOT
BRANCH   1   5
ATOM      5  C   UNL d   1       0.485  -0.538   1.330  0.00  0.00     0.037 A 
ATOM      6  C   UNL d   1       1.078  -1.575   2.061  0.00  0.00     0.057 A 
ATOM      7  C   UNL d   1       0.613  -1.926   3.339  0.00  0.00     0.105 A 
ATOM      8  C   UNL d   1      -0.459  -1.203   3.906  0.00  0.00     0.135 A 
ATOM      9  C   UNL d   1      -1.021  -0.133   3.177  0.00  0.00     0.105 A 
ATOM     10  C   UNL d   1      -0.572   0.179   1.886  0.00  0.00     0.057 A 
BRANCH   7  11
ATOM     11  O   UNL d   1       1.148  -2.966   4.055  0.00  0.00    -0.353 OA
ATOM     12  C   UNL d   1       2.282  -3.643   3.529  0.00  0.00     0.210 C 
ENDBRANCH   7  11
BRANCH   8  13
ATOM     13  O   UNL d   1      -1.070  -1.468   5.110  0.00  0.00    -0.351 OA
ATOM     14  C   UNL d   1      -0.410  -2.274   6.075  0.00  0.00     0.210 C 
ENDBRANCH   8  13
BRANCH   9  15
ATOM     15  O   UNL d   1      -2.049   0.677   3.606  0.00  0.00    -0.353 OA
ATOM     16  C   UNL d   1      -1.950   1.112   4.961  0.00  0.00     0.210 C 
ENDBRANCH   9  15
ENDBRANCH   1   5
BRANCH   2  17
ATOM     17  C   UNL d   1       0.719   0.738  -2.268  0.00  0.00     0.114 C 
ATOM     18  C   UNL d   1       0.398   2.207  -2.538  0.00  0.00     0.037 C 
BRANCH  17  19
ATOM     19  C   UNL d   1       0.165  -0.175  -3.357  0.00  0.00    -0.030 A 
ATOM     20  C   UNL d   1       0.989  -0.819  -4.309  0.00  0.00    -0.053 A 
ATOM     21  C   UNL d   1       0.422  -1.770  -5.183  0.00  0.00     0.014 A 
ATOM     22  C   UNL d   1       2.469  -0.580  -4.456  0.00  0.00     0.049 C 
ATOM     23  C   UNL d   1      -0.949  -2.040  -5.188  0.00  0.00    -0.061 A 
ATOM     24  C   UNL d   1      -1.774  -1.323  -4.324  0.00  0.00     0.007 A 
ATOM     25  C   UNL d   1      -1.500  -3.132  -6.056  0.00  0.00     0.048 C 
ATOM     26  C   UNL d   1      -1.225  -0.403  -3.426  0.00  0.00     0.010 A 
ENDBRANCH  17  19
ENDBRANCH   2  17
TORSDOF 6
