REMARK  4 active torsions:
REMARK  status: ('A' for Active; 'I' for Inactive)
REMARK    1  A    between atoms: C_2  and  C_1 
REMARK    2  A    between atoms: O_4  and  C_2 
REMARK    3  A    between atoms: C_7  and  O_4 
REMARK    4  A    between atoms: N_6  and  C_8 
ROOT
ATOM      1  C   UNL d   1       2.311   3.025  -0.107  0.00  0.00     0.106 A 
ATOM      2  C   UNL d   1       2.801   2.117  -1.077  0.00  0.00     0.064 A 
ATOM      3  C   UNL d   1       3.182   3.705   0.762  0.00  0.00     0.040 A 
ATOM      4  C   UNL d   1       4.202   1.960  -1.129  0.00  0.00     0.032 A 
ATOM      5  C   UNL d   1       4.559   3.527   0.664  0.00  0.00     0.003 A 
ATOM      6  C   UNL d   1       5.073   2.653  -0.281  0.00  0.00     0.002 A 
ENDROOT
BRANCH   1   7
ATOM      7  O   UNL d   1       0.898   3.213   0.009  0.00  0.00    -0.272 OA
BRANCH   7   8
ATOM      8  C   UNL d   1       0.264   4.373   0.485  0.00  0.00     0.307 C 
ATOM      9  O   UNL d   1       0.858   5.395   0.806  0.00  0.00    -0.258 OA
BRANCH   8  10
ATOM     10  C   UNL d   1      -1.187   4.218   0.521  0.00  0.00     0.102 A 
ATOM     11  C   UNL d   1      -2.132   5.165   0.883  0.00  0.00     0.057 A 
ATOM     12  C   UNL d   1      -3.473   4.708   0.709  0.00  0.00     0.032 A 
ATOM     13 CL   UNL d   1      -1.832   6.754   1.455  0.00  0.00    -0.083 Cl
ATOM     14  C   UNL d   1      -3.523   3.409   0.264  0.00  0.00     0.052 A 
ATOM     15  S   UNL d   1      -1.964   2.745   0.090  0.00  0.00    -0.094 SA
ENDBRANCH   8  10
ENDBRANCH   7   8
ENDBRANCH   1   7
BRANCH   2  16
ATOM     16  N   UNL d   1       2.025   1.329  -1.925  0.00  0.00    -0.379 N 
ATOM     17  C   UNL d   1       0.658   0.945  -1.594  0.00  0.00     0.123 C 
ATOM     18  C   UNL d   1       0.414  -0.493  -2.051  0.00  0.00     0.020 C 
ATOM     19  C   UNL d   1       0.755  -0.689  -3.525  0.00  0.00     0.003 C 
ATOM     20  C   UNL d   1       2.166  -0.188  -3.833  0.00  0.00     0.020 C 
ATOM     21  C   UNL d   1       2.363   1.251  -3.353  0.00  0.00     0.123 C 
ENDBRANCH   2  16
TORSDOF 4
