REMARK  3 active torsions:
REMARK  status: ('A' for Active; 'I' for Inactive)
REMARK    1  A    between atoms: C_13  and  N_1 
REMARK    2  A    between atoms: C_7  and  C_2 
REMARK    3  A    between atoms: C_14  and  C_13 
ROOT
ATOM      1  N   UNL d   1       0.906  -0.684  -0.078  0.00  0.00    -0.282 N 
ATOM      2  C   UNL d   1       0.906   0.680  -0.114  0.00  0.00     0.143 A 
ATOM      3  N   UNL d   1      -0.287   1.211  -0.066  0.00  0.00    -0.280 N 
ATOM      4  HN  UNL d   1      -0.532   2.201  -0.062  1.00  0.00     0.188 HD
ATOM      5  C   UNL d   1      -0.418  -1.045  -0.010  0.00  0.00     0.342 A 
ATOM      6  N   UNL d   1      -1.132   0.141  -0.022  0.00  0.00    -0.250 N 
ATOM      7  O   UNL d   1      -0.890  -2.167   0.074  0.00  0.00    -0.245 OA
ATOM      8  H   UNL d   1      -2.137   0.230   0.043  0.00  0.00     0.192 HD
ENDROOT
BRANCH   2   9
ATOM      9  C   UNL d   1       2.086   1.511  -0.134  0.00  0.00     0.050 A 
ATOM     10  S   UNL d   1       3.450   1.156  -1.105  0.00  0.00    -0.098 SA
ATOM     11  C   UNL d   1       4.332   2.480  -0.483  0.00  0.00     0.050 A 
ATOM     12  C   UNL d   1       3.570   3.249   0.365  0.00  0.00     0.009 A 
ATOM     13  C   UNL d   1       2.263   2.708   0.540  0.00  0.00     0.023 A 
ENDBRANCH   2   9
BRANCH   1  14
ATOM     14  C   UNL d   1       1.989  -1.653  -0.003  0.00  0.00     0.135 C 
BRANCH  14  15
ATOM     15  C   UNL d   1       2.827  -1.551   1.275  0.00  0.00     0.016 C 
ATOM     16  C   UNL d   1       2.036  -1.866   2.534  0.00  0.00     0.006 C 
ENDBRANCH  14  15
ENDBRANCH   1  14
TORSDOF 3
