REMARK  3 active torsions:
REMARK  status: ('A' for Active; 'I' for Inactive)
REMARK    1  A    between atoms: C_2  and  C_1 
REMARK       I    between atoms: N_4  and  C_1 
REMARK       I    between atoms: C_3  and  N_5 
REMARK    2  A    between atoms: C_6  and  C_3 
REMARK    3  A    between atoms: N_5  and  N_4 
ROOT
ATOM      1  C   UNL d   1      -1.953   1.908  -1.486  0.00  0.00     0.270 C 
ATOM      2  N   UNL d   1      -1.208   0.830  -1.059  0.00  0.00    -0.263 N 
ATOM      3  O   UNL d   1      -3.104   2.110  -1.104  0.00  0.00    -0.266 OA
ATOM      4  H   UNL d   1      -0.232   0.666  -1.295  0.00  0.00     0.190 HD
ENDROOT
BRANCH   1   5
ATOM      5  C   UNL d   1      -1.282   2.869  -2.411  0.00  0.00     0.034 A 
ATOM      6  C   UNL d   1      -1.782   4.174  -2.481  0.00  0.00     0.030 A 
ATOM      7  C   UNL d   1      -1.185   5.131  -3.321  0.00  0.00    -0.009 A 
ATOM      8  C   UNL d   1      -1.663   6.446  -3.398  0.00  0.00     0.015 A 
ATOM      9  C   UNL d   1      -0.073   4.784  -4.117  0.00  0.00     0.042 A 
ATOM     10  C   UNL d   1      -1.041   7.360  -4.239  0.00  0.00     0.018 A 
ATOM     11  C   UNL d   1       0.043   6.926  -4.978  0.00  0.00     0.088 A 
ATOM     12  N   UNL d   1       0.532   5.667  -4.931  0.00  0.00    -0.365 N 
ATOM     13  HN  UNL d   1       1.336   5.394  -5.497  1.00  0.00     0.165 HD
ATOM     14  C   UNL d   1       0.400   3.480  -4.046  0.00  0.00     0.031 A 
ATOM     15  C   UNL d   1      -0.189   2.520  -3.210  0.00  0.00     0.019 A 
ENDBRANCH   1   5
BRANCH   2  16
ATOM     16  N   UNL d   1      -1.774  -0.064  -0.139  0.00  0.00    -0.263 N 
ATOM     17  C   UNL d   1      -1.175  -1.300   0.039  0.00  0.00     0.277 C 
ATOM     18  O   UNL d   1      -0.157  -1.593  -0.594  0.00  0.00    -0.265 OA
ATOM     19  H   UNL d   1      -2.664   0.190   0.281  0.00  0.00     0.190 HD
BRANCH  17  20
ATOM     20  C   UNL d   1      -1.792  -2.204   0.999  0.00  0.00     0.074 A 
ATOM     21  S   UNL d   1      -3.027  -1.708   2.079  0.00  0.00    -0.097 SA
ATOM     22  C   UNL d   1      -3.079  -3.243   2.836  0.00  0.00     0.050 A 
ATOM     23  C   UNL d   1      -2.199  -4.131   2.262  0.00  0.00     0.009 A 
ATOM     24  C   UNL d   1      -1.460  -3.532   1.202  0.00  0.00     0.025 A 
ENDBRANCH  17  20
ENDBRANCH   2  16
TORSDOF 3
