REMARK  4 active torsions:
REMARK  status: ('A' for Active; 'I' for Inactive)
REMARK    1  A    between atoms: C_12  and  C_2 
REMARK    2  A    between atoms: C_19  and  C_10 
REMARK    3  A    between atoms: C_15  and  C_11 
REMARK    4  A    between atoms: N_13  and  C_14 
ROOT
ATOM      1  N   UNL d   1       0.311   0.631   0.026  0.00  0.00    -0.235 N 
ATOM      2  C   UNL d   1      -0.802   1.462   0.019  0.00  0.00     0.144 A 
ATOM      3  C   UNL d   1       0.152  -0.758   0.039  0.00  0.00     0.130 A 
ATOM      4  N   UNL d   1       1.617   0.965   0.026  0.00  0.00    -0.291 N 
ATOM      5  HN  UNL d   1       2.005   1.908   0.033  1.00  0.00     0.187 HD
ATOM      6  N   UNL d   1      -1.073  -1.361   0.066  0.00  0.00    -0.340 N 
ATOM      7  HN  UNL d   1      -1.168  -2.376   0.096  1.00  0.00     0.167 HD
ATOM      8  C   UNL d   1      -2.036   0.917   0.024  0.00  0.00     0.067 A 
ATOM      9  C   UNL d   1       1.419  -1.288   0.021  0.00  0.00     0.082 A 
ATOM     10  C   UNL d   1       2.305  -0.185   0.015  0.00  0.00     0.062 A 
ATOM     11  C   UNL d   1      -2.112  -0.578   0.052  0.00  0.00     0.046 A 
ENDROOT
BRANCH  11  12
ATOM     12  C   UNL d   1      -3.476  -1.180   0.112  0.00  0.00    -0.007 A 
ATOM     13  C   UNL d   1      -4.571  -0.594  -0.531  0.00  0.00     0.049 A 
ATOM     14  C   UNL d   1      -5.839  -1.179  -0.402  0.00  0.00     0.103 A 
ATOM     15  C   UNL d   1      -6.018  -2.353   0.343  0.00  0.00     0.036 A 
ATOM     16  C   UNL d   1      -4.916  -2.949   0.956  0.00  0.00     0.003 A 
ATOM     17  C   UNL d   1      -3.651  -2.367   0.839  0.00  0.00     0.014 A 
BRANCH  14  18
ATOM     18  N   UNL d   1      -6.996  -0.543  -1.046  0.00  0.00    -0.116 N 
ATOM     19  O   UNL d   1      -6.800   0.520  -1.652  0.00  0.00    -0.532 OA
ATOM     20  O   UNL d   1      -8.097  -1.099  -0.936  0.00  0.00    -0.532 OA
ENDBRANCH  14  18
ENDBRANCH  11  12
BRANCH   2  21
ATOM     21  C   UNL d   1      -0.611   2.932   0.018  0.00  0.00     0.434 C 
ATOM     22  F   UNL d   1       0.662   3.389   0.018  0.00  0.00    -0.165 F 
ATOM     23  F   UNL d   1      -1.217   3.489  -1.067  0.00  0.00    -0.165 F 
ATOM     24  F   UNL d   1      -1.218   3.490   1.102  0.00  0.00    -0.165 F 
ENDBRANCH   2  21
BRANCH  10  25
ATOM     25  C   UNL d   1       3.772  -0.189   0.002  0.00  0.00    -0.008 A 
ATOM     26  C   UNL d   1       4.486   1.021   0.018  0.00  0.00     0.014 A 
ATOM     27  C   UNL d   1       5.883   1.032   0.007  0.00  0.00     0.001 A 
ATOM     28  C   UNL d   1       6.588  -0.168  -0.022  0.00  0.00     0.000 A 
ATOM     29  C   UNL d   1       5.896  -1.378  -0.040  0.00  0.00     0.001 A 
ATOM     30  C   UNL d   1       4.498  -1.389  -0.029  0.00  0.00     0.014 A 
ENDBRANCH  10  25
TORSDOF 4
