REMARK  2 active torsions:
REMARK  status: ('A' for Active; 'I' for Inactive)
REMARK    1  A    between atoms: C_5  and  C_2 
REMARK    2  A    between atoms: C_18  and  C_12 
ROOT
ATOM      1  C   UNL d   1      -3.769   0.005  -0.019  0.00  0.00     0.129 A 
ATOM      2  C   UNL d   1      -4.577   0.755  -0.839  0.00  0.00     0.074 A 
ATOM      3  N   UNL d   1      -5.884  -0.544   0.480  0.00  0.00    -0.260 N 
ATOM      4  HN  UNL d   1      -6.692  -0.981   0.923  1.00  0.00     0.195 HD
ATOM      5  O   UNL d   1      -4.555  -0.763   0.781  0.00  0.00    -0.235 OA
ATOM      6  C   UNL d   1      -5.902   0.362  -0.513  0.00  0.00     0.068 A 
ENDROOT
BRANCH   1   7
ATOM      7  C   UNL d   1      -2.291   0.004  -0.017  0.00  0.00     0.101 A 
ATOM      8  N   UNL d   1      -1.526   0.825  -0.806  0.00  0.00    -0.187 N 
ATOM      9  C   UNL d   1      -0.274   0.523  -0.528  0.00  0.00     0.688 A 
ATOM     10  HN  UNL d   1      -1.857   1.525  -1.471  1.00  0.00     0.184 HD
ATOM     11  N   UNL d   1      -0.222  -0.504   0.413  0.00  0.00    -0.166 N 
ATOM     12  N   UNL d   1       0.874   1.067  -1.030  0.00  0.00    -0.201 N 
ATOM     13  C   UNL d   1      -1.508  -0.822   0.753  0.00  0.00     0.147 A 
ATOM     14  C   UNL d   1       0.974  -1.046   0.861  0.00  0.00     0.116 A 
ATOM     15  C   UNL d   1       2.128  -0.557   0.388  0.00  0.00     0.036 A 
ATOM     16  C   UNL d   1       1.985   0.558  -0.593  0.00  0.00     0.107 A 
ATOM     17  HN  UNL d   1       0.859   1.828  -1.709  1.00  0.00     0.183 HD
ENDBRANCH   1   7
BRANCH   6  18
ATOM     18  C   UNL d   1      -7.153   0.795  -1.136  0.00  0.00    -0.007 A 
ATOM     19  C   UNL d   1      -8.283  -0.038  -1.102  0.00  0.00     0.014 A 
ATOM     20  C   UNL d   1      -9.473   0.347  -1.722  0.00  0.00     0.001 A 
ATOM     21  C   UNL d   1      -9.550   1.572  -2.381  0.00  0.00     0.000 A 
ATOM     22  C   UNL d   1      -8.439   2.413  -2.416  0.00  0.00     0.001 A 
ATOM     23  C   UNL d   1      -7.246   2.028  -1.799  0.00  0.00     0.014 A 
ENDBRANCH   6  18
TORSDOF 2
