REMARK  6 active torsions:
REMARK  status: ('A' for Active; 'I' for Inactive)
REMARK    1  A    between atoms: C_5  and  C_1 
REMARK    2  A    between atoms: N_4  and  C_2 
REMARK       I    between atoms: C_3  and  N_4 
REMARK       I    between atoms: N_10  and  C_3 
REMARK    3  A    between atoms: O_16  and  C_5 
REMARK    4  A    between atoms: C_6  and  C_7 
REMARK    5  A    between atoms: O_18  and  C_6 
REMARK    6  A    between atoms: C_15  and  N_10 
ROOT
ATOM      1  C   UNL d   1       1.206  -1.007   0.660  0.00  0.00     0.066 C 
ATOM      2  C   UNL d   1       0.478  -1.795  -0.256  0.00  0.00     0.053 C 
ATOM      3  C   UNL d   1      -1.450  -0.325   0.062  0.00  0.00     0.041 C 
ATOM      4  C   UNL d   1      -0.886  -1.503  -0.442  0.00  0.00     0.048 C 
ATOM      5  C   UNL d   1       0.650   0.200   1.122  0.00  0.00     0.021 C 
ATOM      6  C   UNL d   1      -0.654   0.559   0.788  0.00  0.00     0.019 C 
ENDROOT
BRANCH   2   7
ATOM      7  N   UNL d   1       1.160  -2.745  -1.085  0.00  0.00    -0.308 N 
ATOM      8  C   UNL d   1       0.708  -3.111  -2.319  0.00  0.00     0.325 C 
ATOM      9  N   UNL d   1       1.584  -3.412  -3.307  0.00  0.00    -0.309 N 
ATOM     10  O   UNL d   1      -0.465  -3.041  -2.697  0.00  0.00    -0.247 OA
ATOM     11  H   UNL d   1       1.063  -3.369  -4.177  0.00  0.00     0.170 HD
ATOM     12  H   UNL d   1       2.153  -2.841  -0.901  0.00  0.00     0.170 HD
BRANCH   9  13
ATOM     13  C   UNL d   1       2.941  -3.709  -3.458  0.00  0.00     0.036 A 
ATOM     14  C   UNL d   1       3.811  -4.112  -2.448  0.00  0.00     0.032 A 
ATOM     15  C   UNL d   1       5.130  -4.460  -2.766  0.00  0.00     0.044 A 
ATOM     16  C   UNL d   1       5.575  -4.410  -4.086  0.00  0.00     0.116 A 
ATOM     17  C   UNL d   1       4.726  -4.007  -5.103  0.00  0.00     0.044 A 
ATOM     18  F   UNL d   1       6.831  -4.772  -4.386  0.00  0.00    -0.206 F 
ATOM     19  C   UNL d   1       3.413  -3.664  -4.786  0.00  0.00     0.032 A 
ENDBRANCH   9  13
ENDBRANCH   2   7
BRANCH   1  20
ATOM     20  C   UNL d   1       2.544  -1.440   1.162  0.00  0.00     0.295 C 
ATOM     21  O   UNL d   1       3.192  -2.354   0.678  0.00  0.00    -0.259 OA
BRANCH  20  22
ATOM     22  O   UNL d   1       2.845  -0.737   2.282  0.00  0.00    -0.322 OA
ATOM     23  C   UNL d   1       3.990  -1.141   3.037  0.00  0.00     0.213 C 
ENDBRANCH  20  22
ENDBRANCH   1  20
BRANCH   3  24
ATOM     24  C   UNL d   1      -2.863   0.057  -0.196  0.00  0.00     0.293 C 
ATOM     25  O   UNL d   1      -3.271   1.202  -0.052  0.00  0.00    -0.259 OA
BRANCH  24  26
ATOM     26  O   UNL d   1      -3.608  -1.015  -0.540  0.00  0.00    -0.323 OA
ATOM     27  C   UNL d   1      -4.991  -0.706  -0.749  0.00  0.00     0.213 C 
ENDBRANCH  24  26
ENDBRANCH   3  24
TORSDOF 6
