REMARK  6 active torsions:
REMARK  status: ('A' for Active; 'I' for Inactive)
REMARK    1  A    between atoms: C_16  and  C_5 
REMARK    2  A    between atoms: C_15  and  C_6 
REMARK    3  A    between atoms: C_9  and  C_8 
REMARK    4  A    between atoms: O_21  and  C_10 
REMARK    5  A    between atoms: O_25  and  C_11 
REMARK    6  A    between atoms: O_24  and  C_12 
ROOT
ATOM      1  N   UNL d   1      -0.353   1.284  -0.355  0.00  0.00    -0.358 N 
ATOM      2  HN  UNL d   1      -0.642   2.103  -0.889  1.00  0.00     0.162 HD
ATOM      3  N   UNL d   1      -0.766  -1.095  -0.319  0.00  0.00    -0.358 N 
ATOM      4  HN  UNL d   1      -1.314  -1.783  -0.835  1.00  0.00     0.162 HD
ATOM      5  C   UNL d   1       0.855   1.171   0.061  0.00  0.00     0.084 C 
ATOM      6  C   UNL d   1       0.409  -1.380   0.109  0.00  0.00     0.084 C 
ATOM      7  S   UNL d   1       1.421  -0.225   0.941  0.00  0.00    -0.053 SA
ATOM      8  C   UNL d   1      -1.300   0.229  -0.053  0.00  0.00     0.217 C 
ENDROOT
BRANCH   8   9
ATOM      9  C   UNL d   1      -2.535   0.443  -0.910  0.00  0.00    -0.011 A 
ATOM     10  C   UNL d   1      -3.784   0.691  -0.335  0.00  0.00     0.050 A 
ATOM     11  C   UNL d   1      -4.922   0.917  -1.128  0.00  0.00     0.104 A 
ATOM     12  C   UNL d   1      -4.811   0.882  -2.540  0.00  0.00     0.135 A 
ATOM     13  C   UNL d   1      -3.542   0.653  -3.117  0.00  0.00     0.104 A 
ATOM     14  C   UNL d   1      -2.431   0.421  -2.304  0.00  0.00     0.050 A 
BRANCH  11  15
ATOM     15  O   UNL d   1      -6.149   1.182  -0.573  0.00  0.00    -0.353 OA
ATOM     16  C   UNL d   1      -6.265   1.214   0.843  0.00  0.00     0.210 C 
ENDBRANCH  11  15
BRANCH  12  17
ATOM     17  O   UNL d   1      -5.837   1.023  -3.440  0.00  0.00    -0.351 OA
ATOM     18  C   UNL d   1      -7.169   1.199  -2.993  0.00  0.00     0.210 C 
ENDBRANCH  12  17
BRANCH  13  19
ATOM     19  O   UNL d   1      -3.239   0.570  -4.456  0.00  0.00    -0.353 OA
ATOM     20  C   UNL d   1      -3.963   1.426  -5.330  0.00  0.00     0.210 C 
ENDBRANCH  13  19
ENDBRANCH   8   9
BRANCH   6  21
ATOM     21  C   UNL d   1       0.950  -2.758  -0.115  0.00  0.00    -0.002 A 
ATOM     22  C   UNL d   1       0.359  -3.551  -1.114  0.00  0.00     0.016 A 
ATOM     23  C   UNL d   1       0.813  -4.853  -1.355  0.00  0.00     0.024 A 
ATOM     24  C   UNL d   1       1.855  -5.372  -0.594  0.00  0.00     0.034 A 
ATOM     25  C   UNL d   1       2.445  -4.603   0.408  0.00  0.00     0.024 A 
ATOM     26 CL   UNL d   1       2.415  -6.972  -0.882  0.00  0.00    -0.084 Cl
ATOM     27  C   UNL d   1       1.993  -3.301   0.650  0.00  0.00     0.016 A 
ENDBRANCH   6  21
BRANCH   5  28
ATOM     28  C   UNL d   1       1.824   2.276  -0.221  0.00  0.00    -0.002 A 
ATOM     29  C   UNL d   1       3.015   2.452   0.496  0.00  0.00     0.016 A 
ATOM     30  C   UNL d   1       3.869   3.521   0.199  0.00  0.00     0.024 A 
ATOM     31  C   UNL d   1       3.538   4.419  -0.814  0.00  0.00     0.034 A 
ATOM     32  C   UNL d   1       2.357   4.263  -1.532  0.00  0.00     0.024 A 
ATOM     33 CL   UNL d   1       4.591   5.732  -1.169  0.00  0.00    -0.084 Cl
ATOM     34  C   UNL d   1       1.502   3.197  -1.236  0.00  0.00     0.016 A 
ENDBRANCH   5  28
TORSDOF 6
