REMARK  3 active torsions:
REMARK  status: ('A' for Active; 'I' for Inactive)
REMARK    1  A    between atoms: C_2  and  S_1 
REMARK    2  A    between atoms: N_3  and  S_1 
REMARK    3  A    between atoms: C_8  and  N_7 
ROOT
ATOM      1  N   UNL d   1       0.367   1.114  -0.512  0.00  0.00    -0.203 NA
ATOM      2  N   UNL d   1      -1.165   2.873   1.256  0.00  0.00    -0.378 N 
ATOM      3  C   UNL d   1       0.803   2.524  -0.288  0.00  0.00     0.127 C 
ATOM      4  C   UNL d   1      -1.120   1.014  -0.380  0.00  0.00     0.127 C 
ATOM      5  C   UNL d   1       0.297   3.096   1.065  0.00  0.00     0.138 C 
ATOM      6  C   UNL d   1      -1.596   1.486   1.004  0.00  0.00     0.138 C 
ENDROOT
BRANCH   1   7
ATOM      7  S   UNL d   1       1.265  -0.102   0.254  0.00  0.00     0.245 S 
ATOM      8  O   UNL d   1       2.021   0.509   1.326  0.00  0.00    -0.206 OA
ATOM      9  O   UNL d   1       0.417  -1.247   0.509  0.00  0.00    -0.206 OA
BRANCH   7  10
ATOM     10  C   UNL d   1       2.435  -0.619  -0.984  0.00  0.00     0.098 A 
ATOM     11  C   UNL d   1       3.799  -0.611  -0.644  0.00  0.00     0.052 A 
ATOM     12  C   UNL d   1       4.745  -1.168  -1.510  0.00  0.00     0.057 A 
ATOM     13 CL   UNL d   1       6.398  -1.160  -1.010  0.00  0.00    -0.083 Cl
ATOM     14  C   UNL d   1       4.333  -1.728  -2.722  0.00  0.00     0.057 A 
ATOM     15  C   UNL d   1       2.980  -1.709  -3.072  0.00  0.00     0.051 A 
ATOM     16 CL   UNL d   1       5.436  -2.478  -3.821  0.00  0.00    -0.082 Cl
ATOM     17  C   UNL d   1       2.025  -1.159  -2.206  0.00  0.00     0.058 A 
ATOM     18 CL   UNL d   1       0.389  -1.215  -2.748  0.00  0.00    -0.083 Cl
ENDBRANCH   7  10
ENDBRANCH   1   7
BRANCH   2  19
ATOM     19  C   UNL d   1      -1.783   3.579   2.325  0.00  0.00     0.043 A 
ATOM     20  C   UNL d   1      -2.712   3.066   3.298  0.00  0.00     0.018 A 
ATOM     21  C   UNL d   1      -3.301   3.939   4.229  0.00  0.00     0.044 A 
ATOM     22  C   UNL d   1      -3.258   1.775   3.619  0.00  0.00     0.033 A 
ATOM     23  N   UNL d   1      -4.154   3.212   5.030  0.00  0.00    -0.365 N 
ATOM     24  C   UNL d   1      -3.035   5.307   4.281  0.00  0.00     0.030 A 
ATOM     25  C   UNL d   1      -4.143   1.899   4.664  0.00  0.00     0.089 A 
ATOM     26  H   UNL d   1      -4.709   3.605   5.777  0.00  0.00     0.165 HD
ATOM     27  C   UNL d   1      -2.144   5.816   3.351  0.00  0.00     0.005 A 
ATOM     28  C   UNL d   1      -1.550   4.979   2.407  0.00  0.00     0.030 A 
ENDBRANCH   2  19
TORSDOF 3
