REMARK  2 active torsions:
REMARK  status: ('A' for Active; 'I' for Inactive)
REMARK    1  A    between atoms: N_4  and  C_1 
REMARK    2  A    between atoms: C_7  and  N_4 
ROOT
ATOM      1  C   UNL d   1       0.694  -1.871  -0.032  0.00  0.00     0.245 A 
ATOM      2  O   UNL d   1       0.075  -0.591   0.234  0.00  0.00    -0.291 OA
ATOM      3  C   UNL d   1      -1.168  -0.497  -0.313  0.00  0.00     0.295 A 
ATOM      4  C   UNL d   1      -0.343  -2.579  -0.828  0.00  0.00     0.002 A 
ATOM      5  C   UNL d   1      -1.443  -1.762  -0.966  0.00  0.00     0.049 A 
ATOM      6  O   UNL d   1      -1.910   0.460  -0.260  0.00  0.00    -0.259 OA
ATOM      7  C   UNL d   1      -2.599  -2.161  -1.615  0.00  0.00     0.018 A 
ATOM      8  C   UNL d   1      -0.350  -3.853  -1.377  0.00  0.00     0.012 A 
ATOM      9  C   UNL d   1      -1.504  -4.287  -2.040  0.00  0.00     0.001 A 
ATOM     10  C   UNL d   1      -2.625  -3.447  -2.152  0.00  0.00     0.001 A 
ENDROOT
BRANCH   1  11
ATOM     11  N   UNL d   1       0.925  -2.523   1.240  0.00  0.00    -0.247 NA
ATOM     12  H   UNL d   1       0.063  -2.898   1.616  0.00  0.00     0.132 HD
BRANCH  11  13
ATOM     13  C   UNL d   1       1.937  -3.486   1.268  0.00  0.00     0.088 A 
ATOM     14  N   UNL d   1       2.708  -3.640   0.169  0.00  0.00    -0.356 N 
ATOM     15  C   UNL d   1       3.729  -4.520   0.210  0.00  0.00     0.089 A 
ATOM     16  HN  UNL d   1       2.520  -3.101  -0.677  1.00  0.00     0.166 HD
ATOM     17  C   UNL d   1       4.042  -5.277   1.316  0.00  0.00     0.018 A 
ATOM     18  C   UNL d   1       3.254  -5.120   2.448  0.00  0.00     0.011 A 
ATOM     19  C   UNL d   1       2.176  -4.223   2.438  0.00  0.00    -0.024 A 
ATOM     20  C   UNL d   1       1.381  -4.061   3.703  0.00  0.00     0.052 C 
ENDBRANCH  11  13
ENDBRANCH   1  11
TORSDOF 2
