REMARK  7 active torsions:
REMARK  status: ('A' for Active; 'I' for Inactive)
REMARK    1  A    between atoms: N_2  and  C_1 
REMARK    2  A    between atoms: N_8  and  C_1 
REMARK    3  A    between atoms: C_3  and  N_2 
REMARK    4  A    between atoms: C_15  and  N_8 
REMARK    5  A    between atoms: C_13  and  C_15 
REMARK    6  A    between atoms: C_16  and  C_13 
REMARK    7  A    between atoms: O_14  and  C_16 
ROOT
ATOM      1  N   UNL d   1       0.437  -0.141   1.190  0.00  0.00    -0.332 N 
ATOM      2  H   UNL d   1       0.832   0.447   1.920  0.00  0.00     0.168 HD
ENDROOT
BRANCH   1   3
ATOM      3  C   UNL d   1       1.016  -0.004  -0.043  0.00  0.00     0.172 C 
ATOM      4  S   UNL d   1       0.225   0.137  -1.506  0.00  0.00    -0.041 SA
BRANCH   3   5
ATOM      5  N   UNL d   1       2.383   0.082  -0.036  0.00  0.00    -0.367 N 
ATOM      6  H   UNL d   1       2.771   0.208  -0.965  0.00  0.00     0.161 HD
BRANCH   5   7
ATOM      7  C   UNL d   1       3.235  -0.623   0.914  0.00  0.00     0.124 C 
BRANCH   7   8
ATOM      8  C   UNL d   1       4.239   0.294   1.600  0.00  0.00     0.046 C 
BRANCH   8   9
ATOM      9  C   UNL d   1       3.586   1.308   2.531  0.00  0.00     0.168 C 
BRANCH   9  10
ATOM     10  O   UNL d   1       2.753   0.628   3.469  0.00  0.00    -0.396 OA
ATOM     11  C   UNL d   1       2.185   1.528   4.412  0.00  0.00     0.201 C 
ENDBRANCH   9  10
ENDBRANCH   8   9
ENDBRANCH   7   8
ENDBRANCH   5   7
ENDBRANCH   3   5
ENDBRANCH   1   3
BRANCH   1  12
ATOM     12  C   UNL d   1      -0.731  -0.857   1.536  0.00  0.00     0.056 A 
ATOM     13  C   UNL d   1      -1.493  -0.476   2.653  0.00  0.00     0.062 A 
ATOM     14  C   UNL d   1      -2.568  -1.256   3.086  0.00  0.00     0.045 A 
ATOM     15 CL   UNL d   1      -1.174   0.996   3.498  0.00  0.00    -0.082 Cl
ATOM     16  C   UNL d   1      -2.872  -2.435   2.411  0.00  0.00     0.012 A 
ATOM     17  C   UNL d   1      -2.132  -2.827   1.300  0.00  0.00     0.021 A 
ATOM     18 BR   UNL d   1      -4.290  -3.527   3.024  0.00  0.00    -0.051 Br
ATOM     19  C   UNL d   1      -1.067  -2.036   0.858  0.00  0.00     0.032 A 
ENDBRANCH   1  12
TORSDOF 7
