REMARK  2 active torsions:
REMARK  status: ('A' for Active; 'I' for Inactive)
REMARK    1  A    between atoms: C_2  and  C_1 
REMARK       I    between atoms: N_3  and  C_1 
REMARK    2  A    between atoms: C_4  and  N_3 
ROOT
ATOM      1  C   UNL d   1       0.935   0.108   0.082  0.00  0.00     0.262 C 
ATOM      2  N   UNL d   1       0.173  -0.995  -0.277  0.00  0.00    -0.320 N 
ATOM      3  O   UNL d   1       2.146   0.209  -0.057  0.00  0.00    -0.267 OA
ATOM      4  H   UNL d   1      -0.817  -0.841  -0.427  0.00  0.00     0.169 HD
ENDROOT
BRANCH   1   5
ATOM      5  C   UNL d   1       0.188   1.276   0.603  0.00  0.00     0.109 A 
ATOM      6  C   UNL d   1       0.799   2.130   1.524  0.00  0.00     0.135 A 
ATOM      7  F   UNL d   1       2.038   1.896   1.980  0.00  0.00    -0.205 F 
ATOM      8  C   UNL d   1       0.123   3.241   2.033  0.00  0.00     0.043 A 
ATOM      9  C   UNL d   1      -1.177   3.518   1.617  0.00  0.00     0.006 A 
ATOM     10  C   UNL d   1      -1.794   2.681   0.688  0.00  0.00     0.043 A 
ATOM     11  C   UNL d   1      -1.111   1.571   0.191  0.00  0.00     0.135 A 
ATOM     12  F   UNL d   1      -1.740   0.788  -0.700  0.00  0.00    -0.205 F 
ENDBRANCH   1   5
BRANCH   2  13
ATOM     13  C   UNL d   1       0.689  -2.241  -0.700  0.00  0.00     0.074 A 
ATOM     14  C   UNL d   1       1.955  -2.737  -0.349  0.00  0.00     0.146 A 
ATOM     15  C   UNL d   1       2.424  -3.947  -0.855  0.00  0.00     0.086 A 
ATOM     16  F   UNL d   1       2.722  -2.121   0.560  0.00  0.00    -0.204 F 
ATOM     17  C   UNL d   1       1.610  -4.687  -1.698  0.00  0.00     0.119 A 
ATOM     18  C   UNL d   1       0.327  -4.254  -2.013  0.00  0.00     0.044 A 
ATOM     19  F   UNL d   1       2.057  -5.845  -2.200  0.00  0.00    -0.206 F 
ATOM     20  C   UNL d   1      -0.139  -3.038  -1.505  0.00  0.00     0.036 A 
ENDBRANCH   2  13
TORSDOF 2
