REMARK  7 active torsions:
REMARK  status: ('A' for Active; 'I' for Inactive)
REMARK       I    between atoms: N_2  and  C_1 
REMARK    1  A    between atoms: C_4  and  C_1 
REMARK    2  A    between atoms: C_3  and  N_2 
REMARK    3  A    between atoms: S_10  and  C_4 
REMARK    4  A    between atoms: C_12  and  C_4 
REMARK    5  A    between atoms: O_16  and  C_7 
REMARK    6  A    between atoms: O_17  and  C_9 
REMARK    7  A    between atoms: C_13  and  S_10 
ROOT
ATOM      1  C   UNL d   1       0.975   0.118  -0.102  0.00  0.00     0.240 C 
ATOM      2  N   UNL d   1       1.937   0.771  -0.855  0.00  0.00    -0.323 N 
ATOM      3  O   UNL d   1       0.824  -1.097  -0.197  0.00  0.00    -0.272 OA
ATOM      4  H   UNL d   1       2.346   1.607  -0.460  0.00  0.00     0.169 HD
ENDROOT
BRANCH   1   5
ATOM      5  C   UNL d   1       0.180   0.963   0.942  0.00  0.00     0.177 C 
BRANCH   5   6
ATOM      6  S   UNL d   1       0.665   2.776   0.842  0.00  0.00    -0.111 SA
BRANCH   6   7
ATOM      7  C   UNL d   1       0.200   3.277  -0.815  0.00  0.00     0.001 A 
ATOM      8  C   UNL d   1      -0.888   2.764  -1.526  0.00  0.00     0.020 A 
ATOM      9  C   UNL d   1      -1.165   3.185  -2.829  0.00  0.00     0.025 A 
ATOM     10  C   UNL d   1      -0.355   4.139  -3.431  0.00  0.00     0.034 A 
ATOM     11  C   UNL d   1       0.721   4.682  -2.735  0.00  0.00     0.025 A 
ATOM     12 CL   UNL d   1      -0.690   4.648  -5.037  0.00  0.00    -0.084 Cl
ATOM     13  C   UNL d   1       0.993   4.257  -1.430  0.00  0.00     0.020 A 
ENDBRANCH   6   7
ENDBRANCH   5   6
BRANCH   5  14
ATOM     14  C   UNL d   1      -1.339   0.726   0.985  0.00  0.00    -0.035 A 
ATOM     15  C   UNL d   1      -1.925  -0.453   0.484  0.00  0.00     0.009 A 
ATOM     16  C   UNL d   1      -3.311  -0.613   0.410  0.00  0.00     0.001 A 
ATOM     17  C   UNL d   1      -4.153   0.394   0.861  0.00  0.00     0.000 A 
ATOM     18  C   UNL d   1      -3.608   1.535   1.436  0.00  0.00     0.001 A 
ATOM     19  C   UNL d   1      -2.219   1.686   1.526  0.00  0.00     0.009 A 
ENDBRANCH   5  14
ENDBRANCH   1   5
BRANCH   2  20
ATOM     20  C   UNL d   1       2.605   0.148  -1.928  0.00  0.00     0.070 A 
ATOM     21  C   UNL d   1       1.840  -0.525  -2.889  0.00  0.00     0.059 A 
ATOM     22  C   UNL d   1       2.423  -1.101  -4.028  0.00  0.00     0.069 A 
ATOM     23 CL   UNL d   1       1.300  -1.802  -5.139  0.00  0.00    -0.081 Cl
ATOM     24  C   UNL d   1       3.811  -1.039  -4.198  0.00  0.00     0.092 A 
ATOM     25  C   UNL d   1       4.566  -0.347  -3.229  0.00  0.00     0.077 A 
ATOM     26  C   UNL d   1       3.982   0.258  -2.107  0.00  0.00     0.097 A 
BRANCH  24  27
ATOM     27  O   UNL d   1       4.609  -1.543  -5.186  0.00  0.00    -0.354 OA
ATOM     28  C   UNL d   1       4.053  -2.284  -6.260  0.00  0.00     0.210 C 
ENDBRANCH  24  27
BRANCH  26  29
ATOM     29  O   UNL d   1       4.857   0.926  -1.292  0.00  0.00    -0.354 OA
ATOM     30  C   UNL d   1       4.699   0.722   0.111  0.00  0.00     0.210 C 
ENDBRANCH  26  29
ENDBRANCH   2  20
TORSDOF 7
