REMARK  7 active torsions:
REMARK  status: ('A' for Active; 'I' for Inactive)
REMARK    1  A    between atoms: N_4  and  C_1 
REMARK       I    between atoms: C_2  and  N_3 
REMARK    2  A    between atoms: C_9  and  C_2 
REMARK    3  A    between atoms: N_3  and  N_4 
REMARK    4  A    between atoms: C_13  and  N_10 
REMARK    5  A    between atoms: C_11  and  C_13 
REMARK    6  A    between atoms: C_18  and  C_11 
REMARK    7  A    between atoms: O_12  and  C_18 
ROOT
ATOM      1  C   UNL d   1      -1.339   2.369  -1.685  0.00  0.00     0.270 C 
ATOM      2  N   UNL d   1      -0.808   1.447  -0.808  0.00  0.00    -0.264 N 
ATOM      3  O   UNL d   1      -0.762   2.776  -2.686  0.00  0.00    -0.266 OA
ATOM      4  H   UNL d   1      -1.329   1.025  -0.045  0.00  0.00     0.190 HD
ENDROOT
BRANCH   2   5
ATOM      5  N   UNL d   1       0.551   1.130  -0.886  0.00  0.00    -0.274 N 
ATOM      6  H   UNL d   1       1.083   1.585  -1.634  0.00  0.00     0.189 HD
BRANCH   5   7
ATOM      7  C   UNL d   1       1.081   0.099  -0.156  0.00  0.00     0.186 C 
ATOM      8  S   UNL d   1       0.191  -0.999   0.740  0.00  0.00    -0.040 SA
ATOM      9  N   UNL d   1       2.442   0.005  -0.125  0.00  0.00    -0.366 N 
ATOM     10  H   UNL d   1       2.781  -0.762   0.445  0.00  0.00     0.161 HD
BRANCH   9  11
ATOM     11  C   UNL d   1       3.387   1.075  -0.409  0.00  0.00     0.124 C 
BRANCH  11  12
ATOM     12  C   UNL d   1       4.286   0.770  -1.602  0.00  0.00     0.046 C 
BRANCH  12  13
ATOM     13  C   UNL d   1       3.524   0.627  -2.912  0.00  0.00     0.168 C 
BRANCH  13  14
ATOM     14  O   UNL d   1       2.711   1.782  -3.115  0.00  0.00    -0.396 OA
ATOM     15  C   UNL d   1       1.959   1.687  -4.321  0.00  0.00     0.201 C 
ENDBRANCH  13  14
ENDBRANCH  12  13
ENDBRANCH  11  12
ENDBRANCH   9  11
ENDBRANCH   5   7
ENDBRANCH   2   5
BRANCH   1  16
ATOM     16  C   UNL d   1      -2.697   2.864  -1.347  0.00  0.00     0.036 A 
ATOM     17  C   UNL d   1      -3.086   3.059  -0.021  0.00  0.00     0.034 A 
ATOM     18  C   UNL d   1      -4.351   3.568   0.212  0.00  0.00     0.088 A 
ATOM     19  N   UNL d   1      -5.222   3.883  -0.770  0.00  0.00    -0.375 N 
ATOM     20  C   UNL d   1      -4.811   3.699  -2.043  0.00  0.00     0.088 A 
ATOM     21  HN  UNL d   1      -6.152   4.245  -0.559  1.00  0.00     0.164 HD
ATOM     22  C   UNL d   1      -3.566   3.203  -2.383  0.00  0.00     0.034 A 
ENDBRANCH   1  16
TORSDOF 7
