REMARK  3 active torsions:
REMARK  status: ('A' for Active; 'I' for Inactive)
REMARK    1  A    between atoms: C_2  and  C_1 
REMARK       I    between atoms: N_4  and  C_2 
REMARK    2  A    between atoms: N_7  and  C_3 
REMARK       I    between atoms: C_9  and  N_4 
REMARK    3  A    between atoms: C_13  and  N_5 
ROOT
ATOM      1  C   UNL d   1       1.099   0.336  -0.357  0.00  0.00     0.127 C 
ATOM      2  C   UNL d   1       0.141  -0.463  -0.868  0.00  0.00     0.114 C 
ATOM      3  C   UNL d   1       0.832   1.569   0.290  0.00  0.00     0.106 C 
ATOM      4  N   UNL d   1       0.684   2.580   0.835  0.00  0.00    -0.191 NA
ENDROOT
BRANCH   1   5
ATOM      5  C   UNL d   1       2.520  -0.149  -0.493  0.00  0.00     0.270 C 
ATOM      6  N   UNL d   1       3.508   0.729  -0.070  0.00  0.00    -0.293 N 
ATOM      7  C   UNL d   1       4.871   0.571  -0.005  0.00  0.00     0.220 C 
ATOM      8  H   UNL d   1       3.251   1.644   0.282  0.00  0.00     0.172 HD
ATOM      9  O   UNL d   1       5.541   1.505   0.442  0.00  0.00    -0.274 OA
ATOM     10  C   UNL d   1       5.541  -0.690  -0.485  0.00  0.00     0.117 C 
ATOM     11  O   UNL d   1       2.757  -1.250  -0.984  0.00  0.00    -0.266 OA
ENDBRANCH   1   5
BRANCH   2  12
ATOM     12  N   UNL d   1      -1.242  -0.382  -1.012  0.00  0.00    -0.385 N 
ATOM     13  C   UNL d   1      -2.049  -1.560  -1.433  0.00  0.00     0.142 C 
ATOM     14  C   UNL d   1      -2.990  -2.013  -0.292  0.00  0.00     0.143 C 
ATOM     15  N   UNL d   1      -3.801  -0.886   0.218  0.00  0.00    -0.378 N 
ATOM     16  C   UNL d   1      -3.058   0.354   0.513  0.00  0.00     0.143 C 
ATOM     17  C   UNL d   1      -2.125   0.750  -0.650  0.00  0.00     0.142 C 
BRANCH  15  18
ATOM     18  C   UNL d   1      -5.171  -0.906   0.034  0.00  0.00     0.030 A 
ATOM     19  C   UNL d   1      -5.886   0.182  -0.481  0.00  0.00     0.029 A 
ATOM     20  C   UNL d   1      -7.277   0.134  -0.642  0.00  0.00     0.002 A 
ATOM     21  C   UNL d   1      -7.985  -1.007  -0.278  0.00  0.00     0.000 A 
ATOM     22  C   UNL d   1      -7.301  -2.099   0.242  0.00  0.00     0.002 A 
ATOM     23  C   UNL d   1      -5.912  -2.045   0.390  0.00  0.00     0.029 A 
ENDBRANCH  15  18
ENDBRANCH   2  12
TORSDOF 3
