REMARK  1 active torsions:
REMARK  status: ('A' for Active; 'I' for Inactive)
REMARK    1  A    between atoms: C_2  and  N_1 
REMARK       I    between atoms: C_3  and  N_1 
ROOT
ATOM      1  C   UNL d   1       0.304   1.114   0.707  0.00  0.00     0.040 A 
ATOM      2  C   UNL d   1       0.705   2.461   0.688  0.00  0.00    -0.035 A 
ATOM      3  C   UNL d   1       0.058   3.377   1.537  0.00  0.00     0.015 A 
ATOM      4  C   UNL d   1      -0.724   0.710   1.568  0.00  0.00     0.030 A 
ATOM      5  C   UNL d   1      -0.968   2.974   2.400  0.00  0.00    -0.061 A 
ATOM      6  C   UNL d   1      -1.355   1.633   2.409  0.00  0.00     0.009 A 
ATOM      7  C   UNL d   1       1.755   2.997  -0.248  0.00  0.00     0.050 C 
ATOM      8  C   UNL d   1      -1.631   3.979   3.293  0.00  0.00     0.048 C 
ENDROOT
BRANCH   1   9
ATOM      9  N   UNL d   1       1.000   0.175  -0.069  0.00  0.00    -0.327 N 
ATOM     10  C   UNL d   1       0.530  -0.901  -0.760  0.00  0.00     0.218 C 
ATOM     11  O   UNL d   1       1.326  -1.722  -1.220  0.00  0.00    -0.274 OA
ATOM     12  C   UNL d   1      -0.945  -1.016  -1.050  0.00  0.00     0.117 C 
ATOM     13  H   UNL d   1       1.998   0.306  -0.174  0.00  0.00     0.169 HD
ENDBRANCH   1   9
TORSDOF 1
