REMARK  9 active torsions:
REMARK  status: ('A' for Active; 'I' for Inactive)
REMARK    1  A    between atoms: C2_2  and  C1_1 
REMARK       I    between atoms: N_7  and  C2_2 
REMARK    2  A    between atoms: CA_9  and  N_7 
REMARK    3  A    between atoms: OXT_11  and  C_8 
REMARK    4  A    between atoms: CA_9  and  C_8 
REMARK    5  A    between atoms: CB_13  and  CA_9 
REMARK    6  A    between atoms: NZ_12  and  CE_14 
REMARK    7  A    between atoms: CG_15  and  CB_13 
REMARK    8  A    between atoms: CE_14  and  CD_16 
REMARK    9  A    between atoms: CD_16  and  CG_15 
ROOT
ATOM      1  CA  LYS d   1      -0.827  -2.176  -1.199  0.00  0.00     0.182 C 
ENDROOT
BRANCH   1   2
ATOM      2  CB  LYS d   1      -1.517  -1.632   0.055  0.00  0.00     0.036 C 
BRANCH   2   3
ATOM      3  CG  LYS d   1      -0.631  -0.697   0.883  0.00  0.00     0.004 C 
BRANCH   3   4
ATOM      4  CD  LYS d   1      -1.396  -0.179   2.104  0.00  0.00     0.030 C 
BRANCH   4   5
ATOM      5  CE  LYS d   1      -0.521   0.716   2.977  0.00  0.00     0.267 C 
BRANCH   5   6
ATOM      6  NZ  LYS d   1      -1.286   1.190   4.124  0.00  0.00     0.078 N 
ATOM      7  HZ1 LYS d   1      -0.682   1.751   4.725  0.00  0.00     0.312 HD
ATOM      8  HZ2 LYS d   1      -1.585   0.395   4.689  0.00  0.00     0.312 HD
ENDBRANCH   5   6
ENDBRANCH   4   5
ENDBRANCH   3   4
ENDBRANCH   2   3
ENDBRANCH   1   2
BRANCH   1   9
ATOM      9  N   LYS d   1      -1.762  -3.013  -1.947  0.00  0.00    -0.339 N 
ATOM     10  C2  <1> d   1      -1.566  -3.273  -3.298  0.00  0.00     0.326 C 
ATOM     11  O1  <1> d   1      -0.624  -2.749  -3.894  0.00  0.00    -0.263 OA
ATOM     12  H   LYS d   1      -2.340  -3.670  -1.426  0.00  0.00     0.163 HD
BRANCH  10  13
ATOM     13  C1  <1> d   1      -2.598  -4.240  -3.936  0.00  0.00     0.472 C 
ATOM     14  F1  <1> d   1      -3.414  -4.793  -2.991  0.00  0.00    -0.162 F 
ATOM     15  F2  <1> d   1      -2.008  -5.277  -4.588  0.00  0.00    -0.162 F 
ATOM     16  F3  <1> d   1      -3.411  -3.616  -4.829  0.00  0.00    -0.162 F 
ENDBRANCH  10  13
ENDBRANCH   1   9
BRANCH   1  17
ATOM     17  C   LYS d   1       0.401  -3.035  -0.860  0.00  0.00     0.163 C 
ATOM     18  O   LYS d   1       0.510  -3.725   0.142  0.00  0.00    -0.648 OA
BRANCH  17  19
ATOM     19  OXT LYS d   1       1.325  -3.050  -1.854  0.00  0.00    -0.775 OA
ATOM     20  HXT LYS d   1       1.011  -2.615  -2.681  0.00  0.00     0.167 HD
ENDBRANCH  17  19
ENDBRANCH   1  17
TORSDOF 9
