REMARK  9 active torsions:
REMARK  status: ('A' for Active; 'I' for Inactive)
REMARK    1  A    between atoms: C_8  and  C_1 
REMARK    2  A    between atoms: C_19  and  C_3 
REMARK    3  A    between atoms: O_16  and  C_4 
REMARK    4  A    between atoms: O_17  and  C_5 
REMARK    5  A    between atoms: C_7  and  C_8 
REMARK       I    between atoms: N_11  and  C_7 
REMARK    6  A    between atoms: N_9  and  N_11 
REMARK    7  A    between atoms: C_13  and  C_15 
REMARK    8  A    between atoms: C_18  and  C_14 
REMARK    9  A    between atoms: O_20  and  C_19 
ROOT
ATOM      1  C   UNL d   1       2.971  -2.442  -0.207  0.00  0.00     0.240 C 
ATOM      2  N   UNL d   1       3.300  -3.032   1.011  0.00  0.00    -0.270 N 
ATOM      3  O   UNL d   1       2.833  -3.028  -1.278  0.00  0.00    -0.272 OA
ATOM      4  H   UNL d   1       3.281  -2.450   1.843  0.00  0.00     0.190 HD
ENDROOT
BRANCH   1   5
ATOM      5  C   UNL d   1       2.745  -0.933  -0.083  0.00  0.00     0.144 C 
BRANCH   5   6
ATOM      6  C   UNL d   1       1.310  -0.481   0.163  0.00  0.00    -0.038 A 
ATOM      7  C   UNL d   1       0.337  -1.413   0.576  0.00  0.00     0.047 A 
ATOM      8  C   UNL d   1      -0.985  -1.042   0.868  0.00  0.00     0.102 A 
ATOM      9  C   UNL d   1      -1.374   0.283   0.665  0.00  0.00     0.102 A 
ATOM     10  C   UNL d   1      -0.416   1.226   0.282  0.00  0.00     0.049 A 
ATOM     11  C   UNL d   1       0.929   0.876   0.045  0.00  0.00    -0.025 A 
BRANCH   8  12
ATOM     12  O   UNL d   1      -1.907  -1.938   1.343  0.00  0.00    -0.353 OA
ATOM     13  C   UNL d   1      -1.386  -3.030   2.093  0.00  0.00     0.210 C 
ENDBRANCH   8  12
BRANCH   9  14
ATOM     14  O   UNL d   1      -2.628   0.807   0.857  0.00  0.00    -0.353 OA
ATOM     15  C   UNL d   1      -3.716  -0.046   0.515  0.00  0.00     0.210 C 
ENDBRANCH   9  14
BRANCH  11  16
ATOM     16  C   UNL d   1       1.855   1.983  -0.412  0.00  0.00     0.203 C 
BRANCH  16  17
ATOM     17  O   UNL d   1       3.136   1.895   0.192  0.00  0.00    -0.396 OA
ATOM     18  H   UNL d   1       3.047   2.268   1.085  0.00  0.00     0.209 HD
ENDBRANCH  16  17
ENDBRANCH  11  16
ENDBRANCH   5   6
ENDBRANCH   1   5
BRANCH   2  19
ATOM     19  N   UNL d   1       3.605  -4.338   1.290  0.00  0.00    -0.309 N 
ATOM     20  C   UNL d   1       3.749  -5.224   0.356  0.00  0.00     0.107 C 
ATOM     21  HN  UNL d   1       3.722  -4.622   2.262  1.00  0.00     0.186 HD
BRANCH  20  22
ATOM     22  C   UNL d   1       4.160  -6.604   0.731  0.00  0.00     0.019 C 
ATOM     23  C   UNL d   1       4.408  -7.539  -0.201  0.00  0.00     0.013 C 
BRANCH  23  24
ATOM     24  C   UNL d   1       4.918  -8.895   0.095  0.00  0.00    -0.036 A 
ATOM     25  C   UNL d   1       4.689  -9.554   1.310  0.00  0.00     0.011 A 
ATOM     26  C   UNL d   1       5.211 -10.831   1.543  0.00  0.00     0.001 A 
ATOM     27  C   UNL d   1       5.955 -11.477   0.559  0.00  0.00     0.000 A 
ATOM     28  C   UNL d   1       6.172 -10.846  -0.662  0.00  0.00     0.001 A 
ATOM     29  C   UNL d   1       5.652  -9.566  -0.894  0.00  0.00     0.011 A 
ENDBRANCH  23  24
ENDBRANCH  20  22
ENDBRANCH   2  19
TORSDOF 9
