REMARK  5 active torsions:
REMARK  status: ('A' for Active; 'I' for Inactive)
REMARK    1  A    between atoms: N_2  and  C_1 
REMARK       I    between atoms: C_3  and  N_5 
REMARK    2  A    between atoms: C_7  and  C_3 
REMARK    3  A    between atoms: S_6  and  C_4 
REMARK    4  A    between atoms: N_5  and  C_9 
REMARK    5  A    between atoms: C_10  and  S_6 
ROOT
ATOM      1  C   UNL d   1       4.225   2.230   0.713  0.00  0.00     0.052 A 
ATOM      2  C   UNL d   1       4.425   1.778  -0.610  0.00  0.00     0.032 A 
ATOM      3  C   UNL d   1       4.914   3.388   1.133  0.00  0.00     0.031 A 
ATOM      4  C   UNL d   1       5.420   2.391  -1.399  0.00  0.00     0.021 A 
ATOM      5  C   UNL d   1       6.148   3.486  -0.929  0.00  0.00     0.002 A 
ATOM      6  C   UNL d   1       5.863   4.012   0.322  0.00  0.00     0.002 A 
ENDROOT
BRANCH   1   7
ATOM      7  N   UNL d   1       3.417   1.634   1.724  0.00  0.00    -0.322 N 
ATOM      8  C   UNL d   1       3.148   0.284   1.892  0.00  0.00     0.256 C 
ATOM      9  O   UNL d   1       3.403  -0.630   1.113  0.00  0.00    -0.267 OA
ATOM     10  H   UNL d   1       3.351   2.181   2.573  0.00  0.00     0.169 HD
BRANCH   8  11
ATOM     11  C   UNL d   1       2.690  -0.101   3.256  0.00  0.00     0.032 C 
ATOM     12  C   UNL d   1       1.905   0.734   4.059  0.00  0.00     0.024 C 
ATOM     13  C   UNL d   1       1.705   0.427   5.417  0.00  0.00    -0.055 C 
ATOM     14  C   UNL d   1       0.866   1.342   6.266  0.00  0.00     0.049 C 
ATOM     15  C   UNL d   1       2.333  -0.709   5.969  0.00  0.00    -0.056 C 
ATOM     16  C   UNL d   1       2.994  -1.609   5.122  0.00  0.00     0.008 C 
ATOM     17  C   UNL d   1       2.337  -0.975   7.450  0.00  0.00     0.049 C 
ATOM     18  C   UNL d   1       3.168  -1.309   3.775  0.00  0.00     0.017 C 
ENDBRANCH   8  11
ENDBRANCH   1   7
BRANCH   2  19
ATOM     19  S   UNL d   1       3.286   0.705  -1.490  0.00  0.00    -0.086 SA
BRANCH  19  20
ATOM     20  C   UNL d   1       4.272  -0.702  -2.002  0.00  0.00     0.038 A 
ATOM     21  C   UNL d   1       4.001  -1.427  -3.174  0.00  0.00     0.121 A 
ATOM     22  C   UNL d   1       4.673  -2.616  -3.500  0.00  0.00     0.061 A 
ATOM     23  C   UNL d   1       5.645  -3.096  -2.633  0.00  0.00     0.036 A 
ATOM     24  C   UNL d   1       5.957  -2.396  -1.472  0.00  0.00     0.025 A 
ATOM     25 CL   UNL d   1       6.461  -4.567  -2.989  0.00  0.00    -0.084 Cl
ATOM     26  C   UNL d   1       5.277  -1.210  -1.163  0.00  0.00     0.023 A 
BRANCH  21  27
ATOM     27  N   UNL d   1       3.006  -0.969  -4.124  0.00  0.00    -0.114 N 
ATOM     28  O   UNL d   1       3.223   0.110  -4.695  0.00  0.00    -0.532 OA
ATOM     29  O   UNL d   1       2.060  -1.731  -4.359  0.00  0.00    -0.532 OA
ENDBRANCH  21  27
ENDBRANCH  19  20
ENDBRANCH   2  19
TORSDOF 5
