REMARK  2 active torsions:
REMARK  status: ('A' for Active; 'I' for Inactive)
REMARK       I    between atoms: N_2  and  C_1 
REMARK    1  A    between atoms: C_3  and  C_1 
REMARK    2  A    between atoms: C_4  and  N_2 
ROOT
ATOM      1  C   UNL d   1       1.127   0.199   0.171  0.00  0.00     0.257 C 
ATOM      2  N   UNL d   1       0.595  -0.947   0.729  0.00  0.00    -0.320 N 
ATOM      3  O   UNL d   1       2.227   0.684   0.412  0.00  0.00    -0.267 OA
ATOM      4  H   UNL d   1      -0.157  -1.419   0.235  0.00  0.00     0.169 HD
ENDROOT
BRANCH   1   5
ATOM      5  C   UNL d   1       0.303   0.848  -0.863  0.00  0.00     0.047 A 
ATOM      6  C   UNL d   1      -1.030   1.140  -0.636  0.00  0.00     0.104 A 
ATOM      7  N   UNL d   1      -1.810   1.806  -1.522  0.00  0.00    -0.374 N 
ATOM      8  C   UNL d   1      -1.217   2.212  -2.668  0.00  0.00     0.087 A 
ATOM      9  HN  UNL d   1      -2.796   1.992  -1.334  1.00  0.00     0.164 HD
ATOM     10  C   UNL d   1       0.113   1.969  -2.981  0.00  0.00     0.018 A 
ATOM     11  C   UNL d   1       0.890   1.278  -2.055  0.00  0.00     0.020 A 
ENDBRANCH   1   5
BRANCH   2  12
ATOM     12  C   UNL d   1       1.202  -1.692   1.766  0.00  0.00     0.073 A 
ATOM     13  C   UNL d   1       0.872  -3.045   1.893  0.00  0.00     0.143 A 
ATOM     14  F   UNL d   1      -0.007  -3.595   1.041  0.00  0.00    -0.204 F 
ATOM     15  C   UNL d   1       1.472  -3.849   2.859  0.00  0.00     0.044 A 
ATOM     16  C   UNL d   1       2.391  -3.290   3.745  0.00  0.00     0.003 A 
ATOM     17  C   UNL d   1       2.697  -1.932   3.661  0.00  0.00     0.002 A 
ATOM     18  C   UNL d   1       2.108  -1.136   2.673  0.00  0.00     0.033 A 
ENDBRANCH   2  12
TORSDOF 2
