REMARK  4 active torsions:
REMARK  status: ('A' for Active; 'I' for Inactive)
REMARK    1  A    between atoms: N_5  and  C_1 
REMARK       I    between atoms: C_2  and  N_5 
REMARK       I    between atoms: N_9  and  C_2 
REMARK    2  A    between atoms: C_11  and  N_7 
REMARK    3  A    between atoms: C_14  and  N_9 
REMARK    4  A    between atoms: C_17  and  C_11 
ROOT
ATOM      1  C   UNL d   1      -0.122  -4.146   0.447  0.00  0.00     0.321 C 
ATOM      2  N   UNL d   1      -0.243  -4.664   1.692  0.00  0.00    -0.308 N 
ATOM      3  N   UNL d   1      -0.901  -3.083   0.124  0.00  0.00    -0.338 N 
ATOM      4  O   UNL d   1       0.640  -4.519  -0.435  0.00  0.00    -0.247 OA
ATOM      5  H   UNL d   1      -0.829  -4.147   2.311  0.00  0.00     0.170 HD
ATOM      6  H   UNL d   1      -0.678  -2.840  -0.837  0.00  0.00     0.164 HD
ENDROOT
BRANCH   3   7
ATOM      7  C   UNL d   1      -1.973  -2.249   0.692  0.00  0.00     0.089 C 
ATOM      8  C   UNL d   1      -1.545  -0.779   0.803  0.00  0.00     0.055 C 
ATOM      9  C   UNL d   1      -0.976  -0.411   2.169  0.00  0.00     0.275 C 
ATOM     10  N   UNL d   1      -1.916  -0.768   3.243  0.00  0.00     0.092 N 
ATOM     11  C   UNL d   1      -2.133  -2.219   3.255  0.00  0.00     0.275 C 
ATOM     12  C   UNL d   1      -2.720  -2.723   1.935  0.00  0.00     0.055 C 
BRANCH  10  13
ATOM     13  C   UNL d   1      -1.399  -0.279   4.543  0.00  0.00     0.311 C 
BRANCH  13  14
ATOM     14  C   UNL d   1      -2.263  -0.679   5.723  0.00  0.00    -0.030 A 
ATOM     15  C   UNL d   1      -1.762  -1.545   6.707  0.00  0.00     0.009 A 
ATOM     16  C   UNL d   1      -2.592  -2.010   7.728  0.00  0.00     0.001 A 
ATOM     17  C   UNL d   1      -3.926  -1.610   7.779  0.00  0.00     0.000 A 
ATOM     18  C   UNL d   1      -4.428  -0.730   6.821  0.00  0.00     0.001 A 
ATOM     19  C   UNL d   1      -3.599  -0.261   5.801  0.00  0.00     0.009 A 
ENDBRANCH  13  14
ENDBRANCH  10  13
ENDBRANCH   3   7
BRANCH   2  20
ATOM     20  C   UNL d   1       0.546  -5.636   2.317  0.00  0.00     0.054 C 
ATOM     21  C   UNL d   1       1.503  -6.592   1.782  0.00  0.00     0.008 A 
ATOM     22  C   UNL d   1       2.220  -7.216   2.816  0.00  0.00     0.017 A 
ATOM     23  C   UNL d   1       1.847  -6.987   0.462  0.00  0.00     0.015 A 
ATOM     24  C   UNL d   1       3.306  -8.082   2.565  0.00  0.00     0.020 A 
ATOM     25  S   UNL d   1       1.600  -6.804   4.364  0.00  0.00    -0.099 SA
ATOM     26  C   UNL d   1       3.662  -8.369   1.249  0.00  0.00     0.001 A 
ATOM     27  C   UNL d   1       2.921  -7.848   0.205  0.00  0.00     0.001 A 
ATOM     28  C   UNL d   1       0.457  -5.743   3.693  0.00  0.00     0.081 C 
ENDBRANCH   2  20
TORSDOF 4
