REMARK  1 active torsions:
REMARK  status: ('A' for Active; 'I' for Inactive)
REMARK    1  A    between atoms: C_8  and  N_4 
ROOT
ATOM      1  C   UNL d   1      -1.969  -0.684  -1.163  0.00  0.00     0.146 C 
ATOM      2  N   UNL d   1      -2.364   0.312  -0.315  0.00  0.00    -0.356 N 
ATOM      3  S   UNL d   1      -0.679  -0.101  -2.215  0.00  0.00    -0.057 SA
ATOM      4  N   UNL d   1      -2.505  -1.863  -1.153  0.00  0.00    -0.336 N 
ATOM      5  HN  UNL d   1      -3.248  -2.062  -0.482  1.00  0.00     0.168 HD
ATOM      6  C   UNL d   1      -0.649   1.463  -1.440  0.00  0.00     0.005 C 
ATOM      7  C   UNL d   1      -1.843   1.665  -0.505  0.00  0.00     0.065 C 
ATOM      8  C   UNL d   1       0.361   2.316  -1.674  0.00  0.00     0.029 C 
ATOM      9  C   UNL d   1      -2.901   2.537  -1.214  0.00  0.00     0.036 C 
ATOM     10  C   UNL d   1      -1.439   2.246   0.869  0.00  0.00     0.036 C 
ATOM     11  C   UNL d   1      -4.063   2.945  -0.312  0.00  0.00     0.003 C 
ATOM     12  C   UNL d   1      -2.632   2.664   1.730  0.00  0.00     0.003 C 
ATOM     13  C   UNL d   1      -3.567   3.598   0.971  0.00  0.00     0.000 C 
ATOM     14  H   UNL d   1      -3.217   0.159   0.204  0.00  0.00     0.162 HD
ENDROOT
BRANCH   4  15
ATOM     15  C   UNL d   1      -2.095  -2.881  -2.038  0.00  0.00     0.041 A 
ATOM     16  C   UNL d   1      -3.026  -3.491  -2.906  0.00  0.00    -0.013 A 
ATOM     17  C   UNL d   1      -2.580  -4.512  -3.770  0.00  0.00     0.042 A 
ATOM     18  C   UNL d   1      -4.483  -3.110  -2.870  0.00  0.00     0.052 C 
ATOM     19 CL   UNL d   1      -3.659  -5.323  -4.854  0.00  0.00    -0.084 Cl
ATOM     20  C   UNL d   1      -1.245  -4.922  -3.775  0.00  0.00     0.024 A 
ATOM     21  C   UNL d   1      -0.342  -4.350  -2.888  0.00  0.00     0.004 A 
ATOM     22  C   UNL d   1      -0.774  -3.358  -2.011  0.00  0.00     0.030 A 
ENDBRANCH   4  15
TORSDOF 1
