REMARK  2 active torsions:
REMARK  status: ('A' for Active; 'I' for Inactive)
REMARK    1  A    between atoms: C_9  and  C_5 
REMARK    2  A    between atoms: C_20  and  C_12 
ROOT
ATOM      1  C   UNL d   1      -0.331  -0.697   0.012  0.00  0.00     0.112 A 
ATOM      2  N   UNL d   1      -1.587  -1.094   0.032  0.00  0.00    -0.340 N 
ATOM      3  HN  UNL d   1      -1.930  -2.055   0.048  1.00  0.00     0.167 HD
ATOM      4  N   UNL d   1      -0.242   0.687  -0.001  0.00  0.00    -0.317 N 
ATOM      5  C   UNL d   1      -2.342   0.061   0.026  0.00  0.00     0.060 A 
ATOM      6  C   UNL d   1      -1.523   1.171   0.002  0.00  0.00     0.128 A 
ATOM      7  C   UNL d   1       0.894  -1.424   0.015  0.00  0.00     0.056 A 
ATOM      8  C   UNL d   1       0.962   1.382  -0.007  0.00  0.00     0.098 A 
ATOM      9  C   UNL d   1       2.080  -0.771   0.010  0.00  0.00    -0.054 A 
ATOM     10  C   UNL d   1       2.116   0.695   0.003  0.00  0.00     0.025 A 
ENDROOT
BRANCH   5  11
ATOM     11  C   UNL d   1      -3.799   0.070   0.042  0.00  0.00    -0.005 A 
ATOM     12  C   UNL d   1      -4.524   1.271  -0.029  0.00  0.00     0.053 A 
ATOM     13  C   UNL d   1      -5.902   1.207  -0.024  0.00  0.00     0.105 A 
ATOM     14  O   UNL d   1      -6.741   2.275  -0.099  0.00  0.00    -0.323 OA
ATOM     15  C   UNL d   1      -6.576   0.013   0.056  0.00  0.00     0.105 A 
ATOM     16  C   UNL d   1      -8.021   1.611  -0.101  0.00  0.00     0.352 A 
ATOM     17  O   UNL d   1      -7.925   0.178   0.040  0.00  0.00    -0.323 OA
ATOM     18  C   UNL d   1      -5.907  -1.188   0.135  0.00  0.00     0.040 A 
ATOM     19  C   UNL d   1      -4.506  -1.153   0.126  0.00  0.00     0.017 A 
ENDBRANCH   5  11
BRANCH   9  20
ATOM     20  C   UNL d   1       3.398  -1.505   0.064  0.00  0.00     0.034 C 
ATOM     21  C   UNL d   1       4.278  -1.281  -1.160  0.00  0.00     0.010 C 
ENDBRANCH   9  20
TORSDOF 2
