REMARK  4 active torsions:
REMARK  status: ('A' for Active; 'I' for Inactive)
REMARK    1  A    between atoms: C_2  and  C_1 
REMARK       I    between atoms: N_4  and  C_1 
REMARK       I    between atoms: C_3  and  N_5 
REMARK    2  A    between atoms: C_12  and  C_3 
REMARK    3  A    between atoms: C_7  and  N_4 
REMARK    4  A    between atoms: N_5  and  C_6 
ROOT
ATOM      1  C   UNL d   1       0.234  -1.079   0.580  0.00  0.00     0.059 A 
ATOM      2  C   UNL d   1       0.872  -1.365   1.804  0.00  0.00     0.050 A 
ATOM      3  C   UNL d   1      -1.034  -1.618   0.298  0.00  0.00     0.019 A 
ATOM      4  C   UNL d   1       0.178  -2.127   2.753  0.00  0.00     0.030 A 
ATOM      5  C   UNL d   1      -1.688  -2.407   1.243  0.00  0.00     0.001 A 
ATOM      6  C   UNL d   1      -1.089  -2.648   2.474  0.00  0.00     0.002 A 
ENDROOT
BRANCH   1   7
ATOM      7  C   UNL d   1       0.928  -0.310  -0.485  0.00  0.00     0.259 C 
ATOM      8  N   UNL d   1       0.138   0.578  -1.181  0.00  0.00    -0.309 N 
ATOM      9  H   UNL d   1      -0.706   0.929  -0.747  0.00  0.00     0.170 HD
ATOM     10  O   UNL d   1       2.139  -0.449  -0.629  0.00  0.00    -0.267 OA
BRANCH   8  11
ATOM     11  C   UNL d   1       0.585   1.366  -2.242  0.00  0.00     0.107 A 
ATOM     12  N   UNL d   1      -0.034   2.558  -2.358  0.00  0.00    -0.352 N 
ATOM     13  C   UNL d   1       0.420   3.390  -3.322  0.00  0.00     0.089 A 
ATOM     14  HN  UNL d   1      -0.807   2.821  -1.746  1.00  0.00     0.166 HD
ATOM     15  C   UNL d   1       1.420   3.061  -4.223  0.00  0.00     0.017 A 
ATOM     16  C   UNL d   1       1.989   1.798  -4.132  0.00  0.00     0.005 A 
ATOM     17  C   UNL d   1       1.574   0.939  -3.120  0.00  0.00     0.048 A 
ENDBRANCH   8  11
ENDBRANCH   1   7
BRANCH   2  18
ATOM     18  N   UNL d   1       2.178  -0.874   2.074  0.00  0.00    -0.322 N 
ATOM     19  C   UNL d   1       3.080  -1.480   2.927  0.00  0.00     0.256 C 
ATOM     20  O   UNL d   1       2.925  -2.546   3.522  0.00  0.00    -0.267 OA
ATOM     21  H   UNL d   1       2.576  -0.246   1.377  0.00  0.00     0.169 HD
BRANCH  19  22
ATOM     22  C   UNL d   1       4.377  -0.789   3.081  0.00  0.00     0.032 A 
ATOM     23  C   UNL d   1       4.422   0.555   3.470  0.00  0.00     0.017 A 
ATOM     24  C   UNL d   1       5.655   1.154   3.727  0.00  0.00     0.001 A 
ATOM     25  C   UNL d   1       6.837   0.422   3.586  0.00  0.00     0.000 A 
ATOM     26  C   UNL d   1       6.789  -0.915   3.188  0.00  0.00     0.001 A 
ATOM     27  C   UNL d   1       5.558  -1.524   2.944  0.00  0.00     0.017 A 
ENDBRANCH  19  22
ENDBRANCH   2  18
TORSDOF 4
