REMARK  2 active torsions:
REMARK  status: ('A' for Active; 'I' for Inactive)
REMARK    1  A    between atoms: C_2  and  C_1 
REMARK       I    between atoms: N_5  and  C_2 
REMARK    2  A    between atoms: N_7  and  N_5 
ROOT
ATOM      1  C   UNL d   1       1.256  -1.454   0.090  0.00  0.00     0.044 A 
ATOM      2  C   UNL d   1       0.003  -0.779   0.037  0.00  0.00    -0.010 A 
ATOM      3  C   UNL d   1       0.015   0.639  -0.015  0.00  0.00    -0.025 A 
ATOM      4  C   UNL d   1       2.463  -0.729   0.087  0.00  0.00     0.018 A 
ATOM      5  C   UNL d   1      -1.263  -1.417   0.022  0.00  0.00     0.013 A 
ATOM      6  C   UNL d   1       2.449   0.658   0.020  0.00  0.00     0.002 A 
ATOM      7  C   UNL d   1       1.233   1.335  -0.028  0.00  0.00     0.012 A 
ATOM      8  C   UNL d   1      -1.194   1.356  -0.052  0.00  0.00     0.012 A 
ATOM      9  C   UNL d   1      -2.456  -0.690  -0.017  0.00  0.00     0.001 A 
ATOM     10  C   UNL d   1      -2.422   0.697  -0.049  0.00  0.00     0.001 A 
ENDROOT
BRANCH   1  11
ATOM     11  C   UNL d   1       1.350  -2.937   0.214  0.00  0.00     0.266 C 
ATOM     12  O   UNL d   1       0.607  -3.576   0.954  0.00  0.00    -0.266 OA
ATOM     13  N   UNL d   1       2.345  -3.542  -0.551  0.00  0.00    -0.290 N 
ATOM     14  H   UNL d   1       2.842  -3.019  -1.270  0.00  0.00     0.183 HD
BRANCH  13  15
ATOM     15  N   UNL d   1       2.501  -4.943  -0.496  0.00  0.00    -0.247 NA
ATOM     16  H   UNL d   1       1.585  -5.329  -0.226  0.00  0.00     0.143 HD
ATOM     17  H   UNL d   1       3.086  -5.154   0.319  0.00  0.00     0.143 HD
ENDBRANCH  13  15
ENDBRANCH   1  11
TORSDOF 2
