REMARK  5 active torsions:
REMARK  status: ('A' for Active; 'I' for Inactive)
REMARK    1  A    between atoms: C_2  and  S_1 
REMARK    2  A    between atoms: N_5  and  S_1 
REMARK    3  A    between atoms: C_9  and  C_14 
REMARK    4  A    between atoms: O_18  and  C_9 
REMARK    5  A    between atoms: C_20  and  O_18 
ROOT
ATOM      1  N   UNL d   1       0.401   1.594  -0.234  0.00  0.00    -0.205 NA
ATOM      2  C   UNL d   1       1.368   2.614   0.244  0.00  0.00     0.108 C 
ATOM      3  C   UNL d   1      -0.148   1.883  -1.583  0.00  0.00     0.108 C 
ATOM      4  C   UNL d   1       0.154   4.355  -1.148  0.00  0.00     0.088 C 
ATOM      5  C   UNL d   1       0.713   3.995   0.234  0.00  0.00     0.030 C 
ATOM      6  C   UNL d   1      -0.817   3.254  -1.593  0.00  0.00     0.030 C 
ENDROOT
BRANCH   1   7
ATOM      7  S   UNL d   1       0.940  -0.031  -0.055  0.00  0.00     0.260 S 
ATOM      8  O   UNL d   1       1.579  -0.182   1.237  0.00  0.00    -0.204 OA
ATOM      9  O   UNL d   1      -0.134  -0.907  -0.475  0.00  0.00    -0.204 OA
BRANCH   7  10
ATOM     10  C   UNL d   1       2.216  -0.329  -1.223  0.00  0.00     0.160 A 
ATOM     11  N   UNL d   1       3.372   0.437  -1.307  0.00  0.00    -0.341 N 
ATOM     12  C   UNL d   1       4.066  -0.097  -2.287  0.00  0.00     0.183 A 
ATOM     13  HN  UNL d   1       3.626   1.240  -0.733  1.00  0.00     0.167 HD
ATOM     14  N   UNL d   1       3.397  -1.136  -2.870  0.00  0.00    -0.354 N 
ATOM     15  C   UNL d   1       2.208  -1.289  -2.219  0.00  0.00     0.134 A 
ATOM     16  C   UNL d   1       3.883  -1.926  -3.973  0.00  0.00     0.156 C 
ENDBRANCH   7  10
ENDBRANCH   1   7
BRANCH   4  17
ATOM     17  C   UNL d   1       1.218   4.566  -2.218  0.00  0.00     0.263 C 
ATOM     18  O   UNL d   1       1.020   4.372  -3.414  0.00  0.00    -0.265 OA
BRANCH  17  19
ATOM     19  O   UNL d   1       2.386   5.027  -1.699  0.00  0.00    -0.322 OA
BRANCH  19  20
ATOM     20  C   UNL d   1       3.440   5.238  -2.652  0.00  0.00     0.174 C 
ATOM     21  C   UNL d   1       4.125   3.926  -2.992  0.00  0.00     0.034 C 
ENDBRANCH  19  20
ENDBRANCH  17  19
ENDBRANCH   4  17
TORSDOF 5
