REMARK  7 active torsions:
REMARK  status: ('A' for Active; 'I' for Inactive)
REMARK    1  A    between atoms: N_3  and  S_1 
REMARK    2  A    between atoms: C_4  and  S_1 
REMARK    3  A    between atoms: S_2  and  N_3 
REMARK    4  A    between atoms: C_5  and  S_2 
REMARK    5  A    between atoms: C_13  and  N_3 
REMARK    6  A    between atoms: S_8  and  C_16 
REMARK    7  A    between atoms: N_24  and  S_8 
ROOT
ATOM      1  N   UNL d   1      -0.013   1.453   0.504  0.00  0.00    -0.157 N 
ENDROOT
BRANCH   1   2
ATOM      2  S   UNL d   1      -0.868   2.420  -0.591  0.00  0.00     0.280 S 
ATOM      3  O   UNL d   1      -1.568   3.471   0.122  0.00  0.00    -0.199 OA
ATOM      4  O   UNL d   1      -0.022   2.755  -1.716  0.00  0.00    -0.199 OA
BRANCH   2   5
ATOM      5  C   UNL d   1      -2.172   1.516  -1.278  0.00  0.00     0.111 A 
ATOM      6  C   UNL d   1      -3.225   0.998  -0.563  0.00  0.00     0.099 A 
ATOM      7  S   UNL d   1      -4.335   0.151  -1.532  0.00  0.00    -0.064 SA
ATOM      8 CL   UNL d   1      -3.559   1.114   1.120  0.00  0.00    -0.075 Cl
ATOM      9  C   UNL d   1      -3.448   0.516  -2.926  0.00  0.00     0.077 A 
ATOM     10  C   UNL d   1      -2.313   1.245  -2.679  0.00  0.00     0.059 A 
ATOM     11 CL   UNL d   1      -4.014  -0.015  -4.457  0.00  0.00    -0.076 Cl
ENDBRANCH   2   5
ENDBRANCH   1   2
BRANCH   1  12
ATOM     12  S   UNL d   1       0.899   0.248  -0.226  0.00  0.00     0.280 S 
ATOM     13  O   UNL d   1       2.191   0.759  -0.633  0.00  0.00    -0.199 OA
ATOM     14  O   UNL d   1       0.066  -0.491  -1.150  0.00  0.00    -0.199 OA
BRANCH  12  15
ATOM     15  C   UNL d   1       1.315  -0.982   0.923  0.00  0.00     0.111 A 
ATOM     16  C   UNL d   1       0.423  -1.646   1.727  0.00  0.00     0.099 A 
ATOM     17  S   UNL d   1       1.150  -2.863   2.667  0.00  0.00    -0.064 SA
ATOM     18 CL   UNL d   1      -1.272  -1.433   1.872  0.00  0.00    -0.075 Cl
ATOM     19  C   UNL d   1       2.661  -2.543   1.976  0.00  0.00     0.077 A 
ATOM     20  C   UNL d   1       2.639  -1.516   1.069  0.00  0.00     0.059 A 
ATOM     21 CL   UNL d   1       4.020  -3.489   2.426  0.00  0.00    -0.076 Cl
ENDBRANCH  12  15
ENDBRANCH   1  12
BRANCH   1  22
ATOM     22  C   UNL d   1       0.582   2.206   1.580  0.00  0.00     0.064 A 
ATOM     23  C   UNL d   1       1.763   2.946   1.448  0.00  0.00     0.056 A 
ATOM     24  C   UNL d   1       2.176   3.781   2.498  0.00  0.00     0.076 A 
ATOM     25  C   UNL d   1       1.421   3.897   3.667  0.00  0.00     0.025 A 
ATOM     26  C   UNL d   1       0.234   3.183   3.787  0.00  0.00     0.004 A 
ATOM     27  C   UNL d   1      -0.182   2.346   2.749  0.00  0.00     0.031 A 
BRANCH  24  28
ATOM     28  S   UNL d   1       3.700   4.677   2.371  0.00  0.00     0.239 S 
ATOM     29  O   UNL d   1       4.171   4.984   3.700  0.00  0.00    -0.206 OA
ATOM     30  O   UNL d   1       4.534   4.035   1.383  0.00  0.00    -0.206 OA
BRANCH  28  31
ATOM     31  N   UNL d   1       3.200   6.129   1.701  0.00  0.00    -0.225 NA
ATOM     32  H   UNL d   1       3.383   6.896   2.349  0.00  0.00     0.136 HD
ATOM     33  H   UNL d   1       3.632   6.260   0.785  0.00  0.00     0.136 HD
ENDBRANCH  28  31
ENDBRANCH  24  28
ENDBRANCH   1  22
TORSDOF 7
