REMARK  3 active torsions:
REMARK  status: ('A' for Active; 'I' for Inactive)
REMARK    1  A    between atoms: C_2  and  C_1 
REMARK    2  A    between atoms: N_6  and  C_3 
REMARK    3  A    between atoms: N_9  and  N_6 
ROOT
ATOM      1  C   UNL d   1       0.626   1.752  -0.106  0.00  0.00     0.065 A 
ATOM      2  C   UNL d   1      -0.183   3.961  -1.585  0.00  0.00     0.141 A 
ATOM      3  N   UNL d   1       0.986   4.007  -0.897  0.00  0.00    -0.349 N 
ATOM      4  HN  UNL d   1       1.564   4.847  -0.911  1.00  0.00     0.167 HD
ATOM      5  C   UNL d   1      -0.972   2.801  -1.580  0.00  0.00     0.080 A 
ATOM      6  C   UNL d   1      -0.568   1.696  -0.826  0.00  0.00     0.045 A 
ATOM      7  C   UNL d   1       1.369   2.919  -0.191  0.00  0.00     0.106 A 
ATOM      8 CL   UNL d   1      -2.459   2.701  -2.455  0.00  0.00    -0.080 Cl
ENDROOT
BRANCH   2   9
ATOM      9  N   UNL d   1      -0.651   5.111  -2.278  0.00  0.00    -0.284 N 
ATOM     10  H   UNL d   1      -0.870   4.870  -3.239  0.00  0.00     0.188 HD
BRANCH   9  11
ATOM     11  N   UNL d   1      -0.069   6.298  -1.975  0.00  0.00    -0.307 N 
ATOM     12  C   UNL d   1      -0.298   7.342  -2.708  0.00  0.00     0.005 C 
ATOM     13  C   UNL d   1       0.294   8.657  -2.241  0.00  0.00     0.064 C 
ATOM     14  C   UNL d   1      -1.137   7.402  -3.969  0.00  0.00     0.064 C 
ATOM     15  C   UNL d   1      -0.821   9.625  -1.881  0.00  0.00     0.079 C 
ATOM     16  S   UNL d   1      -1.889   9.982  -3.316  0.00  0.00    -0.168 SA
ATOM     17  C   UNL d   1      -2.360   8.271  -3.730  0.00  0.00     0.079 C 
ATOM     18  HN  UNL d   1       0.551   6.369  -1.168  1.00  0.00     0.186 HD
ENDBRANCH   9  11
ENDBRANCH   2   9
BRANCH   1  19
ATOM     19  C   UNL d   1       1.113   0.625   0.750  0.00  0.00     0.418 C 
ATOM     20  F   UNL d   1       0.255  -0.431   0.791  0.00  0.00    -0.166 F 
ATOM     21  F   UNL d   1       1.306   0.999   2.044  0.00  0.00    -0.166 F 
ATOM     22  F   UNL d   1       2.303   0.122   0.323  0.00  0.00    -0.166 F 
ENDBRANCH   1  19
TORSDOF 3
