REMARK  4 active torsions:
REMARK  status: ('A' for Active; 'I' for Inactive)
REMARK    1  A    between atoms: S_2  and  C_1 
REMARK    2  A    between atoms: C_9  and  S_2 
REMARK    3  A    between atoms: C_7  and  C_9 
REMARK    4  A    between atoms: O_14  and  C_7 
ROOT
ATOM      1  C   UNL d   1      -0.117  -0.779  -0.081  0.00  0.00     0.047 A 
ATOM      2  C   UNL d   1      -0.721  -0.005   0.925  0.00  0.00     0.067 A 
ATOM      3  C   UNL d   1       0.448  -0.093  -1.175  0.00  0.00     0.067 A 
ATOM      4  N   UNL d   1      -0.212   2.053  -0.260  0.00  0.00    -0.372 N 
ATOM      5  HN  UNL d   1      -0.248   3.071  -0.323  1.00  0.00     0.164 HD
ATOM      6 CL   UNL d   1      -1.398  -0.665   2.371  0.00  0.00    -0.081 Cl
ATOM      7 CL   UNL d   1       1.261  -0.881  -2.484  0.00  0.00    -0.081 Cl
ATOM      8  C   UNL d   1      -0.743   1.381   0.786  0.00  0.00     0.113 A 
ATOM      9  C   UNL d   1       0.370   1.296  -1.216  0.00  0.00     0.113 A 
ENDROOT
BRANCH   1  10
ATOM     10  S   UNL d   1       0.071  -2.571   0.040  0.00  0.00    -0.117 SA
BRANCH  10  11
ATOM     11  C   UNL d   1      -1.646  -3.187  -0.031  0.00  0.00     0.190 C 
BRANCH  11  12
ATOM     12  C   UNL d   1      -2.405  -2.783  -1.274  0.00  0.00     0.268 C 
ATOM     13  O   UNL d   1      -2.307  -1.716  -1.869  0.00  0.00    -0.264 OA
BRANCH  12  14
ATOM     14  O   UNL d   1      -3.305  -3.762  -1.591  0.00  0.00    -0.326 OA
ATOM     15  C   UNL d   1      -4.129  -3.464  -2.720  0.00  0.00     0.213 C 
ENDBRANCH  12  14
ENDBRANCH  11  12
ENDBRANCH  10  11
ENDBRANCH   1  10
TORSDOF 4
