REMARK  4 active torsions:
REMARK  status: ('A' for Active; 'I' for Inactive)
REMARK    1  A    between atoms: C_8  and  N_1 
REMARK    2  A    between atoms: N_4  and  O_9 
REMARK    3  A    between atoms: C_7  and  C_15 
REMARK    4  A    between atoms: O_9  and  C_7 
ROOT
ATOM      1  O   UNL d   1      -3.442   4.426   2.183  0.00  0.00    -0.195 OA
ENDROOT
BRANCH   1   2
ATOM      2  N   UNL d   1      -3.728   3.125   2.633  0.00  0.00    -0.261 N 
ATOM      3  C   UNL d   1      -4.821   3.012   3.325  0.00  0.00     0.045 C 
ATOM      4  C   UNL d   1      -5.659   4.092   3.815  0.00  0.00     0.020 A 
ATOM      5  C   UNL d   1      -5.301   1.599   3.677  0.00  0.00     0.060 C 
ATOM      6  C   UNL d   1      -6.931   3.794   4.267  0.00  0.00     0.065 A 
ATOM      7  C   UNL d   1      -5.505   5.482   4.031  0.00  0.00     0.040 A 
ATOM      8  O   UNL d   1      -7.567   4.893   4.732  0.00  0.00    -0.326 OA
ATOM      9  C   UNL d   1      -7.607   2.477   4.329  0.00  0.00     0.066 C 
ATOM     10  C   UNL d   1      -6.689   5.922   4.589  0.00  0.00     0.143 A 
ATOM     11  C   UNL d   1      -6.821   1.476   3.464  0.00  0.00     0.013 C 
ATOM     12  HN  UNL d   1      -3.123   2.329   2.432  1.00  0.00     0.194 HD
ENDBRANCH   1   2
BRANCH   1  13
ATOM     13  C   UNL d   1      -2.165   4.452   1.685  0.00  0.00     0.315 C 
ATOM     14  O   UNL d   1      -1.244   3.698   1.960  0.00  0.00    -0.257 OA
BRANCH  13  15
ATOM     15  C   UNL d   1      -2.006   5.558   0.701  0.00  0.00     0.041 A 
ATOM     16  C   UNL d   1      -0.708   6.013   0.409  0.00  0.00     0.020 A 
ATOM     17  C   UNL d   1      -0.498   6.988  -0.574  0.00  0.00     0.037 A 
ATOM     18  C   UNL d   1      -1.593   7.502  -1.280  0.00  0.00     0.102 A 
ATOM     19  C   UNL d   1      -2.892   7.052  -1.000  0.00  0.00     0.037 A 
ATOM     20  C   UNL d   1      -3.095   6.083  -0.009  0.00  0.00     0.020 A 
BRANCH  18  21
ATOM     21  N   UNL d   1      -1.381   8.504  -2.335  0.00  0.00    -0.116 N 
ATOM     22  O   UNL d   1      -2.373   8.898  -2.962  0.00  0.00    -0.532 OA
ATOM     23  O   UNL d   1      -0.222   8.895  -2.532  0.00  0.00    -0.532 OA
ENDBRANCH  18  21
ENDBRANCH  13  15
ENDBRANCH   1  13
TORSDOF 4
