REMARK  5 active torsions:
REMARK  status: ('A' for Active; 'I' for Inactive)
REMARK    1  A    between atoms: C_5  and  C_1 
REMARK    2  A    between atoms: N_8  and  C_2 
REMARK       I    between atoms: C_9  and  N_8 
REMARK    3  A    between atoms: O_19  and  C_9 
REMARK    4  A    between atoms: C_11  and  C_18 
REMARK    5  A    between atoms: N_13  and  O_19 
ROOT
ATOM      1  N   UNL d   1       0.566  -2.653   0.146  0.00  0.00    -0.297 N 
ATOM      2  C   UNL d   1       1.668  -3.066   0.842  0.00  0.00     0.387 C 
ATOM      3  O   UNL d   1       2.293  -2.423   1.679  0.00  0.00    -0.236 OA
ATOM      4  H   UNL d   1       0.016  -3.390  -0.277  0.00  0.00     0.171 HD
ENDROOT
BRANCH   1   5
ATOM      5  C   UNL d   1       0.105  -1.348   0.044  0.00  0.00     0.098 A 
ATOM      6  C   UNL d   1      -1.248  -0.913  -0.179  0.00  0.00     0.098 A 
ATOM      7  N   UNL d   1      -1.278   0.416  -0.359  0.00  0.00    -0.258 N 
ATOM      8  O   UNL d   1       0.006   0.868  -0.176  0.00  0.00    -0.240 OA
ATOM      9  HN  UNL d   1      -2.095   0.982  -0.588  1.00  0.00     0.195 HD
ATOM     10  C   UNL d   1       0.840  -0.179   0.055  0.00  0.00     0.101 A 
ATOM     11  C   UNL d   1       2.264   0.200   0.142  0.00  0.00     0.081 C 
BRANCH   6  12
ATOM     12  C   UNL d   1      -2.502  -1.679  -0.151  0.00  0.00     0.038 A 
ATOM     13  C   UNL d   1      -3.576  -1.271   0.676  0.00  0.00     0.048 A 
ATOM     14 CL   UNL d   1      -3.503   0.096   1.743  0.00  0.00    -0.083 Cl
ATOM     15  C   UNL d   1      -4.781  -1.992   0.713  0.00  0.00     0.025 A 
ATOM     16  C   UNL d   1      -4.932  -3.149  -0.040  0.00  0.00     0.003 A 
ATOM     17  C   UNL d   1      -3.887  -3.575  -0.851  0.00  0.00     0.025 A 
ATOM     18  C   UNL d   1      -2.692  -2.840  -0.926  0.00  0.00     0.048 A 
ATOM     19 CL   UNL d   1      -1.514  -3.441  -2.046  0.00  0.00    -0.083 Cl
ENDBRANCH   6  12
ENDBRANCH   1   5
BRANCH   2  20
ATOM     20  O   UNL d   1       2.035  -4.332   0.458  0.00  0.00    -0.181 OA
BRANCH  20  21
ATOM     21  N   UNL d   1       1.515  -5.273   1.367  0.00  0.00    -0.267 N 
ATOM     22  C   UNL d   1       2.291  -6.313   1.371  0.00  0.00     0.127 C 
ATOM     23  HN  UNL d   1       0.671  -5.156   1.928  1.00  0.00     0.194 HD
BRANCH  22  24
ATOM     24  C   UNL d   1       2.016  -7.503   2.207  0.00  0.00     0.003 A 
ATOM     25  C   UNL d   1       2.947  -8.545   2.340  0.00  0.00     0.047 A 
ATOM     26  C   UNL d   1       2.636  -9.670   3.113  0.00  0.00     0.048 A 
ATOM     27 CL   UNL d   1       4.505  -8.513   1.591  0.00  0.00    -0.083 Cl
ATOM     28  C   UNL d   1       1.399  -9.755   3.748  0.00  0.00     0.035 A 
ATOM     29  C   UNL d   1       0.472  -8.723   3.630  0.00  0.00     0.025 A 
ATOM     30 CL   UNL d   1       1.012 -11.146   4.683  0.00  0.00    -0.084 Cl
ATOM     31  C   UNL d   1       0.780  -7.596   2.863  0.00  0.00     0.016 A 
ENDBRANCH  22  24
ENDBRANCH  20  21
ENDBRANCH   2  20
TORSDOF 5
