REMARK  6 active torsions:
REMARK  status: ('A' for Active; 'I' for Inactive)
REMARK    1  A    between atoms: C_8  and  C_2 
REMARK    2  A    between atoms: S_9  and  C_5 
REMARK    3  A    between atoms: C_19  and  S_9 
REMARK    4  A    between atoms: C_11  and  C_19 
REMARK    5  A    between atoms: O_21  and  C_11 
REMARK    6  A    between atoms: C_24  and  O_21 
ROOT
ATOM      1  N   UNL d   1       0.861  -0.025   0.007  0.00  0.00    -0.315 N 
ATOM      2  C   UNL d   1       0.010   1.066  -0.088  0.00  0.00     0.134 A 
ATOM      3  N   UNL d   1      -1.232   0.606  -0.084  0.00  0.00    -0.283 N 
ATOM      4  HN  UNL d   1      -2.076   1.179  -0.099  1.00  0.00     0.188 HD
ATOM      5  C   UNL d   1       0.055  -1.133  -0.018  0.00  0.00     0.163 A 
ATOM      6  N   UNL d   1      -1.202  -0.771  -0.057  0.00  0.00    -0.278 N 
ATOM      7  HN  UNL d   1      -2.010  -1.393  -0.067  1.00  0.00     0.189 HD
ATOM      8  C   UNL d   1       2.291  -0.035   0.157  0.00  0.00     0.160 C 
ENDROOT
BRANCH   2   9
ATOM      9  C   UNL d   1       0.384   2.488  -0.132  0.00  0.00     0.010 A 
ATOM     10  C   UNL d   1      -0.417   3.446   0.509  0.00  0.00     0.029 A 
ATOM     11  C   UNL d   1      -0.057   4.814   0.526  0.00  0.00    -0.009 A 
ATOM     12  C   UNL d   1      -0.839   5.791   1.155  0.00  0.00     0.015 A 
ATOM     13  C   UNL d   1       1.133   5.237  -0.103  0.00  0.00     0.042 A 
ATOM     14  C   UNL d   1      -0.421   7.118   1.163  0.00  0.00     0.018 A 
ATOM     15  C   UNL d   1       0.774   7.426   0.539  0.00  0.00     0.088 A 
ATOM     16  N   UNL d   1       1.548   6.517  -0.089  0.00  0.00    -0.365 N 
ATOM     17  HN  UNL d   1       2.421   6.791  -0.540  1.00  0.00     0.165 HD
ATOM     18  C   UNL d   1       1.891   4.290  -0.768  0.00  0.00     0.031 A 
ATOM     19  C   UNL d   1       1.517   2.943  -0.812  0.00  0.00     0.017 A 
ENDBRANCH   2   9
BRANCH   5  20
ATOM     20  S   UNL d   1       0.670  -2.753   0.017  0.00  0.00    -0.083 SA
BRANCH  20  21
ATOM     21  C   UNL d   1      -0.673  -3.663  -0.800  0.00  0.00     0.193 C 
BRANCH  21  22
ATOM     22  C   UNL d   1      -0.903  -3.177  -2.213  0.00  0.00     0.268 C 
ATOM     23  O   UNL d   1      -0.065  -2.665  -2.947  0.00  0.00    -0.264 OA
BRANCH  22  24
ATOM     24  O   UNL d   1      -2.205  -3.405  -2.555  0.00  0.00    -0.321 OA
BRANCH  24  25
ATOM     25  C   UNL d   1      -2.692  -2.618  -3.650  0.00  0.00     0.174 C 
ATOM     26  C   UNL d   1      -3.154  -1.282  -3.097  0.00  0.00     0.034 C 
ENDBRANCH  24  25
ENDBRANCH  22  24
ENDBRANCH  21  22
ENDBRANCH  20  21
ENDBRANCH   5  20
TORSDOF 6
