REMARK  3 active torsions:
REMARK  status: ('A' for Active; 'I' for Inactive)
REMARK    1  A    between atoms: O_11  and  C_1 
REMARK    2  A    between atoms: O_12  and  C_3 
REMARK    3  A    between atoms: O_13  and  C_5 
ROOT
ATOM      1  C   UNL d   1       0.574  -1.531  -0.033  0.00  0.00     0.118 A 
ATOM      2  C   UNL d   1      -0.232  -0.383  -0.019  0.00  0.00     0.052 A 
ATOM      3  C   UNL d   1       1.995  -1.351  -0.019  0.00  0.00     0.136 A 
ATOM      4  C   UNL d   1       0.337   0.896  -0.007  0.00  0.00    -0.038 A 
ATOM      5  C   UNL d   1       2.552  -0.043   0.005  0.00  0.00     0.104 A 
ATOM      6  C   UNL d   1      -1.693  -0.150  -0.005  0.00  0.00     0.163 A 
ATOM      7  C   UNL d   1       1.711   1.072   0.006  0.00  0.00     0.048 A 
ATOM      8  C   UNL d   1      -0.652   2.017  -0.025  0.00  0.00     0.047 A 
ATOM      9  C   UNL d   1      -2.002   1.322   0.016  0.00  0.00     0.088 A 
ATOM     10  O   UNL d   1      -2.583  -0.985   0.004  0.00  0.00    -0.292 OA
ENDROOT
BRANCH   1  11
ATOM     11  O   UNL d   1       0.173  -2.831  -0.062  0.00  0.00    -0.352 OA
ATOM     12  C   UNL d   1      -1.181  -3.227  -0.084  0.00  0.00     0.210 C 
ENDBRANCH   1  11
BRANCH   3  13
ATOM     13  O   UNL d   1       2.927  -2.361  -0.029  0.00  0.00    -0.351 OA
ATOM     14  C   UNL d   1       2.570  -3.731  -0.066  0.00  0.00     0.210 C 
ENDBRANCH   3  13
BRANCH   5  15
ATOM     15  O   UNL d   1       3.874   0.332   0.028  0.00  0.00    -0.353 OA
ATOM     16  C   UNL d   1       4.891  -0.660   0.029  0.00  0.00     0.210 C 
ENDBRANCH   5  15
TORSDOF 3
