REMARK  7 active torsions:
REMARK  status: ('A' for Active; 'I' for Inactive)
REMARK       I    between atoms: N_7  and  C_1 
REMARK    1  A    between atoms: C_16  and  C_1 
REMARK    2  A    between atoms: C_2  and  C_17 
REMARK       I    between atoms: N_3  and  C_2 
REMARK    3  A    between atoms: C_12  and  N_3 
REMARK    4  A    between atoms: C_4  and  C_5 
REMARK    5  A    between atoms: N_13  and  N_7 
REMARK    6  A    between atoms: S_11  and  C_16 
REMARK    7  A    between atoms: C_17  and  S_11 
ROOT
ATOM      1  C   UNL d   1       5.148  -1.187  -5.076  0.00  0.00     0.231 C 
ATOM      2  N   UNL d   1       4.442  -0.325  -4.254  0.00  0.00    -0.327 N 
ATOM      3  O   UNL d   1       4.654  -1.916  -5.936  0.00  0.00    -0.272 OA
ATOM      4  H   UNL d   1       4.997   0.252  -3.632  0.00  0.00     0.169 HD
ENDROOT
BRANCH   1   5
ATOM      5  C   UNL d   1       6.664  -1.123  -4.955  0.00  0.00     0.177 C 
BRANCH   5   6
ATOM      6  S   UNL d   1       7.259  -0.869  -3.250  0.00  0.00    -0.150 SA
BRANCH   6   7
ATOM      7  C   UNL d   1       9.005  -1.338  -3.508  0.00  0.00     0.178 C 
BRANCH   7   8
ATOM      8  C   UNL d   1       9.717  -0.320  -4.377  0.00  0.00     0.240 C 
ATOM      9  O   UNL d   1       9.839  -0.446  -5.595  0.00  0.00    -0.271 OA
ATOM     10  N   UNL d   1      10.215   0.772  -3.671  0.00  0.00    -0.293 N 
ATOM     11  H   UNL d   1       9.854   0.957  -2.731  0.00  0.00     0.183 HD
BRANCH  10  12
ATOM     12  N   UNL d   1      10.797   1.844  -4.381  0.00  0.00    -0.247 NA
ATOM     13  H   UNL d   1      10.694   1.636  -5.386  0.00  0.00     0.143 HD
ATOM     14  H   UNL d   1      11.809   1.819  -4.225  0.00  0.00     0.143 HD
ENDBRANCH  10  12
ENDBRANCH   7   8
ENDBRANCH   6   7
ENDBRANCH   5   6
ENDBRANCH   1   5
BRANCH   2  15
ATOM     15  C   UNL d   1       3.036  -0.210  -4.150  0.00  0.00     0.034 A 
ATOM     16  C   UNL d   1       2.142  -1.047  -4.812  0.00  0.00     0.030 A 
ATOM     17  C   UNL d   1       0.760  -0.923  -4.619  0.00  0.00     0.010 A 
ATOM     18  C   UNL d   1       0.216   0.044  -3.758  0.00  0.00    -0.051 A 
ATOM     19  C   UNL d   1       1.123   0.910  -3.129  0.00  0.00     0.010 A 
ATOM     20  C   UNL d   1       2.511   0.780  -3.315  0.00  0.00     0.030 A 
BRANCH  18  21
ATOM     21  C   UNL d   1      -1.304   0.082  -3.515  0.00  0.00    -0.024 C 
ATOM     22  C   UNL d   1      -1.751   1.183  -2.529  0.00  0.00     0.019 C 
ATOM     23  C   UNL d   1      -2.057   0.321  -4.842  0.00  0.00     0.019 C 
ATOM     24  C   UNL d   1      -1.756  -1.271  -2.920  0.00  0.00     0.019 C 
ENDBRANCH  18  21
ENDBRANCH   2  15
TORSDOF 7
