REMARK  1 active torsions:
REMARK  status: ('A' for Active; 'I' for Inactive)
REMARK    1  A    between atoms: C_13  and  C_4 
ROOT
ATOM      1  C   UNL d   1      -0.031   0.700   0.067  0.00  0.00     0.024 C 
ATOM      2  C   UNL d   1      -0.064  -0.649   0.084  0.00  0.00     0.021 C 
ATOM      3  C   UNL d   1      -2.578   0.691   0.058  0.00  0.00     0.057 C 
ATOM      4  C   UNL d   1      -1.300   1.526  -0.058  0.00  0.00     0.103 C 
ATOM      5  N   UNL d   1      -1.283  -1.305   0.052  0.00  0.00    -0.362 N 
ATOM      6  C   UNL d   1      -2.515  -0.663   0.077  0.00  0.00     0.023 C 
ATOM      7  C   UNL d   1       1.270   1.422   0.164  0.00  0.00     0.159 C 
ATOM      8  C   UNL d   1      -3.818   1.397   0.126  0.00  0.00     0.098 C 
ATOM      9  N   UNL d   1      -4.827   1.960   0.198  0.00  0.00    -0.192 NA
ATOM     10  C   UNL d   1       1.191  -1.497   0.089  0.00  0.00     0.067 C 
ATOM     11  C   UNL d   1       2.448  -0.732  -0.389  0.00  0.00    -0.036 C 
ATOM     12  C   UNL d   1       2.520   0.601   0.368  0.00  0.00     0.092 C 
ATOM     13  O   UNL d   1       1.322   2.650   0.158  0.00  0.00    -0.293 OA
ATOM     14  C   UNL d   1      -3.729  -1.560   0.103  0.00  0.00     0.069 C 
ATOM     15  C   UNL d   1       2.400  -0.493  -1.915  0.00  0.00     0.015 C 
ATOM     16  C   UNL d   1       3.714  -1.547  -0.079  0.00  0.00     0.015 C 
ATOM     17  H   UNL d   1      -1.280  -2.321   0.101  0.00  0.00     0.165 HD
ENDROOT
BRANCH   4  18
ATOM     18  C   UNL d   1      -1.303   2.307  -1.371  0.00  0.00    -0.044 A 
ATOM     19  C   UNL d   1      -1.248   3.707  -1.350  0.00  0.00     0.009 A 
ATOM     20  C   UNL d   1      -1.205   4.427  -2.542  0.00  0.00     0.007 A 
ATOM     21  C   UNL d   1      -1.219   3.763  -3.773  0.00  0.00    -0.062 A 
ATOM     22  C   UNL d   1      -1.284   2.367  -3.800  0.00  0.00     0.007 A 
ATOM     23  C   UNL d   1      -1.151   4.554  -5.043  0.00  0.00     0.048 C 
ATOM     24  C   UNL d   1      -1.329   1.644  -2.609  0.00  0.00     0.009 A 
ENDBRANCH   4  18
TORSDOF 1
