REMARK  7 active torsions:
REMARK  status: ('A' for Active; 'I' for Inactive)
REMARK    1  A    between atoms: C_3  and  S_1 
REMARK    2  A    between atoms: N_12  and  S_1 
REMARK    3  A    between atoms: C_10  and  C_2 
REMARK    4  A    between atoms: C_8  and  C_11 
REMARK    5  A    between atoms: C_15  and  C_20 
REMARK    6  A    between atoms: O_28  and  C_15 
REMARK    7  A    between atoms: C_29  and  O_28 
ROOT
ATOM      1  C   UNL d   1       2.454   0.516   0.854  0.00  0.00     0.116 A 
ATOM      2  S   UNL d   1       2.258   0.582   2.553  0.00  0.00    -0.075 SA
ATOM      3  C   UNL d   1       3.827   1.217   2.773  0.00  0.00     0.034 A 
ATOM      4  C   UNL d   1       3.743   0.843   0.477  0.00  0.00     0.034 A 
ATOM      5  C   UNL d   1       4.529   1.270   1.586  0.00  0.00     0.023 A 
ENDROOT
BRANCH   1   6
ATOM      6  S   UNL d   1       1.010   0.085  -0.079  0.00  0.00     0.250 S 
ATOM      7  O   UNL d   1       1.462  -0.036  -1.448  0.00  0.00    -0.205 OA
ATOM      8  O   UNL d   1       0.012   1.067   0.295  0.00  0.00    -0.205 OA
BRANCH   6   9
ATOM      9  N   UNL d   1       0.472  -1.467   0.440  0.00  0.00    -0.206 NA
ATOM     10  C   UNL d   1       1.379  -2.567   0.008  0.00  0.00     0.108 C 
ATOM     11  C   UNL d   1       0.890  -3.912   0.541  0.00  0.00     0.030 C 
ATOM     12  C   UNL d   1      -0.556  -4.189   0.116  0.00  0.00     0.088 C 
ATOM     13  C   UNL d   1      -1.434  -3.045   0.626  0.00  0.00     0.030 C 
ATOM     14  C   UNL d   1      -0.960  -1.692   0.109  0.00  0.00     0.108 C 
BRANCH  12  15
ATOM     15  C   UNL d   1      -0.628  -4.409  -1.391  0.00  0.00     0.263 C 
ATOM     16  O   UNL d   1       0.294  -4.872  -2.051  0.00  0.00    -0.265 OA
BRANCH  15  17
ATOM     17  O   UNL d   1      -1.843  -4.066  -1.898  0.00  0.00    -0.322 OA
BRANCH  17  18
ATOM     18  C   UNL d   1      -1.990  -4.235  -3.318  0.00  0.00     0.174 C 
ATOM     19  C   UNL d   1      -1.394  -3.052  -4.059  0.00  0.00     0.034 C 
ENDBRANCH  17  18
ENDBRANCH  15  17
ENDBRANCH  12  15
ENDBRANCH   6   9
ENDBRANCH   1   6
BRANCH   3  20
ATOM     20  C   UNL d   1       4.368   1.705   4.081  0.00  0.00     0.067 A 
ATOM     21  C   UNL d   1       3.770   1.583   5.353  0.00  0.00     0.068 A 
ATOM     22  C   UNL d   1       4.601   2.269   6.220  0.00  0.00     0.136 A 
ATOM     23  N   UNL d   1       5.598   2.778   5.436  0.00  0.00    -0.292 N 
ATOM     24  N   UNL d   1       5.519   2.382   4.153  0.00  0.00    -0.297 N 
ATOM     25  C   UNL d   1       6.629   3.728   5.795  0.00  0.00     0.178 C 
ATOM     26  HN  UNL d   1       6.188   2.559   3.403  1.00  0.00     0.187 HD
BRANCH  22  27
ATOM     27  C   UNL d   1       4.491   2.493   7.673  0.00  0.00     0.434 C 
ATOM     28  F   UNL d   1       5.495   3.248   8.182  0.00  0.00    -0.165 F 
ATOM     29  F   UNL d   1       3.332   3.122   7.989  0.00  0.00    -0.165 F 
ATOM     30  F   UNL d   1       4.502   1.320   8.357  0.00  0.00    -0.165 F 
ENDBRANCH  22  27
ENDBRANCH   3  20
TORSDOF 7
