REMARK  5 active torsions:
REMARK  status: ('A' for Active; 'I' for Inactive)
REMARK    1  A    between atoms: C_7  and  N_1 
REMARK    2  A    between atoms: C_14  and  C_7 
REMARK    3  A    between atoms: N_10  and  C_15 
REMARK    4  A    between atoms: C_15  and  C_14 
REMARK    5  A    between atoms: O_21  and  C_14 
ROOT
ATOM      1  N   UNL d   1       0.155  -1.724  -0.487  0.00  0.00    -0.342 N 
ATOM      2  C   UNL d   1       0.965  -1.034  -1.383  0.00  0.00     0.064 A 
ATOM      3  C   UNL d   1       0.951   0.300  -0.954  0.00  0.00     0.006 A 
ATOM      4  C   UNL d   1       0.011   0.421   0.116  0.00  0.00     0.005 A 
ATOM      5  C   UNL d   1      -0.534  -0.847   0.334  0.00  0.00     0.046 A 
ATOM      6  C   UNL d   1       1.764  -1.423  -2.482  0.00  0.00     0.040 A 
ATOM      7  C   UNL d   1       2.623  -0.482  -3.060  0.00  0.00     0.040 A 
ATOM      8  C   UNL d   1      -1.523  -1.065   1.309  0.00  0.00     0.032 A 
ATOM      9  C   UNL d   1       1.802   1.240  -1.575  0.00  0.00     0.033 A 
ATOM     10  C   UNL d   1      -0.402   1.490   0.931  0.00  0.00     0.033 A 
ATOM     11  C   UNL d   1       2.653   0.824  -2.598  0.00  0.00     0.013 A 
ATOM     12 BR   UNL d   1       1.718  -3.143  -3.278  0.00  0.00    -0.049 Br
ATOM     13  C   UNL d   1      -1.343   1.265   1.937  0.00  0.00     0.011 A 
ATOM     14  C   UNL d   1      -1.915   0.007   2.112  0.00  0.00     0.021 A 
ATOM     15 BR   UNL d   1       3.868   2.060  -3.354  0.00  0.00    -0.051 Br
ATOM     16 BR   UNL d   1      -1.821   2.676   3.102  0.00  0.00    -0.051 Br
ENDROOT
BRANCH   1  17
ATOM     17  C   UNL d   1       0.218  -3.151  -0.211  0.00  0.00     0.163 C 
BRANCH  17  18
ATOM     18  C   UNL d   1       1.558  -3.623   0.398  0.00  0.00     0.164 C 
BRANCH  18  19
ATOM     19  C   UNL d   1       1.975  -2.816   1.666  0.00  0.00     0.305 C 
BRANCH  19  20
ATOM     20  N   UNL d   1       3.208  -3.282   2.363  0.00  0.00     0.090 N 
ATOM     21  C   UNL d   1       4.413  -3.166   1.529  0.00  0.00     0.272 C 
ATOM     22  C   UNL d   1       5.432  -4.262   1.867  0.00  0.00     0.030 C 
ATOM     23  C   UNL d   1       6.265  -4.039   3.125  0.00  0.00     0.002 C 
ATOM     24  C   UNL d   1       5.456  -3.795   4.391  0.00  0.00     0.002 C 
ATOM     25  C   UNL d   1       4.695  -2.479   4.341  0.00  0.00     0.030 C 
ATOM     26  C   UNL d   1       3.329  -2.549   3.643  0.00  0.00     0.272 C 
ENDBRANCH  19  20
ENDBRANCH  18  19
BRANCH  18  27
ATOM     27  O   UNL d   1       1.413  -5.016   0.693  0.00  0.00    -0.392 OA
ATOM     28  H   UNL d   1       1.489  -5.115   1.664  0.00  0.00     0.210 HD
ENDBRANCH  18  27
ENDBRANCH  17  18
ENDBRANCH   1  17
TORSDOF 5
