REMARK  5 active torsions:
REMARK  status: ('A' for Active; 'I' for Inactive)
REMARK    1  A    between atoms: C_4  and  C_1 
REMARK    2  A    between atoms: N_2  and  C_4 
REMARK    3  A    between atoms: C_3  and  C_7 
REMARK    4  A    between atoms: O_15  and  C_3 
REMARK    5  A    between atoms: C_19  and  O_15 
ROOT
ATOM      1  N   UNL d   1      -1.373   2.967   0.047  0.00  0.00     0.092 N 
ATOM      2  C   UNL d   1      -4.290   3.327   0.208  0.00  0.00     0.089 C 
ATOM      3  C   UNL d   1      -3.499   3.690  -1.050  0.00  0.00     0.045 C 
ATOM      4  C   UNL d   1      -3.379   3.544   1.418  0.00  0.00     0.045 C 
ATOM      5  C   UNL d   1      -2.205   2.879  -1.153  0.00  0.00     0.273 C 
ATOM      6  C   UNL d   1      -2.085   2.728   1.304  0.00  0.00     0.273 C 
ENDROOT
BRANCH   1   7
ATOM      7  C   UNL d   1      -0.117   2.185  -0.051  0.00  0.00     0.315 C 
BRANCH   7   8
ATOM      8  C   UNL d   1      -0.230   0.706  -0.368  0.00  0.00     0.030 A 
ATOM      9  C   UNL d   1      -0.419  -0.212   0.675  0.00  0.00     0.126 A 
ATOM     10  F   UNL d   1      -0.453   0.217   1.946  0.00  0.00    -0.205 F 
ATOM     11  C   UNL d   1      -0.559  -1.581   0.447  0.00  0.00     0.043 A 
ATOM     12  C   UNL d   1      -0.498  -2.077  -0.850  0.00  0.00     0.005 A 
ATOM     13  C   UNL d   1      -0.283  -1.195  -1.907  0.00  0.00     0.024 A 
ATOM     14  C   UNL d   1      -0.142   0.181  -1.669  0.00  0.00     0.045 A 
ATOM     15 CL   UNL d   1       0.164   1.173  -3.053  0.00  0.00    -0.084 Cl
ENDBRANCH   7   8
ENDBRANCH   1   7
BRANCH   2  16
ATOM     16  C   UNL d   1      -4.817   1.894   0.166  0.00  0.00     0.263 C 
ATOM     17  O   UNL d   1      -4.709   1.083   1.072  0.00  0.00    -0.265 OA
BRANCH  16  18
ATOM     18  O   UNL d   1      -5.437   1.649  -1.021  0.00  0.00    -0.322 OA
BRANCH  18  19
ATOM     19  C   UNL d   1      -5.761   0.276  -1.288  0.00  0.00     0.174 C 
ATOM     20  C   UNL d   1      -4.641  -0.321  -2.121  0.00  0.00     0.034 C 
ENDBRANCH  18  19
ENDBRANCH  16  18
ENDBRANCH   2  16
TORSDOF 5
