REMARK  4 active torsions:
REMARK  status: ('A' for Active; 'I' for Inactive)
REMARK    1  A    between atoms: N_2  and  C_1 
REMARK    2  A    between atoms: N_4  and  C_1 
REMARK    3  A    between atoms: C_3  and  N_2 
REMARK    4  A    between atoms: N_10  and  N_4 
ROOT
ATOM      1  N   UNL d   1       0.483   1.148   0.388  0.00  0.00    -0.331 N 
ATOM      2  H   UNL d   1      -0.490   1.067   0.652  0.00  0.00     0.168 HD
ENDROOT
BRANCH   1   3
ATOM      3  C   UNL d   1       1.081  -0.095   0.222  0.00  0.00     0.188 C 
ATOM      4  S   UNL d   1       2.455  -0.600   1.071  0.00  0.00    -0.039 SA
BRANCH   3   5
ATOM      5  N   UNL d   1       0.370  -0.950  -0.649  0.00  0.00    -0.295 N 
ATOM      6  C   UNL d   1      -0.885  -0.642  -1.339  0.00  0.00     0.174 C 
BRANCH   5   7
ATOM      7  N   UNL d   1       0.910  -2.229  -0.980  0.00  0.00    -0.246 NA
ATOM      8  H   UNL d   1       1.607  -2.456  -0.258  0.00  0.00     0.143 HD
ATOM      9  H   UNL d   1       1.470  -2.107  -1.828  0.00  0.00     0.143 HD
ENDBRANCH   5   7
ENDBRANCH   3   5
ENDBRANCH   1   3
BRANCH   1  10
ATOM     10  C   UNL d   1       1.116   2.363   0.763  0.00  0.00     0.057 A 
ATOM     11  C   UNL d   1       0.407   3.188   1.649  0.00  0.00     0.055 A 
ATOM     12  C   UNL d   1       0.960   4.396   2.087  0.00  0.00     0.036 A 
ATOM     13 CL   UNL d   1       0.073   5.391   3.175  0.00  0.00    -0.084 Cl
ATOM     14  C   UNL d   1       2.214   4.803   1.646  0.00  0.00     0.026 A 
ATOM     15  C   UNL d   1       2.904   4.020   0.721  0.00  0.00     0.028 A 
ATOM     16  C   UNL d   1       2.349   2.820   0.254  0.00  0.00     0.060 A 
ATOM     17 CL   UNL d   1       3.157   2.076  -1.085  0.00  0.00    -0.082 Cl
ENDBRANCH   1  10
TORSDOF 4
