REMARK  6 active torsions:
REMARK  status: ('A' for Active; 'I' for Inactive)
REMARK    1  A    between atoms: N_2  and  C_1 
REMARK    2  A    between atoms: N_6  and  C_1 
REMARK    3  A    between atoms: C_7  and  N_2 
REMARK    4  A    between atoms: C_8  and  N_6 
REMARK    5  A    between atoms: C_12  and  C_8 
REMARK    6  A    between atoms: C_9  and  C_12 
ROOT
ATOM      1  C   UNL d   1       1.020  -0.157   0.154  0.00  0.00     0.172 C 
ATOM      2  S   UNL d   1       0.326   0.609   1.468  0.00  0.00    -0.041 SA
ENDROOT
BRANCH   1   3
ATOM      3  N   UNL d   1       0.416  -0.947  -0.791  0.00  0.00    -0.332 N 
ATOM      4  H   UNL d   1       0.852  -0.911  -1.703  0.00  0.00     0.168 HD
BRANCH   3   5
ATOM      5  C   UNL d   1      -0.824  -1.627  -0.750  0.00  0.00     0.049 A 
ATOM      6  C   UNL d   1      -1.432  -2.000  -1.949  0.00  0.00     0.117 A 
ATOM      7  N   UNL d   1      -2.603  -2.678  -2.047  0.00  0.00    -0.373 N 
ATOM      8  C   UNL d   1      -3.199  -3.016  -0.885  0.00  0.00     0.088 A 
ATOM      9  HN  UNL d   1      -3.011  -2.919  -2.950  1.00  0.00     0.164 HD
ATOM     10  C   UNL d   1      -2.668  -2.721   0.359  0.00  0.00     0.019 A 
ATOM     11  C   UNL d   1      -1.462  -2.025   0.423  0.00  0.00     0.032 A 
ENDBRANCH   3   5
ENDBRANCH   1   3
BRANCH   1  12
ATOM     12  N   UNL d   1       2.357   0.061  -0.025  0.00  0.00    -0.367 N 
ATOM     13  H   UNL d   1       2.748   0.709   0.652  0.00  0.00     0.161 HD
BRANCH  12  14
ATOM     14  C   UNL d   1       3.214  -0.374  -1.117  0.00  0.00     0.126 C 
BRANCH  14  15
ATOM     15  C   UNL d   1       4.697  -0.176  -0.802  0.00  0.00     0.058 C 
BRANCH  15  16
ATOM     16  C   UNL d   1       5.537  -0.405  -2.032  0.00  0.00    -0.057 A 
ATOM     17  C   UNL d   1       5.873   0.670  -2.867  0.00  0.00     0.007 A 
ATOM     18  C   UNL d   1       6.586   0.454  -4.045  0.00  0.00     0.001 A 
ATOM     19  C   UNL d   1       6.971  -0.837  -4.400  0.00  0.00     0.000 A 
ATOM     20  C   UNL d   1       6.650  -1.912  -3.573  0.00  0.00     0.001 A 
ATOM     21  C   UNL d   1       5.936  -1.699  -2.393  0.00  0.00     0.007 A 
ENDBRANCH  15  16
ENDBRANCH  14  15
ENDBRANCH  12  14
ENDBRANCH   1  12
TORSDOF 6
