REMARK  5 active torsions:
REMARK  status: ('A' for Active; 'I' for Inactive)
REMARK    1  A    between atoms: C_3  and  C_1 
REMARK    2  A    between atoms: C_13  and  N_6 
REMARK    3  A    between atoms: C_17  and  C_7 
REMARK    4  A    between atoms: C_8  and  C_12 
REMARK    5  A    between atoms: C_12  and  C_13 
ROOT
ATOM      1  C   UNL d   1       3.688   0.452  -0.339  0.00  0.00     0.085 C 
ENDROOT
BRANCH   1   2
ATOM      2  C   UNL d   1       4.895   1.260  -0.712  0.00  0.00     0.052 A 
ATOM      3  N   UNL d   1       5.070   2.524  -0.387  0.00  0.00    -0.353 N 
ATOM      4  C   UNL d   1       6.243   3.008  -0.945  0.00  0.00     0.049 A 
ATOM      5  HN  UNL d   1       4.432   3.070   0.193  1.00  0.00     0.166 HD
ATOM      6  C   UNL d   1       6.988   2.065  -1.625  0.00  0.00     0.081 A 
ATOM      7  S   UNL d   1       6.177   0.552  -1.612  0.00  0.00    -0.086 SA
BRANCH   4   8
ATOM      8  C   UNL d   1       6.617   4.410  -0.801  0.00  0.00    -0.009 A 
ATOM      9  C   UNL d   1       6.232   5.113   0.349  0.00  0.00     0.014 A 
ATOM     10  C   UNL d   1       6.537   6.469   0.492  0.00  0.00     0.001 A 
ATOM     11  C   UNL d   1       7.223   7.139  -0.519  0.00  0.00     0.000 A 
ATOM     12  C   UNL d   1       7.612   6.452  -1.668  0.00  0.00     0.001 A 
ATOM     13  C   UNL d   1       7.312   5.094  -1.809  0.00  0.00     0.014 A 
ENDBRANCH   4   8
ENDBRANCH   1   2
BRANCH   1  14
ATOM     14  C   UNL d   1       2.450   1.344  -0.244  0.00  0.00     0.138 C 
BRANCH  14  15
ATOM     15  N   UNL d   1       1.232   0.611   0.124  0.00  0.00    -0.324 N 
ATOM     16  C   UNL d   1       0.411   0.114  -0.896  0.00  0.00     0.262 C 
ATOM     17  C   UNL d   1      -0.890  -0.463  -0.462  0.00  0.00     0.115 C 
ATOM     18  O   UNL d   1       0.732   0.154  -2.079  0.00  0.00    -0.267 OA
ATOM     19  C   UNL d   1      -1.139  -0.597   0.855  0.00  0.00     0.023 C 
ATOM     20  C   UNL d   1      -0.185  -0.178   1.847  0.00  0.00     0.018 C 
ATOM     21  C   UNL d   1       0.943   0.428   1.464  0.00  0.00     0.094 C 
BRANCH  17  22
ATOM     22  C   UNL d   1      -1.884  -0.826  -1.502  0.00  0.00     0.422 C 
ATOM     23  F   UNL d   1      -1.553  -0.555  -2.786  0.00  0.00    -0.166 F 
ATOM     24  F   UNL d   1      -2.178  -2.155  -1.452  0.00  0.00    -0.166 F 
ATOM     25  F   UNL d   1      -3.067  -0.183  -1.278  0.00  0.00    -0.166 F 
ENDBRANCH  17  22
ENDBRANCH  14  15
ENDBRANCH   1  14
TORSDOF 5
