REMARK  7 active torsions:
REMARK  status: ('A' for Active; 'I' for Inactive)
REMARK    1  A    between atoms: C_2  and  C_1 
REMARK       I    between atoms: N_10  and  C_2 
REMARK    2  A    between atoms: C_3  and  C_12 
REMARK    3  A    between atoms: C_17  and  C_4 
REMARK    4  A    between atoms: N_5  and  N_10 
REMARK    5  A    between atoms: C_15  and  C_13 
REMARK    6  A    between atoms: C_20  and  C_17 
REMARK    7  A    between atoms: C_21  and  C_20 
ROOT
ATOM      1  C   UNL d   1       2.167   1.129   0.029  0.00  0.00     0.050 A 
ATOM      2  N   UNL d   1       1.921  -1.288   0.023  0.00  0.00    -0.373 N 
ATOM      3  HN  UNL d   1       2.342  -2.218   0.031  1.00  0.00     0.164 HD
ATOM      4  C   UNL d   1       0.765   1.261  -0.004  0.00  0.00     0.040 A 
ATOM      5  C   UNL d   1      -0.045   0.124  -0.017  0.00  0.00     0.034 A 
ATOM      6  C   UNL d   1       2.680  -0.159   0.040  0.00  0.00     0.104 A 
ATOM      7  C   UNL d   1       0.578  -1.115  -0.005  0.00  0.00     0.108 A 
ENDROOT
BRANCH   1   8
ATOM      8  C   UNL d   1       3.010   2.359   0.054  0.00  0.00     0.271 C 
ATOM      9  N   UNL d   1       4.400   2.223   0.081  0.00  0.00    -0.266 N 
ATOM     10  H   UNL d   1       4.879   1.334   0.083  0.00  0.00     0.190 HD
ATOM     11  O   UNL d   1       2.434   3.447   0.048  0.00  0.00    -0.266 OA
BRANCH   9  12
ATOM     12  N   UNL d   1       5.150   3.364   0.089  0.00  0.00    -0.308 N 
ATOM     13  C   UNL d   1       6.440   3.255   0.109  0.00  0.00     0.118 C 
ATOM     14  HN  UNL d   1       4.704   4.282   0.079  1.00  0.00     0.186 HD
BRANCH  13  15
ATOM     15  C   UNL d   1       7.293   4.469   0.110  0.00  0.00    -0.019 A 
ATOM     16  C   UNL d   1       6.698   5.736   0.101  0.00  0.00     0.013 A 
ATOM     17  C   UNL d   1       7.490   6.885   0.103  0.00  0.00     0.001 A 
ATOM     18  C   UNL d   1       8.879   6.771   0.117  0.00  0.00     0.000 A 
ATOM     19  C   UNL d   1       9.476   5.509   0.122  0.00  0.00     0.001 A 
ATOM     20  C   UNL d   1       8.686   4.353   0.118  0.00  0.00     0.013 A 
ENDBRANCH  13  15
ENDBRANCH   9  12
ENDBRANCH   1   8
BRANCH   5  21
ATOM     21  C   UNL d   1      -1.475   0.196  -0.026  0.00  0.00    -0.066 C 
ATOM     22  C   UNL d   1      -2.675   0.146  -0.017  0.00  0.00    -0.101 C 
BRANCH  22  23
ATOM     23  C   UNL d   1      -4.138   0.010   0.015  0.00  0.00     0.094 C 
BRANCH  23  24
ATOM     24  C   UNL d   1      -4.589  -1.239  -0.745  0.00  0.00     0.012 C 
BRANCH  24  25
ATOM     25  C   UNL d   1      -6.110  -1.391  -0.707  0.00  0.00    -0.004 C 
ATOM     26  C   UNL d   1      -6.572  -2.627  -1.463  0.00  0.00     0.005 C 
ENDBRANCH  24  25
ENDBRANCH  23  24
ENDBRANCH  22  23
ENDBRANCH   5  21
TORSDOF 7
