REMARK  8 active torsions:
REMARK  status: ('A' for Active; 'I' for Inactive)
REMARK    1  A    between atoms: C_2  and  C_1 
REMARK    2  A    between atoms: C_4  and  C_1 
REMARK    3  A    between atoms: C_3  and  C_2 
REMARK    4  A    between atoms: S_5  and  C_3 
REMARK    5  A    between atoms: C_7  and  C_3 
REMARK    6  A    between atoms: C_11  and  S_5 
REMARK    7  A    between atoms: C_6  and  C_11 
REMARK    8  A    between atoms: O_15  and  C_6 
ROOT
ATOM      1  C   UNL d   1       2.119  -2.506  -0.369  0.00  0.00     0.088 C 
ENDROOT
BRANCH   1   2
ATOM      2  C   UNL d   1       2.923  -1.250   0.025  0.00  0.00     0.104 C 
BRANCH   2   3
ATOM      3  C   UNL d   1       3.432  -0.324  -1.073  0.00  0.00     0.161 C 
ATOM      4  O   UNL d   1       3.128  -0.449  -2.256  0.00  0.00    -0.292 OA
BRANCH   3   5
ATOM      5  C   UNL d   1       4.385   0.771  -0.704  0.00  0.00     0.010 A 
ATOM      6  C   UNL d   1       4.806   0.998   0.614  0.00  0.00     0.022 A 
ATOM      7  C   UNL d   1       5.788   1.963   0.893  0.00  0.00    -0.061 A 
ATOM      8  C   UNL d   1       6.297   2.154   2.292  0.00  0.00     0.048 C 
ATOM      9  C   UNL d   1       6.348   2.697  -0.159  0.00  0.00     0.007 A 
ATOM     10  C   UNL d   1       5.901   2.510  -1.465  0.00  0.00     0.002 A 
ATOM     11  C   UNL d   1       4.920   1.556  -1.736  0.00  0.00     0.015 A 
ENDBRANCH   3   5
ENDBRANCH   2   3
ENDBRANCH   1   2
BRANCH   1  12
ATOM     12  S   UNL d   1       2.908  -3.672  -1.568  0.00  0.00    -0.149 SA
BRANCH  12  13
ATOM     13  C   UNL d   1       4.445  -4.097  -0.678  0.00  0.00     0.184 C 
BRANCH  13  14
ATOM     14  C   UNL d   1       4.175  -4.806   0.632  0.00  0.00     0.149 C 
ATOM     15  O   UNL d   1       4.857  -4.659   1.634  0.00  0.00    -0.649 OA
BRANCH  14  16
ATOM     16  O   UNL d   1       3.122  -5.655   0.594  0.00  0.00    -0.776 OA
ATOM     17  H   UNL d   1       2.671  -5.631  -0.278  0.00  0.00     0.167 HD
ENDBRANCH  14  16
ENDBRANCH  13  14
ENDBRANCH  12  13
ENDBRANCH   1  12
BRANCH   1  18
ATOM     18  C   UNL d   1       0.662  -2.240  -0.738  0.00  0.00    -0.044 A 
ATOM     19  C   UNL d   1       0.290  -1.534  -1.893  0.00  0.00     0.010 A 
ATOM     20  C   UNL d   1      -1.051  -1.243  -2.163  0.00  0.00     0.024 A 
ATOM     21  C   UNL d   1      -2.043  -1.685  -1.297  0.00  0.00     0.034 A 
ATOM     22  C   UNL d   1      -1.707  -2.433  -0.173  0.00  0.00     0.024 A 
ATOM     23 CL   UNL d   1      -3.690  -1.303  -1.614  0.00  0.00    -0.084 Cl
ATOM     24  C   UNL d   1      -0.364  -2.708   0.105  0.00  0.00     0.010 A 
ENDBRANCH   1  18
TORSDOF 8
