REMARK  7 active torsions:
REMARK  status: ('A' for Active; 'I' for Inactive)
REMARK    1  A    between atoms: C_11  and  S_1 
REMARK    2  A    between atoms: N_18  and  S_1 
REMARK    3  A    between atoms: S_2  and  C_10 
REMARK    4  A    between atoms: N_17  and  S_2 
REMARK    5  A    between atoms: C_16  and  C_5 
REMARK    6  A    between atoms: N_13  and  C_6 
REMARK    7  A    between atoms: N_12  and  C_7 
ROOT
ATOM      1  C   UNL d   1      -2.753   1.707  -4.216  0.00  0.00     0.136 C 
ATOM      2  C   UNL d   1      -2.707   0.331  -3.867  0.00  0.00     0.111 C 
ATOM      3  C   UNL d   1      -3.684   1.994  -5.256  0.00  0.00     0.111 C 
ATOM      4  N   UNL d   1      -2.669  -0.801  -3.595  0.00  0.00    -0.191 NA
ATOM      5  N   UNL d   1      -4.438   2.220  -6.109  0.00  0.00    -0.191 NA
ENDROOT
BRANCH   1   6
ATOM      6  C   UNL d   1      -1.942   2.644  -3.650  0.00  0.00     0.018 C 
ATOM      7  C   UNL d   1      -0.891   2.408  -2.595  0.00  0.00    -0.008 C 
ATOM      8  C   UNL d   1      -0.105   3.595  -2.532  0.00  0.00     0.022 C 
ATOM      9  C   UNL d   1      -0.597   1.300  -1.785  0.00  0.00     0.038 C 
ATOM     10  C   UNL d   1      -0.731   4.642  -3.375  0.00  0.00     0.022 A 
ATOM     11  C   UNL d   1       1.058   3.554  -1.750  0.00  0.00     0.116 C 
ATOM     12  C   UNL d   1      -0.512   6.020  -3.522  0.00  0.00     0.116 A 
ATOM     13  C   UNL d   1      -1.848   4.089  -4.063  0.00  0.00    -0.008 A 
ATOM     14  C   UNL d   1      -1.278   6.810  -4.393  0.00  0.00     0.062 A 
ATOM     15  C   UNL d   1      -2.349   6.232  -5.068  0.00  0.00     0.083 A 
ATOM     16  C   UNL d   1      -2.669   4.882  -4.872  0.00  0.00     0.038 A 
ATOM     17  C   UNL d   1       1.355   2.462  -0.923  0.00  0.00     0.061 C 
ATOM     18  C   UNL d   1       0.509   1.352  -0.920  0.00  0.00     0.078 C 
BRANCH  12  19
ATOM     19  N   UNL d   1       0.328   6.770  -2.617  0.00  0.00    -0.115 N 
ATOM     20  O   UNL d   1       0.002   6.744  -1.425  0.00  0.00    -0.532 OA
ATOM     21  O   UNL d   1       1.266   7.402  -3.112  0.00  0.00    -0.532 OA
ENDBRANCH  12  19
BRANCH  15  22
ATOM     22  S   UNL d   1      -3.443   7.288  -6.019  0.00  0.00     0.260 S 
ATOM     23  O   UNL d   1      -4.742   6.654  -6.013  0.00  0.00    -0.200 OA
ATOM     24  O   UNL d   1      -3.262   8.630  -5.511  0.00  0.00    -0.200 OA
BRANCH  22  25
ATOM     25  N   UNL d   1      -2.791   7.207  -7.592  0.00  0.00    -0.307 N 
ATOM     26  C   UNL d   1      -1.469   7.855  -7.784  0.00  0.00     0.135 C 
ATOM     27  C   UNL d   1      -1.156   8.006  -9.269  0.00  0.00     0.021 C 
ATOM     28  C   UNL d   1      -1.247   6.666  -9.989  0.00  0.00     0.003 C 
ATOM     29  C   UNL d   1      -2.623   6.048  -9.772  0.00  0.00     0.021 C 
ATOM     30  C   UNL d   1      -2.933   5.902  -8.285  0.00  0.00     0.135 C 
ENDBRANCH  22  25
ENDBRANCH  15  22
BRANCH  11  31
ATOM     31  N   UNL d   1       2.140   4.501  -1.918  0.00  0.00    -0.115 N 
ATOM     32  O   UNL d   1       2.581   4.629  -3.067  0.00  0.00    -0.532 OA
ATOM     33  O   UNL d   1       2.557   5.071  -0.905  0.00  0.00    -0.532 OA
ENDBRANCH  11  31
BRANCH  18  34
ATOM     34  S   UNL d   1       1.040  -0.097  -0.016  0.00  0.00     0.243 S 
ATOM     35  O   UNL d   1       2.480  -0.008   0.080  0.00  0.00    -0.206 OA
ATOM     36  O   UNL d   1       0.405  -1.248  -0.618  0.00  0.00    -0.206 OA
BRANCH  34  37
ATOM     37  N   UNL d   1       0.384   0.110   1.567  0.00  0.00    -0.206 NA
ATOM     38  C   UNL d   1      -1.099  -0.057   1.634  0.00  0.00     0.107 C 
ATOM     39  C   UNL d   1      -1.609   0.217   3.048  0.00  0.00     0.015 C 
ATOM     40  C   UNL d   1      -0.936  -0.698   4.063  0.00  0.00     0.002 C 
ATOM     41  C   UNL d   1       0.577  -0.555   3.970  0.00  0.00     0.015 C 
ATOM     42  C   UNL d   1       1.073  -0.796   2.548  0.00  0.00     0.107 C 
ENDBRANCH  34  37
ENDBRANCH  18  34
ENDBRANCH   1   6
TORSDOF 7
