REMARK  4 active torsions:
REMARK  status: ('A' for Active; 'I' for Inactive)
REMARK    1  A    between atoms: N_2  and  C_1 
REMARK    2  A    between atoms: N_3  and  C_1 
REMARK    3  A    between atoms: C_5  and  N_3 
REMARK    4  A    between atoms: O_11  and  C_8 
ROOT
ATOM      1  N   UNL d   1       0.182  -1.065   0.175  0.00  0.00    -0.333 N 
ATOM      2  H   UNL d   1       0.741  -1.878   0.398  0.00  0.00     0.168 HD
ENDROOT
BRANCH   1   3
ATOM      3  C   UNL d   1       0.915   0.059  -0.172  0.00  0.00     0.174 C 
ATOM      4  S   UNL d   1       0.640   0.907  -1.605  0.00  0.00    -0.041 SA
BRANCH   3   5
ATOM      5  N   UNL d   1       1.933   0.378   0.743  0.00  0.00    -0.354 N 
ATOM      6  C   UNL d   1       2.226  -0.395   1.967  0.00  0.00     0.151 C 
ATOM      7  C   UNL d   1       2.462   0.524   3.172  0.00  0.00     0.187 C 
ATOM      8  O   UNL d   1       3.482   1.492   2.898  0.00  0.00    -0.388 OA
ATOM      9  C   UNL d   1       3.097   2.314   1.787  0.00  0.00     0.187 C 
ATOM     10  C   UNL d   1       2.902   1.473   0.521  0.00  0.00     0.151 C 
ENDBRANCH   3   5
ENDBRANCH   1   3
BRANCH   1  11
ATOM     11  C   UNL d   1      -1.196  -1.305  -0.042  0.00  0.00     0.036 A 
ATOM     12  C   UNL d   1      -2.133  -0.265  -0.095  0.00  0.00     0.066 A 
ATOM     13  C   UNL d   1      -3.495  -0.537  -0.243  0.00  0.00     0.070 A 
ATOM     14  C   UNL d   1      -3.920  -1.863  -0.344  0.00  0.00     0.037 A 
ATOM     15  C   UNL d   1      -2.996  -2.908  -0.278  0.00  0.00     0.005 A 
ATOM     16  C   UNL d   1      -1.638  -2.629  -0.112  0.00  0.00     0.029 A 
BRANCH  13  17
ATOM     17  O   UNL d   1      -4.497   0.394  -0.285  0.00  0.00    -0.356 OA
ATOM     18  C   UNL d   1      -4.108   1.758  -0.168  0.00  0.00     0.210 C 
ENDBRANCH  13  17
ENDBRANCH   1  11
TORSDOF 4
