REMARK  8 active torsions:
REMARK  status: ('A' for Active; 'I' for Inactive)
REMARK    1  A    between atoms: N_7  and  C_1 
REMARK    2  A    between atoms: N_11  and  C_1 
REMARK    3  A    between atoms: O_16  and  C_2 
REMARK    4  A    between atoms: C_3  and  C_4 
REMARK       I    between atoms: C_4  and  N_10 
REMARK    5  A    between atoms: O_18  and  C_5 
REMARK    6  A    between atoms: O_17  and  C_6 
REMARK    7  A    between atoms: C_12  and  N_7 
REMARK    8  A    between atoms: N_10  and  N_11 
ROOT
ATOM      1  C   UNL d   1      -1.974   2.001  -1.468  0.00  0.00     0.270 C 
ATOM      2  N   UNL d   1      -2.871   2.401  -0.496  0.00  0.00    -0.264 N 
ATOM      3  O   UNL d   1      -1.666   0.824  -1.638  0.00  0.00    -0.266 OA
ATOM      4  H   UNL d   1      -3.029   3.362  -0.212  0.00  0.00     0.190 HD
ENDROOT
BRANCH   2   5
ATOM      5  N   UNL d   1      -3.421   1.416   0.319  0.00  0.00    -0.273 N 
ATOM      6  H   UNL d   1      -3.365   0.474  -0.069  0.00  0.00     0.189 HD
BRANCH   5   7
ATOM      7  C   UNL d   1      -4.368   1.695   1.272  0.00  0.00     0.191 C 
ATOM      8  S   UNL d   1      -4.960   3.228   1.601  0.00  0.00    -0.039 SA
BRANCH   7   9
ATOM      9  N   UNL d   1      -4.876   0.621   1.951  0.00  0.00    -0.331 N 
ATOM     10  H   UNL d   1      -5.785   0.779   2.385  0.00  0.00     0.168 HD
BRANCH   9  11
ATOM     11  C   UNL d   1      -4.332  -0.674   2.108  0.00  0.00     0.056 A 
ATOM     12  C   UNL d   1      -5.178  -1.750   2.427  0.00  0.00     0.060 A 
ATOM     13 CL   UNL d   1      -6.884  -1.518   2.611  0.00  0.00    -0.082 Cl
ATOM     14  C   UNL d   1      -4.666  -3.041   2.563  0.00  0.00     0.026 A 
ATOM     15  C   UNL d   1      -3.298  -3.269   2.411  0.00  0.00     0.002 A 
ATOM     16  C   UNL d   1      -2.441  -2.204   2.142  0.00  0.00     0.002 A 
ATOM     17  C   UNL d   1      -2.956  -0.918   2.000  0.00  0.00     0.031 A 
ENDBRANCH   9  11
ENDBRANCH   7   9
ENDBRANCH   5   7
ENDBRANCH   2   5
BRANCH   1  18
ATOM     18  C   UNL d   1      -1.384   3.075  -2.310  0.00  0.00     0.039 A 
ATOM     19  C   UNL d   1      -1.964   4.336  -2.405  0.00  0.00     0.057 A 
ATOM     20  C   UNL d   1      -1.380   5.344  -3.186  0.00  0.00     0.105 A 
ATOM     21  C   UNL d   1      -0.217   5.073  -3.944  0.00  0.00     0.135 A 
ATOM     22  C   UNL d   1       0.332   3.770  -3.892  0.00  0.00     0.105 A 
ATOM     23  C   UNL d   1      -0.248   2.796  -3.067  0.00  0.00     0.057 A 
BRANCH  20  24
ATOM     24  O   UNL d   1      -1.995   6.569  -3.289  0.00  0.00    -0.353 OA
ATOM     25  C   UNL d   1      -2.609   7.063  -2.098  0.00  0.00     0.210 C 
ENDBRANCH  20  24
BRANCH  21  26
ATOM     26  O   UNL d   1       0.441   5.972  -4.740  0.00  0.00    -0.351 OA
ATOM     27  C   UNL d   1       0.059   7.337  -4.759  0.00  0.00     0.210 C 
ENDBRANCH  21  26
BRANCH  22  28
ATOM     28  O   UNL d   1       1.413   3.260  -4.567  0.00  0.00    -0.353 OA
ATOM     29  C   UNL d   1       2.138   4.077  -5.471  0.00  0.00     0.210 C 
ENDBRANCH  22  28
ENDBRANCH   1  18
TORSDOF 8
