REMARK  3 active torsions:
REMARK  status: ('A' for Active; 'I' for Inactive)
REMARK       I    between atoms: C_2  and  N_1 
REMARK    1  A    between atoms: C_3  and  C_2 
REMARK    2  A    between atoms: C_4  and  C_7 
REMARK    3  A    between atoms: C_5  and  C_8 
ROOT
ATOM      1  C   UNL d   1      -2.505   3.508   0.344  0.00  0.00     0.034 A 
ATOM      2  C   UNL d   1      -4.072   5.010   1.469  0.00  0.00     0.049 A 
ATOM      3  C   UNL d   1      -4.680   3.967  -0.658  0.00  0.00     0.049 A 
ATOM      4  C   UNL d   1      -2.835   4.355   1.415  0.00  0.00     0.033 A 
ATOM      5  C   UNL d   1      -3.400   3.389  -0.730  0.00  0.00     0.033 A 
ATOM      6  C   UNL d   1      -5.000   4.785   0.441  0.00  0.00     0.032 A 
ENDROOT
BRANCH   1   7
ATOM      7  C   UNL d   1      -1.220   2.732   0.460  0.00  0.00     0.258 C 
ATOM      8  N   UNL d   1      -1.167   1.378   0.053  0.00  0.00    -0.313 N 
ATOM      9  C   UNL d   1       0.068   0.582   0.008  0.00  0.00     0.049 A 
ATOM     10  C   UNL d   1      -2.425   0.627  -0.112  0.00  0.00     0.133 C 
ATOM     11  C   UNL d   1      -0.047  -0.842   0.050  0.00  0.00    -0.031 A 
ATOM     12  C   UNL d   1       1.389   1.099  -0.087  0.00  0.00    -0.035 A 
ATOM     13  C   UNL d   1       1.085  -1.683   0.085  0.00  0.00     0.009 A 
ATOM     14  C   UNL d   1      -1.370  -1.561   0.028  0.00  0.00     0.042 C 
ATOM     15  C   UNL d   1       2.357  -1.151   0.098  0.00  0.00     0.001 A 
ATOM     16  C   UNL d   1       2.504   0.223   0.009  0.00  0.00     0.009 A 
ATOM     17  C   UNL d   1      -2.447  -0.695   0.616  0.00  0.00     0.025 C 
ATOM     18  C   UNL d   1       1.780   2.532  -0.336  0.00  0.00     0.050 C 
ATOM     19  O   UNL d   1      -0.317   3.349   1.023  0.00  0.00    -0.267 OA
ENDBRANCH   1   7
BRANCH   2  20
ATOM     20  C   UNL d   1      -4.434   5.893   2.641  0.00  0.00     0.417 C 
ATOM     21  F   UNL d   1      -3.411   6.096   3.513  0.00  0.00    -0.166 F 
ATOM     22  F   UNL d   1      -4.846   7.130   2.248  0.00  0.00    -0.166 F 
ATOM     23  F   UNL d   1      -5.457   5.375   3.375  0.00  0.00    -0.166 F 
ENDBRANCH   2  20
BRANCH   3  24
ATOM     24  C   UNL d   1      -5.738   3.668  -1.697  0.00  0.00     0.417 C 
ATOM     25  F   UNL d   1      -5.343   2.742  -2.615  0.00  0.00    -0.166 F 
ATOM     26  F   UNL d   1      -6.874   3.172  -1.137  0.00  0.00    -0.166 F 
ATOM     27  F   UNL d   1      -6.111   4.769  -2.401  0.00  0.00    -0.166 F 
ENDBRANCH   3  24
TORSDOF 3
