REMARK  2 active torsions:
REMARK  status: ('A' for Active; 'I' for Inactive)
REMARK    1  A    between atoms: C_3  and  C_1 
REMARK    2  A    between atoms: C_7  and  C_2 
REMARK       I    between atoms: N_4  and  C_3 
ROOT
ATOM      1  C   UNL d   1       1.325  -2.892   1.343  0.00  0.00     0.093 C 
ATOM      2  C   UNL d   1       1.817  -1.686   1.957  0.00  0.00     0.086 C 
ATOM      3  N   UNL d   1       2.354  -1.969   3.156  0.00  0.00    -0.259 N 
ATOM      4  HN  UNL d   1       2.647  -1.299   3.868  1.00  0.00     0.195 HD
ATOM      5  O   UNL d   1       2.432  -3.336   3.236  0.00  0.00    -0.241 OA
ATOM      6  C   UNL d   1       1.881  -3.887   2.126  0.00  0.00     0.090 C 
ATOM      7  C   UNL d   1       2.021  -5.354   2.042  0.00  0.00     0.080 C 
ENDROOT
BRANCH   1   8
ATOM      8  C   UNL d   1       0.566  -3.028   0.096  0.00  0.00     0.263 C 
ATOM      9  N   UNL d   1      -0.657  -3.773   0.127  0.00  0.00    -0.313 N 
ATOM     10  C   UNL d   1      -1.571  -3.860  -1.006  0.00  0.00     0.043 A 
ATOM     11  C   UNL d   1      -1.017  -4.573   1.308  0.00  0.00     0.133 C 
ATOM     12  C   UNL d   1      -2.715  -4.695  -0.941  0.00  0.00    -0.031 A 
ATOM     13  C   UNL d   1      -1.415  -3.112  -2.182  0.00  0.00     0.031 A 
ATOM     14  C   UNL d   1      -3.621  -4.782  -2.017  0.00  0.00     0.016 A 
ATOM     15  C   UNL d   1      -3.018  -5.540   0.264  0.00  0.00     0.042 C 
ATOM     16  C   UNL d   1      -3.443  -4.027  -3.173  0.00  0.00    -0.061 A 
ATOM     17  C   UNL d   1      -2.333  -3.189  -3.244  0.00  0.00     0.009 A 
ATOM     18  C   UNL d   1      -4.458  -4.090  -4.274  0.00  0.00     0.048 C 
ATOM     19  C   UNL d   1      -2.493  -4.852   1.498  0.00  0.00     0.025 C 
ATOM     20  O   UNL d   1       1.007  -2.443  -0.888  0.00  0.00    -0.267 OA
ENDBRANCH   1   8
BRANCH   2  21
ATOM     21  C   UNL d   1       1.834  -0.294   1.486  0.00  0.00     0.037 A 
ATOM     22  C   UNL d   1       0.664   0.399   1.133  0.00  0.00     0.048 A 
ATOM     23 CL   UNL d   1      -0.916  -0.297   1.245  0.00  0.00    -0.083 Cl
ATOM     24  C   UNL d   1       0.723   1.742   0.716  0.00  0.00     0.025 A 
ATOM     25  C   UNL d   1       1.937   2.424   0.677  0.00  0.00     0.003 A 
ATOM     26  C   UNL d   1       3.102   1.761   1.038  0.00  0.00     0.025 A 
ATOM     27  C   UNL d   1       3.057   0.412   1.421  0.00  0.00     0.048 A 
ATOM     28 CL   UNL d   1       4.598  -0.309   1.780  0.00  0.00    -0.083 Cl
ENDBRANCH   2  21
TORSDOF 2
