REMARK  4 active torsions:
REMARK  status: ('A' for Active; 'I' for Inactive)
REMARK       I    between atoms: N_7  and  C_1 
REMARK       I    between atoms: N_8  and  C_1 
REMARK    1  A    between atoms: C_2  and  C_6 
REMARK    2  A    between atoms: N_3  and  N_8 
REMARK    3  A    between atoms: C_13  and  N_7 
REMARK    4  A    between atoms: C_14  and  C_13 
ROOT
ATOM      1  C   UNL d   1       1.083   0.063  -0.020  0.00  0.00     0.335 C 
ATOM      2  N   UNL d   1       0.360  -0.964  -0.593  0.00  0.00    -0.338 N 
ATOM      3  N   UNL d   1       0.249   1.061   0.458  0.00  0.00    -0.252 N 
ATOM      4  O   UNL d   1       2.306   0.076   0.023  0.00  0.00    -0.246 OA
ATOM      5  H   UNL d   1      -0.587  -1.100  -0.281  0.00  0.00     0.164 HD
ATOM      6  H   UNL d   1      -0.740   1.015   0.256  0.00  0.00     0.191 HD
ENDROOT
BRANCH   2   7
ATOM      7  C   UNL d   1       1.040  -2.130  -1.112  0.00  0.00     0.162 C 
BRANCH   7   8
ATOM      8  C   UNL d   1       0.234  -2.783  -2.205  0.00  0.00    -0.040 A 
ATOM      9  C   UNL d   1      -0.062  -2.070  -3.377  0.00  0.00     0.009 A 
ATOM     10  C   UNL d   1      -0.773  -2.673  -4.416  0.00  0.00     0.001 A 
ATOM     11  C   UNL d   1      -1.194  -3.995  -4.295  0.00  0.00     0.000 A 
ATOM     12  C   UNL d   1      -0.908  -4.713  -3.135  0.00  0.00     0.001 A 
ATOM     13  C   UNL d   1      -0.198  -4.111  -2.093  0.00  0.00     0.009 A 
ENDBRANCH   7   8
ENDBRANCH   2   7
BRANCH   3  14
ATOM     14  N   UNL d   1       0.779   2.201   0.995  0.00  0.00    -0.307 N 
ATOM     15  C   UNL d   1      -0.075   3.111   1.344  0.00  0.00     0.126 C 
ATOM     16  HN  UNL d   1       1.785   2.327   1.114  1.00  0.00     0.186 HD
BRANCH  15  17
ATOM     17  C   UNL d   1       0.366   4.356   1.922  0.00  0.00     0.021 A 
ATOM     18  S   UNL d   1      -0.800   5.500   2.430  0.00  0.00    -0.101 SA
ATOM     19  C   UNL d   1       0.408   6.578   2.983  0.00  0.00     0.050 A 
ATOM     20  C   UNL d   1       1.676   6.086   2.770  0.00  0.00     0.008 A 
ATOM     21  C   UNL d   1       1.652   4.802   2.151  0.00  0.00     0.021 A 
ENDBRANCH  15  17
ENDBRANCH   3  14
TORSDOF 4
