REMARK  5 active torsions:
REMARK  status: ('A' for Active; 'I' for Inactive)
REMARK    1  A    between atoms: C_4  and  C_1 
REMARK    2  A    between atoms: C_10  and  C_1 
REMARK    3  A    between atoms: C_5  and  S_9 
REMARK    4  A    between atoms: S_9  and  C_14 
REMARK    5  A    between atoms: C_14  and  C_10 
ROOT
ATOM      1  C   UNL d   1       2.586  -0.134   0.062  0.00  0.00     0.094 C 
ENDROOT
BRANCH   1   2
ATOM      2  C   UNL d   1       1.069  -0.139   0.106  0.00  0.00     0.160 C 
ATOM      3  O   UNL d   1       0.415  -0.922   0.788  0.00  0.00    -0.292 OA
BRANCH   2   4
ATOM      4  C   UNL d   1       0.354   0.886  -0.709  0.00  0.00     0.010 A 
ATOM      5  C   UNL d   1       0.939   2.126  -1.000  0.00  0.00     0.017 A 
ATOM      6  C   UNL d   1       0.260   3.049  -1.799  0.00  0.00     0.025 A 
ATOM      7  C   UNL d   1      -1.001   2.735  -2.304  0.00  0.00     0.034 A 
ATOM      8  C   UNL d   1      -1.601   1.514  -1.998  0.00  0.00     0.025 A 
ATOM      9 CL   UNL d   1      -1.819   3.863  -3.313  0.00  0.00    -0.084 Cl
ATOM     10  C   UNL d   1      -0.927   0.591  -1.193  0.00  0.00     0.017 A 
ENDBRANCH   2   4
ENDBRANCH   1   2
BRANCH   1  11
ATOM     11  C   UNL d   1       3.208  -1.500   0.331  0.00  0.00     0.088 C 
BRANCH  11  12
ATOM     12  S   UNL d   1       2.896  -2.665  -1.044  0.00  0.00    -0.112 SA
BRANCH  12  13
ATOM     13  C   UNL d   1       3.762  -4.105  -0.438  0.00  0.00     0.069 A 
ATOM     14  N   UNL d   1       4.500  -3.988   0.689  0.00  0.00    -0.361 N 
ATOM     15  C   UNL d   1       5.151  -5.090   1.122  0.00  0.00     0.089 A 
ATOM     16  HN  UNL d   1       4.563  -3.103   1.191  1.00  0.00     0.165 HD
ATOM     17  C   UNL d   1       5.110  -6.313   0.476  0.00  0.00     0.017 A 
ATOM     18  C   UNL d   1       4.355  -6.415  -0.684  0.00  0.00     0.004 A 
ATOM     19  C   UNL d   1       3.667  -5.296  -1.151  0.00  0.00     0.037 A 
ENDBRANCH  12  13
ENDBRANCH  11  12
ENDBRANCH   1  11
TORSDOF 5
