REMARK  2 active torsions:
REMARK  status: ('A' for Active; 'I' for Inactive)
REMARK    1  A    between atoms: N_4  and  C_2 
REMARK    2  A    between atoms: C_13  and  C_3 
ROOT
ATOM      1  C   UNL d   1       0.091   1.104  -0.012  0.00  0.00     0.053 A 
ATOM      2  C   UNL d   1       1.440   1.563   0.122  0.00  0.00     0.118 A 
ATOM      3  C   UNL d   1      -1.219   1.722  -0.199  0.00  0.00    -0.003 A 
ATOM      4  C   UNL d   1      -0.059  -0.284  -0.024  0.00  0.00     0.089 A 
ATOM      5  C   UNL d   1      -2.236   0.780  -0.245  0.00  0.00     0.065 A 
ATOM      6  S   UNL d   1      -1.673  -0.814  -0.105  0.00  0.00    -0.082 SA
ATOM      7  N   UNL d   1       2.418   0.610   0.104  0.00  0.00    -0.338 N 
ATOM      8  HN  UNL d   1       3.397   0.895   0.135  1.00  0.00     0.168 HD
ATOM      9  N   UNL d   1       0.903  -1.218   0.018  0.00  0.00    -0.346 N 
ATOM     10  HN  UNL d   1       0.722  -2.222   0.025  1.00  0.00     0.167 HD
ATOM     11  C   UNL d   1       2.115  -0.689   0.048  0.00  0.00     0.182 A 
ENDROOT
BRANCH   2  12
ATOM     12  N   UNL d   1       1.864   2.897   0.197  0.00  0.00    -0.362 N 
ATOM     13  C   UNL d   1       1.321   3.726   1.281  0.00  0.00     0.163 C 
ATOM     14  C   UNL d   1       1.572   5.184   0.925  0.00  0.00    -0.034 A 
ATOM     15  C   UNL d   1       0.607   6.179   1.072  0.00  0.00     0.009 A 
ATOM     16  C   UNL d   1       2.835   5.524   0.402  0.00  0.00    -0.049 A 
ATOM     17  C   UNL d   1       0.868   7.478   0.627  0.00  0.00     0.001 A 
ATOM     18  C   UNL d   1       2.105   7.798   0.068  0.00  0.00     0.001 A 
ATOM     19  C   UNL d   1       3.100   6.828  -0.023  0.00  0.00     0.008 A 
ATOM     20  C   UNL d   1       3.873   4.444   0.374  0.00  0.00     0.059 C 
ATOM     21  C   UNL d   1       3.307   3.093  -0.091  0.00  0.00     0.129 C 
ENDBRANCH   2  12
BRANCH   3  22
ATOM     22  C   UNL d   1      -1.587   3.124  -0.402  0.00  0.00    -0.024 A 
ATOM     23  C   UNL d   1      -0.934   3.903  -1.359  0.00  0.00     0.013 A 
ATOM     24  C   UNL d   1      -1.306   5.238  -1.557  0.00  0.00     0.007 A 
ATOM     25  C   UNL d   1      -2.346   5.808  -0.812  0.00  0.00    -0.062 A 
ATOM     26  C   UNL d   1      -3.011   5.023   0.135  0.00  0.00     0.007 A 
ATOM     27  C   UNL d   1      -2.686   7.263  -0.949  0.00  0.00     0.048 C 
ATOM     28  C   UNL d   1      -2.635   3.694   0.338  0.00  0.00     0.013 A 
ENDBRANCH   3  22
TORSDOF 2
