REMARK  5 active torsions:
REMARK  status: ('A' for Active; 'I' for Inactive)
REMARK    1  A    between atoms: N_4  and  S_1 
REMARK    2  A    between atoms: C_2  and  C_9 
REMARK       I    between atoms: C_3  and  N_7 
REMARK       I    between atoms: N_8  and  C_3 
REMARK    3  A    between atoms: C_5  and  N_4 
REMARK    4  A    between atoms: N_7  and  C_12 
REMARK    5  A    between atoms: C_21  and  N_8 
ROOT
ATOM      1  C   UNL d   1      -3.110  -4.477   2.698  0.00  0.00     0.325 C 
ATOM      2  N   UNL d   1      -1.826  -4.893   3.024  0.00  0.00    -0.309 N 
ATOM      3  N   UNL d   1      -4.027  -5.511   2.732  0.00  0.00    -0.309 N 
ATOM      4  O   UNL d   1      -3.419  -3.344   2.344  0.00  0.00    -0.247 OA
ATOM      5  H   UNL d   1      -1.703  -5.883   3.171  0.00  0.00     0.170 HD
ATOM      6  H   UNL d   1      -4.020  -6.084   3.563  0.00  0.00     0.170 HD
ENDROOT
BRANCH   2   7
ATOM      7  C   UNL d   1      -0.656  -4.137   2.746  0.00  0.00     0.038 C 
ATOM      8  C   UNL d   1      -0.706  -2.799   2.364  0.00  0.00     0.054 C 
ATOM      9  C   UNL d   1       0.405  -2.146   1.834  0.00  0.00     0.030 C 
ATOM     10  C   UNL d   1       1.652  -2.776   1.819  0.00  0.00    -0.040 C 
ATOM     11  C   UNL d   1       1.729  -4.096   2.293  0.00  0.00     0.011 C 
ATOM     12  C   UNL d   1       2.869  -2.113   1.242  0.00  0.00     0.050 C 
ATOM     13  C   UNL d   1       0.583  -4.777   2.738  0.00  0.00     0.030 C 
BRANCH   9  14
ATOM     14  N   UNL d   1       0.149  -0.917   1.150  0.00  0.00    -0.185 NA
ATOM     15  H   UNL d   1       0.874  -0.204   1.211  0.00  0.00     0.146 HD
BRANCH  14  16
ATOM     16  S   UNL d   1      -0.370  -1.054  -0.462  0.00  0.00     0.210 S 
ATOM     17  O   UNL d   1       0.298  -2.170  -1.095  0.00  0.00    -0.211 OA
ATOM     18  O   UNL d   1      -0.253   0.281  -1.011  0.00  0.00    -0.211 OA
ATOM     19  C   UNL d   1      -2.111  -1.427  -0.308  0.00  0.00     0.180 C 
ENDBRANCH  14  16
ENDBRANCH   9  14
ENDBRANCH   2   7
BRANCH   3  20
ATOM     20  C   UNL d   1      -5.233  -5.426   1.992  0.00  0.00     0.036 A 
ATOM     21  C   UNL d   1      -5.271  -4.763   0.757  0.00  0.00     0.030 A 
ATOM     22  C   UNL d   1      -6.459  -4.649   0.038  0.00  0.00     0.018 A 
ATOM     23  C   UNL d   1      -7.639  -5.207   0.539  0.00  0.00     0.048 A 
ATOM     24  C   UNL d   1      -7.593  -5.899   1.763  0.00  0.00     0.018 A 
ATOM     25  C   UNL d   1      -6.394  -6.023   2.478  0.00  0.00     0.030 A 
BRANCH  23  26
ATOM     26  C   UNL d   1      -8.935  -5.071  -0.221  0.00  0.00     0.417 C 
ATOM     27  F   UNL d   1      -8.816  -4.366  -1.382  0.00  0.00    -0.166 F 
ATOM     28  F   UNL d   1      -9.459  -6.278  -0.572  0.00  0.00    -0.166 F 
ATOM     29  F   UNL d   1      -9.900  -4.438   0.501  0.00  0.00    -0.166 F 
ENDBRANCH  23  26
ENDBRANCH   3  20
TORSDOF 5
