REMARK  4 active torsions:
REMARK  status: ('A' for Active; 'I' for Inactive)
REMARK    1  A    between atoms: C_6  and  C_1 
REMARK    2  A    between atoms: O_10  and  N_7 
REMARK    3  A    between atoms: C_9  and  O_10 
REMARK    4  A    between atoms: C_14  and  C_9 
ROOT
ATOM      1  C   UNL d   1       3.809  -0.118  -0.042  0.00  0.00     0.046 C 
ATOM      2  N   UNL d   1       4.532  -1.197  -0.093  0.00  0.00    -0.261 N 
ATOM      3  HN  UNL d   1       5.551  -1.192  -0.133  1.00  0.00     0.194 HD
ATOM      4  C   UNL d   1       2.292  -0.176  -0.008  0.00  0.00     0.071 C 
ENDROOT
BRANCH   1   5
ATOM      5  C   UNL d   1       4.509   1.169  -0.008  0.00  0.00     0.036 A 
ATOM      6  S   UNL d   1       3.775   2.545  -0.714  0.00  0.00    -0.087 SA
ATOM      7  C   UNL d   1       5.100   3.569  -0.360  0.00  0.00     0.016 A 
ATOM      8  C   UNL d   1       5.213   4.941  -0.662  0.00  0.00     0.021 A 
ATOM      9  C   UNL d   1       6.117   2.872   0.289  0.00  0.00    -0.010 A 
ATOM     10  C   UNL d   1       6.380   5.621  -0.305  0.00  0.00     0.025 A 
ATOM     11  C   UNL d   1       7.407   4.949   0.338  0.00  0.00     0.035 A 
ATOM     12  C   UNL d   1       7.292   3.590   0.639  0.00  0.00     0.037 A 
ATOM     13 CL   UNL d   1       8.842   5.796   0.771  0.00  0.00    -0.084 Cl
ATOM     14  C   UNL d   1       5.772   1.474   0.494  0.00  0.00    -0.031 A 
ATOM     15  C   UNL d   1       6.715   0.530   1.185  0.00  0.00     0.050 C 
ENDBRANCH   1   5
BRANCH   2  16
ATOM     16  O   UNL d   1       3.759  -2.374  -0.087  0.00  0.00    -0.195 OA
BRANCH  16  17
ATOM     17  C   UNL d   1       4.582  -3.462  -0.168  0.00  0.00     0.315 C 
ATOM     18  O   UNL d   1       5.800  -3.474  -0.291  0.00  0.00    -0.257 OA
BRANCH  17  19
ATOM     19  C   UNL d   1       3.777  -4.708  -0.119  0.00  0.00     0.041 A 
ATOM     20  C   UNL d   1       2.528  -4.770   0.514  0.00  0.00     0.017 A 
ATOM     21  C   UNL d   1       1.837  -5.984   0.575  0.00  0.00     0.001 A 
ATOM     22  C   UNL d   1       2.386  -7.133   0.004  0.00  0.00     0.000 A 
ATOM     23  C   UNL d   1       3.626  -7.075  -0.631  0.00  0.00     0.001 A 
ATOM     24  C   UNL d   1       4.322  -5.867  -0.690  0.00  0.00     0.017 A 
ENDBRANCH  17  19
ENDBRANCH  16  17
ENDBRANCH   2  16
TORSDOF 4
