REMARK  5 active torsions:
REMARK  status: ('A' for Active; 'I' for Inactive)
REMARK    1  A    between atoms: C_2  and  N_1 
REMARK       I    between atoms: C_3  and  N_1 
REMARK    2  A    between atoms: N_6  and  C_2 
REMARK    3  A    between atoms: O_7  and  C_3 
REMARK    4  A    between atoms: N_8  and  N_6 
REMARK    5  A    between atoms: C_9  and  O_7 
ROOT
ATOM      1  N   UNL d   1       1.138  -0.134   0.358  0.00  0.00    -0.278 N 
ATOM      2  C   UNL d   1       2.503  -0.033   0.207  0.00  0.00     0.366 C 
ATOM      3  O   UNL d   1       2.997   0.307  -0.865  0.00  0.00    -0.238 OA
ATOM      4  H   UNL d   1       0.640   0.032  -0.502  0.00  0.00     0.173 HD
ENDROOT
BRANCH   1   5
ATOM      5  C   UNL d   1       0.324  -0.273   1.472  0.00  0.00     0.190 C 
ATOM      6  S   UNL d   1       0.672   0.135   3.049  0.00  0.00    -0.039 SA
BRANCH   5   7
ATOM      7  N   UNL d   1      -0.912  -0.835   1.181  0.00  0.00    -0.300 N 
ATOM      8  H   UNL d   1      -1.491  -1.039   1.999  0.00  0.00     0.183 HD
BRANCH   7   9
ATOM      9  N   UNL d   1      -1.107  -1.634   0.034  0.00  0.00    -0.248 NA
ATOM     10  H   UNL d   1      -0.214  -2.028  -0.275  0.00  0.00     0.143 HD
ATOM     11  H   UNL d   1      -1.486  -1.065  -0.725  0.00  0.00     0.143 HD
ENDBRANCH   7   9
ENDBRANCH   5   7
ENDBRANCH   1   5
BRANCH   2  12
ATOM     12  O   UNL d   1       3.196  -0.466   1.285  0.00  0.00    -0.304 OA
BRANCH  12  13
ATOM     13  C   UNL d   1       4.578  -0.785   1.081  0.00  0.00     0.176 C 
ATOM     14  C   UNL d   1       5.465   0.291   1.668  0.00  0.00     0.034 C 
ENDBRANCH  12  13
ENDBRANCH   2  12
TORSDOF 5
