REMARK  5 active torsions:
REMARK  status: ('A' for Active; 'I' for Inactive)
REMARK    1  A    between atoms: C_6  and  C_1 
REMARK    2  A    between atoms: N_17  and  C_4 
REMARK       I    between atoms: N_11  and  C_6 
REMARK    3  A    between atoms: C_9  and  C_13 
REMARK    4  A    between atoms: C_14  and  C_10 
REMARK    5  A    between atoms: C_24  and  N_11 
ROOT
ATOM      1  C   UNL d   1      -2.063  -0.144  -0.165  0.00  0.00     0.102 A 
ATOM      2  C   UNL d   1       0.372  -0.542  -0.251  0.00  0.00     0.088 A 
ATOM      3  S   UNL d   1      -1.037  -1.497  -0.397  0.00  0.00    -0.064 SA
ATOM      4  C   UNL d   1      -1.321   1.020  -0.061  0.00  0.00     0.061 A 
ATOM      5  C   UNL d   1       0.091   0.809  -0.087  0.00  0.00     0.026 A 
ATOM      6  N   UNL d   1       1.596  -1.110  -0.281  0.00  0.00    -0.347 N 
ATOM      7  HN  UNL d   1       1.741  -2.110  -0.422  1.00  0.00     0.167 HD
ATOM      8  C   UNL d   1       2.616  -0.235  -0.106  0.00  0.00     0.079 A 
ATOM      9  C   UNL d   1       1.191   1.682   0.048  0.00  0.00     0.019 A 
ATOM     10  C   UNL d   1       2.472   1.139   0.048  0.00  0.00     0.034 A 
ENDROOT
BRANCH   1  11
ATOM     11  C   UNL d   1      -3.520  -0.238  -0.113  0.00  0.00     0.265 C 
ATOM     12  N   UNL d   1      -4.090  -1.491  -0.317  0.00  0.00    -0.322 N 
ATOM     13  H   UNL d   1      -3.452  -2.276  -0.378  0.00  0.00     0.169 HD
ATOM     14  O   UNL d   1      -4.190   0.770   0.117  0.00  0.00    -0.267 OA
BRANCH  12  15
ATOM     15  C   UNL d   1      -5.472  -1.759  -0.477  0.00  0.00     0.035 A 
ATOM     16  C   UNL d   1      -6.440  -0.757  -0.589  0.00  0.00     0.030 A 
ATOM     17  C   UNL d   1      -7.781  -1.063  -0.833  0.00  0.00     0.018 A 
ATOM     18  C   UNL d   1      -8.193  -2.389  -0.971  0.00  0.00     0.048 A 
ATOM     19  C   UNL d   1      -7.237  -3.405  -0.816  0.00  0.00     0.018 A 
ATOM     20  C   UNL d   1      -5.888  -3.092  -0.576  0.00  0.00     0.030 A 
BRANCH  18  21
ATOM     21  C   UNL d   1      -9.627  -2.712  -1.315  0.00  0.00     0.417 C 
ATOM     22  F   UNL d   1     -10.412  -1.609  -1.465  0.00  0.00    -0.166 F 
ATOM     23  F   UNL d   1      -9.733  -3.401  -2.486  0.00  0.00    -0.166 F 
ATOM     24  F   UNL d   1     -10.237  -3.480  -0.371  0.00  0.00    -0.166 F 
ENDBRANCH  18  21
ENDBRANCH  12  15
ENDBRANCH   1  11
BRANCH   4  25
ATOM     25  N   UNL d   1      -1.881   2.241   0.086  0.00  0.00    -0.397 N 
ATOM     26  H   UNL d   1      -2.900   2.343   0.137  0.00  0.00     0.156 HD
ATOM     27  H   UNL d   1      -1.370   3.116   0.112  0.00  0.00     0.156 HD
ENDBRANCH   4  25
BRANCH   8  28
ATOM     28  C   UNL d   1       3.993  -0.813  -0.038  0.00  0.00     0.172 C 
ATOM     29  O   UNL d   1       4.966  -0.076   0.124  0.00  0.00    -0.291 OA
ATOM     30  C   UNL d   1       4.169  -2.306  -0.147  0.00  0.00     0.098 C 
ENDBRANCH   8  28
TORSDOF 5
