REMARK  4 active torsions:
REMARK  status: ('A' for Active; 'I' for Inactive)
REMARK       I    between atoms: C_2  and  N_1 
REMARK       I    between atoms: N_8  and  C_2 
REMARK    1  A    between atoms: O_7  and  C_3 
REMARK    2  A    between atoms: C_11  and  O_7 
REMARK    3  A    between atoms: C_18  and  N_8 
REMARK    4  A    between atoms: C_9  and  C_18 
ROOT
ATOM      1  N   UNL d   1       0.307   1.106  -0.088  0.00  0.00    -0.329 N 
ATOM      2  C   UNL d   1       0.810   2.277  -0.559  0.00  0.00     0.318 C 
ATOM      3  C   UNL d   1      -0.357  -0.835  -0.255  0.00  0.00     0.165 C 
ATOM      4  C   UNL d   1      -1.014   0.533   0.043  0.00  0.00     0.161 C 
ATOM      5  C   UNL d   1       1.001  -0.164   0.019  0.00  0.00     0.161 C 
ATOM      6  O   UNL d   1       2.018   2.446  -0.708  0.00  0.00    -0.247 OA
ATOM      7  N   UNL d   1      -0.118   3.241  -0.831  0.00  0.00    -0.340 N 
ATOM      8  H   UNL d   1      -1.082   2.963  -0.908  0.00  0.00     0.164 HD
ENDROOT
BRANCH   3   9
ATOM      9  O   UNL d   1      -0.538  -1.364  -1.595  0.00  0.00    -0.343 OA
BRANCH   9  10
ATOM     10  C   UNL d   1      -1.772  -1.868  -1.922  0.00  0.00     0.069 A 
ATOM     11  C   UNL d   1      -2.143  -1.782  -3.266  0.00  0.00     0.038 A 
ATOM     12  C   UNL d   1      -3.378  -2.285  -3.686  0.00  0.00     0.026 A 
ATOM     13  C   UNL d   1      -4.232  -2.882  -2.760  0.00  0.00     0.034 A 
ATOM     14  C   UNL d   1      -3.857  -2.986  -1.423  0.00  0.00     0.026 A 
ATOM     15 CL   UNL d   1      -5.754  -3.501  -3.268  0.00  0.00    -0.084 Cl
ATOM     16  C   UNL d   1      -2.624  -2.482  -1.004  0.00  0.00     0.038 A 
ENDBRANCH   9  10
ENDBRANCH   3   9
BRANCH   7  17
ATOM     17  C   UNL d   1       0.265   4.501  -1.418  0.00  0.00     0.150 C 
BRANCH  17  18
ATOM     18  C   UNL d   1      -0.359   5.582  -0.600  0.00  0.00    -0.018 C 
ATOM     19  C   UNL d   1      -1.188   6.522  -1.079  0.00  0.00     0.008 C 
ENDBRANCH  17  18
ENDBRANCH   7  17
TORSDOF 4
