REMARK  1 active torsions:
REMARK  status: ('A' for Active; 'I' for Inactive)
REMARK    1  A    between atoms: O_20  and  C_14 
ROOT
ATOM      1  C   UNL d   1      -3.933  -0.293   1.643  0.00  0.00     0.157 C 
ATOM      2  N   UNL d   1      -5.121   0.038   2.478  0.00  0.00    -0.250 NA
ATOM      3  C   UNL d   1      -3.295   1.114   1.234  0.00  0.00     0.031 C 
ATOM      4  O   UNL d   1      -4.401  -0.977   0.453  0.00  0.00    -0.319 OA
ATOM      5  C   UNL d   1      -5.521   1.318   2.047  0.00  0.00     0.020 A 
ATOM      6  C   UNL d   1      -3.051  -1.142   2.538  0.00  0.00     0.030 C 
ATOM      7  C   UNL d   1      -4.532   1.984   1.319  0.00  0.00    -0.024 A 
ATOM      8  C   UNL d   1      -3.732  -2.093   0.034  0.00  0.00     0.082 A 
ATOM      9  C   UNL d   1      -2.532  -2.317   2.173  0.00  0.00     0.014 C 
ATOM     10  C   UNL d   1      -2.796  -2.771   0.820  0.00  0.00    -0.000 A 
ATOM     11  C   UNL d   1      -2.121  -3.878   0.295  0.00  0.00     0.050 A 
ATOM     12  C   UNL d   1      -4.035  -2.551  -1.249  0.00  0.00     0.040 A 
ATOM     13  C   UNL d   1      -6.163  -0.967   2.620  0.00  0.00     0.120 C 
ATOM     14  C   UNL d   1      -2.387  -4.286  -1.009  0.00  0.00     0.066 A 
ATOM     15  C   UNL d   1      -2.274   1.668   2.251  0.00  0.00     0.025 C 
ATOM     16  C   UNL d   1      -2.659   1.126  -0.164  0.00  0.00     0.025 C 
ATOM     17  C   UNL d   1      -3.357  -3.651  -1.775  0.00  0.00     0.039 A 
ATOM     18  C   UNL d   1      -6.718   1.959   2.326  0.00  0.00     0.024 A 
ATOM     19  C   UNL d   1      -4.729   3.269   0.831  0.00  0.00     0.010 A 
ATOM     20  C   UNL d   1      -5.939   3.906   1.098  0.00  0.00     0.001 A 
ATOM     21  C   UNL d   1      -6.930   3.256   1.844  0.00  0.00     0.002 A 
ENDROOT
BRANCH  14  22
ATOM     22  O   UNL d   1      -1.689  -5.306  -1.584  0.00  0.00    -0.361 OA
ATOM     23  H   UNL d   1      -0.880  -5.453  -1.065  0.00  0.00     0.217 HD
ENDBRANCH  14  22
TORSDOF 1
