REMARK  4 active torsions:
REMARK  status: ('A' for Active; 'I' for Inactive)
REMARK       I    between atoms: N_2  and  C_1 
REMARK    1  A    between atoms: C_7  and  C_1 
REMARK    2  A    between atoms: C_8  and  N_3 
REMARK    3  A    between atoms: C_4  and  O_11 
REMARK    4  A    between atoms: O_11  and  C_23 
ROOT
ATOM      1  N   UNL d   1      -3.783  -6.744  -7.329  0.00  0.00    -0.191 NA
ATOM      2  C   UNL d   1      -3.181  -6.028  -6.645  0.00  0.00     0.099 C 
ATOM      3  C   UNL d   1      -1.027  -3.360  -4.111  0.00  0.00     0.030 A 
ATOM      4  C   UNL d   1      -1.485  -2.963  -5.378  0.00  0.00     0.031 A 
ATOM      5  C   UNL d   1      -1.283  -4.685  -3.728  0.00  0.00     0.031 A 
ATOM      6  C   UNL d   1      -2.438  -5.141  -5.803  0.00  0.00     0.044 A 
ATOM      7  C   UNL d   1      -1.985  -5.566  -4.555  0.00  0.00     0.025 A 
ATOM      8  C   UNL d   1      -2.181  -3.835  -6.218  0.00  0.00     0.025 A 
ENDROOT
BRANCH   3   9
ATOM      9  N   UNL d   1      -0.423  -2.481  -3.240  0.00  0.00    -0.378 N 
ATOM     10  C   UNL d   1      -0.674  -1.042  -3.310  0.00  0.00     0.143 C 
ATOM     11  C   UNL d   1      -0.841  -0.492  -1.889  0.00  0.00     0.146 C 
ATOM     12  N   UNL d   1       0.265  -0.862  -0.991  0.00  0.00    -0.345 N 
ATOM     13  C   UNL d   1       0.846  -0.036  -0.032  0.00  0.00     0.253 C 
ATOM     14  C   UNL d   1       0.636  -2.287  -1.017  0.00  0.00     0.146 C 
ATOM     15  O   UNL d   1       1.809  -0.380   0.650  0.00  0.00    -0.267 OA
ATOM     16  C   UNL d   1       0.765  -2.847  -2.448  0.00  0.00     0.143 C 
BRANCH  13  17
ATOM     17  C   UNL d   1       0.322   1.341   0.170  0.00  0.00     0.032 A 
ATOM     18  C   UNL d   1      -1.047   1.604   0.283  0.00  0.00     0.020 A 
ATOM     19  C   UNL d   1      -1.513   2.918   0.380  0.00  0.00     0.038 A 
ATOM     20  C   UNL d   1      -0.609   3.972   0.491  0.00  0.00     0.078 A 
ATOM     21  C   UNL d   1       0.764   3.703   0.426  0.00  0.00     0.038 A 
ATOM     22  C   UNL d   1       1.232   2.396   0.267  0.00  0.00     0.020 A 
BRANCH  20  23
ATOM     23  O   UNL d   1      -0.920   5.288   0.642  0.00  0.00    -0.255 OA
BRANCH  23  24
ATOM     24  C   UNL d   1      -2.169   5.663   1.205  0.00  0.00     0.530 C 
ATOM     25  F   UNL d   1      -2.813   4.662   1.841  0.00  0.00    -0.144 F 
ATOM     26  F   UNL d   1      -1.951   6.646   2.107  0.00  0.00    -0.144 F 
ATOM     27  F   UNL d   1      -2.971   6.152   0.235  0.00  0.00    -0.144 F 
ENDBRANCH  23  24
ENDBRANCH  20  23
ENDBRANCH  13  17
ENDBRANCH   3   9
TORSDOF 4
