REMARK  4 active torsions:
REMARK  status: ('A' for Active; 'I' for Inactive)
REMARK    1  A    between atoms: N_8  and  C_2 
REMARK    2  A    between atoms: N_3  and  C_7 
REMARK    3  A    between atoms: N_10  and  N_8 
REMARK    4  A    between atoms: C_17  and  C_16 
ROOT
ATOM      1  N   UNL d   1       0.795  -3.409   0.074  0.00  0.00    -0.309 N 
ATOM      2  HN  UNL d   1      -0.181  -3.476  -0.212  1.00  0.00     0.186 HD
ATOM      3  C   UNL d   1       1.492  -4.428   0.453  0.00  0.00     0.118 C 
ENDROOT
BRANCH   1   4
ATOM      4  N   UNL d   1       1.500  -2.214   0.093  0.00  0.00    -0.280 N 
ATOM      5  HN  UNL d   1       2.482  -2.136   0.361  1.00  0.00     0.189 HD
BRANCH   4   6
ATOM      6  C   UNL d   1       0.768  -1.210  -0.268  0.00  0.00     0.162 C 
ATOM      7  N   UNL d   1       1.291   0.033  -0.369  0.00  0.00    -0.305 N 
ATOM      8  C   UNL d   1       0.486   1.027  -0.843  0.00  0.00     0.237 C 
ATOM      9  H   UNL d   1       2.280   0.180  -0.252  0.00  0.00     0.171 HD
ATOM     10  C   UNL d   1      -0.965   0.598  -0.906  0.00  0.00     0.143 C 
ATOM     11  O   UNL d   1       0.899   2.136  -1.158  0.00  0.00    -0.272 OA
ATOM     12  C   UNL d   1      -1.750   1.220   0.237  0.00  0.00     0.031 C 
ATOM     13  S   UNL d   1      -0.921  -1.207  -0.706  0.00  0.00    -0.078 SA
ENDBRANCH   4   6
ENDBRANCH   1   4
BRANCH   3  14
ATOM     14  C   UNL d   1       0.877  -5.769   0.440  0.00  0.00    -0.017 A 
ATOM     15  C   UNL d   1      -0.426  -5.931  -0.046  0.00  0.00     0.048 A 
ATOM     16  C   UNL d   1      -1.000  -7.204  -0.058  0.00  0.00     0.103 A 
ATOM     17  C   UNL d   1      -0.281  -8.312   0.413  0.00  0.00     0.036 A 
ATOM     18  C   UNL d   1       1.021  -8.139   0.894  0.00  0.00     0.003 A 
ATOM     19  C   UNL d   1       1.603  -6.868   0.907  0.00  0.00     0.013 A 
BRANCH  16  20
ATOM     20  N   UNL d   1      -2.364  -7.381  -0.570  0.00  0.00    -0.116 N 
ATOM     21  O   UNL d   1      -2.956  -6.382  -0.999  0.00  0.00    -0.532 OA
ATOM     22  O   UNL d   1      -2.844  -8.523  -0.542  0.00  0.00    -0.532 OA
ENDBRANCH  16  20
ENDBRANCH   3  14
TORSDOF 4
