REMARK  5 active torsions:
REMARK  status: ('A' for Active; 'I' for Inactive)
REMARK    1  A    between atoms: N_2  and  S_1 
REMARK    2  A    between atoms: C_8  and  S_1 
REMARK    3  A    between atoms: C_3  and  N_2 
REMARK    4  A    between atoms: N_6  and  C_3 
REMARK    5  A    between atoms: C_11  and  N_6 
ROOT
ATOM      1  C   UNL d   1       1.035   0.106  -2.535  0.00  0.00     0.186 C 
ATOM      2  S   UNL d   1       2.228   1.274  -2.410  0.00  0.00    -0.040 SA
ENDROOT
BRANCH   1   3
ATOM      3  N   UNL d   1       0.893  -0.985  -1.678  0.00  0.00    -0.256 N 
ATOM      4  H   UNL d   1       0.162  -1.653  -1.835  0.00  0.00     0.181 HD
BRANCH   3   5
ATOM      5  S   UNL d   1       1.503  -1.266  -0.150  0.00  0.00     0.264 S 
ATOM      6  O   UNL d   1       0.617  -2.263   0.414  0.00  0.00    -0.200 OA
ATOM      7  O   UNL d   1       1.747  -0.018   0.534  0.00  0.00    -0.200 OA
BRANCH   5   8
ATOM      8  C   UNL d   1       3.045  -2.087  -0.460  0.00  0.00     0.079 A 
ATOM      9  C   UNL d   1       4.234  -1.583   0.072  0.00  0.00     0.025 A 
ATOM     10  C   UNL d   1       5.411  -2.320  -0.063  0.00  0.00     0.002 A 
ATOM     11  C   UNL d   1       5.398  -3.547  -0.731  0.00  0.00     0.000 A 
ATOM     12  C   UNL d   1       4.212  -4.038  -1.277  0.00  0.00     0.002 A 
ATOM     13  C   UNL d   1       3.030  -3.311  -1.140  0.00  0.00     0.025 A 
ENDBRANCH   5   8
ENDBRANCH   3   5
ENDBRANCH   1   3
BRANCH   1  14
ATOM     14  N   UNL d   1       0.202   0.256  -3.622  0.00  0.00    -0.333 N 
ATOM     15  H   UNL d   1       0.486   1.086  -4.138  0.00  0.00     0.168 HD
BRANCH  14  16
ATOM     16  C   UNL d   1      -0.831  -0.486  -4.237  0.00  0.00     0.035 A 
ATOM     17  C   UNL d   1      -1.232  -0.023  -5.504  0.00  0.00     0.055 A 
ATOM     18  C   UNL d   1      -2.156  -0.730  -6.287  0.00  0.00     0.058 A 
ATOM     19 CL   UNL d   1      -2.545  -0.095  -7.847  0.00  0.00    -0.082 Cl
ATOM     20  C   UNL d   1      -2.712  -1.912  -5.804  0.00  0.00     0.055 A 
ATOM     21  C   UNL d   1      -2.377  -2.343  -4.522  0.00  0.00     0.028 A 
ATOM     22 CL   UNL d   1      -3.801  -2.882  -6.726  0.00  0.00    -0.083 Cl
ATOM     23  C   UNL d   1      -1.457  -1.626  -3.738  0.00  0.00     0.031 A 
ENDBRANCH  14  16
ENDBRANCH   1  14
TORSDOF 5
