REMARK  2 active torsions:
REMARK  status: ('A' for Active; 'I' for Inactive)
REMARK    1  A    between atoms: C_8  and  C_2 
REMARK    2  A    between atoms: N_9  and  C_5 
ROOT
ATOM      1  S   UNL d   1       0.922   0.935   1.221  0.00  0.00    -0.038 SA
ATOM      2  C   UNL d   1       1.524  -0.102  -0.022  0.00  0.00     0.077 A 
ATOM      3  N   UNL d   1       0.617  -0.390  -0.936  0.00  0.00    -0.295 N 
ATOM      4  HN  UNL d   1       0.790  -1.007  -1.730  1.00  0.00     0.187 HD
ATOM      5  C   UNL d   1      -0.574   0.973   0.385  0.00  0.00     0.158 A 
ATOM      6  N   UNL d   1      -0.591   0.232  -0.700  0.00  0.00    -0.279 N 
ATOM      7  HN  UNL d   1      -1.408   0.129  -1.302  1.00  0.00     0.189 HD
ENDROOT
BRANCH   2   8
ATOM      8  C   UNL d   1       2.959  -0.606  -0.037  0.00  0.00    -0.001 C 
ATOM      9  C   UNL d   1       3.242  -1.482   1.198  0.00  0.00     0.021 C 
ATOM     10  C   UNL d   1       3.204  -1.465  -1.296  0.00  0.00     0.021 C 
ATOM     11  C   UNL d   1       3.949   0.574  -0.072  0.00  0.00     0.021 C 
ENDBRANCH   2   8
BRANCH   5  12
ATOM     12  N   UNL d   1      -1.616   1.697   0.833  0.00  0.00    -0.379 N 
ATOM     13  H   UNL d   1      -1.631   1.969   1.808  0.00  0.00     0.158 HD
ATOM     14  H   UNL d   1      -2.522   1.470   0.440  0.00  0.00     0.158 HD
ENDBRANCH   5  12
TORSDOF 2
