REMARK  5 active torsions:
REMARK  status: ('A' for Active; 'I' for Inactive)
REMARK    1  A    between atoms: C_3  and  C_1 
REMARK    2  A    between atoms: C_2  and  C_6 
REMARK    3  A    between atoms: C_7  and  C_4 
REMARK    4  A    between atoms: C_8  and  C_7 
REMARK    5  A    between atoms: O_19  and  C_7 
ROOT
ATOM      1  C   UNL d   1       1.786  -4.947  -0.126  0.00  0.00     0.184 C 
ENDROOT
BRANCH   1   2
ATOM      2  C   UNL d   1       0.888  -3.758  -0.445  0.00  0.00    -0.024 A 
ATOM      3  C   UNL d   1       1.246  -2.446  -0.084  0.00  0.00     0.026 A 
ATOM      4  C   UNL d   1       0.425  -1.351  -0.395  0.00  0.00     0.048 A 
ATOM      5  C   UNL d   1      -0.782  -1.581  -1.071  0.00  0.00     0.016 A 
ATOM      6  C   UNL d   1      -1.158  -2.875  -1.425  0.00  0.00     0.001 A 
ATOM      7  C   UNL d   1      -0.334  -3.955  -1.109  0.00  0.00     0.010 A 
BRANCH   4   8
ATOM      8  C   UNL d   1       0.827   0.051  -0.014  0.00  0.00     0.417 C 
ATOM      9  F   UNL d   1       2.013   0.122   0.651  0.00  0.00    -0.166 F 
ATOM     10  F   UNL d   1      -0.089   0.657   0.792  0.00  0.00    -0.166 F 
ATOM     11  F   UNL d   1       0.962   0.864  -1.100  0.00  0.00    -0.166 F 
ENDBRANCH   4   8
ENDBRANCH   1   2
BRANCH   1  12
ATOM     12  C   UNL d   1       2.237  -5.713  -1.360  0.00  0.00    -0.025 A 
ATOM     13  C   UNL d   1       2.993  -5.090  -2.365  0.00  0.00     0.011 A 
ATOM     14  C   UNL d   1       3.378  -5.795  -3.509  0.00  0.00     0.017 A 
ATOM     15  C   UNL d   1       3.014  -7.140  -3.672  0.00  0.00     0.047 A 
ATOM     16  C   UNL d   1       2.273  -7.769  -2.662  0.00  0.00     0.017 A 
ATOM     17  C   UNL d   1       1.893  -7.065  -1.515  0.00  0.00     0.011 A 
BRANCH  15  18
ATOM     18  C   UNL d   1       3.409  -7.876  -4.929  0.00  0.00     0.417 C 
ATOM     19  F   UNL d   1       2.965  -9.164  -4.970  0.00  0.00    -0.166 F 
ATOM     20  F   UNL d   1       2.924  -7.280  -6.054  0.00  0.00    -0.166 F 
ATOM     21  F   UNL d   1       4.759  -7.941  -5.094  0.00  0.00    -0.166 F 
ENDBRANCH  15  18
ENDBRANCH   1  12
BRANCH   1  22
ATOM     22  O   UNL d   1       2.924  -4.523   0.629  0.00  0.00    -0.386 OA
ATOM     23  H   UNL d   1       3.719  -4.727   0.115  0.00  0.00     0.210 HD
ENDBRANCH   1  22
TORSDOF 5
