REMARK  4 active torsions:
REMARK  status: ('A' for Active; 'I' for Inactive)
REMARK    1  A    between atoms: C_2  and  C_1 
REMARK       I    between atoms: N_3  and  C_1 
REMARK    2  A    between atoms: C_4  and  N_3 
REMARK    3  A    between atoms: O_11  and  C_6 
REMARK    4  A    between atoms: O_10  and  C_7 
ROOT
ATOM      1  C   UNL d   1       0.545  -0.370  -0.092  0.00  0.00     0.261 C 
ATOM      2  N   UNL d   1       1.906  -0.489   0.131  0.00  0.00    -0.320 N 
ATOM      3  O   UNL d   1      -0.316  -1.177   0.256  0.00  0.00    -0.267 OA
ATOM      4  H   UNL d   1       2.488   0.332  -0.005  0.00  0.00     0.169 HD
ENDROOT
BRANCH   1   5
ATOM      5  C   UNL d   1       0.095   0.834  -0.829  0.00  0.00     0.098 A 
ATOM      6  C   UNL d   1       0.454   0.977  -2.182  0.00  0.00     0.086 A 
ATOM      7  C   UNL d   1      -0.160   1.974  -2.946  0.00  0.00     0.038 A 
ATOM      8  C   UNL d   1      -1.123   2.808  -2.376  0.00  0.00     0.005 A 
ATOM      9  C   UNL d   1      -1.462   2.676  -1.029  0.00  0.00     0.038 A 
ATOM     10  C   UNL d   1      -0.866   1.683  -0.245  0.00  0.00     0.086 A 
BRANCH   6  11
ATOM     11  O   UNL d   1       1.411   0.129  -2.677  0.00  0.00    -0.355 OA
ATOM     12  C   UNL d   1       1.384  -0.119  -4.078  0.00  0.00     0.210 C 
ENDBRANCH   6  11
BRANCH  10  13
ATOM     13  O   UNL d   1      -1.129   1.521   1.091  0.00  0.00    -0.355 OA
ATOM     14  C   UNL d   1      -2.393   1.988   1.551  0.00  0.00     0.210 C 
ENDBRANCH  10  13
ENDBRANCH   1   5
BRANCH   2  15
ATOM     15  C   UNL d   1       2.550  -1.650   0.617  0.00  0.00     0.073 A 
ATOM     16  C   UNL d   1       3.841  -1.542   1.145  0.00  0.00     0.143 A 
ATOM     17  F   UNL d   1       4.448  -0.345   1.190  0.00  0.00    -0.204 F 
ATOM     18  C   UNL d   1       4.508  -2.654   1.664  0.00  0.00     0.044 A 
ATOM     19  C   UNL d   1       3.900  -3.907   1.624  0.00  0.00     0.003 A 
ATOM     20  C   UNL d   1       2.634  -4.041   1.059  0.00  0.00     0.002 A 
ATOM     21  C   UNL d   1       1.963  -2.919   0.562  0.00  0.00     0.033 A 
ENDBRANCH   2  15
TORSDOF 4
