REMARK  4 active torsions:
REMARK  status: ('A' for Active; 'I' for Inactive)
REMARK    1  A    between atoms: C_2  and  C_1 
REMARK       I    between atoms: N_4  and  C_2 
REMARK    2  A    between atoms: N_5  and  N_4 
REMARK    3  A    between atoms: C_8  and  N_5 
REMARK    4  A    between atoms: C_15  and  C_10 
ROOT
ATOM      1  C   UNL d   1       0.212  -2.515  -1.652  0.00  0.00     0.269 C 
ATOM      2  N   UNL d   1       1.138  -3.534  -1.510  0.00  0.00    -0.283 N 
ATOM      3  O   UNL d   1      -0.469  -2.057  -0.736  0.00  0.00    -0.266 OA
ATOM      4  H   UNL d   1       1.741  -3.855  -2.262  0.00  0.00     0.184 HD
ENDROOT
BRANCH   2   5
ATOM      5  N   UNL d   1       1.366  -4.071  -0.233  0.00  0.00    -0.203 NA
ATOM      6  H   UNL d   1       2.087  -3.573   0.281  0.00  0.00     0.153 HD
BRANCH   5   7
ATOM      7  C   UNL d   1       1.445  -5.483  -0.176  0.00  0.00     0.034 A 
ATOM      8  C   UNL d   1       2.251  -6.147   0.778  0.00  0.00    -0.036 A 
ATOM      9  C   UNL d   1       2.204  -7.556   0.866  0.00  0.00     0.009 A 
ATOM     10  C   UNL d   1       1.384  -8.308   0.028  0.00  0.00     0.001 A 
ATOM     11  C   UNL d   1       0.585  -7.664  -0.904  0.00  0.00     0.002 A 
ATOM     12  C   UNL d   1       0.608  -6.269  -0.995  0.00  0.00     0.026 A 
BRANCH   8  13
ATOM     13  C   UNL d   1       3.189  -5.441   1.734  0.00  0.00     0.036 C 
ATOM     14  C   UNL d   1       2.561  -5.172   3.093  0.00  0.00     0.010 C 
ENDBRANCH   8  13
ENDBRANCH   5   7
ENDBRANCH   2   5
BRANCH   1  15
ATOM     15  C   UNL d   1       0.030  -1.960  -3.022  0.00  0.00     0.072 A 
ATOM     16  C   UNL d   1       1.014  -2.058  -4.011  0.00  0.00     0.135 A 
ATOM     17  C   UNL d   1       0.817  -1.515  -5.280  0.00  0.00     0.085 A 
ATOM     18  F   UNL d   1       2.180  -2.672  -3.761  0.00  0.00    -0.205 F 
ATOM     19  C   UNL d   1      -0.380  -0.870  -5.563  0.00  0.00     0.119 A 
ATOM     20  C   UNL d   1      -1.375  -0.755  -4.599  0.00  0.00     0.043 A 
ATOM     21  F   UNL d   1      -0.578  -0.351  -6.781  0.00  0.00    -0.206 F 
ATOM     22  C   UNL d   1      -1.169  -1.293  -3.325  0.00  0.00     0.023 A 
ENDBRANCH   1  15
TORSDOF 4
