REMARK  8 active torsions:
REMARK  status: ('A' for Active; 'I' for Inactive)
REMARK    1  A    between atoms: C_7  and  C_3 
REMARK    2  A    between atoms: C_9  and  N_4 
REMARK    3  A    between atoms: C_18  and  C_6 
REMARK       I    between atoms: N_8  and  C_7 
REMARK    4  A    between atoms: C_13  and  N_8 
REMARK    5  A    between atoms: N_12  and  C_10 
REMARK    6  A    between atoms: C_19  and  N_12 
REMARK    7  A    between atoms: C_20  and  N_12 
REMARK    8  A    between atoms: C_23  and  C_18 
ROOT
ATOM      1  N   UNL d   1       0.890  -0.666  -0.256  0.00  0.00    -0.288 N 
ATOM      2  HN  UNL d   1       1.681  -1.246  -0.537  1.00  0.00     0.188 HD
ATOM      3  C   UNL d   1      -0.357  -1.068   0.038  0.00  0.00     0.118 A 
ATOM      4  N   UNL d   1       0.867   0.696  -0.097  0.00  0.00    -0.260 N 
ATOM      5  C   UNL d   1      -1.195   0.039   0.322  0.00  0.00     0.063 A 
ATOM      6  C   UNL d   1      -0.412   1.161   0.191  0.00  0.00     0.037 A 
ENDROOT
BRANCH   3   7
ATOM      7  C   UNL d   1      -0.838  -2.464   0.024  0.00  0.00     0.274 C 
ATOM      8  N   UNL d   1       0.144  -3.434   0.127  0.00  0.00    -0.322 N 
ATOM      9  H   UNL d   1       1.085  -3.094   0.305  0.00  0.00     0.169 HD
ATOM     10  O   UNL d   1      -2.046  -2.686  -0.013  0.00  0.00    -0.266 OA
BRANCH   8  11
ATOM     11  C   UNL d   1      -0.069  -4.833   0.053  0.00  0.00     0.035 A 
ATOM     12  C   UNL d   1      -1.250  -5.395  -0.440  0.00  0.00     0.032 A 
ATOM     13  C   UNL d   1      -1.394  -6.783  -0.584  0.00  0.00     0.031 A 
ATOM     14  C   UNL d   1      -0.366  -7.672  -0.262  0.00  0.00     0.030 A 
ATOM     15  C   UNL d   1       0.790  -7.095   0.294  0.00  0.00     0.031 A 
ATOM     16  C   UNL d   1       0.943  -5.703   0.444  0.00  0.00     0.032 A 
BRANCH  14  17
ATOM     17  N   UNL d   1      -0.467  -9.029  -0.538  0.00  0.00    -0.382 N 
BRANCH  17  18
ATOM     18  C   UNL d   1      -1.739  -9.745  -0.382  0.00  0.00     0.118 C 
ATOM     19  C   UNL d   1      -2.439  -9.991  -1.712  0.00  0.00     0.026 C 
ENDBRANCH  17  18
BRANCH  17  20
ATOM     20  C   UNL d   1       0.723  -9.817  -0.877  0.00  0.00     0.118 C 
ATOM     21  C   UNL d   1       1.360  -9.337  -2.177  0.00  0.00     0.026 C 
ENDBRANCH  17  20
ENDBRANCH  14  17
ENDBRANCH   8  11
ENDBRANCH   3   7
BRANCH   4  22
ATOM     22  C   UNL d   1       2.056   1.461  -0.238  0.00  0.00     0.056 A 
ATOM     23  C   UNL d   1       2.976   1.146  -1.246  0.00  0.00     0.031 A 
ATOM     24  C   UNL d   1       4.088   1.971  -1.446  0.00  0.00     0.002 A 
ATOM     25  C   UNL d   1       4.303   3.080  -0.625  0.00  0.00     0.000 A 
ATOM     26  C   UNL d   1       3.416   3.362   0.410  0.00  0.00     0.002 A 
ATOM     27  C   UNL d   1       2.298   2.553   0.606  0.00  0.00     0.031 A 
ENDBRANCH   4  22
BRANCH   6  28
ATOM     28  C   UNL d   1      -0.860   2.592   0.251  0.00  0.00     0.059 C 
BRANCH  28  29
ATOM     29  C   UNL d   1      -0.743   3.314  -1.094  0.00  0.00     0.002 C 
ATOM     30  C   UNL d   1      -1.131   4.781  -0.969  0.00  0.00     0.005 C 
ENDBRANCH  28  29
ENDBRANCH   6  28
TORSDOF 8
