REMARK  9 active torsions:
REMARK  status: ('A' for Active; 'I' for Inactive)
REMARK    1  A    between atoms: C_14  and  C_2 
REMARK    2  A    between atoms: S_10  and  C_5 
REMARK    3  A    between atoms: C_8  and  N_11 
REMARK    4  A    between atoms: N_15  and  C_8 
REMARK    5  A    between atoms: C_9  and  C_17 
REMARK       I    between atoms: N_12  and  C_9 
REMARK    6  A    between atoms: C_17  and  S_10 
REMARK    7  A    between atoms: N_11  and  N_12 
REMARK    8  A    between atoms: C_19  and  N_15 
REMARK    9  A    between atoms: C_20  and  C_19 
ROOT
ATOM      1  C   UNL d   1       2.667  -4.338  -0.058  0.00  0.00     0.245 C 
ATOM      2  N   UNL d   1       1.770  -5.380  -0.189  0.00  0.00    -0.267 N 
ATOM      3  O   UNL d   1       3.883  -4.548  -0.010  0.00  0.00    -0.271 OA
ATOM      4  H   UNL d   1       0.765  -5.253  -0.283  0.00  0.00     0.190 HD
ENDROOT
BRANCH   1   5
ATOM      5  C   UNL d   1       2.107  -2.926  -0.101  0.00  0.00     0.186 C 
BRANCH   5   6
ATOM      6  S   UNL d   1       0.525  -2.754   0.771  0.00  0.00    -0.083 SA
BRANCH   6   7
ATOM      7  C   UNL d   1       0.292  -1.039   0.668  0.00  0.00     0.163 A 
ATOM      8  N   UNL d   1      -0.794  -0.384   1.200  0.00  0.00    -0.315 N 
ATOM      9  C   UNL d   1      -0.572   0.962   0.976  0.00  0.00     0.134 A 
ATOM     10  C   UNL d   1      -1.941  -1.015   1.799  0.00  0.00     0.160 C 
ATOM     11  N   UNL d   1       0.545   1.074   0.274  0.00  0.00    -0.283 N 
ATOM     12  N   UNL d   1       1.090  -0.173   0.097  0.00  0.00    -0.278 N 
ATOM     13  HN  UNL d   1       0.937   1.947  -0.079  1.00  0.00     0.188 HD
ATOM     14  HN  UNL d   1       1.960  -0.386  -0.392  1.00  0.00     0.189 HD
BRANCH   9  15
ATOM     15  C   UNL d   1      -1.421   2.095   1.378  0.00  0.00     0.009 A 
ATOM     16  C   UNL d   1      -2.106   2.135   2.600  0.00  0.00     0.015 A 
ATOM     17  C   UNL d   1      -2.924   3.223   2.931  0.00  0.00     0.001 A 
ATOM     18  C   UNL d   1      -3.038   4.303   2.061  0.00  0.00     0.000 A 
ATOM     19  C   UNL d   1      -2.330   4.301   0.862  0.00  0.00     0.001 A 
ATOM     20  C   UNL d   1      -1.528   3.205   0.525  0.00  0.00     0.015 A 
ENDBRANCH   9  15
ENDBRANCH   6   7
ENDBRANCH   5   6
ENDBRANCH   1   5
BRANCH   2  21
ATOM     21  N   UNL d   1       2.301  -6.657  -0.410  0.00  0.00    -0.274 N 
ATOM     22  H   UNL d   1       3.287  -6.760  -0.171  0.00  0.00     0.189 HD
BRANCH  21  23
ATOM     23  C   UNL d   1       1.535  -7.754  -0.759  0.00  0.00     0.186 C 
ATOM     24  S   UNL d   1      -0.135  -7.745  -0.834  0.00  0.00    -0.040 SA
BRANCH  23  25
ATOM     25  N   UNL d   1       2.343  -8.841  -1.021  0.00  0.00    -0.362 N 
ATOM     26  H   UNL d   1       3.285  -8.618  -1.317  0.00  0.00     0.162 HD
BRANCH  25  27
ATOM     27  C   UNL d   1       1.919 -10.201  -1.325  0.00  0.00     0.160 C 
BRANCH  27  28
ATOM     28  C   UNL d   1       3.068 -11.168  -1.153  0.00  0.00    -0.041 A 
ATOM     29  C   UNL d   1       3.818 -11.174   0.035  0.00  0.00     0.009 A 
ATOM     30  C   UNL d   1       4.871 -12.073   0.211  0.00  0.00     0.001 A 
ATOM     31  C   UNL d   1       5.179 -12.988  -0.792  0.00  0.00     0.000 A 
ATOM     32  C   UNL d   1       4.436 -13.003  -1.971  0.00  0.00     0.001 A 
ATOM     33  C   UNL d   1       3.385 -12.099  -2.151  0.00  0.00     0.009 A 
ENDBRANCH  27  28
ENDBRANCH  25  27
ENDBRANCH  23  25
ENDBRANCH  21  23
ENDBRANCH   2  21
TORSDOF 9
