REMARK  10 active torsions:
REMARK  status: ('A' for Active; 'I' for Inactive)
REMARK    1  A    between atoms: C_4  and  C_1 
REMARK    2  A    between atoms: O_5  and  C_1 
REMARK    3  A    between atoms: C_2  and  C_3 
REMARK    4  A    between atoms: O_6  and  C_2 
REMARK    5  A    between atoms: C_16  and  O_5 
REMARK    6  A    between atoms: C_17  and  O_6 
REMARK    7  A    between atoms: S_7  and  C_14 
REMARK    8  A    between atoms: C_15  and  S_7 
REMARK    9  A    between atoms: C_22  and  C_16 
REMARK   10  A    between atoms: C_23  and  C_17 
ROOT
ATOM      1  S   UNL d   1      -2.388   3.963  -2.936  0.00  0.00    -0.091 SA
ENDROOT
BRANCH   1   2
ATOM      2  C   UNL d   1      -1.208   2.973  -2.040  0.00  0.00     0.005 A 
ATOM      3  C   UNL d   1      -0.244   3.570  -1.219  0.00  0.00     0.020 A 
ATOM      4  C   UNL d   1       0.627   2.782  -0.454  0.00  0.00     0.019 A 
ATOM      5  C   UNL d   1       0.537   1.384  -0.498  0.00  0.00     0.039 A 
ATOM      6  C   UNL d   1      -0.422   0.788  -1.330  0.00  0.00     0.019 A 
ATOM      7  C   UNL d   1      -1.292   1.578  -2.089  0.00  0.00     0.020 A 
BRANCH   5   8
ATOM      8  C   UNL d   1       1.403   0.494   0.329  0.00  0.00     0.293 C 
ATOM      9  O   UNL d   1       1.331  -0.724   0.291  0.00  0.00    -0.259 OA
BRANCH   8  10
ATOM     10  O   UNL d   1       2.221   1.226   1.119  0.00  0.00    -0.313 OA
BRANCH  10  11
ATOM     11  C   UNL d   1       3.067   0.488   2.011  0.00  0.00     0.217 C 
BRANCH  11  12
ATOM     12  C   UNL d   1       4.507   0.801   1.695  0.00  0.00    -0.034 A 
ATOM     13  C   UNL d   1       5.141   1.912   2.268  0.00  0.00     0.009 A 
ATOM     14  C   UNL d   1       6.476   2.195   1.973  0.00  0.00     0.001 A 
ATOM     15  C   UNL d   1       7.187   1.375   1.098  0.00  0.00     0.000 A 
ATOM     16  C   UNL d   1       6.562   0.277   0.511  0.00  0.00     0.001 A 
ATOM     17  C   UNL d   1       5.227  -0.008   0.804  0.00  0.00     0.009 A 
ENDBRANCH  11  12
ENDBRANCH  10  11
ENDBRANCH   8  10
ENDBRANCH   5   8
ENDBRANCH   1   2
BRANCH   1  18
ATOM     18  C   UNL d   1      -1.480   4.373  -4.415  0.00  0.00     0.005 A 
ATOM     19  C   UNL d   1      -1.189   3.410  -5.389  0.00  0.00     0.020 A 
ATOM     20  C   UNL d   1      -0.503   3.759  -6.567  0.00  0.00     0.019 A 
ATOM     21  C   UNL d   1      -0.104   5.084  -6.780  0.00  0.00     0.039 A 
ATOM     22  C   UNL d   1      -0.424   6.049  -5.810  0.00  0.00     0.019 A 
ATOM     23  C   UNL d   1      -1.108   5.699  -4.641  0.00  0.00     0.020 A 
BRANCH  21  24
ATOM     24  C   UNL d   1       0.587   5.564  -8.018  0.00  0.00     0.293 C 
ATOM     25  O   UNL d   1       0.862   6.742  -8.177  0.00  0.00    -0.259 OA
BRANCH  24  26
ATOM     26  O   UNL d   1       0.781   4.585  -8.936  0.00  0.00    -0.313 OA
BRANCH  26  27
ATOM     27  C   UNL d   1       0.917   5.067 -10.289  0.00  0.00     0.217 C 
BRANCH  27  28
ATOM     28  C   UNL d   1       2.282   4.935 -10.934  0.00  0.00    -0.034 A 
ATOM     29  C   UNL d   1       2.348   4.723 -12.326  0.00  0.00     0.009 A 
ATOM     30  C   UNL d   1       3.569   4.742 -13.005  0.00  0.00     0.001 A 
ATOM     31  C   UNL d   1       4.747   4.977 -12.305  0.00  0.00     0.000 A 
ATOM     32  C   UNL d   1       4.702   5.187 -10.926  0.00  0.00     0.001 A 
ATOM     33  C   UNL d   1       3.476   5.170 -10.244  0.00  0.00     0.009 A 
ENDBRANCH  27  28
ENDBRANCH  26  27
ENDBRANCH  24  26
ENDBRANCH  21  24
ENDBRANCH   1  18
TORSDOF 10
