REMARK  6 active torsions:
REMARK  status: ('A' for Active; 'I' for Inactive)
REMARK    1  A    between atoms: N_4  and  C_1 
REMARK    2  A    between atoms: C_3  and  N_2 
REMARK    3  A    between atoms: C_13  and  N_4 
REMARK    4  A    between atoms: C_19  and  N_4 
REMARK    5  A    between atoms: C_18  and  C_13 
REMARK    6  A    between atoms: C_17  and  C_19 
ROOT
ATOM      1  N   UNL d   1      -0.957   2.506  -3.231  0.00  0.00    -0.197 NA
ATOM      2  C   UNL d   1      -1.338   1.847  -2.357  0.00  0.00     0.060 C 
ATOM      3  C   UNL d   1      -1.821   0.991  -1.262  0.00  0.00     0.143 C 
ENDROOT
BRANCH   3   4
ATOM      4  C   UNL d   1      -1.222  -0.419  -1.338  0.00  0.00     0.139 C 
BRANCH   4   5
ATOM      5  N   UNL d   1       0.255  -0.466  -1.157  0.00  0.00    -0.353 N 
BRANCH   5   6
ATOM      6  C   UNL d   1       0.829  -0.431   0.094  0.00  0.00     0.170 C 
ATOM      7  N   UNL d   1       2.138  -0.159   0.290  0.00  0.00    -0.362 N 
ATOM      8  H   UNL d   1       2.351  -0.235   1.279  0.00  0.00     0.162 HD
ATOM      9  S   UNL d   1      -0.001  -0.699   1.538  0.00  0.00    -0.041 SA
BRANCH   7  10
ATOM     10  C   UNL d   1       3.229   0.436  -0.490  0.00  0.00     0.092 C 
ATOM     11  C   UNL d   1       2.906   1.746  -1.270  0.00  0.00     0.031 C 
ATOM     12  C   UNL d   1       2.342   2.773  -0.317  0.00  0.00    -0.024 C 
ATOM     13  C   UNL d   1       4.314   2.338  -1.436  0.00  0.00     0.019 C 
ATOM     14  C   UNL d   1       3.340   3.146   0.498  0.00  0.00    -0.026 C 
ATOM     15  C   UNL d   1       4.576   2.390   0.070  0.00  0.00     0.010 C 
ATOM     16  C   UNL d   1       4.401   0.904   0.446  0.00  0.00     0.034 C 
ENDBRANCH   7  10
ENDBRANCH   5   6
BRANCH   5  17
ATOM     17  C   UNL d   1       0.989  -0.796  -2.383  0.00  0.00     0.164 C 
BRANCH  17  18
ATOM     18  C   UNL d   1       0.813  -2.230  -2.822  0.00  0.00    -0.038 A 
ATOM     19  C   UNL d   1       0.293  -2.520  -4.085  0.00  0.00     0.025 A 
ATOM     20  C   UNL d   1       0.194  -3.849  -4.476  0.00  0.00     0.088 A 
ATOM     21  N   UNL d   1       0.575  -4.886  -3.703  0.00  0.00    -0.375 N 
ATOM     22  C   UNL d   1       1.079  -4.585  -2.487  0.00  0.00     0.088 A 
ATOM     23  HN  UNL d   1       0.488  -5.851  -4.022  1.00  0.00     0.164 HD
ATOM     24  C   UNL d   1       1.217  -3.293  -2.006  0.00  0.00     0.025 A 
ENDBRANCH  17  18
ENDBRANCH   5  17
ENDBRANCH   4   5
ENDBRANCH   3   4
TORSDOF 6
