REMARK  4 active torsions:
REMARK  status: ('A' for Active; 'I' for Inactive)
REMARK    1  A    between atoms: C_2  and  C_1 
REMARK       I    between atoms: N_5  and  C_1 
REMARK    2  A    between atoms: C_3  and  C_4 
REMARK    3  A    between atoms: O_11  and  C_3 
REMARK    4  A    between atoms: C_10  and  N_5 
ROOT
ATOM      1  C   UNL d   1       0.903   0.073   0.113  0.00  0.00     0.245 C 
ATOM      2  N   UNL d   1       0.156   0.590  -0.921  0.00  0.00    -0.322 N 
ATOM      3  O   UNL d   1       0.473  -0.411   1.155  0.00  0.00    -0.268 OA
ATOM      4  H   UNL d   1       0.631   0.840  -1.778  0.00  0.00     0.169 HD
ENDROOT
BRANCH   2   5
ATOM      5  C   UNL d   1      -1.243   0.794  -0.898  0.00  0.00     0.050 A 
ATOM      6  C   UNL d   1      -2.043   0.679   0.237  0.00  0.00     0.117 A 
ATOM      7  N   UNL d   1      -3.381   0.913   0.259  0.00  0.00    -0.373 N 
ATOM      8  C   UNL d   1      -3.954   1.268  -0.907  0.00  0.00     0.088 A 
ATOM      9  HN  UNL d   1      -3.925   0.824   1.117  1.00  0.00     0.164 HD
ATOM     10  C   UNL d   1      -3.253   1.405  -2.093  0.00  0.00     0.019 A 
ATOM     11  C   UNL d   1      -1.878   1.171  -2.084  0.00  0.00     0.032 A 
ENDBRANCH   2   5
BRANCH   1  12
ATOM     12  C   UNL d   1       2.364   0.138  -0.134  0.00  0.00     0.081 C 
ATOM     13  C   UNL d   1       3.189  -0.332   0.815  0.00  0.00     0.086 C 
BRANCH  13  14
ATOM     14  C   UNL d   1       4.641  -0.234   0.614  0.00  0.00     0.165 C 
ATOM     15  O   UNL d   1       5.164   0.230  -0.384  0.00  0.00    -0.647 OA
BRANCH  14  16
ATOM     16  O   UNL d   1       5.334  -0.711   1.666  0.00  0.00    -0.773 OA
ATOM     17  H   UNL d   1       4.800  -1.048   2.409  0.00  0.00     0.167 HD
ENDBRANCH  14  16
ENDBRANCH  13  14
ENDBRANCH   1  12
TORSDOF 4
