REMARK  6 active torsions:
REMARK  status: ('A' for Active; 'I' for Inactive)
REMARK       I    between atoms: N_2  and  C_1 
REMARK       I    between atoms: N_4  and  C_1 
REMARK    1  A    between atoms: C_11  and  N_2 
REMARK    2  A    between atoms: C_9  and  N_4 
REMARK    3  A    between atoms: C_20  and  N_4 
REMARK    4  A    between atoms: C_10  and  C_9 
REMARK    5  A    between atoms: C_12  and  C_10 
REMARK    6  A    between atoms: C_13  and  C_20 
ROOT
ATOM      1  N   UNL d   1      -4.431   1.370   1.202  0.00  0.00    -0.197 NA
ATOM      2  C   UNL d   1      -3.276   1.266   1.285  0.00  0.00     0.060 C 
ATOM      3  C   UNL d   1      -1.819   1.134   1.374  0.00  0.00     0.144 C 
ENDROOT
BRANCH   3   4
ATOM      4  C   UNL d   1      -1.197   1.172  -0.025  0.00  0.00     0.141 C 
BRANCH   4   5
ATOM      5  N   UNL d   1       0.270   1.086   0.010  0.00  0.00    -0.333 N 
ATOM      6  C   UNL d   1       1.006  -0.093   0.106  0.00  0.00     0.322 C 
ATOM      7  N   UNL d   1       0.358  -1.218  -0.355  0.00  0.00    -0.309 N 
ATOM      8  O   UNL d   1       2.168  -0.084   0.510  0.00  0.00    -0.247 OA
ATOM      9  H   UNL d   1      -0.301  -1.038  -1.097  0.00  0.00     0.170 HD
BRANCH   7  10
ATOM     10  C   UNL d   1       0.932  -2.510  -0.355  0.00  0.00     0.036 A 
ATOM     11  C   UNL d   1       1.835  -2.935   0.626  0.00  0.00     0.032 A 
ATOM     12  C   UNL d   1       2.417  -4.203   0.548  0.00  0.00     0.044 A 
ATOM     13  C   UNL d   1       2.094  -5.040  -0.511  0.00  0.00     0.116 A 
ATOM     14  C   UNL d   1       1.179  -4.646  -1.478  0.00  0.00     0.044 A 
ATOM     15  F   UNL d   1       2.674  -6.244  -0.602  0.00  0.00    -0.206 F 
ATOM     16  C   UNL d   1       0.582  -3.385  -1.391  0.00  0.00     0.032 A 
ENDBRANCH   7  10
BRANCH   5  17
ATOM     17  C   UNL d   1       1.002   2.344   0.228  0.00  0.00     0.133 C 
BRANCH  17  18
ATOM     18  C   UNL d   1       1.986   2.679  -0.903  0.00  0.00     0.077 C 
BRANCH  18  19
ATOM     19  C   UNL d   1       1.317   2.931  -2.232  0.00  0.00     0.010 A 
ATOM     20  N   UNL d   1       0.352   3.883  -2.272  0.00  0.00    -0.369 N 
ATOM     21  C   UNL d   1      -0.192   4.165  -3.477  0.00  0.00     0.088 A 
ATOM     22  HN  UNL d   1       0.048   4.366  -1.426  1.00  0.00     0.165 HD
ATOM     23  C   UNL d   1       0.176   3.542  -4.657  0.00  0.00     0.017 A 
ATOM     24  C   UNL d   1       1.163   2.567  -4.601  0.00  0.00     0.003 A 
ATOM     25  C   UNL d   1       1.746   2.256  -3.375  0.00  0.00     0.025 A 
ENDBRANCH  18  19
ENDBRANCH  17  18
ENDBRANCH   5  17
ENDBRANCH   4   5
ENDBRANCH   3   4
TORSDOF 6
