REMARK  4 active torsions:
REMARK  status: ('A' for Active; 'I' for Inactive)
REMARK    1  A    between atoms: C_10  and  N_1 
REMARK    2  A    between atoms: C_3  and  C_7 
REMARK    3  A    between atoms: C_8  and  C_10 
REMARK       I    between atoms: N_12  and  C_8 
REMARK    4  A    between atoms: C_20  and  N_12 
ROOT
ATOM      1  N   UNL d   1       0.360   1.338  -0.259  0.00  0.00    -0.307 N 
ATOM      2  C   UNL d   1      -1.013   0.943  -0.075  0.00  0.00     0.055 A 
ATOM      3  C   UNL d   1       1.429   0.486   0.021  0.00  0.00     0.234 C 
ATOM      4  C   UNL d   1      -2.058   1.881  -0.141  0.00  0.00     0.047 A 
ATOM      5  S   UNL d   1      -0.144  -1.700   0.323  0.00  0.00    -0.118 SA
ATOM      6  C   UNL d   1      -3.410   1.495  -0.060  0.00  0.00     0.050 A 
ATOM      7  C   UNL d   1      -1.361  -0.412   0.123  0.00  0.00     0.028 A 
ATOM      8  C   UNL d   1       1.152  -0.647   0.984  0.00  0.00     0.182 C 
ATOM      9  O   UNL d   1       2.572   0.695  -0.396  0.00  0.00    -0.272 OA
ATOM     10  C   UNL d   1      -3.723   0.138   0.059  0.00  0.00     0.017 A 
ATOM     11  C   UNL d   1      -2.706  -0.807   0.160  0.00  0.00     0.021 A 
ENDROOT
BRANCH   1  12
ATOM     12  C   UNL d   1       0.695   2.662  -0.790  0.00  0.00     0.235 C 
BRANCH  12  13
ATOM     13  C   UNL d   1       0.167   2.987  -2.189  0.00  0.00     0.240 C 
ATOM     14  N   UNL d   1       0.776   2.283  -3.216  0.00  0.00    -0.326 N 
ATOM     15  H   UNL d   1       1.362   1.498  -2.949  0.00  0.00     0.169 HD
ATOM     16  O   UNL d   1      -0.705   3.844  -2.322  0.00  0.00    -0.271 OA
BRANCH  14  17
ATOM     17  C   UNL d   1       0.644   2.548  -4.599  0.00  0.00     0.034 A 
ATOM     18  C   UNL d   1      -0.002   3.682  -5.110  0.00  0.00     0.031 A 
ATOM     19  C   UNL d   1      -0.063   3.917  -6.489  0.00  0.00     0.026 A 
ATOM     20  C   UNL d   1       0.521   3.016  -7.370  0.00  0.00     0.034 A 
ATOM     21  C   UNL d   1       1.166   1.882  -6.883  0.00  0.00     0.026 A 
ATOM     22 CL   UNL d   1       0.454   3.310  -9.063  0.00  0.00    -0.084 Cl
ATOM     23  C   UNL d   1       1.232   1.653  -5.500  0.00  0.00     0.031 A 
ENDBRANCH  14  17
ENDBRANCH  12  13
ENDBRANCH   1  12
BRANCH   6  24
ATOM     24  C   UNL d   1      -4.521   2.519  -0.110  0.00  0.00     0.417 C 
ATOM     25  F   UNL d   1      -4.088   3.800   0.046  0.00  0.00    -0.166 F 
ATOM     26  F   UNL d   1      -5.209   2.488  -1.282  0.00  0.00    -0.166 F 
ATOM     27  F   UNL d   1      -5.445   2.320   0.872  0.00  0.00    -0.166 F 
ENDBRANCH   6  24
TORSDOF 4
