REMARK  5 active torsions:
REMARK  status: ('A' for Active; 'I' for Inactive)
REMARK    1  A    between atoms: C_5  and  C_1 
REMARK    2  A    between atoms: C_7  and  C_2 
REMARK       I    between atoms: N_9  and  C_7 
REMARK    3  A    between atoms: N_10  and  N_9 
REMARK    4  A    between atoms: C_13  and  N_10 
REMARK    5  A    between atoms: C_22  and  C_15 
ROOT
ATOM      1  C   UNL d   1      -1.242  -0.469  -0.550  0.00  0.00     0.088 A 
ATOM      2  C   UNL d   1      -0.192  -1.357  -0.077  0.00  0.00     0.094 A 
ATOM      3  N   UNL d   1      -1.099   0.730   0.042  0.00  0.00    -0.259 N 
ATOM      4  HN  UNL d   1      -1.664   1.559  -0.142  1.00  0.00     0.195 HD
ATOM      5  O   UNL d   1      -0.075   0.648   0.925  0.00  0.00    -0.241 OA
ATOM      6  C   UNL d   1       0.479  -0.577   0.864  0.00  0.00     0.090 A 
ATOM      7  C   UNL d   1       1.624  -0.752   1.780  0.00  0.00     0.080 C 
ENDROOT
BRANCH   2   8
ATOM      8  C   UNL d   1       0.270  -2.712  -0.418  0.00  0.00     0.275 C 
ATOM      9  N   UNL d   1      -0.683  -3.673  -0.707  0.00  0.00    -0.265 N 
ATOM     10  H   UNL d   1      -1.672  -3.473  -0.806  0.00  0.00     0.190 HD
ATOM     11  O   UNL d   1       1.475  -2.968  -0.398  0.00  0.00    -0.266 OA
BRANCH   9  12
ATOM     12  N   UNL d   1      -0.241  -4.958  -1.143  0.00  0.00    -0.297 N 
ATOM     13  H   UNL d   1       0.027  -4.982  -2.125  0.00  0.00     0.187 HD
BRANCH  12  14
ATOM     14  C   UNL d   1      -0.998  -6.065  -0.682  0.00  0.00     0.054 A 
ATOM     15  C   UNL d   1      -1.089  -7.284  -1.396  0.00  0.00    -0.030 A 
ATOM     16  C   UNL d   1      -1.812  -8.365  -0.838  0.00  0.00     0.009 A 
ATOM     17  C   UNL d   1      -2.417  -8.267   0.411  0.00  0.00     0.001 A 
ATOM     18  C   UNL d   1      -2.295  -7.089   1.135  0.00  0.00     0.002 A 
ATOM     19  C   UNL d   1      -1.583  -6.016   0.598  0.00  0.00     0.031 A 
BRANCH  15  20
ATOM     20  C   UNL d   1      -0.458  -7.554  -2.749  0.00  0.00     0.036 C 
ATOM     21  C   UNL d   1       0.867  -8.304  -2.651  0.00  0.00     0.010 C 
ENDBRANCH  15  20
ENDBRANCH  12  14
ENDBRANCH   9  12
ENDBRANCH   2   8
BRANCH   1  22
ATOM     22  C   UNL d   1      -2.307  -0.578  -1.569  0.00  0.00     0.054 A 
ATOM     23  C   UNL d   1      -2.151  -1.419  -2.678  0.00  0.00     0.130 A 
ATOM     24  F   UNL d   1      -1.050  -2.163  -2.825  0.00  0.00    -0.205 F 
ATOM     25  C   UNL d   1      -3.105  -1.503  -3.699  0.00  0.00     0.043 A 
ATOM     26  C   UNL d   1      -4.234  -0.699  -3.668  0.00  0.00     0.005 A 
ATOM     27  C   UNL d   1      -4.418   0.170  -2.600  0.00  0.00     0.025 A 
ATOM     28  C   UNL d   1      -3.486   0.219  -1.548  0.00  0.00     0.049 A 
ATOM     29 CL   UNL d   1      -3.927   1.304  -0.266  0.00  0.00    -0.083 Cl
ENDBRANCH   1  22
TORSDOF 5
