REMARK  4 active torsions:
REMARK  status: ('A' for Active; 'I' for Inactive)
REMARK    1  A    between atoms: C_9  and  C_1 
REMARK    2  A    between atoms: S_11  and  C_5 
REMARK    3  A    between atoms: C_8  and  C_10 
REMARK    4  A    between atoms: C_10  and  S_11 
ROOT
ATOM      1  C   UNL d   1       0.012   1.188   0.003  0.00  0.00     0.119 A 
ATOM      2  S   UNL d   1       1.206   0.006  -0.386  0.00  0.00    -0.043 SA
ATOM      3  N   UNL d   1      -1.176   0.664   0.244  0.00  0.00    -0.290 N 
ATOM      4  HN  UNL d   1      -1.993   1.212   0.512  1.00  0.00     0.187 HD
ATOM      5  C   UNL d   1      -0.014  -1.188  -0.246  0.00  0.00     0.129 A 
ATOM      6  N   UNL d   1      -1.190  -0.708   0.093  0.00  0.00    -0.287 N 
ATOM      7  HN  UNL d   1      -2.021  -1.284   0.230  1.00  0.00     0.188 HD
ENDROOT
BRANCH   5   8
ATOM      8  S   UNL d   1       0.164  -2.893  -0.601  0.00  0.00    -0.099 SA
BRANCH   8   9
ATOM      9  C   UNL d   1       1.869  -3.244  -0.091  0.00  0.00     0.123 C 
BRANCH   9  10
ATOM     10  C   UNL d   1       2.191  -4.718  -0.216  0.00  0.00    -0.005 A 
ATOM     11  C   UNL d   1       2.728  -5.256  -1.403  0.00  0.00     0.042 A 
ATOM     12 CL   UNL d   1       3.059  -4.274  -2.790  0.00  0.00    -0.084 Cl
ATOM     13  C   UNL d   1       3.018  -6.622  -1.517  0.00  0.00     0.024 A 
ATOM     14  C   UNL d   1       2.768  -7.485  -0.456  0.00  0.00     0.003 A 
ATOM     15  C   UNL d   1       2.221  -6.982   0.721  0.00  0.00     0.024 A 
ATOM     16  C   UNL d   1       1.932  -5.617   0.840  0.00  0.00     0.042 A 
ATOM     17 CL   UNL d   1       1.243  -5.097   2.340  0.00  0.00    -0.084 Cl
ENDBRANCH   9  10
ENDBRANCH   8   9
ENDBRANCH   5   8
BRANCH   1  18
ATOM     18  C   UNL d   1       0.308   2.622   0.023  0.00  0.00     0.083 A 
ATOM     19  N   UNL d   1       1.603   3.014  -0.131  0.00  0.00    -0.361 N 
ATOM     20  C   UNL d   1       1.820   4.352  -0.126  0.00  0.00     0.105 A 
ATOM     21  HN  UNL d   1       2.363   2.343  -0.244  1.00  0.00     0.165 HD
ATOM     22  C   UNL d   1       0.797   5.273   0.023  0.00  0.00     0.104 A 
ATOM     23  N   UNL d   1      -0.491   4.900   0.179  0.00  0.00    -0.372 N 
ATOM     24  C   UNL d   1      -0.710   3.559   0.177  0.00  0.00     0.120 A 
ATOM     25  HN  UNL d   1      -1.246   5.577   0.292  1.00  0.00     0.164 HD
ENDBRANCH   1  18
TORSDOF 4
