REMARK  6 active torsions:
REMARK  status: ('A' for Active; 'I' for Inactive)
REMARK    1  A    between atoms: S_10  and  C_2 
REMARK    2  A    between atoms: C_14  and  C_7 
REMARK    3  A    between atoms: C_8  and  C_16 
REMARK       I    between atoms: N_9  and  C_8 
REMARK    4  A    between atoms: C_15  and  N_9 
REMARK    5  A    between atoms: S_12  and  C_14 
REMARK    6  A    between atoms: C_16  and  S_12 
ROOT
ATOM      1  S   UNL d   1      -3.566  -1.298  -1.216  0.00  0.00    -0.152 SA
ENDROOT
BRANCH   1   2
ATOM      2  C   UNL d   1      -4.037  -1.876  -2.879  0.00  0.00     0.152 C 
BRANCH   2   3
ATOM      3  C   UNL d   1      -5.200  -1.116  -3.409  0.00  0.00     0.109 A 
ATOM      4  N   UNL d   1      -6.462  -1.472  -3.241  0.00  0.00    -0.286 N 
ATOM      5  N   UNL d   1      -7.258  -0.514  -3.808  0.00  0.00    -0.279 N 
ATOM      6  HN  UNL d   1      -6.787  -2.316  -2.769  1.00  0.00     0.188 HD
ATOM      7  C   UNL d   1      -6.478   0.412  -4.310  0.00  0.00     0.159 A 
ATOM      8  HN  UNL d   1      -8.278  -0.520  -3.836  1.00  0.00     0.189 HD
ATOM      9  N   UNL d   1      -5.165   0.075  -4.100  0.00  0.00    -0.319 N 
ATOM     10  C   UNL d   1      -4.006   0.827  -4.513  0.00  0.00     0.159 C 
BRANCH   7  11
ATOM     11  S   UNL d   1      -7.030   1.841  -5.109  0.00  0.00    -0.105 SA
ATOM     12  H   UNL d   1      -5.953   2.622  -4.968  0.00  0.00     0.110 HD
ENDBRANCH   7  11
ENDBRANCH   2   3
ENDBRANCH   1   2
BRANCH   1  13
ATOM     13  C   UNL d   1      -5.114  -1.622  -0.293  0.00  0.00     0.177 C 
BRANCH  13  14
ATOM     14  C   UNL d   1      -5.502  -3.097  -0.278  0.00  0.00     0.231 C 
ATOM     15  N   UNL d   1      -6.795  -3.328  -0.730  0.00  0.00    -0.327 N 
ATOM     16  H   UNL d   1      -7.277  -2.546  -1.166  0.00  0.00     0.169 HD
ATOM     17  O   UNL d   1      -4.720  -3.953   0.130  0.00  0.00    -0.272 OA
BRANCH  15  18
ATOM     18  C   UNL d   1      -7.486  -4.562  -0.772  0.00  0.00     0.034 A 
ATOM     19  C   UNL d   1      -6.966  -5.766  -0.292  0.00  0.00     0.029 A 
ATOM     20  C   UNL d   1      -7.704  -6.952  -0.394  0.00  0.00     0.002 A 
ATOM     21  C   UNL d   1      -8.973  -6.943  -0.967  0.00  0.00     0.000 A 
ATOM     22  C   UNL d   1      -9.511  -5.747  -1.430  0.00  0.00     0.002 A 
ATOM     23  C   UNL d   1      -8.771  -4.562  -1.332  0.00  0.00     0.029 A 
ENDBRANCH  15  18
ENDBRANCH  13  14
ENDBRANCH   1  13
TORSDOF 6
