REMARK  6 active torsions:
REMARK  status: ('A' for Active; 'I' for Inactive)
REMARK    1  A    between atoms: N_2  and  S_1 
REMARK    2  A    between atoms: C_5  and  S_1 
REMARK    3  A    between atoms: N_3  and  N_2 
REMARK    4  A    between atoms: C_4  and  N_3 
REMARK    5  A    between atoms: N_10  and  C_4 
REMARK    6  A    between atoms: C_13  and  N_10 
ROOT
ATOM      1  N   UNL d   1       0.694  -1.096  -2.290  0.00  0.00    -0.266 N 
ATOM      2  H   UNL d   1       0.548  -1.261  -1.293  0.00  0.00     0.190 HD
ENDROOT
BRANCH   1   3
ATOM      3  N   UNL d   1       1.239   0.192  -2.653  0.00  0.00    -0.221 N 
ATOM      4  H   UNL d   1       1.458   0.404  -3.629  0.00  0.00     0.200 HD
BRANCH   3   5
ATOM      5  S   UNL d   1       1.668   1.268  -1.426  0.00  0.00     0.276 S 
ATOM      6  O   UNL d   1       2.997   0.905  -0.973  0.00  0.00    -0.199 OA
ATOM      7  O   UNL d   1       0.562   1.333  -0.496  0.00  0.00    -0.199 OA
BRANCH   5   8
ATOM      8  C   UNL d   1       1.784   2.815  -2.284  0.00  0.00     0.081 A 
ATOM      9  C   UNL d   1       0.678   3.670  -2.312  0.00  0.00     0.026 A 
ATOM     10  C   UNL d   1       0.794   4.930  -2.902  0.00  0.00     0.008 A 
ATOM     11  C   UNL d   1       2.012   5.347  -3.457  0.00  0.00    -0.062 A 
ATOM     12  C   UNL d   1       3.111   4.477  -3.430  0.00  0.00     0.008 A 
ATOM     13  C   UNL d   1       2.126   6.718  -4.060  0.00  0.00     0.048 C 
ATOM     14  C   UNL d   1       3.002   3.215  -2.838  0.00  0.00     0.026 A 
ENDBRANCH   5   8
ENDBRANCH   3   5
ENDBRANCH   1   3
BRANCH   1  15
ATOM     15  C   UNL d   1       0.503  -2.112  -3.196  0.00  0.00     0.191 C 
ATOM     16  S   UNL d   1       1.097  -2.103  -4.760  0.00  0.00    -0.039 SA
BRANCH  15  17
ATOM     17  N   UNL d   1      -0.157  -3.227  -2.736  0.00  0.00    -0.332 N 
ATOM     18  H   UNL d   1       0.023  -4.075  -3.264  0.00  0.00     0.168 HD
BRANCH  17  19
ATOM     19  C   UNL d   1      -1.046  -3.324  -1.647  0.00  0.00     0.037 A 
ATOM     20  C   UNL d   1      -1.783  -2.226  -1.194  0.00  0.00     0.069 A 
ATOM     21  C   UNL d   1      -2.551  -2.327  -0.038  0.00  0.00     0.104 A 
ATOM     22  O   UNL d   1      -3.183  -1.184   0.375  0.00  0.00    -0.346 OA
ATOM     23  C   UNL d   1      -2.634  -3.538   0.648  0.00  0.00     0.102 A 
ATOM     24  C   UNL d   1      -3.431  -1.239   1.781  0.00  0.00     0.202 C 
ATOM     25  C   UNL d   1      -4.116  -2.546   2.150  0.00  0.00     0.202 C 
ATOM     26  O   UNL d   1      -3.311  -3.689   1.828  0.00  0.00    -0.346 OA
ATOM     27  C   UNL d   1      -1.978  -4.661   0.146  0.00  0.00     0.042 A 
ATOM     28  C   UNL d   1      -1.200  -4.560  -1.013  0.00  0.00     0.032 A 
ENDBRANCH  17  19
ENDBRANCH  15  17
ENDBRANCH   1  15
TORSDOF 6
