REMARK  4 active torsions:
REMARK  status: ('A' for Active; 'I' for Inactive)
REMARK    1  A    between atoms: C_6  and  C_1 
REMARK    2  A    between atoms: O_10  and  C_2 
REMARK    3  A    between atoms: O_11  and  C_6 
REMARK    4  A    between atoms: C_14  and  O_11 
ROOT
ATOM      1  C   UNL d   1      -0.673   1.312  -0.068  0.00  0.00     0.096 A 
ATOM      2  C   UNL d   1      -1.345   0.088  -0.078  0.00  0.00     0.157 A 
ATOM      3  N   UNL d   1      -0.727  -1.111  -0.067  0.00  0.00    -0.340 N 
ATOM      4  HN  UNL d   1      -1.262  -1.980  -0.082  1.00  0.00     0.167 HD
ATOM      5  C   UNL d   1       0.734   1.292  -0.025  0.00  0.00    -0.040 A 
ATOM      6  C   UNL d   1       1.377   0.044  -0.016  0.00  0.00     0.032 A 
ATOM      7  C   UNL d   1       0.623  -1.124  -0.035  0.00  0.00     0.008 A 
ATOM      8  C   UNL d   1       1.610   2.513   0.022  0.00  0.00     0.049 C 
ATOM      9  C   UNL d   1       1.285  -2.468  -0.007  0.00  0.00     0.068 C 
ENDROOT
BRANCH   1  10
ATOM     10  C   UNL d   1      -1.417   2.586  -0.092  0.00  0.00     0.298 C 
ATOM     11  O   UNL d   1      -1.076   3.594  -0.686  0.00  0.00    -0.259 OA
BRANCH  10  12
ATOM     12  O   UNL d   1      -2.477   2.476   0.757  0.00  0.00    -0.318 OA
BRANCH  12  13
ATOM     13  C   UNL d   1      -3.044   3.717   1.209  0.00  0.00     0.174 C 
ATOM     14  C   UNL d   1      -2.419   4.050   2.551  0.00  0.00     0.034 C 
ENDBRANCH  12  13
ENDBRANCH  10  12
ENDBRANCH   1  10
BRANCH   2  15
ATOM     15  O   UNL d   1      -2.707  -0.024  -0.103  0.00  0.00    -0.345 OA
ATOM     16  H   UNL d   1      -3.082   0.822   0.195  0.00  0.00     0.219 HD
ENDBRANCH   2  15
TORSDOF 4
