REMARK  6 active torsions:
REMARK  status: ('A' for Active; 'I' for Inactive)
REMARK    1  A    between atoms: C_2  and  S_1 
REMARK    2  A    between atoms: C_13  and  S_1 
REMARK    3  A    between atoms: C_3  and  C_5 
REMARK    4  A    between atoms: C_4  and  C_6 
REMARK    5  A    between atoms: N_14  and  C_7 
REMARK    6  A    between atoms: C_15  and  N_14 
ROOT
ATOM      1  C   UNL d   1       0.519  -0.783  -1.369  0.00  0.00     0.159 C 
ATOM      2  C   UNL d   1      -0.218  -1.895  -1.207  0.00  0.00     0.123 C 
ATOM      3  C   UNL d   1       0.954   0.024  -0.299  0.00  0.00     0.113 C 
ATOM      4  N   UNL d   1       1.306   0.660   0.609  0.00  0.00    -0.191 NA
ENDROOT
BRANCH   1   5
ATOM      5  S   UNL d   1       0.887  -0.255  -2.979  0.00  0.00     0.218 S 
ATOM      6  O   UNL d   1       0.269   1.038  -3.206  0.00  0.00    -0.216 OA
ATOM      7  O   UNL d   1       0.656  -1.334  -3.927  0.00  0.00    -0.216 OA
BRANCH   5   8
ATOM      8  C   UNL d   1       2.651   0.003  -2.956  0.00  0.00     0.065 A 
ATOM      9  C   UNL d   1       3.506  -1.068  -3.241  0.00  0.00     0.024 A 
ATOM     10  C   UNL d   1       4.881  -0.847  -3.310  0.00  0.00     0.002 A 
ATOM     11  C   UNL d   1       5.395   0.434  -3.104  0.00  0.00     0.000 A 
ATOM     12  C   UNL d   1       4.537   1.500  -2.823  0.00  0.00     0.002 A 
ATOM     13  C   UNL d   1       3.161   1.290  -2.754  0.00  0.00     0.024 A 
ENDBRANCH   5   8
ENDBRANCH   1   5
BRANCH   2  14
ATOM     14  N   UNL d   1      -0.698  -2.471  -0.048  0.00  0.00    -0.364 N 
ATOM     15  H   UNL d   1      -0.608  -1.940   0.817  0.00  0.00     0.165 HD
BRANCH  14  16
ATOM     16  C   UNL d   1      -1.455  -3.654   0.042  0.00  0.00     0.033 A 
ATOM     17  C   UNL d   1      -1.329  -4.697  -0.886  0.00  0.00     0.045 A 
ATOM     18  C   UNL d   1      -2.165  -5.825  -0.845  0.00  0.00     0.050 A 
ATOM     19  C   UNL d   1      -3.159  -5.896   0.139  0.00  0.00     0.032 A 
ATOM     20  C   UNL d   1      -3.333  -4.853   1.059  0.00  0.00     0.050 A 
ATOM     21  C   UNL d   1      -2.460  -3.750   1.014  0.00  0.00     0.045 A 
BRANCH  18  22
ATOM     22  C   UNL d   1      -2.011  -6.913  -1.881  0.00  0.00     0.417 C 
ATOM     23  F   UNL d   1      -2.905  -7.930  -1.735  0.00  0.00    -0.166 F 
ATOM     24  F   UNL d   1      -2.181  -6.445  -3.147  0.00  0.00    -0.166 F 
ATOM     25  F   UNL d   1      -0.779  -7.489  -1.854  0.00  0.00    -0.166 F 
ENDBRANCH  18  22
BRANCH  20  26
ATOM     26  C   UNL d   1      -4.478  -4.871   2.044  0.00  0.00     0.417 C 
ATOM     27  F   UNL d   1      -5.284  -5.962   1.915  0.00  0.00    -0.166 F 
ATOM     28  F   UNL d   1      -4.060  -4.863   3.338  0.00  0.00    -0.166 F 
ATOM     29  F   UNL d   1      -5.292  -3.789   1.903  0.00  0.00    -0.166 F 
ENDBRANCH  20  26
ENDBRANCH  14  16
ENDBRANCH   2  14
TORSDOF 6
