REMARK  5 active torsions:
REMARK  status: ('A' for Active; 'I' for Inactive)
REMARK    1  A    between atoms: C_7  and  C_2 
REMARK    2  A    between atoms: C_11  and  N_3 
REMARK       I    between atoms: N_9  and  C_7 
REMARK    3  A    between atoms: C_8  and  N_10 
REMARK    4  A    between atoms: N_15  and  C_8 
REMARK    5  A    between atoms: N_10  and  N_9 
ROOT
ATOM      1  C   UNL d   1       1.119  -0.817  -0.066  0.00  0.00     0.138 C 
ATOM      2  C   UNL d   1      -0.191  -1.270  -0.050  0.00  0.00     0.095 C 
ATOM      3  N   UNL d   1       1.048   0.579   0.088  0.00  0.00    -0.240 N 
ATOM      4  N   UNL d   1      -0.228   0.987   0.327  0.00  0.00    -0.302 N 
ATOM      5  HN  UNL d   1      -0.548   1.921   0.582  1.00  0.00     0.186 HD
ATOM      6  C   UNL d   1      -0.963  -0.109   0.153  0.00  0.00     0.128 C 
ATOM      7  N   UNL d   1       2.279  -1.527  -0.144  0.00  0.00    -0.383 N 
ATOM      8  H   UNL d   1       2.337  -2.379  -0.702  0.00  0.00     0.157 HD
ATOM      9  H   UNL d   1       3.187  -1.083  -0.022  0.00  0.00     0.157 HD
ENDROOT
BRANCH   2  10
ATOM     10  C   UNL d   1      -0.705  -2.618  -0.152  0.00  0.00     0.275 C 
ATOM     11  N   UNL d   1       0.199  -3.617   0.164  0.00  0.00    -0.263 N 
ATOM     12  H   UNL d   1       1.067  -3.393   0.651  0.00  0.00     0.190 HD
ATOM     13  O   UNL d   1      -1.870  -2.865  -0.457  0.00  0.00    -0.266 OA
BRANCH  11  14
ATOM     14  N   UNL d   1      -0.262  -4.938   0.223  0.00  0.00    -0.274 N 
ATOM     15  H   UNL d   1      -1.230  -5.070  -0.063  0.00  0.00     0.189 HD
BRANCH  14  16
ATOM     16  C   UNL d   1       0.486  -5.957   0.788  0.00  0.00     0.186 C 
ATOM     17  S   UNL d   1       2.014  -5.728   1.434  0.00  0.00    -0.040 SA
BRANCH  16  18
ATOM     18  N   UNL d   1      -0.183  -7.161   0.714  0.00  0.00    -0.370 N 
ATOM     19  C   UNL d   1       0.279  -8.463   1.160  0.00  0.00     0.148 C 
ATOM     20  H   UNL d   1      -1.117  -7.142   0.329  0.00  0.00     0.161 HD
ENDBRANCH  16  18
ENDBRANCH  14  16
ENDBRANCH  11  14
ENDBRANCH   2  10
BRANCH   3  21
ATOM     21  C   UNL d   1       2.089   1.547   0.002  0.00  0.00     0.058 A 
ATOM     22  C   UNL d   1       3.211   1.339  -0.810  0.00  0.00     0.031 A 
ATOM     23  C   UNL d   1       4.235   2.288  -0.845  0.00  0.00     0.002 A 
ATOM     24  C   UNL d   1       4.141   3.447  -0.077  0.00  0.00     0.000 A 
ATOM     25  C   UNL d   1       3.008   3.679   0.701  0.00  0.00     0.002 A 
ATOM     26  C   UNL d   1       1.973   2.741   0.727  0.00  0.00     0.031 A 
ENDBRANCH   3  21
TORSDOF 5
