REMARK  4 active torsions:
REMARK  status: ('A' for Active; 'I' for Inactive)
REMARK    1  A    between atoms: C_8  and  N_1 
REMARK    2  A    between atoms: S_12  and  C_5 
REMARK    3  A    between atoms: C_19  and  S_12 
REMARK    4  A    between atoms: C_14  and  C_19 
ROOT
ATOM      1  N   UNL d   1      -0.339  -1.312   0.026  0.00  0.00    -0.273 N 
ATOM      2  C   UNL d   1       0.909  -0.687   0.080  0.00  0.00     0.163 A 
ATOM      3  N   UNL d   1       0.755   0.621   0.142  0.00  0.00    -0.281 N 
ATOM      4  HN  UNL d   1       1.504   1.308   0.240  1.00  0.00     0.188 HD
ATOM      5  C   UNL d   1      -1.229  -0.242  -0.032  0.00  0.00     0.168 A 
ATOM      6  N   UNL d   1      -0.579   0.898   0.051  0.00  0.00    -0.278 N 
ATOM      7  HN  UNL d   1      -0.998   1.828   0.048  1.00  0.00     0.189 HD
ATOM      8  C   UNL d   1       2.198  -1.309  -0.003  0.00  0.00     0.120 A 
ATOM      9  O   UNL d   1       2.442  -2.452  -0.726  0.00  0.00    -0.319 OA
ATOM     10  C   UNL d   1       3.385  -0.908   0.589  0.00  0.00     0.043 A 
ATOM     11  C   UNL d   1       3.745  -2.784  -0.558  0.00  0.00     0.142 A 
ATOM     12  C   UNL d   1       4.371  -1.869   0.251  0.00  0.00     0.027 A 
ENDROOT
BRANCH   1  13
ATOM     13  C   UNL d   1      -0.603  -2.716   0.077  0.00  0.00     0.046 A 
ATOM     14  C   UNL d   1      -1.654  -3.284  -0.653  0.00  0.00     0.069 A 
ATOM     15  C   UNL d   1      -1.867  -4.666  -0.612  0.00  0.00     0.104 A 
ATOM     16  O   UNL d   1      -2.930  -5.144  -1.337  0.00  0.00    -0.346 OA
ATOM     17  C   UNL d   1      -1.012  -5.494   0.121  0.00  0.00     0.102 A 
ATOM     18  C   UNL d   1      -3.252  -6.488  -0.957  0.00  0.00     0.202 C 
ATOM     19  C   UNL d   1      -1.992  -7.335  -0.884  0.00  0.00     0.202 C 
ATOM     20  O   UNL d   1      -1.129  -6.860   0.155  0.00  0.00    -0.346 OA
ATOM     21  C   UNL d   1       0.017  -4.937   0.869  0.00  0.00     0.042 A 
ATOM     22  C   UNL d   1       0.214  -3.554   0.858  0.00  0.00     0.033 A 
ENDBRANCH   1  13
BRANCH   5  23
ATOM     23  S   UNL d   1      -2.967  -0.346   0.007  0.00  0.00    -0.087 SA
BRANCH  23  24
ATOM     24  C   UNL d   1      -3.423   1.407  -0.181  0.00  0.00     0.122 C 
BRANCH  24  25
ATOM     25  C   UNL d   1      -4.922   1.599  -0.277  0.00  0.00    -0.027 A 
ATOM     26  C   UNL d   1      -5.622   1.555  -1.496  0.00  0.00     0.042 A 
ATOM     27  C   UNL d   1      -7.006   1.758  -1.538  0.00  0.00     0.048 A 
ATOM     28 CL   UNL d   1      -4.819   1.258  -2.998  0.00  0.00    -0.084 Cl
ATOM     29  C   UNL d   1      -7.705   2.000  -0.361  0.00  0.00     0.035 A 
ATOM     30  C   UNL d   1      -7.038   2.035   0.860  0.00  0.00     0.024 A 
ATOM     31 CL   UNL d   1      -9.406   2.260  -0.413  0.00  0.00    -0.084 Cl
ATOM     32  C   UNL d   1      -5.657   1.832   0.903  0.00  0.00     0.011 A 
ENDBRANCH  24  25
ENDBRANCH  23  24
ENDBRANCH   5  23
TORSDOF 4
