REMARK  5 active torsions:
REMARK  status: ('A' for Active; 'I' for Inactive)
REMARK    1  A    between atoms: N_6  and  C_1 
REMARK    2  A    between atoms: C_2  and  C_3 
REMARK    3  A    between atoms: C_10  and  C_13 
REMARK    4  A    between atoms: C_19  and  C_10 
REMARK    5  A    between atoms: C_20  and  C_10 
ROOT
ATOM      1  N   UNL d   1       0.083   2.482  -0.042  0.00  0.00    -0.366 N 
ATOM      2  C   UNL d   1       1.126   2.937  -0.959  0.00  0.00     0.125 C 
ATOM      3  C   UNL d   1       0.167   3.082   1.286  0.00  0.00     0.125 C 
ATOM      4  C   UNL d   1       0.839   5.262   0.142  0.00  0.00     0.001 C 
ATOM      5  C   UNL d   1      -0.150   4.564   1.110  0.00  0.00     0.025 C 
ATOM      6  C   UNL d   1       0.907   4.442  -1.180  0.00  0.00     0.025 C 
ENDROOT
BRANCH   4   7
ATOM      7  C   UNL d   1       2.259   5.503   0.764  0.00  0.00     0.056 C 
BRANCH   7   8
ATOM      8  C   UNL d   1       3.173   6.260  -0.204  0.00  0.00    -0.049 A 
ATOM      9  C   UNL d   1       2.835   7.536  -0.687  0.00  0.00     0.008 A 
ATOM     10  C   UNL d   1       3.663   8.197  -1.595  0.00  0.00     0.001 A 
ATOM     11  C   UNL d   1       4.841   7.597  -2.028  0.00  0.00     0.000 A 
ATOM     12  C   UNL d   1       5.197   6.338  -1.550  0.00  0.00     0.001 A 
ATOM     13  C   UNL d   1       4.371   5.673  -0.642  0.00  0.00     0.008 A 
ENDBRANCH   7   8
BRANCH   7  14
ATOM     14  C   UNL d   1       2.279   6.170   2.143  0.00  0.00    -0.049 A 
ATOM     15  C   UNL d   1       3.274   5.801   3.065  0.00  0.00     0.008 A 
ATOM     16  C   UNL d   1       3.329   6.381   4.334  0.00  0.00     0.001 A 
ATOM     17  C   UNL d   1       2.392   7.342   4.703  0.00  0.00     0.000 A 
ATOM     18  C   UNL d   1       1.410   7.735   3.797  0.00  0.00     0.001 A 
ATOM     19  C   UNL d   1       1.362   7.164   2.522  0.00  0.00     0.008 A 
ENDBRANCH   7  14
ENDBRANCH   4   7
BRANCH   1  20
ATOM     20  C   UNL d   1      -0.343   1.162  -0.128  0.00  0.00     0.125 A 
ATOM     21  N   UNL d   1       0.506   0.248  -0.663  0.00  0.00    -0.350 N 
ATOM     22  C   UNL d   1       0.076  -1.029  -0.820  0.00  0.00     0.106 A 
ATOM     23  HN  UNL d   1       1.450   0.516  -0.943  1.00  0.00     0.166 HD
ATOM     24  C   UNL d   1      -1.188  -1.474  -0.467  0.00  0.00     0.065 A 
ATOM     25  C   UNL d   1      -2.061  -0.540   0.086  0.00  0.00     0.045 A 
ATOM     26  C   UNL d   1      -1.649   0.783   0.247  0.00  0.00     0.078 A 
ATOM     27 CL   UNL d   1      -2.852   1.904   0.794  0.00  0.00    -0.080 Cl
BRANCH  24  28
ATOM     28  C   UNL d   1      -1.587  -2.894  -0.713  0.00  0.00     0.418 C 
ATOM     29  F   UNL d   1      -2.859  -3.174  -0.316  0.00  0.00    -0.166 F 
ATOM     30  F   UNL d   1      -1.526  -3.231  -2.030  0.00  0.00    -0.166 F 
ATOM     31  F   UNL d   1      -0.789  -3.782  -0.060  0.00  0.00    -0.166 F 
ENDBRANCH  24  28
ENDBRANCH   1  20
TORSDOF 5
