REMARK  5 active torsions:
REMARK  status: ('A' for Active; 'I' for Inactive)
REMARK    1  A    between atoms: C_7  and  N_1 
REMARK    2  A    between atoms: C_4  and  C_3 
REMARK    3  A    between atoms: C_5  and  C_4 
REMARK       I    between atoms: N_10  and  C_5 
REMARK    4  A    between atoms: C_14  and  C_7 
REMARK    5  A    between atoms: N_13  and  N_10 
ROOT
ATOM      1  N   UNL d   1       0.390   1.219  -0.024  0.00  0.00    -0.344 N 
ATOM      2  C   UNL d   1       0.964   0.027   0.419  0.00  0.00     0.254 C 
ATOM      3  C   UNL d   1       0.128  -1.260   0.177  0.00  0.00     0.320 C 
ATOM      4  N   UNL d   1      -1.325  -1.043   0.406  0.00  0.00     0.099 N 
ATOM      5  O   UNL d   1       2.117  -0.030   0.851  0.00  0.00    -0.271 OA
ATOM      6  C   UNL d   1      -1.063   1.353  -0.020  0.00  0.00     0.156 C 
ATOM      7  C   UNL d   1      -1.788   0.071  -0.422  0.00  0.00     0.290 C 
ATOM      8  H   UNL d   1      -1.804  -1.898   0.096  0.00  0.00     0.317 HD
ENDROOT
BRANCH   3   9
ATOM      9  C   UNL d   1       0.648  -2.401   1.058  0.00  0.00     0.149 C 
BRANCH   9  10
ATOM     10  C   UNL d   1      -0.030  -3.721   0.753  0.00  0.00     0.234 C 
ATOM     11  O   UNL d   1      -0.878  -3.877  -0.119  0.00  0.00    -0.272 OA
ATOM     12  N   UNL d   1       0.384  -4.748   1.595  0.00  0.00    -0.294 N 
ATOM     13  H   UNL d   1       1.186  -4.630   2.211  0.00  0.00     0.183 HD
BRANCH  12  14
ATOM     14  N   UNL d   1      -0.207  -6.023   1.472  0.00  0.00    -0.247 NA
ATOM     15  H   UNL d   1      -0.567  -6.094   0.510  0.00  0.00     0.143 HD
ATOM     16  H   UNL d   1      -1.059  -6.022   2.041  0.00  0.00     0.143 HD
ENDBRANCH  12  14
ENDBRANCH   9  10
ENDBRANCH   3   9
BRANCH   1  17
ATOM     17  C   UNL d   1       1.180   2.444  -0.042  0.00  0.00     0.164 C 
BRANCH  17  18
ATOM     18  C   UNL d   1       1.531   2.854  -1.456  0.00  0.00    -0.040 A 
ATOM     19  C   UNL d   1       0.714   3.735  -2.180  0.00  0.00     0.009 A 
ATOM     20  C   UNL d   1       1.041   4.096  -3.489  0.00  0.00     0.001 A 
ATOM     21  C   UNL d   1       2.190   3.583  -4.089  0.00  0.00     0.000 A 
ATOM     22  C   UNL d   1       3.011   2.708  -3.381  0.00  0.00     0.001 A 
ATOM     23  C   UNL d   1       2.680   2.339  -2.074  0.00  0.00     0.009 A 
ENDBRANCH  17  18
ENDBRANCH   1  17
TORSDOF 5
