REMARK  4 active torsions:
REMARK  status: ('A' for Active; 'I' for Inactive)
REMARK    1  A    between atoms: C_2  and  C_1 
REMARK    2  A    between atoms: C_5  and  C_1 
REMARK    3  A    between atoms: C_7  and  C_2 
REMARK    4  A    between atoms: O_6  and  N_3 
ROOT
ATOM      1  C   UNL d   1       0.835  -0.021  -0.012  0.00  0.00     0.050 C 
ATOM      2  N   UNL d   1       0.279   0.989   0.606  0.00  0.00    -0.272 N 
ATOM      3  HN  UNL d   1       0.817   1.687   1.120  1.00  0.00     0.194 HD
ENDROOT
BRANCH   1   4
ATOM      4  C   UNL d   1       2.408  -0.010  -0.034  0.00  0.00    -0.003 C 
ATOM      5  C   UNL d   1       2.935   0.669   1.258  0.00  0.00     0.021 C 
ATOM      6  C   UNL d   1       3.010  -1.429  -0.027  0.00  0.00     0.021 C 
BRANCH   4   7
ATOM      7  C   UNL d   1       2.943   0.768  -1.269  0.00  0.00     0.010 C 
ATOM      8  C   UNL d   1       2.448   2.203  -1.418  0.00  0.00     0.006 C 
ENDBRANCH   4   7
ENDBRANCH   1   4
BRANCH   1   9
ATOM      9  C   UNL d   1       0.065  -1.122  -0.701  0.00  0.00    -0.011 A 
ATOM     10  C   UNL d   1      -1.050  -1.687  -0.064  0.00  0.00     0.013 A 
ATOM     11  C   UNL d   1      -1.825  -2.661  -0.704  0.00  0.00     0.001 A 
ATOM     12  C   UNL d   1      -1.469  -3.112  -1.971  0.00  0.00     0.000 A 
ATOM     13  C   UNL d   1      -0.345  -2.584  -2.602  0.00  0.00     0.001 A 
ATOM     14  C   UNL d   1       0.408  -1.584  -1.975  0.00  0.00     0.013 A 
ENDBRANCH   1   9
BRANCH   2  15
ATOM     15  O   UNL d   1      -1.111   1.031   0.504  0.00  0.00    -0.290 OA
ATOM     16  H   UNL d   1      -1.331   1.836   1.009  0.00  0.00     0.244 HD
ENDBRANCH   2  15
TORSDOF 4
