REMARK  1 active torsions:
REMARK  status: ('A' for Active; 'I' for Inactive)
REMARK    1  A    between atoms: C_5  and  C_2 
ROOT
ATOM      1  C   UNL d   1      -0.713  -0.844  -0.035  0.00  0.00     0.058 C 
ATOM      2  C   UNL d   1      -1.711  -1.736  -0.101  0.00  0.00     0.040 C 
ATOM      3  C   UNL d   1       0.727  -1.311   0.080  0.00  0.00     0.174 C 
ATOM      4  N   UNL d   1      -0.783   0.568  -0.036  0.00  0.00    -0.280 NA
ATOM      5  C   UNL d   1       1.673  -0.110   0.161  0.00  0.00     0.064 C 
ATOM      6  C   UNL d   1      -0.239   1.162   1.222  0.00  0.00     0.096 C 
ATOM      7  C   UNL d   1      -0.042   1.169  -1.189  0.00  0.00     0.096 C 
ATOM      8  O   UNL d   1       1.084  -2.477   0.124  0.00  0.00    -0.291 OA
ATOM      9  C   UNL d   1       1.438   0.730  -1.110  0.00  0.00     0.027 C 
ATOM     10  C   UNL d   1       1.234   0.720   1.384  0.00  0.00     0.027 C 
ENDROOT
BRANCH   2  11
ATOM     11  C   UNL d   1      -3.123  -1.339  -0.179  0.00  0.00    -0.013 A 
ATOM     12  C   UNL d   1      -3.792  -1.122  -1.393  0.00  0.00     0.044 A 
ATOM     13 CL   UNL d   1      -3.037  -1.425  -2.920  0.00  0.00    -0.083 Cl
ATOM     14  C   UNL d   1      -5.118  -0.673  -1.400  0.00  0.00     0.024 A 
ATOM     15  C   UNL d   1      -5.795  -0.464  -0.198  0.00  0.00     0.002 A 
ATOM     16  C   UNL d   1      -5.152  -0.716   1.012  0.00  0.00     0.001 A 
ATOM     17  C   UNL d   1      -3.823  -1.145   1.022  0.00  0.00     0.013 A 
ENDBRANCH   2  11
TORSDOF 1
