REMARK  1 active torsions:
REMARK  status: ('A' for Active; 'I' for Inactive)
REMARK    1  A    between atoms: C_9  and  C_4 
ROOT
ATOM      1  N   UNL d   1       0.925  -0.669   0.744  0.00  0.00    -0.257 N 
ATOM      2  HN  UNL d   1       1.625  -1.141   1.316  1.00  0.00     0.195 HD
ATOM      3  O   UNL d   1       0.890   0.743   0.665  0.00  0.00    -0.195 OA
ATOM      4  C   UNL d   1       0.049  -1.349   0.077  0.00  0.00     0.065 A 
ATOM      5  C   UNL d   1      -0.109   1.376  -0.006  0.00  0.00     0.304 A 
ATOM      6  C   UNL d   1      -1.008  -0.758  -0.751  0.00  0.00     0.038 A 
ATOM      7  C   UNL d   1      -1.064   0.570  -0.759  0.00  0.00     0.086 A 
ATOM      8  O   UNL d   1      -0.223   2.600  -0.016  0.00  0.00    -0.258 OA
ENDROOT
BRANCH   4   9
ATOM      9  C   UNL d   1       0.081  -2.838   0.174  0.00  0.00    -0.008 A 
ATOM     10  C   UNL d   1       0.498  -3.415   1.382  0.00  0.00     0.014 A 
ATOM     11  C   UNL d   1       0.559  -4.803   1.517  0.00  0.00     0.001 A 
ATOM     12  C   UNL d   1       0.210  -5.622   0.444  0.00  0.00     0.000 A 
ATOM     13  C   UNL d   1      -0.198  -5.055  -0.763  0.00  0.00     0.001 A 
ATOM     14  C   UNL d   1      -0.261  -3.666  -0.902  0.00  0.00     0.014 A 
ENDBRANCH   4   9
TORSDOF 1
