REMARK  3 active torsions:
REMARK  status: ('A' for Active; 'I' for Inactive)
REMARK    1  A    between atoms: N_6  and  C_1 
REMARK    2  A    between atoms: C_11  and  C_4 
REMARK    3  A    between atoms: C_9  and  N_7 
ROOT
ATOM      1  C   UNL d   1       0.204  -1.251  -0.020  0.00  0.00     0.147 A 
ATOM      2  N   UNL d   1       0.823  -0.576   0.926  0.00  0.00    -0.336 N 
ATOM      3  HN  UNL d   1       1.255  -1.004   1.745  1.00  0.00     0.168 HD
ATOM      4  C   UNL d   1       0.816   0.783   0.676  0.00  0.00     0.051 A 
ATOM      5  S   UNL d   1      -0.445  -0.246  -1.272  0.00  0.00    -0.064 SA
ATOM      6  C   UNL d   1       0.145   1.145  -0.473  0.00  0.00     0.083 A 
ENDROOT
BRANCH   1   7
ATOM      7  N   UNL d   1       0.148  -2.616  -0.035  0.00  0.00    -0.358 N 
ATOM      8  C   UNL d   1       0.720  -3.280   1.160  0.00  0.00     0.145 C 
ATOM      9  C   UNL d   1       1.012  -4.762   0.874  0.00  0.00     0.143 C 
ATOM     10  N   UNL d   1      -0.214  -5.417   0.383  0.00  0.00    -0.378 N 
ATOM     11  C   UNL d   1      -0.764  -4.805  -0.834  0.00  0.00     0.143 C 
ATOM     12  C   UNL d   1      -1.051  -3.302  -0.567  0.00  0.00     0.145 C 
BRANCH  10  13
ATOM     13  C   UNL d   1      -0.512  -6.695   0.799  0.00  0.00     0.031 A 
ATOM     14  C   UNL d   1      -0.504  -6.998   2.171  0.00  0.00     0.053 A 
ATOM     15  C   UNL d   1      -0.832  -8.268   2.639  0.00  0.00     0.036 A 
ATOM     16 CL   UNL d   1      -0.831  -8.576   4.332  0.00  0.00    -0.084 Cl
ATOM     17  C   UNL d   1      -1.170  -9.277   1.747  0.00  0.00     0.024 A 
ATOM     18  C   UNL d   1      -1.188  -9.003   0.381  0.00  0.00     0.004 A 
ATOM     19  C   UNL d   1      -0.870  -7.721  -0.084  0.00  0.00     0.029 A 
ENDBRANCH  10  13
ENDBRANCH   1   7
BRANCH   4  20
ATOM     20  C   UNL d   1       1.476   1.711   1.580  0.00  0.00    -0.009 A 
ATOM     21  C   UNL d   1       2.012   2.925   1.122  0.00  0.00     0.015 A 
ATOM     22  C   UNL d   1       2.658   3.793   2.005  0.00  0.00     0.024 A 
ATOM     23  C   UNL d   1       2.775   3.455   3.351  0.00  0.00     0.034 A 
ATOM     24  C   UNL d   1       2.256   2.251   3.822  0.00  0.00     0.024 A 
ATOM     25 CL   UNL d   1       3.571   4.528   4.434  0.00  0.00    -0.084 Cl
ATOM     26  C   UNL d   1       1.612   1.381   2.937  0.00  0.00     0.015 A 
ENDBRANCH   4  20
TORSDOF 3
