REMARK  2 active torsions:
REMARK  status: ('A' for Active; 'I' for Inactive)
REMARK    1  A    between atoms: C_2  and  C_1 
REMARK    2  A    between atoms: C_3  and  C_2 
ROOT
ATOM      1  C   UNL d   1      -0.958  -1.158  -0.146  0.00  0.00     0.032 A 
ATOM      2  C   UNL d   1       0.363  -0.602  -0.203  0.00  0.00    -0.011 A 
ATOM      3  C   UNL d   1      -2.086  -0.326   0.063  0.00  0.00    -0.047 A 
ATOM      4  C   UNL d   1       0.513   0.791   0.023  0.00  0.00    -0.025 A 
ATOM      5  C   UNL d   1      -1.893   1.053   0.207  0.00  0.00     0.009 A 
ATOM      6  C   UNL d   1      -0.614   1.598   0.205  0.00  0.00     0.013 A 
ATOM      7  C   UNL d   1       1.553  -1.325  -0.482  0.00  0.00     0.013 A 
ATOM      8  C   UNL d   1      -3.511  -0.819   0.084  0.00  0.00     0.049 C 
ATOM      9  C   UNL d   1       1.789   1.377   0.053  0.00  0.00     0.012 A 
ATOM     10  C   UNL d   1       2.818  -0.734  -0.430  0.00  0.00     0.001 A 
ATOM     11  C   UNL d   1       2.936   0.617  -0.148  0.00  0.00     0.001 A 
ENDROOT
BRANCH   1  12
ATOM     12  C   UNL d   1      -1.185  -2.619  -0.365  0.00  0.00     0.193 C 
ATOM     13  O   UNL d   1      -2.000  -2.961  -1.222  0.00  0.00    -0.287 OA
BRANCH  12  14
ATOM     14  C   UNL d   1      -0.442  -3.677   0.389  0.00  0.00     0.015 A 
ATOM     15  C   UNL d   1      -0.378  -4.958  -0.179  0.00  0.00     0.022 A 
ATOM     16  C   UNL d   1       0.400  -5.977   0.396  0.00  0.00    -0.055 A 
ATOM     17  C   UNL d   1       0.441  -7.329  -0.263  0.00  0.00     0.049 C 
ATOM     18  C   UNL d   1       1.140  -5.701   1.561  0.00  0.00    -0.056 A 
ATOM     19  C   UNL d   1       1.033  -4.433   2.156  0.00  0.00     0.008 A 
ATOM     20  C   UNL d   1       2.038  -6.739   2.180  0.00  0.00     0.049 C 
ATOM     21  C   UNL d   1       0.236  -3.433   1.586  0.00  0.00     0.016 A 
ENDBRANCH  12  14
ENDBRANCH   1  12
TORSDOF 2
