REMARK  3 active torsions:
REMARK  status: ('A' for Active; 'I' for Inactive)
REMARK    1  A    between atoms: C_4  and  C_1 
REMARK       I    between atoms: N_9  and  C_4 
REMARK    2  A    between atoms: N_10  and  N_9 
REMARK    3  A    between atoms: C_12  and  N_10 
ROOT
ATOM      1  C   UNL d   1       0.109  -2.420  -0.823  0.00  0.00     0.276 C 
ATOM      2  N   UNL d   1       0.832  -3.477  -0.268  0.00  0.00    -0.282 N 
ATOM      3  O   UNL d   1       0.609  -1.295  -0.880  0.00  0.00    -0.266 OA
ATOM      4  H   UNL d   1       0.348  -4.301   0.070  0.00  0.00     0.184 HD
ENDROOT
BRANCH   2   5
ATOM      5  N   UNL d   1       2.024  -3.142   0.410  0.00  0.00    -0.203 NA
ATOM      6  H   UNL d   1       2.270  -2.159   0.225  0.00  0.00     0.153 HD
BRANCH   5   7
ATOM      7  C   UNL d   1       3.116  -4.000   0.123  0.00  0.00     0.027 A 
ATOM      8  C   UNL d   1       4.418  -3.475   0.172  0.00  0.00     0.027 A 
ATOM      9  C   UNL d   1       5.537  -4.296   0.005  0.00  0.00     0.026 A 
ATOM     10  C   UNL d   1       5.367  -5.665  -0.181  0.00  0.00     0.034 A 
ATOM     11  C   UNL d   1       4.088  -6.213  -0.203  0.00  0.00     0.026 A 
ATOM     12 CL   UNL d   1       6.740  -6.684  -0.359  0.00  0.00    -0.084 Cl
ATOM     13  C   UNL d   1       2.970  -5.385  -0.040  0.00  0.00     0.027 A 
ENDBRANCH   5   7
ENDBRANCH   2   5
BRANCH   1  14
ATOM     14  C   UNL d   1      -1.224  -2.727  -1.286  0.00  0.00     0.115 A 
ATOM     15  C   UNL d   1      -2.250  -1.886  -1.707  0.00  0.00     0.046 A 
ATOM     16  N   UNL d   1      -3.409  -2.547  -2.109  0.00  0.00    -0.298 N 
ATOM     17  C   UNL d   1      -2.273  -0.402  -1.773  0.00  0.00     0.071 C 
ATOM     18  N   UNL d   1      -3.295  -3.858  -2.010  0.00  0.00    -0.269 N 
ATOM     19  HN  UNL d   1      -4.249  -2.073  -2.441  1.00  0.00     0.187 HD
ATOM     20  S   UNL d   1      -1.806  -4.334  -1.438  0.00  0.00     0.009 SA
ATOM     21  HN  UNL d   1      -4.039  -4.510  -2.257  1.00  0.00     0.195 HD
ENDBRANCH   1  14
TORSDOF 3
