REMARK  6 active torsions:
REMARK  status: ('A' for Active; 'I' for Inactive)
REMARK    1  A    between atoms: C_2  and  C_1 
REMARK       I    between atoms: N_6  and  C_2 
REMARK    2  A    between atoms: C_12  and  C_5 
REMARK    3  A    between atoms: C_10  and  N_6 
REMARK    4  A    between atoms: C_14  and  N_6 
REMARK    5  A    between atoms: C_17  and  C_10 
REMARK    6  A    between atoms: N_13  and  C_11 
ROOT
ATOM      1  C   UNL d   1       0.045  -2.476  -0.261  0.00  0.00     0.259 C 
ATOM      2  N   UNL d   1      -0.712  -3.663  -0.267  0.00  0.00    -0.340 N 
ATOM      3  O   UNL d   1       1.257  -2.486  -0.042  0.00  0.00    -0.267 OA
ENDROOT
BRANCH   1   4
ATOM      4  C   UNL d   1      -0.589  -1.200  -0.560  0.00  0.00     0.092 C 
ATOM      5  C   UNL d   1      -1.649  -0.468   0.072  0.00  0.00     0.083 C 
ATOM      6  N   UNL d   1      -1.887   0.673  -0.597  0.00  0.00    -0.259 N 
ATOM      7  O   UNL d   1      -0.938   0.764  -1.579  0.00  0.00    -0.241 OA
ATOM      8  HN  UNL d   1      -2.632   1.344  -0.409  1.00  0.00     0.195 HD
ATOM      9  C   UNL d   1      -0.141  -0.334  -1.534  0.00  0.00     0.090 C 
ATOM     10  C   UNL d   1       0.985  -0.325  -2.490  0.00  0.00     0.080 C 
BRANCH   5  11
ATOM     11  C   UNL d   1      -2.429  -0.735   1.285  0.00  0.00    -0.006 A 
ATOM     12  C   UNL d   1      -3.751  -0.260   1.367  0.00  0.00     0.014 A 
ATOM     13  C   UNL d   1      -4.481  -0.365   2.551  0.00  0.00     0.001 A 
ATOM     14  C   UNL d   1      -3.901  -0.956   3.669  0.00  0.00     0.000 A 
ATOM     15  C   UNL d   1      -2.601  -1.458   3.595  0.00  0.00     0.001 A 
ATOM     16  C   UNL d   1      -1.864  -1.349   2.409  0.00  0.00     0.014 A 
ENDBRANCH   5  11
ENDBRANCH   1   4
BRANCH   2  17
ATOM     17  C   UNL d   1       0.027  -4.928  -0.018  0.00  0.00     0.165 C 
BRANCH  17  18
ATOM     18  C   UNL d   1       0.533  -5.614  -1.272  0.00  0.00    -0.040 A 
ATOM     19  C   UNL d   1       1.552  -5.044  -2.041  0.00  0.00     0.011 A 
ATOM     20  C   UNL d   1       1.892  -5.575  -3.292  0.00  0.00     0.030 A 
ATOM     21  C   UNL d   1       1.239  -6.696  -3.818  0.00  0.00     0.029 A 
ATOM     22  C   UNL d   1       0.320  -7.342  -2.978  0.00  0.00     0.030 A 
ATOM     23  C   UNL d   1      -0.026  -6.816  -1.723  0.00  0.00     0.011 A 
BRANCH  21  24
ATOM     24  N   UNL d   1       1.388  -7.111  -5.143  0.00  0.00    -0.390 N 
ATOM     25  C   UNL d   1       1.834  -6.128  -6.126  0.00  0.00     0.149 C 
ATOM     26  C   UNL d   1       1.851  -8.477  -5.370  0.00  0.00     0.149 C 
ENDBRANCH  21  24
ENDBRANCH  17  18
ENDBRANCH   2  17
BRANCH   2  27
ATOM     27  C   UNL d   1      -2.146  -3.729  -0.639  0.00  0.00     0.079 C 
ATOM     28  C   UNL d   1      -2.397  -4.364  -2.006  0.00  0.00     0.032 C 
ATOM     29  C   UNL d   1      -3.001  -4.395   0.442  0.00  0.00     0.032 C 
ENDBRANCH   2  27
TORSDOF 6
