REMARK  3 active torsions:
REMARK  status: ('A' for Active; 'I' for Inactive)
REMARK    1  A    between atoms: C_7  and  C_1 
REMARK    2  A    between atoms: O_11  and  C_3 
REMARK    3  A    between atoms: O_14  and  N_9 
ROOT
ATOM      1  C   UNL d   1      -1.952  -3.934   0.027  0.00  0.00     0.090 A 
ATOM      2  C   UNL d   1      -2.931  -5.059  -0.012  0.00  0.00     0.262 A 
ATOM      3  C   UNL d   1      -0.629  -4.196   0.047  0.00  0.00     0.096 A 
ATOM      4  N   UNL d   1      -2.442  -6.360   0.061  0.00  0.00    -0.317 N 
ATOM      5  C   UNL d   1      -0.131  -5.580   0.046  0.00  0.00     0.025 A 
ATOM      6  C   UNL d   1      -1.045  -6.645   0.059  0.00  0.00     0.050 A 
ATOM      7  O   UNL d   1      -4.133  -4.814  -0.119  0.00  0.00    -0.267 OA
ATOM      8  C   UNL d   1      -3.401  -7.456   0.077  0.00  0.00     0.159 C 
ATOM      9  C   UNL d   1       1.248  -5.859   0.024  0.00  0.00     0.016 A 
ATOM     10  C   UNL d   1      -0.560  -7.964   0.045  0.00  0.00     0.031 A 
ATOM     11  C   UNL d   1       1.717  -7.173   0.004  0.00  0.00     0.001 A 
ATOM     12  C   UNL d   1       0.812  -8.226   0.014  0.00  0.00     0.002 A 
ENDROOT
BRANCH   1  13
ATOM     13  C   UNL d   1      -2.408  -2.500   0.056  0.00  0.00     0.046 C 
ATOM     14  N   UNL d   1      -1.681  -1.588  -0.544  0.00  0.00    -0.273 N 
ATOM     15  HN  UNL d   1      -0.810  -1.782  -1.036  1.00  0.00     0.194 HD
ATOM     16  C   UNL d   1      -3.687  -2.148   0.795  0.00  0.00     0.071 C 
BRANCH  14  17
ATOM     17  O   UNL d   1      -2.251  -0.316  -0.423  0.00  0.00    -0.290 OA
ATOM     18  H   UNL d   1      -1.699   0.231  -1.013  0.00  0.00     0.244 HD
ENDBRANCH  14  17
ENDBRANCH   1  13
BRANCH   3  19
ATOM     19  O   UNL d   1       0.357  -3.222   0.053  0.00  0.00    -0.359 OA
ATOM     20  H   UNL d   1      -0.071  -2.359  -0.142  0.00  0.00     0.217 HD
ENDBRANCH   3  19
TORSDOF 3
