REMARK  5 active torsions:
REMARK  status: ('A' for Active; 'I' for Inactive)
REMARK    1  A    between atoms: N_7  and  C_1 
REMARK    2  A    between atoms: C_12  and  N_4 
REMARK    3  A    between atoms: S_5  and  N_7 
REMARK    4  A    between atoms: C_8  and  S_5 
REMARK       I    between atoms: C_13  and  N_14 
REMARK    5  A    between atoms: N_14  and  C_19 
ROOT
ATOM      1  N   UNL d   1      -0.442  -2.531   0.162  0.00  0.00    -0.273 N 
ATOM      2  H   UNL d   1      -1.405  -2.818   0.023  0.00  0.00     0.179 HD
ENDROOT
BRANCH   1   3
ATOM      3  S   UNL d   1       0.678  -3.773   0.100  0.00  0.00     0.263 S 
ATOM      4  O   UNL d   1      -0.121  -4.983   0.086  0.00  0.00    -0.200 OA
ATOM      5  O   UNL d   1       1.623  -3.517  -0.964  0.00  0.00    -0.200 OA
BRANCH   3   6
ATOM      6  C   UNL d   1       1.478  -3.738   1.687  0.00  0.00     0.080 A 
ATOM      7  C   UNL d   1       0.713  -3.894   2.844  0.00  0.00     0.027 A 
ATOM      8  C   UNL d   1       1.338  -3.865   4.096  0.00  0.00     0.031 A 
ATOM      9  C   UNL d   1       2.725  -3.678   4.204  0.00  0.00     0.034 A 
ATOM     10  C   UNL d   1       3.478  -3.539   3.036  0.00  0.00     0.031 A 
ATOM     11  C   UNL d   1       2.861  -3.583   1.780  0.00  0.00     0.027 A 
BRANCH   9  12
ATOM     12  N   UNL d   1       3.275  -3.648   5.505  0.00  0.00    -0.328 N 
ATOM     13  C   UNL d   1       4.600  -3.447   5.851  0.00  0.00     0.218 C 
ATOM     14  O   UNL d   1       5.538  -3.241   5.089  0.00  0.00    -0.274 OA
ATOM     15  C   UNL d   1       4.840  -3.499   7.341  0.00  0.00     0.117 C 
ATOM     16  H   UNL d   1       2.619  -3.781   6.263  0.00  0.00     0.169 HD
ENDBRANCH   9  12
ENDBRANCH   3   6
ENDBRANCH   1   3
BRANCH   1  17
ATOM     17  C   UNL d   1      -0.051  -1.185   0.187  0.00  0.00     0.136 C 
ATOM     18  C   UNL d   1       1.292  -0.561   0.343  0.00  0.00     0.296 C 
ATOM     19  N   UNL d   1       1.064   0.814   0.517  0.00  0.00    -0.217 N 
ATOM     20  O   UNL d   1       2.364  -1.142   0.327  0.00  0.00    -0.264 OA
ATOM     21  N   UNL d   1      -0.291   1.050   0.178  0.00  0.00    -0.289 N 
ATOM     22  C   UNL d   1      -0.938  -0.179   0.079  0.00  0.00     0.058 C 
ATOM     23  C   UNL d   1      -0.794   2.401   0.046  0.00  0.00     0.178 C 
ATOM     24  C   UNL d   1      -2.417  -0.322  -0.080  0.00  0.00     0.072 C 
BRANCH  19  25
ATOM     25  C   UNL d   1       2.063   1.746   0.177  0.00  0.00     0.060 A 
ATOM     26  C   UNL d   1       2.728   1.689  -1.052  0.00  0.00     0.031 A 
ATOM     27  C   UNL d   1       3.827   2.516  -1.286  0.00  0.00     0.002 A 
ATOM     28  C   UNL d   1       4.270   3.387  -0.290  0.00  0.00     0.000 A 
ATOM     29  C   UNL d   1       3.604   3.449   0.934  0.00  0.00     0.002 A 
ATOM     30  C   UNL d   1       2.495   2.635   1.165  0.00  0.00     0.031 A 
ENDBRANCH  19  25
ENDBRANCH   1  17
TORSDOF 5
