REMARK  3 active torsions:
REMARK  status: ('A' for Active; 'I' for Inactive)
REMARK    1  A    between atoms: C_12  and  N_1 
REMARK    2  A    between atoms: C_4  and  N_9 
REMARK    3  A    between atoms: C_8  and  C_11 
ROOT
ATOM      1  N   UNL d   1       1.639  -4.240  -0.291  0.00  0.00    -0.217 N 
ATOM      2  C   UNL d   1       2.698  -1.582   0.033  0.00  0.00     0.099 C 
ATOM      3  C   UNL d   1       2.495  -2.250  -1.346  0.00  0.00     0.046 C 
ATOM      4  C   UNL d   1       2.949  -2.703   1.059  0.00  0.00     0.046 C 
ATOM      5  C   UNL d   1       1.346  -3.251  -1.316  0.00  0.00     0.143 C 
ATOM      6  C   UNL d   1       1.832  -3.746   1.069  0.00  0.00     0.143 C 
ENDROOT
BRANCH   1   7
ATOM      7  C   UNL d   1       1.172  -5.525  -0.470  0.00  0.00     0.680 A 
ATOM      8  N   UNL d   1       1.127  -6.344   0.588  0.00  0.00    -0.186 N 
ATOM      9  C   UNL d   1       0.792  -7.646   0.401  0.00  0.00     0.133 A 
ATOM     10  HN  UNL d   1       1.342  -5.995   1.522  1.00  0.00     0.184 HD
ATOM     11  C   UNL d   1       0.494  -8.146  -0.849  0.00  0.00     0.052 A 
ATOM     12  C   UNL d   1       0.539  -7.240  -1.876  0.00  0.00     0.108 A 
ATOM     13  N   UNL d   1       0.864  -5.946  -1.706  0.00  0.00    -0.202 N 
ATOM     14  HN  UNL d   1       0.876  -5.302  -2.497  1.00  0.00     0.183 HD
BRANCH   9  15
ATOM     15  C   UNL d   1       0.766  -8.571   1.601  0.00  0.00     0.433 C 
ATOM     16  F   UNL d   1       1.068  -7.969   2.785  0.00  0.00    -0.165 F 
ATOM     17  F   UNL d   1      -0.457  -9.152   1.782  0.00  0.00    -0.165 F 
ATOM     18  F   UNL d   1       1.645  -9.608   1.477  0.00  0.00    -0.165 F 
ENDBRANCH   9  15
ENDBRANCH   1   7
BRANCH   2  19
ATOM     19  N   UNL d   1       1.656  -0.584   0.379  0.00  0.00    -0.283 N 
ATOM     20  C   UNL d   1       1.210  -0.298   1.643  0.00  0.00     0.228 C 
ATOM     21  C   UNL d   1       0.311   0.907   1.610  0.00  0.00     0.122 C 
ATOM     22  O   UNL d   1       1.456  -0.892   2.681  0.00  0.00    -0.273 OA
ATOM     23  C   UNL d   1       0.554   1.500   0.233  0.00  0.00     0.050 C 
ATOM     24  C   UNL d   1       1.341   0.435  -0.485  0.00  0.00     0.236 C 
ATOM     25  C   UNL d   1       1.376   2.794   0.259  0.00  0.00     0.020 C 
ATOM     26  C   UNL d   1      -0.719   1.901  -0.509  0.00  0.00     0.020 C 
ATOM     27  O   UNL d   1       1.708   0.554  -1.648  0.00  0.00    -0.272 OA
ATOM     28  C   UNL d   1       0.358   3.917   0.379  0.00  0.00     0.001 C 
ATOM     29  C   UNL d   1      -0.960   3.365  -0.155  0.00  0.00     0.001 C 
ENDBRANCH   2  19
TORSDOF 3
