REMARK  4 active torsions:
REMARK  status: ('A' for Active; 'I' for Inactive)
REMARK    1  A    between atoms: N_6  and  C_1 
REMARK    2  A    between atoms: C_2  and  C_3 
REMARK    3  A    between atoms: C_19  and  N_11 
REMARK    4  A    between atoms: C_18  and  C_19 
ROOT
ATOM      1  N   UNL d   1       0.479   2.302   0.217  0.00  0.00    -0.363 N 
ATOM      2  N   UNL d   1       2.469   4.438  -0.022  0.00  0.00     0.095 N 
ATOM      3  C   UNL d   1       1.264   2.408  -1.018  0.00  0.00     0.154 C 
ATOM      4  C   UNL d   1       0.192   3.595   0.843  0.00  0.00     0.154 C 
ATOM      5  C   UNL d   1       1.542   4.311   1.140  0.00  0.00     0.292 C 
ATOM      6  C   UNL d   1       2.601   3.103  -0.664  0.00  0.00     0.292 C 
ENDROOT
BRANCH   2   7
ATOM      7  C   UNL d   1       1.980   5.471  -0.950  0.00  0.00     0.311 C 
BRANCH   7   8
ATOM      8  C   UNL d   1       2.851   5.682  -2.170  0.00  0.00    -0.029 A 
ATOM      9  C   UNL d   1       4.177   6.128  -2.046  0.00  0.00     0.019 A 
ATOM     10  C   UNL d   1       4.969   6.354  -3.183  0.00  0.00    -0.024 A 
ATOM     11  C   UNL d   1       6.365   6.882  -3.034  0.00  0.00     0.044 C 
ATOM     12  C   UNL d   1       4.445   6.073  -4.447  0.00  0.00     0.076 A 
ATOM     13  C   UNL d   1       6.852   7.454  -4.359  0.00  0.00     0.042 C 
ATOM     14  C   UNL d   1       6.545   6.492  -5.517  0.00  0.00     0.061 C 
ATOM     15  O   UNL d   1       5.137   6.217  -5.618  0.00  0.00    -0.340 OA
ATOM     16  C   UNL d   1       6.928   7.164  -6.845  0.00  0.00     0.046 C 
ATOM     17  C   UNL d   1       7.315   5.167  -5.405  0.00  0.00     0.046 C 
ATOM     18  C   UNL d   1       3.127   5.639  -4.580  0.00  0.00     0.038 A 
ATOM     19  C   UNL d   1       2.332   5.451  -3.451  0.00  0.00     0.012 A 
ENDBRANCH   7   8
ENDBRANCH   2   7
BRANCH   1  20
ATOM     20  C   UNL d   1      -0.343   1.204   0.371  0.00  0.00     0.125 A 
ATOM     21  N   UNL d   1      -0.752   0.572  -0.758  0.00  0.00    -0.350 N 
ATOM     22  C   UNL d   1      -1.427  -0.601  -0.660  0.00  0.00     0.106 A 
ATOM     23  HN  UNL d   1      -0.553   0.976  -1.673  1.00  0.00     0.166 HD
ATOM     24  C   UNL d   1      -1.735  -1.215   0.540  0.00  0.00     0.065 A 
ATOM     25  C   UNL d   1      -1.349  -0.556   1.705  0.00  0.00     0.045 A 
ATOM     26  C   UNL d   1      -0.645   0.651   1.632  0.00  0.00     0.078 A 
ATOM     27 CL   UNL d   1      -0.053   1.282   3.132  0.00  0.00    -0.080 Cl
BRANCH  24  28
ATOM     28  C   UNL d   1      -2.416  -2.546   0.557  0.00  0.00     0.418 C 
ATOM     29  F   UNL d   1      -2.613  -3.036   1.812  0.00  0.00    -0.166 F 
ATOM     30  F   UNL d   1      -3.643  -2.515  -0.030  0.00  0.00    -0.166 F 
ATOM     31  F   UNL d   1      -1.706  -3.499  -0.106  0.00  0.00    -0.166 F 
ENDBRANCH  24  28
ENDBRANCH   1  20
TORSDOF 4
