REMARK  5 active torsions:
REMARK  status: ('A' for Active; 'I' for Inactive)
REMARK    1  A    between atoms: C_5  and  C_1 
REMARK    2  A    between atoms: C_4  and  C_2 
REMARK    3  A    between atoms: C_3  and  C_8 
REMARK    4  A    between atoms: C_14  and  C_5 
REMARK    5  A    between atoms: C_15  and  C_7 
ROOT
ATOM      1  C   UNL d   1      -0.753   1.197   0.059  0.00  0.00     0.096 C 
ATOM      2  C   UNL d   1       0.331   0.813   0.762  0.00  0.00     0.045 C 
ATOM      3  C   UNL d   1      -1.177   2.554   0.008  0.00  0.00     0.103 C 
ATOM      4  N   UNL d   1      -1.543   3.655  -0.014  0.00  0.00    -0.191 NA
ENDROOT
BRANCH   1   5
ATOM      5  C   UNL d   1      -1.520   0.143  -0.690  0.00  0.00     0.202 C 
ATOM      6  O   UNL d   1      -0.975  -0.887  -1.079  0.00  0.00    -0.286 OA
BRANCH   5   7
ATOM      7  C   UNL d   1      -2.973   0.356  -0.972  0.00  0.00     0.015 A 
ATOM      8  C   UNL d   1      -3.526  -0.140  -2.161  0.00  0.00     0.015 A 
ATOM      9  C   UNL d   1      -4.876   0.089  -2.458  0.00  0.00     0.001 A 
ATOM     10  C   UNL d   1      -5.680   0.795  -1.563  0.00  0.00     0.000 A 
ATOM     11  C   UNL d   1      -5.146   1.249  -0.360  0.00  0.00     0.001 A 
ATOM     12  C   UNL d   1      -3.804   1.015  -0.057  0.00  0.00     0.015 A 
ENDBRANCH   5   7
ENDBRANCH   1   5
BRANCH   2  13
ATOM     13  C   UNL d   1       1.069   1.722   1.577  0.00  0.00     0.007 A 
ATOM     14  S   UNL d   1       0.703   1.857   3.255  0.00  0.00    -0.081 SA
ATOM     15  C   UNL d   1       1.934   3.010   3.517  0.00  0.00     0.059 A 
ATOM     16  C   UNL d   1       2.605   3.310   2.353  0.00  0.00     0.029 A 
ATOM     17  C   UNL d   1       2.103   2.575   1.235  0.00  0.00     0.021 A 
BRANCH  15  18
ATOM     18  C   UNL d   1       2.231   3.571   4.797  0.00  0.00    -0.054 C 
ATOM     19  C   UNL d   1       2.502   4.022   5.874  0.00  0.00    -0.061 C 
BRANCH  19  20
ATOM     20  C   UNL d   1       2.829   4.543   7.170  0.00  0.00     0.018 A 
ATOM     21  C   UNL d   1       2.062   4.180   8.281  0.00  0.00     0.020 A 
ATOM     22  C   UNL d   1       2.385   4.675   9.546  0.00  0.00     0.001 A 
ATOM     23  C   UNL d   1       3.474   5.532   9.704  0.00  0.00     0.000 A 
ATOM     24  C   UNL d   1       4.241   5.896   8.597  0.00  0.00     0.001 A 
ATOM     25  C   UNL d   1       3.919   5.402   7.330  0.00  0.00     0.020 A 
ENDBRANCH  19  20
ENDBRANCH  15  18
ENDBRANCH   2  13
TORSDOF 5
