REMARK  4 active torsions:
REMARK  status: ('A' for Active; 'I' for Inactive)
REMARK    1  A    between atoms: C_7  and  C_1 
REMARK    2  A    between atoms: C_13  and  C_3 
REMARK    3  A    between atoms: C_6  and  C_14 
REMARK       I    between atoms: N_12  and  C_7 
REMARK    4  A    between atoms: C_14  and  N_12 
ROOT
ATOM      1  C   UNL d   1      -2.694  -1.349   0.007  0.00  0.00     0.254 C 
ATOM      2  N   UNL d   1      -3.914  -0.733   0.165  0.00  0.00    -0.353 N 
ATOM      3  O   UNL d   1      -2.625  -2.567  -0.180  0.00  0.00    -0.268 OA
ATOM      4  H   UNL d   1      -3.973   0.242   0.398  0.00  0.00     0.163 HD
ENDROOT
BRANCH   2   5
ATOM      5  C   UNL d   1      -5.149  -1.471  -0.039  0.00  0.00     0.162 C 
BRANCH   5   6
ATOM      6  C   UNL d   1      -5.729  -1.960   1.262  0.00  0.00    -0.022 A 
ATOM      7  C   UNL d   1      -7.085  -1.705   1.730  0.00  0.00    -0.009 A 
ATOM      8  C   UNL d   1      -7.348  -2.355   2.942  0.00  0.00     0.015 A 
ATOM      9  C   UNL d   1      -8.145  -0.950   1.157  0.00  0.00     0.037 A 
ATOM     10  C   UNL d   1      -8.599  -2.262   3.589  0.00  0.00     0.021 A 
ATOM     11  S   UNL d   1      -5.986  -3.249   3.487  0.00  0.00    -0.101 SA
ATOM     12  C   UNL d   1      -9.613  -1.504   3.003  0.00  0.00     0.025 A 
ATOM     13  C   UNL d   1      -9.385  -0.859   1.798  0.00  0.00     0.035 A 
ATOM     14 CL   UNL d   1     -10.646   0.066   1.078  0.00  0.00    -0.084 Cl
ATOM     15  C   UNL d   1      -5.064  -2.809   2.129  0.00  0.00     0.060 A 
ENDBRANCH   5   6
ENDBRANCH   2   5
BRANCH   1  16
ATOM     16  C   UNL d   1      -1.467  -0.554   0.058  0.00  0.00     0.063 A 
ATOM     17  C   UNL d   1      -0.164  -1.164   0.045  0.00  0.00     0.053 A 
ATOM     18  C   UNL d   1       0.779  -0.165   0.041  0.00  0.00     0.062 A 
ATOM     19  O   UNL d   1       0.140   1.035   0.069  0.00  0.00    -0.318 OA
ATOM     20  C   UNL d   1      -1.211   0.810   0.070  0.00  0.00     0.065 A 
ATOM     21  C   UNL d   1      -1.979   2.074   0.051  0.00  0.00     0.077 C 
BRANCH  18  22
ATOM     22  C   UNL d   1       2.285  -0.131   0.001  0.00  0.00    -0.002 C 
ATOM     23  C   UNL d   1       2.870  -1.556  -0.013  0.00  0.00     0.021 C 
ATOM     24  C   UNL d   1       2.755   0.600  -1.270  0.00  0.00     0.021 C 
ATOM     25  C   UNL d   1       2.821   0.605   1.241  0.00  0.00     0.021 C 
ENDBRANCH  18  22
ENDBRANCH   1  16
TORSDOF 4
