REMARK  3 active torsions:
REMARK  status: ('A' for Active; 'I' for Inactive)
REMARK    1  A    between atoms: C_2  and  N_1 
REMARK    2  A    between atoms: C_10  and  C_5 
REMARK    3  A    between atoms: C_6  and  C_11 
ROOT
ATOM      1  C   UNL d   1       0.544   1.217  -0.713  0.00  0.00     0.103 A 
ATOM      2  C   UNL d   1       0.917   1.328  -2.062  0.00  0.00     0.047 A 
ATOM      3  C   UNL d   1      -0.040   1.675  -3.023  0.00  0.00    -0.034 A 
ATOM      4  C   UNL d   1      -0.773   1.467  -0.309  0.00  0.00     0.036 A 
ATOM      5  C   UNL d   1      -1.720   1.833  -1.262  0.00  0.00     0.003 A 
ATOM      6  C   UNL d   1      -1.354   1.940  -2.606  0.00  0.00     0.011 A 
ENDROOT
BRANCH   3   7
ATOM      7  C   UNL d   1       0.281   1.824  -4.449  0.00  0.00     0.013 C 
ATOM      8  C   UNL d   1       1.215   1.119  -5.112  0.00  0.00     0.030 C 
BRANCH   8   9
ATOM      9  C   UNL d   1       1.470   1.273  -6.553  0.00  0.00     0.031 A 
ATOM     10  N   UNL d   1       0.718   2.177  -7.226  0.00  0.00    -0.366 N 
ATOM     11  C   UNL d   1       0.937   2.307  -8.552  0.00  0.00     0.088 A 
ATOM     12  HN  UNL d   1       0.013   2.739  -6.749  1.00  0.00     0.165 HD
ATOM     13  C   UNL d   1       1.878   1.573  -9.252  0.00  0.00     0.017 A 
ATOM     14  C   UNL d   1       2.643   0.651  -8.550  0.00  0.00     0.004 A 
ATOM     15  C   UNL d   1       2.439   0.496  -7.180  0.00  0.00     0.029 A 
ENDBRANCH   8   9
ENDBRANCH   3   7
BRANCH   1  16
ATOM     16  N   UNL d   1       1.548   0.833   0.287  0.00  0.00    -0.116 N 
ATOM     17  O   UNL d   1       2.700   0.605  -0.109  0.00  0.00    -0.532 OA
ATOM     18  O   UNL d   1       1.184   0.753   1.469  0.00  0.00    -0.532 OA
ENDBRANCH   1  16
TORSDOF 3
