REMARK  3 active torsions:
REMARK  status: ('A' for Active; 'I' for Inactive)
REMARK    1  A    between atoms: C_5  and  C_1 
REMARK    2  A    between atoms: C_8  and  C_2 
REMARK       I    between atoms: N_12  and  C_8 
REMARK    3  A    between atoms: N_15  and  N_12 
ROOT
ATOM      1  C   UNL d   1      -1.292  -0.846   0.229  0.00  0.00     0.086 A 
ATOM      2  C   UNL d   1       0.035  -1.316  -0.028  0.00  0.00     0.094 A 
ATOM      3  N   UNL d   1      -1.263   0.448   0.585  0.00  0.00    -0.259 N 
ATOM      4  HN  UNL d   1      -2.057   1.016   0.879  1.00  0.00     0.195 HD
ATOM      5  O   UNL d   1       0.043   0.857   0.476  0.00  0.00    -0.241 OA
ATOM      6  C   UNL d   1       0.824  -0.190   0.104  0.00  0.00     0.090 A 
ATOM      7  C   UNL d   1       2.252   0.137  -0.086  0.00  0.00     0.080 C 
ENDROOT
BRANCH   1   8
ATOM      8  C   UNL d   1      -2.567  -1.575   0.203  0.00  0.00     0.037 A 
ATOM      9  C   UNL d   1      -2.769  -2.745   0.962  0.00  0.00     0.048 A 
ATOM     10 CL   UNL d   1      -1.583  -3.385   2.056  0.00  0.00    -0.083 Cl
ATOM     11  C   UNL d   1      -3.992  -3.432   0.919  0.00  0.00     0.025 A 
ATOM     12  C   UNL d   1      -5.050  -2.943   0.162  0.00  0.00     0.003 A 
ATOM     13  C   UNL d   1      -4.884  -1.772  -0.570  0.00  0.00     0.025 A 
ATOM     14  C   UNL d   1      -3.652  -1.101  -0.566  0.00  0.00     0.048 A 
ATOM     15 CL   UNL d   1      -3.558   0.309  -1.573  0.00  0.00    -0.083 Cl
ENDBRANCH   1   8
BRANCH   2  16
ATOM     16  C   UNL d   1       0.461  -2.655  -0.365  0.00  0.00     0.270 C 
ATOM     17  O   UNL d   1      -0.184  -3.393  -1.108  0.00  0.00    -0.266 OA
ATOM     18  N   UNL d   1       1.607  -3.074   0.310  0.00  0.00    -0.290 N 
ATOM     19  H   UNL d   1       2.024  -2.478   1.022  0.00  0.00     0.183 HD
BRANCH  18  20
ATOM     20  N   UNL d   1       2.030  -4.422   0.232  0.00  0.00    -0.247 NA
ATOM     21  H   UNL d   1       1.489  -4.865  -0.526  0.00  0.00     0.143 HD
ATOM     22  H   UNL d   1       1.712  -4.904   1.076  0.00  0.00     0.143 HD
ENDBRANCH  18  20
ENDBRANCH   2  16
TORSDOF 3
