REMARK  2 active torsions:
REMARK  status: ('A' for Active; 'I' for Inactive)
REMARK    1  A    between atoms: N_12  and  C_3 
REMARK    2  A    between atoms: S_11  and  C_4 
ROOT
ATOM      1  N   UNL d   1      -0.722   1.129   0.033  0.00  0.00    -0.327 N 
ATOM      2  HN  UNL d   1      -1.227   2.015   0.045  1.00  0.00     0.169 HD
ATOM      3  C   UNL d   1      -1.370  -0.049   0.075  0.00  0.00     0.102 A 
ATOM      4  C   UNL d   1       0.620   1.087  -0.026  0.00  0.00     0.142 A 
ATOM      5  C   UNL d   1      -0.704  -1.261   0.075  0.00  0.00     0.098 A 
ATOM      6  N   UNL d   1       1.356  -0.034  -0.048  0.00  0.00    -0.345 N 
ATOM      7  HN  UNL d   1       2.374  -0.011  -0.104  1.00  0.00     0.167 HD
ATOM      8  C   UNL d   1      -1.367  -2.519   0.127  0.00  0.00     0.104 C 
ATOM      9  N   UNL d   1      -1.892  -3.554   0.142  0.00  0.00    -0.191 NA
ATOM     10  C   UNL d   1       0.671  -1.192   0.006  0.00  0.00     0.116 A 
ENDROOT
BRANCH   3  11
ATOM     11  N   UNL d   1      -2.756   0.044   0.200  0.00  0.00    -0.287 NA
ATOM     12  H   UNL d   1      -3.031   1.020   0.123  0.00  0.00     0.125 HD
ATOM     13  H   UNL d   1      -3.279  -0.553  -0.433  0.00  0.00     0.125 HD
ENDBRANCH   3  11
BRANCH   4  14
ATOM     14  S   UNL d   1       1.472   2.633  -0.071  0.00  0.00    -0.107 SA
ATOM     15  H   UNL d   1       0.351   3.358   0.011  0.00  0.00     0.110 HD
ENDBRANCH   4  14
TORSDOF 2
