REMARK  5 active torsions:
REMARK  status: ('A' for Active; 'I' for Inactive)
REMARK       I    between atoms: N_3  and  C_1 
REMARK    1  A    between atoms: C_9  and  C_1 
REMARK       I    between atoms: C_2  and  N_4 
REMARK    2  A    between atoms: C_10  and  C_2 
REMARK    3  A    between atoms: C_5  and  N_3 
REMARK    4  A    between atoms: N_4  and  C_6 
REMARK    5  A    between atoms: C_11  and  C_7 
ROOT
ATOM      1  C   UNL d   1       1.059  -2.360  -0.030  0.00  0.00     0.062 A 
ATOM      2  C   UNL d   1       2.118  -2.369   0.897  0.00  0.00     0.061 A 
ATOM      3  C   UNL d   1       1.105  -4.845  -0.078  0.00  0.00    -0.048 A 
ATOM      4  C   UNL d   1       0.574  -3.606  -0.499  0.00  0.00     0.039 A 
ATOM      5  C   UNL d   1       2.703  -3.583   1.262  0.00  0.00     0.032 A 
ATOM      6  C   UNL d   1       2.214  -4.798   0.778  0.00  0.00     0.010 A 
ENDROOT
BRANCH   1   7
ATOM      7  N   UNL d   1       0.425  -1.205  -0.585  0.00  0.00    -0.323 N 
ATOM      8  C   UNL d   1       0.788   0.133  -0.538  0.00  0.00     0.255 C 
ATOM      9  O   UNL d   1       1.773   0.585   0.066  0.00  0.00    -0.270 OA
ATOM     10  H   UNL d   1      -0.351  -1.409  -1.214  0.00  0.00     0.169 HD
BRANCH   8  11
ATOM     11  C   UNL d   1      -0.161   1.117  -1.225  0.00  0.00     0.270 C 
ATOM     12 CL   UNL d   1      -1.089   0.348  -2.530  0.00  0.00    -0.098 Cl
ATOM     13 CL   UNL d   1      -1.247   1.778   0.011  0.00  0.00    -0.098 Cl
ENDBRANCH   8  11
ENDBRANCH   1   7
BRANCH   2  14
ATOM     14  N   UNL d   1       2.533  -1.199   1.551  0.00  0.00    -0.323 N 
ATOM     15  C   UNL d   1       3.841  -0.875   1.873  0.00  0.00     0.255 C 
ATOM     16  O   UNL d   1       4.807  -1.578   1.561  0.00  0.00    -0.270 OA
ATOM     17  H   UNL d   1       1.924  -0.391   1.444  0.00  0.00     0.169 HD
BRANCH  15  18
ATOM     18  C   UNL d   1       4.017   0.503   2.528  0.00  0.00     0.270 C 
ATOM     19 CL   UNL d   1       2.554   1.028   3.408  0.00  0.00    -0.098 Cl
ATOM     20 CL   UNL d   1       5.383   0.454   3.671  0.00  0.00    -0.098 Cl
ENDBRANCH  15  18
ENDBRANCH   2  14
BRANCH   3  21
ATOM     21  C   UNL d   1       0.527  -6.200  -0.536  0.00  0.00    -0.024 C 
ATOM     22  C   UNL d   1       1.257  -6.659  -1.812  0.00  0.00     0.019 C 
ATOM     23  C   UNL d   1       0.693  -7.302   0.542  0.00  0.00     0.019 C 
ATOM     24  C   UNL d   1      -0.988  -6.124  -0.835  0.00  0.00     0.019 C 
ENDBRANCH   3  21
TORSDOF 5
