REMARK  7 active torsions:
REMARK  status: ('A' for Active; 'I' for Inactive)
REMARK    1  A    between atoms: N_7  and  S_1 
REMARK    2  A    between atoms: C_11  and  S_1 
REMARK    3  A    between atoms: C_8  and  C_2 
REMARK    4  A    between atoms: C_4  and  C_14 
REMARK    5  A    between atoms: C_10  and  C_5 
REMARK    6  A    between atoms: C_19  and  N_9 
REMARK    7  A    between atoms: O_28  and  C_10 
ROOT
ATOM      1  C   UNL d   1       0.476   1.646  -0.020  0.00  0.00     0.074 A 
ATOM      2  C   UNL d   1      -0.487   4.260   0.307  0.00  0.00    -0.025 A 
ATOM      3  C   UNL d   1       1.357   2.719  -0.099  0.00  0.00     0.025 A 
ATOM      4  C   UNL d   1      -0.886   1.853   0.192  0.00  0.00     0.025 A 
ATOM      5  C   UNL d   1      -1.359   3.156   0.367  0.00  0.00     0.014 A 
ATOM      6  C   UNL d   1       0.867   4.020   0.035  0.00  0.00     0.014 A 
ENDROOT
BRANCH   1   7
ATOM      7  S   UNL d   1       1.075  -0.006  -0.202  0.00  0.00     0.243 S 
ATOM      8  O   UNL d   1       0.305  -0.627  -1.250  0.00  0.00    -0.206 OA
ATOM      9  O   UNL d   1       2.523   0.047  -0.272  0.00  0.00    -0.206 OA
BRANCH   7  10
ATOM     10  N   UNL d   1       0.628  -0.722   1.278  0.00  0.00    -0.203 NA
ATOM     11  C   UNL d   1       1.279  -0.187   2.523  0.00  0.00     0.127 C 
ATOM     12  C   UNL d   1       2.725  -0.691   2.704  0.00  0.00     0.138 C 
ATOM     13  N   UNL d   1       2.759  -2.164   2.607  0.00  0.00    -0.379 N 
ATOM     14  C   UNL d   1       2.161  -2.714   1.378  0.00  0.00     0.138 C 
ATOM     15  C   UNL d   1       0.707  -2.220   1.269  0.00  0.00     0.127 C 
BRANCH  13  16
ATOM     16  C   UNL d   1       3.601  -2.912   3.408  0.00  0.00     0.030 A 
ATOM     17  C   UNL d   1       4.238  -4.077   2.955  0.00  0.00     0.029 A 
ATOM     18  C   UNL d   1       5.032  -4.861   3.800  0.00  0.00     0.002 A 
ATOM     19  C   UNL d   1       5.215  -4.490   5.127  0.00  0.00     0.000 A 
ATOM     20  C   UNL d   1       4.604  -3.339   5.604  0.00  0.00     0.002 A 
ATOM     21  C   UNL d   1       3.806  -2.568   4.755  0.00  0.00     0.029 A 
ENDBRANCH  13  16
ENDBRANCH   7  10
ENDBRANCH   1   7
BRANCH   2  22
ATOM     22  C   UNL d   1      -1.026   5.617   0.496  0.00  0.00    -0.002 A 
ATOM     23  C   UNL d   1      -0.358   6.661   1.137  0.00  0.00     0.100 A 
ATOM     24  S   UNL d   1      -1.335   8.079   1.203  0.00  0.00    -0.079 SA
ATOM     25  C   UNL d   1      -2.654   7.331   0.431  0.00  0.00     0.081 A 
ATOM     26  C   UNL d   1      -2.348   6.029   0.094  0.00  0.00     0.038 A 
BRANCH  23  27
ATOM     27  C   UNL d   1       1.006   6.732   1.759  0.00  0.00     0.424 C 
ATOM     28  F   UNL d   1       1.212   7.856   2.497  0.00  0.00    -0.166 F 
ATOM     29  F   UNL d   1       1.243   5.684   2.592  0.00  0.00    -0.166 F 
ATOM     30  F   UNL d   1       1.991   6.722   0.821  0.00  0.00    -0.166 F 
ENDBRANCH  23  27
BRANCH  25  31
ATOM     31  C   UNL d   1      -3.879   8.081   0.218  0.00  0.00     0.299 C 
ATOM     32  O   UNL d   1      -4.088   9.241   0.551  0.00  0.00    -0.259 OA
BRANCH  31  33
ATOM     33  O   UNL d   1      -4.795   7.293  -0.420  0.00  0.00    -0.322 OA
ATOM     34  C   UNL d   1      -6.033   7.951  -0.694  0.00  0.00     0.213 C 
ENDBRANCH  31  33
ENDBRANCH  25  31
ENDBRANCH   2  22
TORSDOF 7
