REMARK  3 active torsions:
REMARK  status: ('A' for Active; 'I' for Inactive)
REMARK    1  A    between atoms: N_15  and  C_4 
REMARK    2  A    between atoms: N_11  and  N_15 
REMARK    3  A    between atoms: C_14  and  C_17 
ROOT
ATOM      1  C   UNL d   1       0.234  -0.779   0.185  0.00  0.00     0.044 A 
ATOM      2  C   UNL d   1       0.082   0.600   0.091  0.00  0.00     0.088 A 
ATOM      3  S   UNL d   1       1.552   1.452   0.178  0.00  0.00    -0.083 SA
ATOM      4  C   UNL d   1      -0.973  -1.527   0.100  0.00  0.00     0.113 A 
ATOM      5  C   UNL d   1       1.641  -1.122   0.378  0.00  0.00    -0.039 A 
ATOM      6  C   UNL d   1       2.436   0.012   0.379  0.00  0.00     0.059 A 
ATOM      7  N   UNL d   1      -1.064   1.283  -0.055  0.00  0.00    -0.346 N 
ATOM      8  HN  UNL d   1      -1.113   2.299  -0.135  1.00  0.00     0.167 HD
ATOM      9  N   UNL d   1      -2.145  -0.848  -0.007  0.00  0.00    -0.341 N 
ATOM     10  HN  UNL d   1      -3.031  -1.353  -0.028  1.00  0.00     0.167 HD
ATOM     11  C   UNL d   1      -2.127   0.487  -0.085  0.00  0.00     0.182 A 
ATOM     12  C   UNL d   1       2.232  -2.481   0.577  0.00  0.00     0.050 C 
ENDROOT
BRANCH   4  13
ATOM     13  N   UNL d   1      -0.980  -2.949   0.138  0.00  0.00    -0.190 NA
ATOM     14  H   UNL d   1      -0.213  -3.259  -0.457  0.00  0.00     0.154 HD
BRANCH  13  15
ATOM     15  N   UNL d   1      -2.162  -3.573  -0.155  0.00  0.00    -0.326 N 
ATOM     16  C   UNL d   1      -2.492  -4.454   0.741  0.00  0.00     0.115 C 
ATOM     17  HN  UNL d   1      -2.721  -3.370  -0.983  1.00  0.00     0.180 HD
BRANCH  16  18
ATOM     18  C   UNL d   1      -3.739  -5.244   0.642  0.00  0.00     0.002 A 
ATOM     19  C   UNL d   1      -4.153  -6.099   1.672  0.00  0.00     0.045 A 
ATOM     20 CL   UNL d   1      -3.261  -6.311   3.137  0.00  0.00    -0.083 Cl
ATOM     21  C   UNL d   1      -5.344  -6.824   1.540  0.00  0.00     0.024 A 
ATOM     22  C   UNL d   1      -6.119  -6.705   0.386  0.00  0.00     0.002 A 
ATOM     23  C   UNL d   1      -5.708  -5.860  -0.643  0.00  0.00     0.001 A 
ATOM     24  C   UNL d   1      -4.524  -5.131  -0.516  0.00  0.00     0.014 A 
ENDBRANCH  16  18
ENDBRANCH  13  15
ENDBRANCH   4  13
TORSDOF 3
