REMARK  2 active torsions:
REMARK  status: ('A' for Active; 'I' for Inactive)
REMARK    1  A    between atoms: N_6  and  C_1 
REMARK    2  A    between atoms: N_5  and  C_2 
ROOT
ATOM      1  C   UNL d   1       0.630  -1.552   0.028  0.00  0.00     0.116 A 
ATOM      2  C   UNL d   1      -0.747  -1.516  -0.076  0.00  0.00     0.116 A 
ATOM      3  C   UNL d   1       0.709  -0.066   0.093  0.00  0.00     0.252 A 
ATOM      4  C   UNL d   1      -0.749  -0.030  -0.135  0.00  0.00     0.252 A 
ATOM      5  O   UNL d   1       1.535   0.806   0.206  0.00  0.00    -0.281 OA
ATOM      6  O   UNL d   1      -1.535   0.884  -0.236  0.00  0.00    -0.281 OA
ENDROOT
BRANCH   1   7
ATOM      7  N   UNL d   1       1.611  -2.441   0.087  0.00  0.00    -0.376 N 
ATOM      8  C   UNL d   1       1.534  -3.767  -0.537  0.00  0.00     0.123 C 
ATOM      9  C   UNL d   1       1.854  -4.846   0.499  0.00  0.00     0.020 C 
ATOM     10  C   UNL d   1       3.173  -4.568   1.218  0.00  0.00     0.003 C 
ATOM     11  C   UNL d   1       3.239  -3.133   1.742  0.00  0.00     0.020 C 
ATOM     12  C   UNL d   1       2.936  -2.125   0.634  0.00  0.00     0.123 C 
ENDBRANCH   1   7
BRANCH   2  13
ATOM     13  N   UNL d   1      -1.770  -2.357  -0.131  0.00  0.00    -0.376 N 
ATOM     14  C   UNL d   1      -1.758  -3.638   0.586  0.00  0.00     0.123 C 
ATOM     15  C   UNL d   1      -2.239  -4.741  -0.349  0.00  0.00     0.020 C 
ATOM     16  C   UNL d   1      -3.626  -4.414  -0.898  0.00  0.00     0.003 C 
ATOM     17  C   UNL d   1      -3.661  -3.017  -1.520  0.00  0.00     0.020 C 
ATOM     18  C   UNL d   1      -3.111  -1.949  -0.570  0.00  0.00     0.123 C 
ENDBRANCH   2  13
TORSDOF 2
