REMARK  6 active torsions:
REMARK  status: ('A' for Active; 'I' for Inactive)
REMARK    1  A    between atoms: N_2  and  S_1 
REMARK    2  A    between atoms: C_3  and  S_1 
REMARK    3  A    between atoms: C_6  and  N_2 
REMARK    4  A    between atoms: C_7  and  C_6 
REMARK    5  A    between atoms: C_10  and  C_7 
REMARK    6  A    between atoms: O_14  and  C_7 
ROOT
ATOM      1  N   UNL d   1       0.437   0.445  -1.295  0.00  0.00    -0.313 N 
ATOM      2  H   UNL d   1      -0.487   0.093  -1.543  0.00  0.00     0.172 HD
ENDROOT
BRANCH   1   3
ATOM      3  S   UNL d   1       0.887  -0.003   0.264  0.00  0.00     0.258 S 
ATOM      4  O   UNL d   1       2.325  -0.116   0.313  0.00  0.00    -0.201 OA
ATOM      5  O   UNL d   1       0.016  -1.100   0.641  0.00  0.00    -0.201 OA
BRANCH   3   6
ATOM      6  C   UNL d   1       0.406   1.420   1.206  0.00  0.00     0.079 A 
ATOM      7  C   UNL d   1      -0.953   1.730   1.308  0.00  0.00     0.026 A 
ATOM      8  C   UNL d   1      -1.334   2.925   1.914  0.00  0.00     0.008 A 
ATOM      9  C   UNL d   1      -0.366   3.801   2.427  0.00  0.00    -0.062 A 
ATOM     10  C   UNL d   1       0.990   3.459   2.345  0.00  0.00     0.008 A 
ATOM     11  C   UNL d   1      -0.795   5.095   3.052  0.00  0.00     0.048 C 
ATOM     12  C   UNL d   1       1.381   2.265   1.738  0.00  0.00     0.026 A 
ENDBRANCH   3   6
ENDBRANCH   1   3
BRANCH   1  13
ATOM     13  C   UNL d   1       0.823   1.760  -1.837  0.00  0.00     0.169 C 
BRANCH  13  14
ATOM     14  C   UNL d   1       2.340   2.006  -1.972  0.00  0.00     0.169 C 
BRANCH  14  15
ATOM     15  C   UNL d   1       3.080   1.044  -2.881  0.00  0.00    -0.028 A 
ATOM     16  C   UNL d   1       2.522   0.559  -4.074  0.00  0.00     0.010 A 
ATOM     17  C   UNL d   1       3.228  -0.337  -4.880  0.00  0.00     0.001 A 
ATOM     18  C   UNL d   1       4.508  -0.745  -4.515  0.00  0.00     0.000 A 
ATOM     19  C   UNL d   1       5.088  -0.253  -3.349  0.00  0.00     0.001 A 
ATOM     20  C   UNL d   1       4.380   0.638  -2.539  0.00  0.00     0.010 A 
ENDBRANCH  14  15
BRANCH  14  21
ATOM     21  O   UNL d   1       2.513   3.346  -2.458  0.00  0.00    -0.389 OA
ATOM     22  H   UNL d   1       2.913   3.290  -3.343  0.00  0.00     0.210 HD
ENDBRANCH  14  21
ENDBRANCH  13  14
ENDBRANCH   1  13
TORSDOF 6
