REMARK  3 active torsions:
REMARK  status: ('A' for Active; 'I' for Inactive)
REMARK    1  A    between atoms: C_2  and  C_1 
REMARK       I    between atoms: N_3  and  C_1 
REMARK    2  A    between atoms: C_6  and  N_3 
REMARK    3  A    between atoms: N_11  and  C_5 
ROOT
ATOM      1  C   UNL d   1       0.957   0.142   0.100  0.00  0.00     0.258 C 
ATOM      2  N   UNL d   1       0.267  -0.555  -0.879  0.00  0.00    -0.323 N 
ATOM      3  O   UNL d   1       2.097  -0.095   0.497  0.00  0.00    -0.267 OA
ATOM      4  H   UNL d   1      -0.629  -0.186  -1.171  0.00  0.00     0.169 HD
ENDROOT
BRANCH   1   5
ATOM      5  C   UNL d   1       0.233   1.289   0.726  0.00  0.00     0.053 A 
ATOM      6  C   UNL d   1       0.964   2.406   1.189  0.00  0.00     0.021 A 
ATOM      7  C   UNL d   1       0.265   3.468   1.776  0.00  0.00     0.024 A 
ATOM      8  C   UNL d   1      -1.112   3.387   1.994  0.00  0.00     0.002 A 
ATOM      9  C   UNL d   1      -1.818   2.256   1.592  0.00  0.00     0.001 A 
ATOM     10  C   UNL d   1      -1.151   1.208   0.958  0.00  0.00     0.019 A 
BRANCH   6  11
ATOM     11  N   UNL d   1       2.329   2.593   0.882  0.00  0.00    -0.302 NA
ATOM     12  H   UNL d   1       2.792   1.687   0.738  0.00  0.00     0.124 HD
ATOM     13  H   UNL d   1       2.826   3.151   1.568  0.00  0.00     0.124 HD
ENDBRANCH   6  11
ENDBRANCH   1   5
BRANCH   2  14
ATOM     14  C   UNL d   1       0.691  -1.733  -1.535  0.00  0.00     0.035 A 
ATOM     15  C   UNL d   1       1.922  -2.350  -1.300  0.00  0.00     0.037 A 
ATOM     16  C   UNL d   1       2.281  -3.548  -1.942  0.00  0.00    -0.054 A 
ATOM     17  C   UNL d   1       3.621  -4.161  -1.635  0.00  0.00     0.049 C 
ATOM     18  C   UNL d   1       1.381  -4.147  -2.841  0.00  0.00    -0.056 A 
ATOM     19  C   UNL d   1       0.154  -3.518  -3.092  0.00  0.00     0.009 A 
ATOM     20  C   UNL d   1       1.708  -5.446  -3.522  0.00  0.00     0.049 C 
ATOM     21  C   UNL d   1      -0.185  -2.322  -2.450  0.00  0.00     0.030 A 
ENDBRANCH   2  14
TORSDOF 3
