REMARK  1 active torsions:
REMARK  status: ('A' for Active; 'I' for Inactive)
REMARK       I    between atoms: C_7  and  N_9 
REMARK       I    between atoms: N_13  and  C_7 
REMARK    1  A    between atoms: N_9  and  C_10 
ROOT
ATOM      1  N   UNL d   1       1.646   1.162   0.002  0.00  0.00    -0.338 N 
ATOM      2  HN  UNL d   1       2.054   2.097   0.001  1.00  0.00     0.168 HD
ATOM      3  C   UNL d   1       2.270   0.001   0.004  0.00  0.00     0.120 A 
ATOM      4  O   UNL d   1       1.447  -1.099   0.006  0.00  0.00    -0.296 OA
ATOM      5  C   UNL d   1       0.188  -0.562   0.004  0.00  0.00     0.106 A 
ATOM      6  C   UNL d   1       0.323   0.815   0.003  0.00  0.00     0.068 A 
ATOM      7  C   UNL d   1      -1.032  -1.241   0.004  0.00  0.00     0.069 A 
ATOM      8  C   UNL d   1      -2.190  -0.440   0.004  0.00  0.00     0.039 A 
ATOM      9  C   UNL d   1      -0.826   1.606   0.001  0.00  0.00     0.035 A 
ATOM     10  C   UNL d   1      -2.072   0.960   0.003  0.00  0.00     0.032 A 
ATOM     11  C   UNL d   1       3.724  -0.249   0.004  0.00  0.00     0.098 C 
ENDROOT
BRANCH   8  12
ATOM     12  N   UNL d   1      -3.442  -1.103  -0.001  0.00  0.00    -0.309 N 
ATOM     13  C   UNL d   1      -4.691  -0.515   0.016  0.00  0.00     0.320 C 
ATOM     14  O   UNL d   1      -4.928   0.687   0.056  0.00  0.00    -0.247 OA
ATOM     15  N   UNL d   1      -5.705  -1.445  -0.035  0.00  0.00    -0.347 N 
ATOM     16  C   UNL d   1      -7.093  -1.041  -0.021  0.00  0.00     0.151 C 
ATOM     17  H   UNL d   1      -5.494  -2.425   0.062  0.00  0.00     0.163 HD
ATOM     18  H   UNL d   1      -3.421  -2.110  -0.027  0.00  0.00     0.170 HD
ENDBRANCH   8  12
TORSDOF 1
