REMARK  1 active torsions:
REMARK  status: ('A' for Active; 'I' for Inactive)
REMARK    1  A    between atoms: C_2  and  N_1 
ROOT
ATOM      1  C   UNL d   1       0.004   2.323  -0.036  0.00  0.00     0.080 A 
ATOM      2  C   UNL d   1       0.628   3.020  -1.088  0.00  0.00     0.040 A 
ATOM      3  C   UNL d   1      -0.608   3.075   0.985  0.00  0.00     0.040 A 
ATOM      4  C   UNL d   1       0.643   4.421  -1.111  0.00  0.00     0.028 A 
ATOM      5  C   UNL d   1      -0.594   4.477   0.952  0.00  0.00     0.028 A 
ATOM      6  C   UNL d   1       0.033   5.160  -0.093  0.00  0.00    -0.059 A 
ATOM      7 BR   UNL d   1      -1.363   2.280   2.546  0.00  0.00    -0.049 Br
ATOM      8 BR   UNL d   1       1.365   2.146  -2.614  0.00  0.00    -0.049 Br
ATOM      9  C   UNL d   1       0.059   6.659  -0.135  0.00  0.00     0.048 C 
ENDROOT
BRANCH   1  10
ATOM     10  N   UNL d   1      -0.003   0.912  -0.003  0.00  0.00    -0.243 N 
ATOM     11  C   UNL d   1       1.113   0.131   0.058  0.00  0.00     0.255 A 
ATOM     12  C   UNL d   1       0.655  -1.264   0.078  0.00  0.00     0.080 A 
ATOM     13  O   UNL d   1       2.288   0.442   0.145  0.00  0.00    -0.268 OA
ATOM     14  C   UNL d   1      -0.677  -1.260   0.051  0.00  0.00     0.080 A 
ATOM     15  C   UNL d   1      -1.124   0.138  -0.016  0.00  0.00     0.255 A 
ATOM     16  O   UNL d   1      -2.297   0.451  -0.121  0.00  0.00    -0.268 OA
ENDBRANCH   1  10
TORSDOF 1
