REMARK  7 active torsions:
REMARK  status: ('A' for Active; 'I' for Inactive)
REMARK    1  A    between atoms: C_11  and  N_9 
REMARK    2  A    between atoms: C_17  and  C_11 
REMARK    3  A    between atoms: N_14  and  C_19 
REMARK    4  A    between atoms: C_18  and  N_14 
REMARK    5  A    between atoms: C_19  and  C_17 
REMARK    6  A    between atoms: O_25  and  C_17 
REMARK    7  A    between atoms: O_26  and  C_20 
ROOT
ATOM      1  C   UNL d   1       2.112   2.369   0.099  0.00  0.00     0.163 C 
ENDROOT
BRANCH   1   2
ATOM      2  N   UNL d   1       1.570   2.921   1.332  0.00  0.00    -0.333 N 
ATOM      3  C   UNL d   1       1.187   4.216   1.564  0.00  0.00     0.149 A 
ATOM      4  C   UNL d   1       0.499   4.178   2.741  0.00  0.00     0.145 A 
ATOM      5  C   UNL d   1       1.382   5.414   0.822  0.00  0.00     0.282 C 
ATOM      6  N   UNL d   1      -0.116   5.295   3.252  0.00  0.00    -0.287 N 
ATOM      7  N   UNL d   1       0.490   2.929   3.280  0.00  0.00    -0.336 N 
ATOM      8  C   UNL d   1       0.087   6.530   2.637  0.00  0.00     0.332 C 
ATOM      9  C   UNL d   1      -0.955   5.236   4.434  0.00  0.00     0.163 C 
ATOM     10  N   UNL d   1       0.891   6.548   1.482  0.00  0.00    -0.269 N 
ATOM     11  O   UNL d   1      -0.431   7.561   3.086  0.00  0.00    -0.246 OA
ATOM     12  C   UNL d   1       1.190   7.828   0.871  0.00  0.00     0.164 C 
ATOM     13  C   UNL d   1       1.177   2.195   2.428  0.00  0.00     0.185 A 
ATOM     14  HN  UNL d   1       0.051   2.627   4.150  1.00  0.00     0.168 HD
ATOM     15  O   UNL d   1       1.918   5.442  -0.286  0.00  0.00    -0.265 OA
ENDBRANCH   1   2
BRANCH   1  16
ATOM     16  C   UNL d   1       3.640   2.422  -0.011  0.00  0.00     0.154 C 
BRANCH  16  17
ATOM     17  C   UNL d   1       4.125   1.818  -1.362  0.00  0.00     0.153 C 
BRANCH  17  18
ATOM     18  N   UNL d   1       5.583   1.877  -1.425  0.00  0.00    -0.387 N 
ATOM     19  H   UNL d   1       6.033   1.738  -0.523  0.00  0.00     0.159 HD
BRANCH  18  20
ATOM     20  C   UNL d   1       6.332   1.399  -2.491  0.00  0.00     0.028 A 
ATOM     21  C   UNL d   1       5.869   1.313  -3.808  0.00  0.00     0.032 A 
ATOM     22  C   UNL d   1       6.712   0.892  -4.855  0.00  0.00     0.039 A 
ATOM     23  C   UNL d   1       8.039   0.554  -4.601  0.00  0.00     0.068 A 
ATOM     24  C   UNL d   1       8.520   0.664  -3.299  0.00  0.00     0.039 A 
ATOM     25  C   UNL d   1       7.682   1.096  -2.267  0.00  0.00     0.032 A 
BRANCH  23  26
ATOM     26  O   UNL d   1       8.963   0.121  -5.510  0.00  0.00    -0.356 OA
ATOM     27  C   UNL d   1       8.536  -0.017  -6.857  0.00  0.00     0.210 C 
ENDBRANCH  23  26
ENDBRANCH  18  20
ENDBRANCH  17  18
ENDBRANCH  16  17
BRANCH  16  28
ATOM     28  O   UNL d   1       4.118   3.765   0.124  0.00  0.00    -0.392 OA
ATOM     29  H   UNL d   1       3.775   4.295  -0.624  0.00  0.00     0.210 HD
ENDBRANCH  16  28
ENDBRANCH   1  16
TORSDOF 7
