REMARK  8 active torsions:
REMARK  status: ('A' for Active; 'I' for Inactive)
REMARK    1  A    between atoms: C_14  and  C_2 
REMARK    2  A    between atoms: C_15  and  C_3 
REMARK    3  A    between atoms: S_17  and  C_6 
REMARK    4  A    between atoms: C_13  and  C_14 
REMARK    5  A    between atoms: C_25  and  S_17 
REMARK    6  A    between atoms: C_18  and  C_25 
REMARK       I    between atoms: N_21  and  C_18 
REMARK    7  A    between atoms: C_27  and  N_21 
REMARK    8  A    between atoms: O_34  and  C_29 
ROOT
ATOM      1  N   UNL d   1       1.008   0.089   0.260  0.00  0.00    -0.319 N 
ATOM      2  C   UNL d   1       0.138   1.113  -0.036  0.00  0.00     0.107 A 
ATOM      3  C   UNL d   1       0.225  -1.029   0.396  0.00  0.00     0.162 A 
ATOM      4  N   UNL d   1      -1.075   0.607  -0.170  0.00  0.00    -0.286 N 
ATOM      5  HN  UNL d   1      -1.913   1.128  -0.427  1.00  0.00     0.188 HD
ATOM      6  N   UNL d   1      -1.019  -0.735   0.093  0.00  0.00    -0.278 N 
ATOM      7  HN  UNL d   1      -1.802  -1.388   0.061  1.00  0.00     0.189 HD
ATOM      8  C   UNL d   1       2.442   0.132   0.413  0.00  0.00     0.159 C 
ENDROOT
BRANCH   2   9
ATOM      9  C   UNL d   1       0.469   2.565  -0.173  0.00  0.00     0.164 C 
BRANCH   9  10
ATOM     10  C   UNL d   1       0.978   3.139   1.095  0.00  0.00     0.155 A 
ATOM     11  N   UNL d   1       2.223   3.281   1.480  0.00  0.00    -0.321 N 
ATOM     12  C   UNL d   1       2.099   3.576   2.822  0.00  0.00     0.156 A 
ATOM     13  HN  UNL d   1       3.074   3.195   0.924  1.00  0.00     0.169 HD
ATOM     14  N   UNL d   1       0.823   3.726   3.220  0.00  0.00    -0.241 N 
ATOM     15  O   UNL d   1       0.077   3.430   2.076  0.00  0.00    -0.222 OA
ATOM     16  HN  UNL d   1       0.479   3.994   4.143  1.00  0.00     0.196 HD
BRANCH  12  17
ATOM     17  C   UNL d   1       3.253   3.570   3.716  0.00  0.00     0.094 A 
ATOM     18  N   UNL d   1       4.467   3.281   3.163  0.00  0.00    -0.360 N 
ATOM     19  C   UNL d   1       5.505   3.184   4.025  0.00  0.00     0.105 A 
ATOM     20  HN  UNL d   1       4.584   3.146   2.159  1.00  0.00     0.165 HD
ATOM     21  C   UNL d   1       5.353   3.358   5.389  0.00  0.00     0.104 A 
ATOM     22  N   UNL d   1       4.159   3.648   5.952  0.00  0.00    -0.372 N 
ATOM     23  C   UNL d   1       3.115   3.748   5.087  0.00  0.00     0.121 A 
ATOM     24  HN  UNL d   1       4.049   3.781   6.957  1.00  0.00     0.164 HD
ENDBRANCH  12  17
ENDBRANCH   9  10
ENDBRANCH   2   9
BRANCH   3  25
ATOM     25  S   UNL d   1       0.769  -2.498   1.116  0.00  0.00    -0.083 SA
BRANCH  25  26
ATOM     26  C   UNL d   1      -0.669  -3.583   1.018  0.00  0.00     0.185 C 
BRANCH  26  27
ATOM     27  C   UNL d   1      -1.919  -3.211   1.798  0.00  0.00     0.231 C 
ATOM     28  N   UNL d   1      -1.910  -2.027   2.514  0.00  0.00    -0.327 N 
ATOM     29  H   UNL d   1      -1.198  -1.359   2.256  0.00  0.00     0.169 HD
ATOM     30  O   UNL d   1      -2.874  -3.992   1.743  0.00  0.00    -0.272 OA
BRANCH  28  31
ATOM     31  C   UNL d   1      -3.014  -1.493   3.208  0.00  0.00     0.034 A 
ATOM     32  C   UNL d   1      -4.078  -2.281   3.649  0.00  0.00     0.032 A 
ATOM     33  C   UNL d   1      -5.221  -1.696   4.193  0.00  0.00     0.039 A 
ATOM     34  C   UNL d   1      -5.305  -0.311   4.327  0.00  0.00     0.068 A 
ATOM     35  C   UNL d   1      -4.206   0.473   3.969  0.00  0.00     0.039 A 
ATOM     36  C   UNL d   1      -3.061  -0.113   3.421  0.00  0.00     0.032 A 
BRANCH  34  37
ATOM     37  O   UNL d   1      -6.397   0.375   4.780  0.00  0.00    -0.356 OA
ATOM     38  C   UNL d   1      -7.560  -0.405   5.044  0.00  0.00     0.210 C 
ENDBRANCH  34  37
ENDBRANCH  28  31
ENDBRANCH  26  27
ENDBRANCH  25  26
ENDBRANCH   3  25
TORSDOF 8
