REMARK  3 active torsions:
REMARK  status: ('A' for Active; 'I' for Inactive)
REMARK    1  A    between atoms: C_2  and  C_1 
REMARK    2  A    between atoms: N_3  and  C_1 
REMARK       I    between atoms: N_5  and  C_2 
REMARK    3  A    between atoms: C_6  and  N_3 
ROOT
ATOM      1  C   UNL d   1      -1.329   0.126  -0.110  0.00  0.00     0.237 C 
ATOM      2  C   UNL d   1      -0.280   0.945   0.685  0.00  0.00     0.052 C 
ATOM      3  C   UNL d   1      -0.808  -1.347  -0.150  0.00  0.00     0.052 C 
ATOM      4  C   UNL d   1       1.135   0.834   0.108  0.00  0.00     0.003 C 
ATOM      5  C   UNL d   1       0.624  -1.503  -0.662  0.00  0.00     0.003 C 
ATOM      6  C   UNL d   1       1.601  -0.616   0.097  0.00  0.00     0.000 C 
ENDROOT
BRANCH   1   7
ATOM      7  C   UNL d   1      -2.736   0.001   0.566  0.00  0.00     0.254 C 
ATOM      8  O   UNL d   1      -3.712  -0.483  -0.007  0.00  0.00    -0.271 OA
ATOM      9  N   UNL d   1      -2.870   0.369   1.870  0.00  0.00    -0.368 N 
ATOM     10  H   UNL d   1      -2.107   0.634   2.473  0.00  0.00     0.159 HD
ATOM     11  H   UNL d   1      -3.775   0.210   2.292  0.00  0.00     0.159 HD
ENDBRANCH   1   7
BRANCH   1  12
ATOM     12  N   UNL d   1      -1.446   0.631  -1.518  0.00  0.00     0.107 N 
ATOM     13  H   UNL d   1      -1.733  -0.168  -2.090  0.00  0.00     0.318 HD
BRANCH  12  14
ATOM     14  C   UNL d   1      -2.431   1.702  -1.800  0.00  0.00     0.222 C 
ATOM     15  C   UNL d   1      -2.486   1.938  -3.329  0.00  0.00     0.035 C 
ATOM     16  C   UNL d   1      -1.267   2.681  -3.878  0.00  0.00     0.002 C 
ATOM     17  C   UNL d   1      -1.006   3.984  -3.127  0.00  0.00     0.000 C 
ATOM     18  C   UNL d   1      -0.934   3.761  -1.620  0.00  0.00     0.002 C 
ATOM     19  C   UNL d   1      -2.189   3.055  -1.113  0.00  0.00     0.035 C 
ENDBRANCH  12  14
ENDBRANCH   1  12
TORSDOF 3
