REMARK  4 active torsions:
REMARK  status: ('A' for Active; 'I' for Inactive)
REMARK    1  A    between atoms: C_6  and  C_1 
REMARK    2  A    between atoms: C_18  and  N_4 
REMARK       I    between atoms: N_5  and  C_6 
REMARK    3  A    between atoms: O_21  and  C_15 
REMARK    4  A    between atoms: O_23  and  C_17 
ROOT
ATOM      1  N   UNL d   1      -1.851  -3.222  -0.128  0.00  0.00    -0.338 N 
ATOM      2  C   UNL d   1      -0.606  -2.631   0.134  0.00  0.00     0.274 C 
ATOM      3  C   UNL d   1      -3.075  -5.372   0.174  0.00  0.00    -0.026 A 
ATOM      4  C   UNL d   1      -2.405  -4.176   0.843  0.00  0.00     0.117 C 
ATOM      5  C   UNL d   1      -3.308  -5.411  -1.211  0.00  0.00    -0.045 A 
ATOM      6  C   UNL d   1      -3.470  -6.473   0.954  0.00  0.00     0.049 A 
ATOM      7  C   UNL d   1      -2.668  -2.991  -1.323  0.00  0.00     0.131 C 
ATOM      8  C   UNL d   1      -4.102  -7.583   0.377  0.00  0.00     0.102 A 
ATOM      9  C   UNL d   1      -3.910  -6.537  -1.794  0.00  0.00     0.047 A 
ATOM     10  C   UNL d   1      -4.313  -7.622  -1.011  0.00  0.00     0.102 A 
ATOM     11  O   UNL d   1       0.127  -3.024   1.044  0.00  0.00    -0.266 OA
ATOM     12  C   UNL d   1      -2.848  -4.288  -2.100  0.00  0.00     0.059 C 
ATOM     13  C   UNL d   1      -3.390  -3.452   1.774  0.00  0.00     0.037 C 
ENDROOT
BRANCH   2  14
ATOM     14  C   UNL d   1      -0.173  -1.528  -0.730  0.00  0.00     0.141 C 
ATOM     15  N   UNL d   1      -0.999  -0.545  -1.127  0.00  0.00    -0.272 N 
ATOM     16  N   UNL d   1      -0.241   0.143  -2.014  0.00  0.00    -0.196 N 
ATOM     17  HN  UNL d   1      -1.958  -0.363  -0.833  1.00  0.00     0.189 HD
ATOM     18  N   UNL d   1       1.064  -0.223  -2.090  0.00  0.00    -0.281 N 
ATOM     19  C   UNL d   1       1.118  -1.269  -1.250  0.00  0.00     0.057 C 
ATOM     20  HN  UNL d   1       1.814   0.191  -2.643  1.00  0.00     0.189 HD
ATOM     21  C   UNL d   1       2.381  -2.007  -1.021  0.00  0.00     0.072 C 
BRANCH  16  22
ATOM     22  C   UNL d   1      -0.827   1.108  -2.871  0.00  0.00     0.074 A 
ATOM     23  C   UNL d   1      -2.172   1.471  -2.693  0.00  0.00     0.033 A 
ATOM     24  C   UNL d   1      -2.771   2.386  -3.558  0.00  0.00     0.002 A 
ATOM     25  C   UNL d   1      -2.035   2.934  -4.607  0.00  0.00     0.000 A 
ATOM     26  C   UNL d   1      -0.698   2.575  -4.789  0.00  0.00     0.002 A 
ATOM     27  C   UNL d   1      -0.087   1.667  -3.920  0.00  0.00     0.033 A 
ENDBRANCH  16  22
ENDBRANCH   2  14
BRANCH   8  28
ATOM     28  O   UNL d   1      -4.493  -8.686   1.096  0.00  0.00    -0.353 OA
ATOM     29  C   UNL d   1      -4.830  -8.457   2.458  0.00  0.00     0.210 C 
ENDBRANCH   8  28
BRANCH  10  30
ATOM     30  O   UNL d   1      -4.920  -8.750  -1.506  0.00  0.00    -0.353 OA
ATOM     31  C   UNL d   1      -5.166  -8.800  -2.905  0.00  0.00     0.210 C 
ENDBRANCH  10  30
TORSDOF 4
