REMARK  4 active torsions:
REMARK  status: ('A' for Active; 'I' for Inactive)
REMARK       I    between atoms: N_4  and  C_1 
REMARK    1  A    between atoms: O_7  and  C_1 
REMARK    2  A    between atoms: N_2  and  N_4 
REMARK    3  A    between atoms: C_8  and  C_6 
REMARK    4  A    between atoms: C_15  and  O_7 
ROOT
ATOM      1  N   UNL d   1       0.983   1.932   1.625  0.00  0.00    -0.307 N 
ATOM      2  HN  UNL d   1       1.982   2.082   1.482  1.00  0.00     0.186 HD
ATOM      3  C   UNL d   1       0.321   2.554   2.548  0.00  0.00     0.118 C 
ENDROOT
BRANCH   1   4
ATOM      4  N   UNL d   1       0.265   1.067   0.858  0.00  0.00    -0.246 N 
ATOM      5  C   UNL d   1       0.837   0.332  -0.159  0.00  0.00     0.379 C 
ATOM      6  O   UNL d   1       0.187  -0.482  -0.808  0.00  0.00    -0.237 OA
ATOM      7  H   UNL d   1      -0.716   0.899   1.038  0.00  0.00     0.192 HD
BRANCH   5   8
ATOM      8  O   UNL d   1       2.157   0.605  -0.350  0.00  0.00    -0.303 OA
BRANCH   8   9
ATOM      9  C   UNL d   1       2.822  -0.166  -1.358  0.00  0.00     0.176 C 
ATOM     10  C   UNL d   1       2.620   0.452  -2.730  0.00  0.00     0.034 C 
ENDBRANCH   8   9
ENDBRANCH   5   8
ENDBRANCH   1   4
BRANCH   3  11
ATOM     11  C   UNL d   1       0.998   3.511   3.446  0.00  0.00    -0.019 A 
ATOM     12  C   UNL d   1       2.383   3.698   3.358  0.00  0.00     0.014 A 
ATOM     13  C   UNL d   1       3.018   4.615   4.196  0.00  0.00     0.024 A 
ATOM     14  C   UNL d   1       2.268   5.342   5.119  0.00  0.00     0.034 A 
ATOM     15  C   UNL d   1       0.888   5.153   5.215  0.00  0.00     0.024 A 
ATOM     16 CL   UNL d   1       3.050   6.482   6.142  0.00  0.00    -0.084 Cl
ATOM     17  C   UNL d   1       0.248   4.234   4.379  0.00  0.00     0.014 A 
ENDBRANCH   3  11
TORSDOF 4
