REMARK  3 active torsions:
REMARK  status: ('A' for Active; 'I' for Inactive)
REMARK    1  A    between atoms: C_2  and  S_1 
REMARK    2  A    between atoms: N_7  and  S_1 
REMARK    3  A    between atoms: C_11  and  N_7 
ROOT
ATOM      1  S   UNL d   1      -1.155  -1.787   0.166  0.00  0.00     0.263 S 
ATOM      2  O   UNL d   1      -1.395  -0.891   1.273  0.00  0.00    -0.200 OA
ATOM      3  O   UNL d   1      -1.916  -1.732  -1.059  0.00  0.00    -0.200 OA
ENDROOT
BRANCH   1   4
ATOM      4  C   UNL d   1      -1.474  -3.327   0.835  0.00  0.00     0.134 A 
ATOM      5  C   UNL d   1      -2.328  -4.315   0.401  0.00  0.00     0.098 A 
ATOM      6  O   UNL d   1      -2.250  -5.366   1.265  0.00  0.00    -0.241 OA
ATOM      7  C   UNL d   1      -3.258  -4.504  -0.729  0.00  0.00     0.081 C 
ATOM      8  N   UNL d   1      -1.325  -5.092   2.252  0.00  0.00    -0.264 N 
ATOM      9  C   UNL d   1      -0.861  -3.865   1.992  0.00  0.00     0.054 A 
ATOM     10  HN  UNL d   1      -1.051  -5.701   3.023  1.00  0.00     0.194 HD
ATOM     11  C   UNL d   1       0.180  -3.274   2.864  0.00  0.00     0.072 C 
ENDBRANCH   1   4
BRANCH   1  12
ATOM     12  N   UNL d   1       0.477  -1.666  -0.206  0.00  0.00    -0.310 N 
ATOM     13  H   UNL d   1       1.091  -1.565   0.603  0.00  0.00     0.172 HD
BRANCH  12  14
ATOM     14  C   UNL d   1       0.989  -2.366  -1.392  0.00  0.00     0.101 C 
ATOM     15  C   UNL d   1       0.953  -3.899  -1.267  0.00  0.00     0.065 C 
ATOM     16  C   UNL d   1       1.980  -4.274  -2.286  0.00  0.00    -0.050 A 
ATOM     17  C   UNL d   1       2.110  -5.475  -2.957  0.00  0.00     0.007 A 
ATOM     18  C   UNL d   1       2.851  -3.202  -2.523  0.00  0.00    -0.050 A 
ATOM     19  C   UNL d   1       3.126  -5.588  -3.905  0.00  0.00     0.001 A 
ATOM     20  C   UNL d   1       4.003  -4.517  -4.145  0.00  0.00     0.001 A 
ATOM     21  C   UNL d   1       3.878  -3.315  -3.443  0.00  0.00     0.007 A 
ATOM     22  C   UNL d   1       2.469  -2.023  -1.678  0.00  0.00     0.065 C 
ENDBRANCH  12  14
ENDBRANCH   1  12
TORSDOF 3
