REMARK  3 active torsions:
REMARK  status: ('A' for Active; 'I' for Inactive)
REMARK       I    between atoms: N_2  and  C_1 
REMARK       I    between atoms: N_4  and  C_1 
REMARK    1  A    between atoms: C_3  and  N_2 
REMARK    2  A    between atoms: O_9  and  C_6 
REMARK    3  A    between atoms: O_10  and  C_7 
ROOT
ATOM      1  C   UNL d   1       1.024   1.438   1.694  0.00  0.00     0.083 A 
ATOM      2  C   UNL d   1       2.172   2.172   1.314  0.00  0.00     0.092 A 
ATOM      3  C   UNL d   1       0.473   1.639   2.982  0.00  0.00     0.092 A 
ATOM      4  C   UNL d   1       2.199   3.266   3.500  0.00  0.00     0.006 A 
ATOM      5  C   UNL d   1       1.066   2.548   3.871  0.00  0.00     0.039 A 
ATOM      6  C   UNL d   1       2.741   3.068   2.233  0.00  0.00     0.039 A 
ENDROOT
BRANCH   1   7
ATOM      7  N   UNL d   1       0.315   0.628   0.778  0.00  0.00    -0.205 NA
ATOM      8  C   UNL d   1       0.773  -0.641   0.468  0.00  0.00     0.301 C 
ATOM      9  N   UNL d   1      -0.025  -1.313  -0.446  0.00  0.00    -0.335 N 
ATOM     10  O   UNL d   1       1.797  -1.140   0.935  0.00  0.00    -0.254 OA
ATOM     11  C   UNL d   1      -1.172  -0.760  -1.178  0.00  0.00     0.153 C 
ATOM     12  C   UNL d   1       0.311  -2.689  -0.821  0.00  0.00     0.153 C 
ATOM     13  C   UNL d   1      -1.012  -0.980  -2.687  0.00  0.00     0.187 C 
ATOM     14  O   UNL d   1      -0.776  -2.363  -2.987  0.00  0.00    -0.388 OA
ATOM     15  C   UNL d   1       0.423  -2.823  -2.342  0.00  0.00     0.187 C 
ATOM     16  H   UNL d   1      -0.679   0.607   0.972  0.00  0.00     0.138 HD
ENDBRANCH   1   7
BRANCH   2  17
ATOM     17  O   UNL d   1       2.830   2.240   0.116  0.00  0.00    -0.354 OA
ATOM     18  C   UNL d   1       2.366   1.540  -1.021  0.00  0.00     0.210 C 
ENDBRANCH   2  17
BRANCH   3  19
ATOM     19  O   UNL d   1      -0.690   1.085   3.460  0.00  0.00    -0.354 OA
ATOM     20  C   UNL d   1      -0.862  -0.320   3.298  0.00  0.00     0.210 C 
ENDBRANCH   3  19
TORSDOF 3
