REMARK WARNING: 32 MAX_TORS EXCEEDED!!!
REMARK  40 active torsions:
REMARK  status: ('A' for Active; 'I' for Inactive)
REMARK    1  A    between atoms: C_5  and  S_1 
REMARK    2  A    between atoms: N_12  and  S_1 
REMARK    3  A    between atoms: S_2  and  C_6 
REMARK    4  A    between atoms: N_13  and  S_2 
REMARK    5  A    between atoms: C_22  and  N_12 
REMARK    6  A    between atoms: C_23  and  N_12 
REMARK    7  A    between atoms: C_24  and  N_13 
REMARK    8  A    between atoms: C_25  and  N_13 
REMARK    9  A    between atoms: C_26  and  C_22 
REMARK   10  A    between atoms: C_27  and  C_23 
REMARK   11  A    between atoms: C_28  and  C_24 
REMARK   12  A    between atoms: C_29  and  C_25 
REMARK   13  A    between atoms: C_50  and  C_26 
REMARK   14  A    between atoms: C_51  and  C_27 
REMARK   15  A    between atoms: C_52  and  C_28 
REMARK   16  A    between atoms: C_53  and  C_29 
REMARK   17  A    between atoms: C_30  and  C_34 
REMARK   18  A    between atoms: C_31  and  C_35 
REMARK   19  A    between atoms: C_32  and  C_36 
REMARK   20  A    between atoms: C_33  and  C_37 
REMARK   21  A    between atoms: C_34  and  C_46 
REMARK   22  A    between atoms: C_35  and  C_47 
REMARK   23  A    between atoms: C_36  and  C_48 
REMARK   24  A    between atoms: C_37  and  C_49 
REMARK   25  A    between atoms: C_38  and  C_54 
REMARK   26  A    between atoms: C_42  and  C_38 
REMARK   27  A    between atoms: C_39  and  C_55 
REMARK   28  A    between atoms: C_43  and  C_39 
REMARK   29  A    between atoms: C_40  and  C_56 
REMARK   30  A    between atoms: C_44  and  C_40 
REMARK   31  A    between atoms: C_41  and  C_57 
REMARK   32  A    between atoms: C_45  and  C_41 
REMARK   33  A    between atoms: C_46  and  C_42 
REMARK   34  A    between atoms: C_47  and  C_43 
REMARK   35  A    between atoms: C_48  and  C_44 
REMARK   36  A    between atoms: C_49  and  C_45 
REMARK   37  A    between atoms: C_54  and  C_50 
REMARK   38  A    between atoms: C_55  and  C_51 
REMARK   39  A    between atoms: C_56  and  C_52 
REMARK   40  A    between atoms: C_57  and  C_53 
ROOT
ATOM      1  C   UNL d   1       0.482   3.207   2.281  0.00  0.00    -0.041 A 
ATOM      2  C   UNL d   1       0.067   4.917   3.828  0.00  0.00    -0.041 A 
ATOM      3  C   UNL d   1       0.630   1.058   1.280  0.00  0.00     0.075 A 
ATOM      4  C   UNL d   1      -0.380   6.033   5.872  0.00  0.00     0.075 A 
ATOM      5  C   UNL d   1      -0.120   2.636   3.424  0.00  0.00    -0.019 A 
ATOM      6  C   UNL d   1      -0.323   3.684   4.399  0.00  0.00    -0.019 A 
ATOM      7  C   UNL d   1       0.615   4.704   2.436  0.00  0.00     0.078 A 
ATOM      8  C   UNL d   1       0.900   2.431   1.221  0.00  0.00     0.033 A 
ATOM      9  C   UNL d   1       0.011   6.105   4.535  0.00  0.00     0.033 A 
ATOM     10  C   UNL d   1      -0.709   3.612   5.724  0.00  0.00     0.014 A 
ATOM     11  C   UNL d   1      -0.377   1.275   3.488  0.00  0.00     0.014 A 
ATOM     12  C   UNL d   1      -0.003   0.483   2.399  0.00  0.00     0.026 A 
ATOM     13  C   UNL d   1      -0.679   4.788   6.474  0.00  0.00     0.026 A 
ENDROOT
BRANCH   3  14
ATOM     14  S   UNL d   1       1.238   0.002  -0.014  0.00  0.00     0.243 S 
ATOM     15  O   UNL d   1       1.331  -1.325   0.548  0.00  0.00    -0.206 OA
ATOM     16  O   UNL d   1       2.398   0.645  -0.594  0.00  0.00    -0.206 OA
BRANCH  14  17
ATOM     17  N   UNL d   1      -0.008   0.014  -1.227  0.00  0.00    -0.206 NA
BRANCH  17  18
ATOM     18  C   UNL d   1      -0.404   1.395  -1.684  0.00  0.00     0.107 C 
BRANCH  18  19
ATOM     19  C   UNL d   1      -1.605   1.393  -2.645  0.00  0.00     0.015 C 
BRANCH  19  20
ATOM     20  C   UNL d   1      -2.812   0.602  -2.136  0.00  0.00     0.001 C 
BRANCH  20  21
ATOM     21  C   UNL d   1      -3.373   1.220  -0.864  0.00  0.00     0.000 C 
BRANCH  21  22
ATOM     22  C   UNL d   1      -4.553   0.428  -0.323  0.00  0.00     0.000 C 
BRANCH  22  23
ATOM     23  C   UNL d   1      -5.067   1.100   0.944  0.00  0.00     0.000 C 
BRANCH  23  24
ATOM     24  C   UNL d   1      -6.244   0.333   1.525  0.00  0.00     0.000 C 
BRANCH  24  25
ATOM     25  C   UNL d   1      -6.760   1.023   2.782  0.00  0.00    -0.000 C 
BRANCH  25  26
ATOM     26  C   UNL d   1      -7.945   0.263   3.365  0.00  0.00    -0.005 C 
ATOM     27  C   UNL d   1      -8.468   0.946   4.615  0.00  0.00     0.005 C 
ENDBRANCH  25  26
ENDBRANCH  24  25
ENDBRANCH  23  24
ENDBRANCH  22  23
ENDBRANCH  21  22
ENDBRANCH  20  21
ENDBRANCH  19  20
ENDBRANCH  18  19
ENDBRANCH  17  18
BRANCH  17  28
ATOM     28  C   UNL d   1       0.367  -0.819  -2.412  0.00  0.00     0.107 C 
BRANCH  28  29
ATOM     29  C   UNL d   1       0.500  -2.301  -2.121  0.00  0.00     0.015 C 
BRANCH  29  30
ATOM     30  C   UNL d   1       0.752  -3.026  -3.437  0.00  0.00     0.001 C 
BRANCH  30  31
ATOM     31  C   UNL d   1       0.957  -4.511  -3.207  0.00  0.00     0.000 C 
BRANCH  31  32
ATOM     32  C   UNL d   1       1.259  -5.204  -4.529  0.00  0.00     0.000 C 
BRANCH  32  33
ATOM     33  C   UNL d   1       1.462  -6.694  -4.303  0.00  0.00     0.000 C 
BRANCH  33  34
ATOM     34  C   UNL d   1       1.764  -7.404  -5.616  0.00  0.00     0.000 C 
BRANCH  34  35
ATOM     35  C   UNL d   1       1.962  -8.896  -5.375  0.00  0.00    -0.000 C 
BRANCH  35  36
ATOM     36  C   UNL d   1       2.263  -9.627  -6.678  0.00  0.00    -0.005 C 
ATOM     37  C   UNL d   1       2.461 -11.112  -6.433  0.00  0.00     0.005 C 
ENDBRANCH  35  36
ENDBRANCH  34  35
ENDBRANCH  33  34
ENDBRANCH  32  33
ENDBRANCH  31  32
ENDBRANCH  30  31
ENDBRANCH  29  30
ENDBRANCH  28  29
ENDBRANCH  17  28
ENDBRANCH  14  17
ENDBRANCH   3  14
BRANCH   4  38
ATOM     38  S   UNL d   1      -0.270   7.497   6.882  0.00  0.00     0.243 S 
ATOM     39  O   UNL d   1       0.380   7.104   8.111  0.00  0.00    -0.206 OA
ATOM     40  O   UNL d   1       0.284   8.542   6.053  0.00  0.00    -0.206 OA
BRANCH  38  41
ATOM     41  N   UNL d   1      -1.907   7.944   7.303  0.00  0.00    -0.206 NA
BRANCH  41  42
ATOM     42  C   UNL d   1      -2.674   6.800   7.891  0.00  0.00     0.107 C 
BRANCH  42  43
ATOM     43  C   UNL d   1      -4.131   7.092   8.217  0.00  0.00     0.015 C 
BRANCH  43  44
ATOM     44  C   UNL d   1      -4.789   5.827   8.767  0.00  0.00     0.001 C 
BRANCH  44  45
ATOM     45  C   UNL d   1      -6.227   6.118   9.164  0.00  0.00     0.000 C 
BRANCH  45  46
ATOM     46  C   UNL d   1      -6.891   4.887   9.764  0.00  0.00     0.000 C 
BRANCH  46  47
ATOM     47  C   UNL d   1      -8.327   5.215  10.150  0.00  0.00     0.000 C 
BRANCH  47  48
ATOM     48  C   UNL d   1      -9.019   4.000  10.752  0.00  0.00     0.000 C 
BRANCH  48  49
ATOM     49  C   UNL d   1     -10.457   4.340  11.130  0.00  0.00    -0.000 C 
BRANCH  49  50
ATOM     50  C   UNL d   1     -11.161   3.130  11.732  0.00  0.00    -0.005 C 
ATOM     51  C   UNL d   1     -12.593   3.464  12.108  0.00  0.00     0.005 C 
ENDBRANCH  49  50
ENDBRANCH  48  49
ENDBRANCH  47  48
ENDBRANCH  46  47
ENDBRANCH  45  46
ENDBRANCH  44  45
ENDBRANCH  43  44
ENDBRANCH  42  43
ENDBRANCH  41  42
BRANCH  41  52
ATOM     52  C   UNL d   1      -1.918   9.138   8.231  0.00  0.00     0.107 C 
BRANCH  52  53
ATOM     53  C   UNL d   1      -1.461  10.443   7.585  0.00  0.00     0.015 C 
BRANCH  53  54
ATOM     54  C   UNL d   1      -2.224  10.814   6.313  0.00  0.00     0.001 C 
BRANCH  54  55
ATOM     55  C   UNL d   1      -3.712  11.040   6.573  0.00  0.00     0.000 C 
BRANCH  55  56
ATOM     56  C   UNL d   1      -4.443  11.428   5.293  0.00  0.00     0.000 C 
BRANCH  56  57
ATOM     57  C   UNL d   1      -5.925  11.652   5.576  0.00  0.00     0.000 C 
BRANCH  57  58
ATOM     58  C   UNL d   1      -6.668  12.032   4.299  0.00  0.00     0.000 C 
BRANCH  58  59
ATOM     59  C   UNL d   1      -8.148  12.269   4.580  0.00  0.00    -0.000 C 
BRANCH  59  60
ATOM     60  C   UNL d   1      -8.889  12.653   3.303  0.00  0.00    -0.005 C 
ATOM     61  C   UNL d   1     -10.364  12.896   3.576  0.00  0.00     0.005 C 
ENDBRANCH  59  60
ENDBRANCH  58  59
ENDBRANCH  57  58
ENDBRANCH  56  57
ENDBRANCH  55  56
ENDBRANCH  54  55
ENDBRANCH  53  54
ENDBRANCH  52  53
ENDBRANCH  41  52
ENDBRANCH  38  41
ENDBRANCH   4  38
TORSDOF 40
