REMARK  5 active torsions:
REMARK  status: ('A' for Active; 'I' for Inactive)
REMARK    1  A    between atoms: N_2  and  S_1 
REMARK    2  A    between atoms: C_9  and  S_1 
REMARK    3  A    between atoms: C_3  and  N_4 
REMARK    4  A    between atoms: C_26  and  C_18 
REMARK    5  A    between atoms: C_27  and  C_26 
ROOT
ATOM      1  C   UNL d   1       1.246   0.290  -2.189  0.00  0.00     0.074 A 
ATOM      2  N   UNL d   1       0.971   0.705  -7.543  0.00  0.00    -0.191 NA
ATOM      3  C   UNL d   1       1.037   0.599  -6.386  0.00  0.00     0.099 C 
ATOM      4  C   UNL d   1       2.336   0.801  -2.893  0.00  0.00     0.026 A 
ATOM      5  C   UNL d   1       0.102  -0.161  -2.858  0.00  0.00     0.026 A 
ATOM      6  C   UNL d   1       1.113   0.475  -4.962  0.00  0.00     0.044 A 
ATOM      7  C   UNL d   1       0.035  -0.061  -4.248  0.00  0.00     0.024 A 
ATOM      8  C   UNL d   1       2.265   0.896  -4.283  0.00  0.00     0.024 A 
ENDROOT
BRANCH   1   9
ATOM      9  S   UNL d   1       1.309   0.156  -0.417  0.00  0.00     0.243 S 
ATOM     10  O   UNL d   1       1.080  -1.242  -0.117  0.00  0.00    -0.206 OA
ATOM     11  O   UNL d   1       2.483   0.851   0.052  0.00  0.00    -0.206 OA
BRANCH   9  12
ATOM     12  N   UNL d   1      -0.062   1.054   0.040  0.00  0.00    -0.203 NA
ATOM     13  C   UNL d   1       0.122   2.530   0.268  0.00  0.00     0.128 C 
ATOM     14  C   UNL d   1       0.525   2.913   1.721  0.00  0.00     0.157 C 
ATOM     15  N   UNL d   1      -0.081   2.053   2.739  0.00  0.00    -0.215 N 
ATOM     16  C   UNL d   1      -0.145   0.622   2.471  0.00  0.00     0.157 C 
ATOM     17  C   UNL d   1      -0.868   0.441   1.134  0.00  0.00     0.128 C 
BRANCH  15  18
ATOM     18  C   UNL d   1      -0.722   2.550   3.842  0.00  0.00     0.679 A 
ATOM     19  N   UNL d   1      -1.005   1.702   4.847  0.00  0.00    -0.201 N 
ATOM     20  C   UNL d   1      -1.617   2.191   5.939  0.00  0.00     0.114 A 
ATOM     21  HN  UNL d   1      -0.760   0.714   4.782  1.00  0.00     0.183 HD
ATOM     22  C   UNL d   1      -2.006   3.501   6.069  0.00  0.00    -0.026 A 
ATOM     23  C   UNL d   1      -1.694   4.290   4.985  0.00  0.00     0.114 A 
ATOM     24  N   UNL d   1      -1.055   3.847   3.884  0.00  0.00    -0.201 N 
ATOM     25  HN  UNL d   1      -0.833   4.475   3.111  1.00  0.00     0.183 HD
BRANCH  22  26
ATOM     26  C   UNL d   1      -2.708   4.012   7.287  0.00  0.00     0.041 C 
BRANCH  26  27
ATOM     27  C   UNL d   1      -4.102   4.581   7.005  0.00  0.00     0.000 C 
ATOM     28  C   UNL d   1      -5.066   3.547   6.439  0.00  0.00     0.005 C 
ENDBRANCH  26  27
ENDBRANCH  22  26
ENDBRANCH  15  18
ENDBRANCH   9  12
ENDBRANCH   1   9
TORSDOF 5
