REMARK  6 active torsions:
REMARK  status: ('A' for Active; 'I' for Inactive)
REMARK    1  A    between atoms: C_3  and  C_1 
REMARK    2  A    between atoms: C_12  and  N_2 
REMARK       I    between atoms: N_5  and  C_7 
REMARK    3  A    between atoms: C_8  and  N_5 
REMARK    4  A    between atoms: C_7  and  C_11 
REMARK    5  A    between atoms: C_13  and  C_8 
REMARK    6  A    between atoms: C_19  and  C_12 
ROOT
ATOM      1  C   UNL d   1      -4.064   3.004  -1.621  0.00  0.00     0.033 A 
ATOM      2  C   UNL d   1      -3.147   1.962  -1.416  0.00  0.00     0.026 A 
ATOM      3  C   UNL d   1      -3.458   0.904  -0.545  0.00  0.00    -0.039 A 
ATOM      4  C   UNL d   1      -5.329   2.941  -1.017  0.00  0.00     0.017 A 
ATOM      5  C   UNL d   1      -5.633   1.910  -0.133  0.00  0.00     0.002 A 
ATOM      6  C   UNL d   1      -4.696   0.914   0.117  0.00  0.00     0.009 A 
ENDROOT
BRANCH   1   7
ATOM      7  C   UNL d   1      -3.654   4.181  -2.451  0.00  0.00     0.257 C 
ATOM      8  N   UNL d   1      -4.292   5.375  -2.124  0.00  0.00    -0.309 N 
ATOM      9  H   UNL d   1      -4.958   5.326  -1.372  0.00  0.00     0.170 HD
ATOM     10  O   UNL d   1      -2.774   4.077  -3.298  0.00  0.00    -0.267 OA
BRANCH   8  11
ATOM     11  C   UNL d   1      -4.173   6.611  -2.732  0.00  0.00     0.112 C 
ATOM     12  N   UNL d   1      -3.379   6.816  -3.720  0.00  0.00    -0.385 N 
ATOM     13  H   UNL d   1      -2.866   5.938  -3.919  0.00  0.00     0.157 HD
ATOM     14  HN  UNL d   1      -3.271   7.695  -4.225  1.00  0.00     0.157 HD
BRANCH  11  15
ATOM     15  C   UNL d   1      -5.068   7.684  -2.209  0.00  0.00     0.008 A 
ATOM     16  C   UNL d   1      -5.487   7.713  -0.869  0.00  0.00     0.017 A 
ATOM     17  C   UNL d   1      -6.413   8.671  -0.444  0.00  0.00     0.025 A 
ATOM     18  C   UNL d   1      -6.904   9.610  -1.348  0.00  0.00     0.034 A 
ATOM     19  C   UNL d   1      -6.461   9.617  -2.668  0.00  0.00     0.025 A 
ATOM     20 CL   UNL d   1      -8.076  10.758  -0.829  0.00  0.00    -0.084 Cl
ATOM     21  C   UNL d   1      -5.539   8.657  -3.099  0.00  0.00     0.017 A 
ENDBRANCH  11  15
ENDBRANCH   8  11
ENDBRANCH   1   7
BRANCH   3  22
ATOM     22  C   UNL d   1      -2.512  -0.263  -0.336  0.00  0.00     0.170 C 
BRANCH  22  23
ATOM     23  N   UNL d   1      -2.934  -1.443  -1.095  0.00  0.00    -0.320 N 
ATOM     24  C   UNL d   1      -2.462  -1.624  -2.388  0.00  0.00     0.110 A 
ATOM     25  C   UNL d   1      -2.867  -2.651  -3.156  0.00  0.00     0.063 A 
ATOM     26  C   UNL d   1      -3.857  -3.569  -2.623  0.00  0.00     0.023 A 
ATOM     27  C   UNL d   1      -4.331  -3.426  -1.379  0.00  0.00     0.075 A 
ATOM     28  C   UNL d   1      -3.845  -2.322  -0.509  0.00  0.00     0.247 A 
ATOM     29  O   UNL d   1      -4.272  -2.241   0.639  0.00  0.00    -0.268 OA
BRANCH  25  30
ATOM     30  C   UNL d   1      -2.350  -2.850  -4.553  0.00  0.00     0.418 C 
ATOM     31  F   UNL d   1      -3.045  -3.786  -5.248  0.00  0.00    -0.166 F 
ATOM     32  F   UNL d   1      -2.405  -1.704  -5.278  0.00  0.00    -0.166 F 
ATOM     33  F   UNL d   1      -1.052  -3.249  -4.549  0.00  0.00    -0.166 F 
ENDBRANCH  25  30
ENDBRANCH  22  23
ENDBRANCH   3  22
TORSDOF 6
