REMARK  2 active torsions:
REMARK  status: ('A' for Active; 'I' for Inactive)
REMARK    1  A    between atoms: C_4  and  C_1 
REMARK       I    between atoms: N_7  and  C_4 
REMARK    2  A    between atoms: C_10  and  N_7 
ROOT
ATOM      1  C   UNL d   1       3.814   0.098  -0.595  0.00  0.00     0.264 C 
ATOM      2  N   UNL d   1       4.540  -1.088  -0.505  0.00  0.00    -0.322 N 
ATOM      3  O   UNL d   1       2.629   0.156  -0.892  0.00  0.00    -0.267 OA
ATOM      4  H   UNL d   1       5.505  -0.993  -0.213  0.00  0.00     0.169 HD
ENDROOT
BRANCH   1   5
ATOM      5  C   UNL d   1       4.561   1.295  -0.221  0.00  0.00     0.096 A 
ATOM      6  S   UNL d   1       6.236   1.427  -0.524  0.00  0.00    -0.082 SA
ATOM      7  C   UNL d   1       6.307   3.036   0.081  0.00  0.00     0.017 A 
ATOM      8  C   UNL d   1       7.439   3.873   0.126  0.00  0.00     0.020 A 
ATOM      9  C   UNL d   1       5.063   3.461   0.553  0.00  0.00     0.004 A 
ATOM     10  C   UNL d   1       7.309   5.163   0.646  0.00  0.00     0.001 A 
ATOM     11  C   UNL d   1       6.088   5.610   1.126  0.00  0.00     0.001 A 
ATOM     12  C   UNL d   1       4.971   4.771   1.091  0.00  0.00     0.014 A 
ATOM     13  C   UNL d   1       4.070   2.433   0.387  0.00  0.00     0.068 A 
ATOM     14 CL   UNL d   1       2.451   2.656   0.931  0.00  0.00    -0.082 Cl
ENDBRANCH   1   5
BRANCH   2  15
ATOM     15  C   UNL d   1       3.980  -2.380  -0.410  0.00  0.00     0.035 C 
ATOM     16  C   UNL d   1       2.653  -2.671  -0.740  0.00  0.00     0.041 C 
ATOM     17  C   UNL d   1       2.075  -3.877  -0.337  0.00  0.00     0.001 C 
ATOM     18  C   UNL d   1       0.638  -4.201  -0.623  0.00  0.00     0.212 C 
ATOM     19  C   UNL d   1       2.845  -4.795   0.371  0.00  0.00     0.080 C 
ATOM     20  O   UNL d   1       0.093  -5.223   0.214  0.00  0.00    -0.362 OA
ATOM     21  C   UNL d   1       0.918  -5.492   1.340  0.00  0.00     0.345 C 
ATOM     22  O   UNL d   1       2.249  -5.870   0.972  0.00  0.00    -0.326 OA
ATOM     23  C   UNL d   1       4.208  -4.598   0.551  0.00  0.00     0.040 C 
ATOM     24  C   UNL d   1       4.777  -3.385   0.157  0.00  0.00     0.032 C 
ENDBRANCH   2  15
TORSDOF 2
