REMARK  4 active torsions:
REMARK  status: ('A' for Active; 'I' for Inactive)
REMARK    1  A    between atoms: C_6  and  C_1 
REMARK    2  A    between atoms: C_8  and  C_4 
REMARK       I    between atoms: N_9  and  C_6 
REMARK    3  A    between atoms: C_13  and  N_9 
REMARK    4  A    between atoms: C_16  and  C_13 
ROOT
ATOM      1  C   UNL d   1       1.212   0.822   0.002  0.00  0.00     0.108 A 
ATOM      2  N   UNL d   1      -0.070   1.388   0.017  0.00  0.00    -0.345 N 
ATOM      3  HN  UNL d   1      -0.267   2.387  -0.048  1.00  0.00     0.167 HD
ATOM      4  C   UNL d   1      -0.986   0.440   0.129  0.00  0.00     0.086 A 
ATOM      5  S   UNL d   1      -0.361  -1.169   0.163  0.00  0.00    -0.081 SA
ATOM      6  C   UNL d   1       1.226  -0.559   0.072  0.00  0.00     0.087 A 
ENDROOT
BRANCH   1   7
ATOM      7  C   UNL d   1       2.439   1.623  -0.073  0.00  0.00     0.269 C 
ATOM      8  N   UNL d   1       2.232   2.979  -0.159  0.00  0.00    -0.351 N 
ATOM      9  H   UNL d   1       1.273   3.305  -0.091  0.00  0.00     0.163 HD
ATOM     10  O   UNL d   1       3.555   1.109  -0.051  0.00  0.00    -0.266 OA
BRANCH   8  11
ATOM     11  C   UNL d   1       3.327   3.920  -0.094  0.00  0.00     0.161 C 
BRANCH  11  12
ATOM     12  C   UNL d   1       3.365   4.904  -1.240  0.00  0.00    -0.040 A 
ATOM     13  C   UNL d   1       3.913   6.182  -1.028  0.00  0.00     0.010 A 
ATOM     14  C   UNL d   1       4.042   7.092  -2.081  0.00  0.00     0.024 A 
ATOM     15  C   UNL d   1       3.631   6.730  -3.360  0.00  0.00     0.034 A 
ATOM     16  C   UNL d   1       3.101   5.464  -3.595  0.00  0.00     0.024 A 
ATOM     17 CL   UNL d   1       3.796   7.847  -4.659  0.00  0.00    -0.084 Cl
ATOM     18  C   UNL d   1       2.977   4.552  -2.541  0.00  0.00     0.010 A 
ENDBRANCH  11  12
ENDBRANCH   8  11
ENDBRANCH   1   7
BRANCH   4  19
ATOM     19  C   UNL d   1      -2.437   0.668   0.162  0.00  0.00     0.013 A 
ATOM     20  C   UNL d   1      -3.322  -0.157   0.857  0.00  0.00     0.101 A 
ATOM     21  N   UNL d   1      -4.668   0.008   0.893  0.00  0.00    -0.374 N 
ATOM     22  C   UNL d   1      -5.169   1.053   0.205  0.00  0.00     0.087 A 
ATOM     23  HN  UNL d   1      -5.272  -0.628   1.415  1.00  0.00     0.164 HD
ATOM     24  C   UNL d   1      -4.385   1.944  -0.508  0.00  0.00     0.018 A 
ATOM     25  C   UNL d   1      -3.002   1.750  -0.522  0.00  0.00     0.017 A 
ENDBRANCH   4  19
TORSDOF 4
