REMARK  6 active torsions:
REMARK  status: ('A' for Active; 'I' for Inactive)
REMARK    1  A    between atoms: C_8  and  C_2 
REMARK    2  A    between atoms: S_11  and  C_5 
REMARK    3  A    between atoms: C_9  and  C_18 
REMARK    4  A    between atoms: C_22  and  C_10 
REMARK    5  A    between atoms: C_24  and  S_11 
REMARK    6  A    between atoms: C_23  and  C_24 
ROOT
ATOM      1  N   UNL d   1       0.815   0.004  -0.013  0.00  0.00    -0.315 N 
ATOM      2  C   UNL d   1      -0.036   1.095  -0.073  0.00  0.00     0.135 A 
ATOM      3  N   UNL d   1      -1.276   0.637  -0.000  0.00  0.00    -0.283 N 
ATOM      4  HN  UNL d   1      -2.117   1.212   0.058  1.00  0.00     0.188 HD
ATOM      5  C   UNL d   1       0.009  -1.106  -0.056  0.00  0.00     0.162 A 
ATOM      6  N   UNL d   1      -1.248  -0.738  -0.016  0.00  0.00    -0.278 N 
ATOM      7  HN  UNL d   1      -2.058  -1.358   0.000  1.00  0.00     0.189 HD
ATOM      8  C   UNL d   1       2.249   0.003   0.124  0.00  0.00     0.160 C 
ENDROOT
BRANCH   2   9
ATOM      9  C   UNL d   1       0.329   2.510  -0.185  0.00  0.00     0.026 A 
ATOM     10  C   UNL d   1       1.425   2.955  -0.932  0.00  0.00     0.038 A 
ATOM     11  C   UNL d   1       1.749   4.311  -0.976  0.00  0.00     0.034 A 
ATOM     12  C   UNL d   1       0.926   5.204  -0.306  0.00  0.00     0.108 A 
ATOM     13  N   UNL d   1      -0.171   4.826   0.392  0.00  0.00    -0.373 N 
ATOM     14  C   UNL d   1      -0.446   3.496   0.430  0.00  0.00     0.102 A 
ATOM     15  HN  UNL d   1      -0.764   5.508   0.866  1.00  0.00     0.164 HD
BRANCH  11  16
ATOM     16  C   UNL d   1       2.912   4.757  -1.670  0.00  0.00    -0.060 C 
ATOM     17  C   UNL d   1       3.906   5.141  -2.230  0.00  0.00    -0.061 C 
BRANCH  17  18
ATOM     18  C   UNL d   1       5.078   5.643  -2.877  0.00  0.00     0.018 A 
ATOM     19  C   UNL d   1       5.790   6.696  -2.296  0.00  0.00     0.020 A 
ATOM     20  C   UNL d   1       6.904   7.230  -2.946  0.00  0.00     0.001 A 
ATOM     21  C   UNL d   1       7.311   6.707  -4.174  0.00  0.00     0.000 A 
ATOM     22  C   UNL d   1       6.613   5.643  -4.745  0.00  0.00     0.001 A 
ATOM     23  C   UNL d   1       5.498   5.108  -4.096  0.00  0.00     0.020 A 
ENDBRANCH  17  18
ENDBRANCH  11  16
ENDBRANCH   2   9
BRANCH   5  24
ATOM     24  S   UNL d   1       0.604  -2.733  -0.148  0.00  0.00    -0.088 SA
BRANCH  24  25
ATOM     25  C   UNL d   1      -0.829  -3.593  -0.875  0.00  0.00     0.121 C 
BRANCH  25  26
ATOM     26  C   UNL d   1      -0.563  -5.071  -1.087  0.00  0.00    -0.047 A 
ATOM     27  C   UNL d   1       0.040  -5.529  -2.271  0.00  0.00     0.033 A 
ATOM     28  C   UNL d   1       0.272  -6.896  -2.480  0.00  0.00     0.056 A 
ATOM     29 CL   UNL d   1       1.011  -7.367  -3.970  0.00  0.00    -0.083 Cl
ATOM     30  C   UNL d   1      -0.097  -7.824  -1.503  0.00  0.00     0.055 A 
ATOM     31  C   UNL d   1      -0.690  -7.380  -0.319  0.00  0.00     0.026 A 
ATOM     32 CL   UNL d   1       0.147  -9.525  -1.695  0.00  0.00    -0.083 Cl
ATOM     33  C   UNL d   1      -0.918  -6.015  -0.111  0.00  0.00     0.010 A 
ENDBRANCH  25  26
ENDBRANCH  24  25
ENDBRANCH   5  24
TORSDOF 6
