REMARK  5 active torsions:
REMARK  status: ('A' for Active; 'I' for Inactive)
REMARK    1  A    between atoms: C_2  and  S_1 
REMARK    2  A    between atoms: N_3  and  S_1 
REMARK    3  A    between atoms: C_8  and  C_12 
REMARK    4  A    between atoms: C_16  and  C_8 
REMARK    5  A    between atoms: C_17  and  C_8 
ROOT
ATOM      1  N   UNL d   1       0.404   0.837   1.415  0.00  0.00    -0.206 NA
ATOM      2  C   UNL d   1       0.628   2.307   1.340  0.00  0.00     0.108 C 
ATOM      3  C   UNL d   1      -0.969   0.471   1.860  0.00  0.00     0.108 C 
ATOM      4  C   UNL d   1      -1.148   2.689   3.124  0.00  0.00     0.001 C 
ATOM      5  C   UNL d   1       0.305   2.954   2.680  0.00  0.00     0.021 C 
ATOM      6  C   UNL d   1      -1.308   1.153   3.187  0.00  0.00     0.021 C 
ENDROOT
BRANCH   4   7
ATOM      7  C   UNL d   1      -2.246   3.364   2.222  0.00  0.00     0.056 C 
BRANCH   7   8
ATOM      8  C   UNL d   1      -3.657   3.117   2.768  0.00  0.00    -0.049 A 
ATOM      9  C   UNL d   1      -4.026   3.555   4.050  0.00  0.00     0.008 A 
ATOM     10  C   UNL d   1      -5.330   3.388   4.515  0.00  0.00     0.001 A 
ATOM     11  C   UNL d   1      -6.285   2.775   3.708  0.00  0.00     0.000 A 
ATOM     12  C   UNL d   1      -5.930   2.310   2.443  0.00  0.00     0.001 A 
ATOM     13  C   UNL d   1      -4.624   2.478   1.975  0.00  0.00     0.008 A 
ENDBRANCH   7   8
BRANCH   7  14
ATOM     14  C   UNL d   1      -2.057   4.854   1.925  0.00  0.00    -0.049 A 
ATOM     15  C   UNL d   1      -2.480   5.367   0.683  0.00  0.00     0.008 A 
ATOM     16  C   UNL d   1      -2.323   6.720   0.371  0.00  0.00     0.001 A 
ATOM     17  C   UNL d   1      -1.755   7.588   1.299  0.00  0.00     0.000 A 
ATOM     18  C   UNL d   1      -1.366   7.107   2.547  0.00  0.00     0.001 A 
ATOM     19  C   UNL d   1      -1.526   5.755   2.861  0.00  0.00     0.008 A 
ENDBRANCH   7  14
ENDBRANCH   4   7
BRANCH   1  20
ATOM     20  S   UNL d   1       0.883   0.005  -0.011  0.00  0.00     0.250 S 
ATOM     21  O   UNL d   1       0.573  -1.402   0.144  0.00  0.00    -0.205 OA
ATOM     22  O   UNL d   1       0.388   0.761  -1.144  0.00  0.00    -0.205 OA
BRANCH  20  23
ATOM     23  C   UNL d   1       2.656   0.088  -0.143  0.00  0.00     0.115 A 
ATOM     24  S   UNL d   1       3.541  -0.594   1.155  0.00  0.00    -0.089 SA
ATOM     25  C   UNL d   1       5.038  -0.221   0.414  0.00  0.00     0.051 A 
ATOM     26  C   UNL d   1       4.873   0.424  -0.791  0.00  0.00     0.009 A 
ATOM     27  C   UNL d   1       3.496   0.602  -1.114  0.00  0.00     0.033 A 
ENDBRANCH  20  23
ENDBRANCH   1  20
TORSDOF 5
