REMARK  2 active torsions:
REMARK  status: ('A' for Active; 'I' for Inactive)
REMARK    1  A    between atoms: C_7  and  N_1 
REMARK    2  A    between atoms: C_10  and  C_7 
ROOT
ATOM      1  N   UNL d   1       2.373  -0.631   0.003  0.00  0.00    -0.253 N 
ATOM      2  C   UNL d   1       1.233  -1.434   0.040  0.00  0.00     0.273 A 
ATOM      3  N   UNL d   1       2.349   0.752  -0.011  0.00  0.00    -0.306 N 
ATOM      4  HN  UNL d   1       3.215   1.291  -0.019  1.00  0.00     0.186 HD
ATOM      5  C   UNL d   1      -0.064  -0.737   0.015  0.00  0.00     0.045 A 
ATOM      6  C   UNL d   1       1.198   1.344  -0.015  0.00  0.00     0.119 A 
ATOM      7  C   UNL d   1      -0.082   0.649  -0.015  0.00  0.00    -0.004 A 
ATOM      8  O   UNL d   1       1.248  -2.663   0.087  0.00  0.00    -0.266 OA
ATOM      9  C   UNL d   1      -1.272  -1.444   0.010  0.00  0.00     0.018 A 
ATOM     10  C   UNL d   1      -1.286   1.355  -0.053  0.00  0.00     0.014 A 
ATOM     11  C   UNL d   1      -2.483  -0.749  -0.033  0.00  0.00     0.001 A 
ATOM     12  C   UNL d   1      -2.490   0.647  -0.065  0.00  0.00     0.001 A 
ENDROOT
BRANCH   1  13
ATOM     13  C   UNL d   1       3.691  -1.259  -0.077  0.00  0.00     0.191 C 
BRANCH  13  14
ATOM     14  C   UNL d   1       4.119  -1.496  -1.509  0.00  0.00    -0.038 A 
ATOM     15  C   UNL d   1       4.837  -0.516  -2.209  0.00  0.00     0.009 A 
ATOM     16  C   UNL d   1       5.176  -0.708  -3.550  0.00  0.00     0.001 A 
ATOM     17  C   UNL d   1       4.799  -1.879  -4.205  0.00  0.00     0.000 A 
ATOM     18  C   UNL d   1       4.094  -2.865  -3.517  0.00  0.00     0.001 A 
ATOM     19  C   UNL d   1       3.756  -2.675  -2.176  0.00  0.00     0.009 A 
ENDBRANCH  13  14
ENDBRANCH   1  13
TORSDOF 2
