REMARK  3 active torsions:
REMARK  status: ('A' for Active; 'I' for Inactive)
REMARK    1  A    between atoms: C_2  and  C_1 
REMARK       I    between atoms: N_6  and  C_1 
REMARK    2  A    between atoms: C_3  and  C_5 
REMARK    3  A    between atoms: N_14  and  N_6 
ROOT
ATOM      1  C   UNL d   1       0.335   0.024   1.173  0.00  0.00     0.079 C 
ATOM      2  C   UNL d   1      -2.626   0.280   0.661  0.00  0.00     0.018 C 
ATOM      3  C   UNL d   1      -0.597  -1.196   1.218  0.00  0.00     0.015 C 
ATOM      4  C   UNL d   1      -0.371   1.384   1.270  0.00  0.00     0.015 C 
ATOM      5  C   UNL d   1      -1.886  -1.042   0.415  0.00  0.00     0.010 C 
ATOM      6  C   UNL d   1      -1.675   1.472   0.477  0.00  0.00     0.010 C 
ENDROOT
BRANCH   1   7
ATOM      7  C   UNL d   1       1.244  -0.023  -0.053  0.00  0.00     0.235 C 
ATOM      8  O   UNL d   1       0.971  -0.629  -1.087  0.00  0.00    -0.272 OA
ATOM      9  N   UNL d   1       2.424   0.696   0.108  0.00  0.00    -0.294 N 
ATOM     10  H   UNL d   1       2.557   1.298   0.918  0.00  0.00     0.183 HD
BRANCH   9  11
ATOM     11  N   UNL d   1       3.320   0.800  -0.975  0.00  0.00    -0.247 NA
ATOM     12  H   UNL d   1       2.896   0.282  -1.760  0.00  0.00     0.143 HD
ATOM     13  H   UNL d   1       4.162   0.265  -0.748  0.00  0.00     0.143 HD
ENDBRANCH   9  11
ENDBRANCH   1   7
BRANCH   2  14
ATOM     14  C   UNL d   1      -3.425   0.299   1.962  0.00  0.00    -0.054 A 
ATOM     15  C   UNL d   1      -4.829   0.334   1.902  0.00  0.00     0.009 A 
ATOM     16  C   UNL d   1      -5.601   0.340   3.069  0.00  0.00     0.024 A 
ATOM     17  C   UNL d   1      -4.980   0.313   4.312  0.00  0.00     0.034 A 
ATOM     18  C   UNL d   1      -3.596   0.275   4.402  0.00  0.00     0.024 A 
ATOM     19 CL   UNL d   1      -5.926   0.317   5.750  0.00  0.00    -0.084 Cl
ATOM     20  C   UNL d   1      -2.828   0.265   3.232  0.00  0.00     0.009 A 
ENDBRANCH   2  14
TORSDOF 3
