REMARK  5 active torsions:
REMARK  status: ('A' for Active; 'I' for Inactive)
REMARK       I    between atoms: C_2  and  N_1 
REMARK    1  A    between atoms: C_4  and  N_1 
REMARK    2  A    between atoms: C_7  and  N_1 
REMARK    3  A    between atoms: C_9  and  C_2 
REMARK    4  A    between atoms: C_3  and  C_4 
REMARK    5  A    between atoms: C_13  and  C_7 
ROOT
ATOM      1  N   UNL d   1       0.851   0.109  -0.100  0.00  0.00    -0.339 N 
ATOM      2  C   UNL d   1       0.144   0.291  -1.301  0.00  0.00     0.254 C 
ATOM      3  O   UNL d   1       0.736   0.690  -2.312  0.00  0.00    -0.267 OA
ENDROOT
BRANCH   1   4
ATOM      4  C   UNL d   1       0.314  -0.387   1.169  0.00  0.00     0.166 C 
BRANCH   4   5
ATOM      5  C   UNL d   1      -0.319   0.671   2.060  0.00  0.00    -0.018 A 
ATOM      6  C   UNL d   1      -1.004   0.282   3.228  0.00  0.00     0.043 A 
ATOM      7  C   UNL d   1      -1.763   1.202   3.955  0.00  0.00     0.048 A 
ATOM      8 CL   UNL d   1      -0.990  -1.355   3.782  0.00  0.00    -0.084 Cl
ATOM      9  C   UNL d   1      -1.836   2.524   3.531  0.00  0.00     0.035 A 
ATOM     10  C   UNL d   1      -1.120   2.947   2.415  0.00  0.00     0.024 A 
ATOM     11 CL   UNL d   1      -2.840   3.636   4.374  0.00  0.00    -0.084 Cl
ATOM     12  C   UNL d   1      -0.351   2.030   1.694  0.00  0.00     0.012 A 
ENDBRANCH   4   5
ENDBRANCH   1   4
BRANCH   1  13
ATOM     13  C   UNL d   1       2.316   0.230  -0.160  0.00  0.00     0.166 C 
BRANCH  13  14
ATOM     14  C   UNL d   1       2.989  -1.121  -0.194  0.00  0.00    -0.025 A 
ATOM     15  C   UNL d   1       3.752  -1.574   0.880  0.00  0.00     0.096 A 
ATOM     16  N   UNL d   1       4.321  -2.799   0.948  0.00  0.00    -0.375 N 
ATOM     17  C   UNL d   1       4.133  -3.614  -0.111  0.00  0.00     0.087 A 
ATOM     18  HN  UNL d   1       4.865  -3.091   1.759  1.00  0.00     0.164 HD
ATOM     19  C   UNL d   1       3.413  -3.257  -1.239  0.00  0.00     0.018 A 
ATOM     20  C   UNL d   1       2.837  -1.990  -1.279  0.00  0.00     0.011 A 
ENDBRANCH  13  14
ENDBRANCH   1  13
BRANCH   2  21
ATOM     21  C   UNL d   1      -1.318  -0.015  -1.485  0.00  0.00     0.032 A 
ATOM     22  C   UNL d   1      -2.311   0.066  -0.505  0.00  0.00     0.017 A 
ATOM     23  C   UNL d   1      -3.650  -0.237  -0.787  0.00  0.00     0.001 A 
ATOM     24  C   UNL d   1      -4.025  -0.593  -2.075  0.00  0.00     0.000 A 
ATOM     25  C   UNL d   1      -3.067  -0.633  -3.084  0.00  0.00     0.001 A 
ATOM     26  C   UNL d   1      -1.729  -0.349  -2.789  0.00  0.00     0.017 A 
ENDBRANCH   2  21
TORSDOF 5
