REMARK  4 active torsions:
REMARK  status: ('A' for Active; 'I' for Inactive)
REMARK    1  A    between atoms: C_11  and  C_3 
REMARK    2  A    between atoms: C_8  and  C_4 
REMARK    3  A    between atoms: C_6  and  O_13 
REMARK    4  A    between atoms: O_13  and  C_23 
ROOT
ATOM      1  N   UNL d   1       1.410  -0.577  -0.038  0.00  0.00    -0.349 N 
ATOM      2  HN  UNL d   1       2.291  -1.091  -0.035  1.00  0.00     0.166 HD
ATOM      3  C   UNL d   1       0.213  -1.135  -0.070  0.00  0.00     0.084 A 
ATOM      4  C   UNL d   1       1.302   0.806  -0.011  0.00  0.00     0.050 A 
ATOM      5  S   UNL d   1      -1.101  -0.018  -0.065  0.00  0.00    -0.081 SA
ATOM      6  C   UNL d   1       0.006   1.284  -0.033  0.00  0.00     0.082 A 
ENDROOT
BRANCH   3   7
ATOM      7  C   UNL d   1      -0.031  -2.588  -0.058  0.00  0.00    -0.002 A 
ATOM      8  C   UNL d   1       0.868  -3.434   0.611  0.00  0.00     0.017 A 
ATOM      9  C   UNL d   1       0.665  -4.821   0.658  0.00  0.00     0.038 A 
ATOM     10  C   UNL d   1      -0.420  -5.389  -0.003  0.00  0.00     0.078 A 
ATOM     11  C   UNL d   1      -1.330  -4.556  -0.656  0.00  0.00     0.038 A 
ATOM     12  C   UNL d   1      -1.136  -3.172  -0.692  0.00  0.00     0.017 A 
BRANCH  10  13
ATOM     13  O   UNL d   1      -0.740  -6.711  -0.032  0.00  0.00    -0.255 OA
BRANCH  13  14
ATOM     14  C   UNL d   1       0.299  -7.679  -0.058  0.00  0.00     0.530 C 
ATOM     15  F   UNL d   1       1.537  -7.165  -0.203  0.00  0.00    -0.144 F 
ATOM     16  F   UNL d   1       0.258  -8.405   1.080  0.00  0.00    -0.144 F 
ATOM     17  F   UNL d   1       0.075  -8.516  -1.097  0.00  0.00    -0.144 F 
ENDBRANCH  13  14
ENDBRANCH  10  13
ENDBRANCH   3   7
BRANCH   4  18
ATOM     18  C   UNL d   1       2.479   1.665   0.014  0.00  0.00    -0.006 A 
ATOM     19  C   UNL d   1       2.457   2.906   0.662  0.00  0.00     0.053 A 
ATOM     20  C   UNL d   1       3.587   3.728   0.654  0.00  0.00     0.103 A 
ATOM     21  O   UNL d   1       3.467   4.936   1.293  0.00  0.00    -0.346 OA
ATOM     22  C   UNL d   1       4.759   3.304   0.025  0.00  0.00     0.102 A 
ATOM     23  C   UNL d   1       4.533   5.822   0.935  0.00  0.00     0.202 C 
ATOM     24  C   UNL d   1       5.869   5.100   0.974  0.00  0.00     0.202 C 
ATOM     25  O   UNL d   1       5.909   4.050  -0.001  0.00  0.00    -0.346 OA
ATOM     26  C   UNL d   1       4.793   2.073  -0.625  0.00  0.00     0.040 A 
ATOM     27  C   UNL d   1       3.658   1.252  -0.623  0.00  0.00     0.017 A 
ENDBRANCH   4  18
TORSDOF 4
