REMARK  4 active torsions:
REMARK  status: ('A' for Active; 'I' for Inactive)
REMARK    1  A    between atoms: C_2  and  C_1 
REMARK    2  A    between atoms: C_4  and  C_1 
REMARK    3  A    between atoms: S_3  and  C_4 
REMARK    4  A    between atoms: C_8  and  S_3 
ROOT
ATOM      1  C   UNL d   1       0.917   0.017  -0.045  0.00  0.00     0.169 C 
ATOM      2  O   UNL d   1       1.433  -1.043   0.318  0.00  0.00    -0.291 OA
ENDROOT
BRANCH   1   3
ATOM      3  C   UNL d   1       1.115   0.468  -1.462  0.00  0.00     0.011 A 
ATOM      4  C   UNL d   1       0.568   1.653  -1.971  0.00  0.00     0.016 A 
ATOM      5  C   UNL d   1       0.787   2.016  -3.307  0.00  0.00     0.020 A 
ATOM      6  C   UNL d   1       1.546   1.194  -4.138  0.00  0.00     0.011 A 
ATOM      7  C   UNL d   1       2.097   0.015  -3.647  0.00  0.00     0.020 A 
ATOM      8 BR   UNL d   1       1.819   1.681  -5.943  0.00  0.00    -0.051 Br
ATOM      9  C   UNL d   1       1.882  -0.345  -2.313  0.00  0.00     0.016 A 
ENDBRANCH   1   3
BRANCH   1  10
ATOM     10  C   UNL d   1       0.106   0.858   0.922  0.00  0.00     0.163 C 
BRANCH  10  11
ATOM     11  S   UNL d   1      -1.661   0.458   0.745  0.00  0.00    -0.122 SA
BRANCH  11  12
ATOM     12  C   UNL d   1      -2.345   1.460   2.053  0.00  0.00     0.001 A 
ATOM     13  C   UNL d   1      -2.246   2.853   2.030  0.00  0.00     0.019 A 
ATOM     14  C   UNL d   1      -2.840   3.622   3.036  0.00  0.00     0.008 A 
ATOM     15  C   UNL d   1      -3.547   3.009   4.077  0.00  0.00    -0.062 A 
ATOM     16  C   UNL d   1      -3.648   1.614   4.097  0.00  0.00     0.008 A 
ATOM     17  C   UNL d   1      -4.203   3.849   5.134  0.00  0.00     0.048 C 
ATOM     18  C   UNL d   1      -3.054   0.846   3.090  0.00  0.00     0.019 A 
ENDBRANCH  11  12
ENDBRANCH  10  11
ENDBRANCH   1  10
TORSDOF 4
