REMARK  10 active torsions:
REMARK  status: ('A' for Active; 'I' for Inactive)
REMARK    1  A    between atoms: N_3  and  C_1 
REMARK    2  A    between atoms: N_6  and  C_1 
REMARK    3  A    between atoms: C_2  and  N_4 
REMARK    4  A    between atoms: N_5  and  C_2 
REMARK    5  A    between atoms: C_9  and  N_5 
REMARK    6  A    between atoms: C_10  and  N_6 
REMARK    7  A    between atoms: S_20  and  C_17 
REMARK    8  A    between atoms: S_19  and  C_18 
REMARK    9  A    between atoms: C_21  and  C_27 
REMARK   10  A    between atoms: C_26  and  C_21 
ROOT
ATOM      1  C   UNL d   1      -1.476   3.819  -2.347  0.00  0.00     0.009 C 
ENDROOT
BRANCH   1   2
ATOM      2  C   UNL d   1      -1.155   2.290  -2.219  0.00  0.00    -0.011 C 
ATOM      3  C   UNL d   1       0.295   1.886  -2.576  0.00  0.00     0.024 C 
ATOM      4  C   UNL d   1       1.251   1.657  -1.409  0.00  0.00     0.125 C 
ATOM      5  N   UNL d   1       0.636   0.988  -0.273  0.00  0.00    -0.358 N 
ATOM      6  C   UNL d   1      -0.585   1.614   0.214  0.00  0.00     0.125 C 
ATOM      7  C   UNL d   1      -1.631   1.642  -0.898  0.00  0.00     0.024 C 
BRANCH   5   8
ATOM      8  C   UNL d   1       0.990  -0.272   0.182  0.00  0.00     0.174 C 
ATOM      9  S   UNL d   1       1.160  -1.621  -0.787  0.00  0.00    -0.041 SA
BRANCH   8  10
ATOM     10  N   UNL d   1       1.090  -0.404   1.551  0.00  0.00    -0.333 N 
ATOM     11  H   UNL d   1       0.951  -1.341   1.916  0.00  0.00     0.168 HD
BRANCH  10  12
ATOM     12  C   UNL d   1       1.735   0.502   2.421  0.00  0.00     0.035 A 
ATOM     13  C   UNL d   1       2.663   1.445   1.966  0.00  0.00     0.048 A 
ATOM     14  C   UNL d   1       3.338   2.293   2.849  0.00  0.00     0.002 A 
ATOM     15  C   UNL d   1       3.036   2.205   4.219  0.00  0.00     0.018 A 
ATOM     16  C   UNL d   1       2.121   1.261   4.683  0.00  0.00     0.004 A 
ATOM     17  C   UNL d   1       1.492   0.394   3.793  0.00  0.00     0.029 A 
BRANCH  14  18
ATOM     18  S   UNL d   1       4.545   3.504   2.341  0.00  0.00    -0.134 SA
ATOM     19  C   UNL d   1       5.404   2.646   0.990  0.00  0.00     0.095 C 
ENDBRANCH  14  18
ENDBRANCH  10  12
ENDBRANCH   8  10
ENDBRANCH   5   8
ENDBRANCH   1   2
BRANCH   1  20
ATOM     20  C   UNL d   1      -2.989   4.177  -2.162  0.00  0.00    -0.011 C 
ATOM     21  C   UNL d   1      -3.932   3.349  -3.055  0.00  0.00     0.024 C 
ATOM     22  C   UNL d   1      -4.102   3.974  -4.425  0.00  0.00     0.125 C 
ATOM     23  N   UNL d   1      -4.770   5.257  -4.248  0.00  0.00    -0.358 N 
ATOM     24  C   UNL d   1      -3.915   6.226  -3.567  0.00  0.00     0.125 C 
ATOM     25  C   UNL d   1      -3.332   5.693  -2.246  0.00  0.00     0.024 C 
BRANCH  23  26
ATOM     26  C   UNL d   1      -5.540   5.696  -5.302  0.00  0.00     0.174 C 
ATOM     27  S   UNL d   1      -4.918   6.130  -6.804  0.00  0.00    -0.041 SA
BRANCH  26  28
ATOM     28  N   UNL d   1      -6.898   5.707  -5.174  0.00  0.00    -0.333 N 
ATOM     29  H   UNL d   1      -7.334   5.964  -6.053  0.00  0.00     0.168 HD
BRANCH  28  30
ATOM     30  C   UNL d   1      -7.805   5.368  -4.146  0.00  0.00     0.035 A 
ATOM     31  C   UNL d   1      -7.474   5.043  -2.827  0.00  0.00     0.048 A 
ATOM     32  C   UNL d   1      -8.472   4.671  -1.907  0.00  0.00     0.002 A 
ATOM     33  C   UNL d   1      -9.810   4.634  -2.321  0.00  0.00     0.018 A 
ATOM     34  C   UNL d   1     -10.156   4.983  -3.620  0.00  0.00     0.004 A 
ATOM     35  C   UNL d   1      -9.160   5.353  -4.521  0.00  0.00     0.029 A 
BRANCH  32  36
ATOM     36  S   UNL d   1      -8.162   4.157  -0.220  0.00  0.00    -0.134 SA
ATOM     37  C   UNL d   1      -6.761   5.192   0.264  0.00  0.00     0.095 C 
ENDBRANCH  32  36
ENDBRANCH  28  30
ENDBRANCH  26  28
ENDBRANCH  23  26
ENDBRANCH   1  20
TORSDOF 10
