REMARK  6 active torsions:
REMARK  status: ('A' for Active; 'I' for Inactive)
REMARK    1  A    between atoms: O_4  and  C_2 
REMARK    2  A    between atoms: O_5  and  C_3 
REMARK    3  A    between atoms: C_6  and  O_4 
REMARK    4  A    between atoms: C_7  and  O_5 
REMARK    5  A    between atoms: N_10  and  C_8 
REMARK    6  A    between atoms: N_11  and  C_9 
ROOT
ATOM      1  C   UNL d   1       1.452  -0.209  -0.060  0.00  0.00     0.074 A 
ATOM      2  C   UNL d   1       0.580  -1.302  -0.081  0.00  0.00     0.078 A 
ATOM      3  C   UNL d   1       0.954   1.097  -0.030  0.00  0.00     0.078 A 
ATOM      4  C   UNL d   1      -1.299   0.217  -0.022  0.00  0.00     0.005 A 
ATOM      5  C   UNL d   1      -0.425   1.307  -0.043  0.00  0.00     0.037 A 
ATOM      6  C   UNL d   1      -0.796  -1.086  -0.025  0.00  0.00     0.037 A 
ENDROOT
BRANCH   2   7
ATOM      7  O   UNL d   1       1.004  -2.614  -0.110  0.00  0.00    -0.311 OA
BRANCH   7   8
ATOM      8  C   UNL d   1       2.159  -2.918  -0.796  0.00  0.00     0.076 A 
ATOM      9  C   UNL d   1       2.960  -3.933  -0.281  0.00  0.00     0.039 A 
ATOM     10  C   UNL d   1       4.165  -4.263  -0.914  0.00  0.00     0.026 A 
ATOM     11  C   UNL d   1       4.599  -3.553  -2.038  0.00  0.00     0.005 A 
ATOM     12  C   UNL d   1       3.742  -2.608  -2.603  0.00  0.00     0.026 A 
ATOM     13  C   UNL d   1       2.525  -2.300  -1.996  0.00  0.00     0.039 A 
BRANCH  11  14
ATOM     14  N   UNL d   1       5.758  -3.939  -2.721  0.00  0.00    -0.303 NA
ATOM     15  H   UNL d   1       6.152  -3.203  -3.296  0.00  0.00     0.124 HD
ATOM     16  H   UNL d   1       6.457  -4.372  -2.126  0.00  0.00     0.124 HD
ENDBRANCH  11  14
ENDBRANCH   7   8
ENDBRANCH   2   7
BRANCH   3  17
ATOM     17  O   UNL d   1       1.754   2.221  -0.035  0.00  0.00    -0.311 OA
BRANCH  17  18
ATOM     18  C   UNL d   1       2.982   2.158   0.586  0.00  0.00     0.076 A 
ATOM     19  C   UNL d   1       4.036   2.848  -0.009  0.00  0.00     0.039 A 
ATOM     20  C   UNL d   1       5.315   2.792   0.558  0.00  0.00     0.026 A 
ATOM     21  C   UNL d   1       5.556   2.008   1.689  0.00  0.00     0.005 A 
ATOM     22  C   UNL d   1       4.476   1.404   2.332  0.00  0.00     0.026 A 
ATOM     23  C   UNL d   1       3.193   1.487   1.792  0.00  0.00     0.039 A 
BRANCH  21  24
ATOM     24  N   UNL d   1       6.817   2.014   2.303  0.00  0.00    -0.303 NA
ATOM     25  H   UNL d   1       6.986   1.199   2.885  0.00  0.00     0.124 HD
ATOM     26  H   UNL d   1       7.582   2.188   1.659  0.00  0.00     0.124 HD
ENDBRANCH  21  24
ENDBRANCH  17  18
ENDBRANCH   3  17
TORSDOF 6
