REMARK  5 active torsions:
REMARK  status: ('A' for Active; 'I' for Inactive)
REMARK       I    between atoms: N_2  and  C_1 
REMARK    1  A    between atoms: C_4  and  C_1 
REMARK    2  A    between atoms: C_3  and  C_7 
REMARK    3  A    between atoms: O_14  and  C_3 
REMARK    4  A    between atoms: C_19  and  O_14 
REMARK    5  A    between atoms: C_18  and  C_17 
ROOT
ATOM      1  C   UNL d   1       0.952  -0.046   0.019  0.00  0.00     0.253 C 
ATOM      2  N   UNL d   1       0.314   0.164  -1.203  0.00  0.00    -0.348 N 
ATOM      3  C   UNL d   1      -0.773   1.103  -1.474  0.00  0.00     0.127 C 
ATOM      4  C   UNL d   1       0.720  -0.618  -2.368  0.00  0.00     0.127 C 
ATOM      5  C   UNL d   1      -1.721  -0.573  -3.104  0.00  0.00     0.088 C 
ATOM      6  O   UNL d   1       1.923  -0.799   0.140  0.00  0.00    -0.267 OA
ATOM      7  C   UNL d   1      -2.014   0.303  -1.875  0.00  0.00     0.034 C 
ATOM      8  C   UNL d   1      -0.463  -1.430  -2.895  0.00  0.00     0.034 C 
ENDROOT
BRANCH   1   9
ATOM      9  C   UNL d   1       0.493   0.664   1.242  0.00  0.00     0.032 A 
ATOM     10  C   UNL d   1      -0.859   0.762   1.587  0.00  0.00     0.017 A 
ATOM     11  C   UNL d   1      -1.255   1.522   2.688  0.00  0.00     0.008 A 
ATOM     12  C   UNL d   1      -0.298   2.117   3.516  0.00  0.00    -0.059 A 
ATOM     13  C   UNL d   1       1.062   1.940   3.224  0.00  0.00     0.008 A 
ATOM     14  C   UNL d   1       1.454   1.220   2.092  0.00  0.00     0.017 A 
BRANCH  12  15
ATOM     15  C   UNL d   1      -0.731   2.939   4.703  0.00  0.00     0.034 C 
ATOM     16  C   UNL d   1      -0.812   4.422   4.376  0.00  0.00     0.010 C 
ENDBRANCH  12  15
ENDBRANCH   1   9
BRANCH   5  17
ATOM     17  C   UNL d   1      -1.654   0.296  -4.346  0.00  0.00     0.263 C 
ATOM     18  O   UNL d   1      -1.845   1.507  -4.357  0.00  0.00    -0.265 OA
BRANCH  17  19
ATOM     19  O   UNL d   1      -1.497  -0.472  -5.458  0.00  0.00    -0.322 OA
BRANCH  19  20
ATOM     20  C   UNL d   1      -1.845   0.185  -6.687  0.00  0.00     0.174 C 
ATOM     21  C   UNL d   1      -3.341   0.035  -6.894  0.00  0.00     0.034 C 
ENDBRANCH  19  20
ENDBRANCH  17  19
ENDBRANCH   5  17
TORSDOF 5
