REMARK  3 active torsions:
REMARK  status: ('A' for Active; 'I' for Inactive)
REMARK    1  A    between atoms: C_2  and  C_1 
REMARK       I    between atoms: N_3  and  C_2 
REMARK    2  A    between atoms: N_7  and  N_3 
REMARK    3  A    between atoms: C_11  and  N_7 
ROOT
ATOM      1  C   UNL d   1       0.300   2.111   0.608  0.00  0.00     0.271 C 
ATOM      2  N   UNL d   1       1.413   2.917   0.371  0.00  0.00    -0.282 N 
ATOM      3  O   UNL d   1       0.286   0.930   0.278  0.00  0.00    -0.266 OA
ATOM      4  H   UNL d   1       1.280   3.913   0.215  0.00  0.00     0.184 HD
ENDROOT
BRANCH   2   5
ATOM      5  N   UNL d   1       2.418   2.338  -0.424  0.00  0.00    -0.203 NA
ATOM      6  H   UNL d   1       2.308   1.315  -0.478  0.00  0.00     0.153 HD
BRANCH   5   7
ATOM      7  C   UNL d   1       3.759   2.687  -0.122  0.00  0.00     0.028 A 
ATOM      8  C   UNL d   1       4.143   3.670   0.799  0.00  0.00     0.032 A 
ATOM      9  C   UNL d   1       5.499   4.024   0.984  0.00  0.00    -0.054 A 
ATOM     10  C   UNL d   1       5.861   5.062   2.012  0.00  0.00     0.049 C 
ATOM     11  C   UNL d   1       6.492   3.412   0.196  0.00  0.00    -0.056 A 
ATOM     12  C   UNL d   1       6.111   2.440  -0.735  0.00  0.00     0.009 A 
ATOM     13  C   UNL d   1       7.946   3.788   0.317  0.00  0.00     0.049 C 
ATOM     14  C   UNL d   1       4.769   2.086  -0.889  0.00  0.00     0.026 A 
ENDBRANCH   5   7
ENDBRANCH   2   5
BRANCH   1  15
ATOM     15  C   UNL d   1      -0.878   2.752   1.274  0.00  0.00     0.093 A 
ATOM     16  C   UNL d   1      -1.823   2.013   2.005  0.00  0.00     0.052 A 
ATOM     17 CL   UNL d   1      -1.730   0.303   2.266  0.00  0.00    -0.083 Cl
ATOM     18  C   UNL d   1      -2.908   2.654   2.624  0.00  0.00     0.025 A 
ATOM     19  C   UNL d   1      -3.065   4.040   2.534  0.00  0.00     0.005 A 
ATOM     20  C   UNL d   1      -2.138   4.778   1.812  0.00  0.00     0.043 A 
ATOM     21  C   UNL d   1      -1.066   4.142   1.190  0.00  0.00     0.133 A 
ATOM     22  F   UNL d   1      -0.211   4.907   0.495  0.00  0.00    -0.205 F 
ENDBRANCH   1  15
TORSDOF 3
