REMARK  3 active torsions:
REMARK  status: ('A' for Active; 'I' for Inactive)
REMARK       I    between atoms: N_3  and  C_1 
REMARK    1  A    between atoms: O_9  and  C_1 
REMARK    2  A    between atoms: C_2  and  N_3 
REMARK    3  A    between atoms: C_13  and  O_9 
ROOT
ATOM      1  C   UNL d   1       0.764  -2.479  -0.747  0.00  0.00     0.040 A 
ATOM      2  C   UNL d   1       2.043  -2.935  -0.417  0.00  0.00     0.053 A 
ATOM      3  C   UNL d   1      -0.148  -3.389  -1.304  0.00  0.00     0.053 A 
ATOM      4  C   UNL d   1       2.379  -4.280  -0.595  0.00  0.00     0.037 A 
ATOM      5  C   UNL d   1       0.203  -4.731  -1.479  0.00  0.00     0.037 A 
ATOM      6  C   UNL d   1       1.463  -5.187  -1.112  0.00  0.00     0.048 A 
ATOM      7 CL   UNL d   1      -0.945  -5.840  -2.126  0.00  0.00    -0.084 Cl
ATOM      8 CL   UNL d   1       3.943  -4.830  -0.126  0.00  0.00    -0.084 Cl
ENDROOT
BRANCH   1   9
ATOM      9  N   UNL d   1       0.296  -1.177  -0.479  0.00  0.00    -0.303 N 
ATOM     10  C   UNL d   1       0.931  -0.048  -0.006  0.00  0.00     0.365 C 
ATOM     11  O   UNL d   1       0.271   0.921   0.340  0.00  0.00    -0.238 OA
ATOM     12  H   UNL d   1      -0.701  -1.018  -0.574  0.00  0.00     0.171 HD
BRANCH  10  13
ATOM     13  O   UNL d   1       2.279  -0.093  -0.035  0.00  0.00    -0.299 OA
BRANCH  13  14
ATOM     14  C   UNL d   1       3.067   1.071   0.314  0.00  0.00     0.125 C 
ATOM     15  C   UNL d   1       2.768   2.282  -0.566  0.00  0.00     0.040 C 
ATOM     16  C   UNL d   1       3.000   1.405   1.799  0.00  0.00     0.040 C 
ENDBRANCH  13  14
ENDBRANCH  10  13
ENDBRANCH   1   9
TORSDOF 3
