REMARK  6 active torsions:
REMARK  status: ('A' for Active; 'I' for Inactive)
REMARK    1  A    between atoms: C_9  and  C_1 
REMARK    2  A    between atoms: C_6  and  C_3 
REMARK    3  A    between atoms: C_4  and  O_14 
REMARK       I    between atoms: N_10  and  C_4 
REMARK    4  A    between atoms: C_21  and  C_7 
REMARK    5  A    between atoms: C_13  and  N_10 
REMARK    6  A    between atoms: O_14  and  C_21 
ROOT
ATOM      1  O   UNL d   1       4.656   3.774  -1.484  0.00  0.00    -0.292 OA
ENDROOT
BRANCH   1   2
ATOM      2  C   UNL d   1       5.048   5.072  -1.496  0.00  0.00     0.366 C 
ATOM      3  N   UNL d   1       5.740   5.488  -2.606  0.00  0.00    -0.303 N 
ATOM      4  H   UNL d   1       6.088   6.432  -2.493  0.00  0.00     0.171 HD
ATOM      5  O   UNL d   1       4.872   5.857  -0.568  0.00  0.00    -0.238 OA
BRANCH   3   6
ATOM      6  C   UNL d   1       5.973   4.879  -3.856  0.00  0.00     0.036 A 
ATOM      7  C   UNL d   1       5.341   3.706  -4.271  0.00  0.00     0.031 A 
ATOM      8  C   UNL d   1       5.482   3.246  -5.584  0.00  0.00     0.026 A 
ATOM      9  C   UNL d   1       6.264   3.952  -6.491  0.00  0.00     0.034 A 
ATOM     10  C   UNL d   1       6.961   5.084  -6.078  0.00  0.00     0.026 A 
ATOM     11 CL   UNL d   1       6.329   3.447  -8.133  0.00  0.00    -0.084 Cl
ATOM     12  C   UNL d   1       6.819   5.542  -4.762  0.00  0.00     0.031 A 
ENDBRANCH   3   6
ENDBRANCH   1   2
BRANCH   1  13
ATOM     13  C   UNL d   1       4.179   3.265  -0.229  0.00  0.00     0.274 C 
BRANCH  13  14
ATOM     14  C   UNL d   1       2.907   2.542  -0.377  0.00  0.00    -0.074 C 
ATOM     15  C   UNL d   1       1.939   1.838  -0.352  0.00  0.00    -0.057 C 
BRANCH  15  16
ATOM     16  C   UNL d   1       0.887   0.876  -0.221  0.00  0.00     0.059 A 
ATOM     17  S   UNL d   1       1.203  -0.801  -0.146  0.00  0.00    -0.078 SA
ATOM     18  C   UNL d   1      -0.463  -1.200  -0.016  0.00  0.00     0.051 A 
ATOM     19  C   UNL d   1      -1.236  -0.053   0.010  0.00  0.00     0.025 A 
ATOM     20  C   UNL d   1      -0.458   1.144  -0.105  0.00  0.00     0.029 A 
BRANCH  18  21
ATOM     21  C   UNL d   1      -0.839  -2.611   0.049  0.00  0.00     0.162 C 
ATOM     22  O   UNL d   1      -0.022  -3.536   0.046  0.00  0.00    -0.292 OA
ATOM     23  C   UNL d   1      -2.307  -2.965   0.105  0.00  0.00     0.097 C 
ENDBRANCH  18  21
ENDBRANCH  15  16
ENDBRANCH  13  14
ENDBRANCH   1  13
TORSDOF 6
