REMARK  6 active torsions:
REMARK  status: ('A' for Active; 'I' for Inactive)
REMARK    1  A    between atoms: O_17  and  C_1 
REMARK    2  A    between atoms: C_2  and  N_11 
REMARK    3  A    between atoms: N_5  and  C_2 
REMARK    4  A    between atoms: C_13  and  N_5 
REMARK    5  A    between atoms: N_11  and  N_6 
REMARK    6  A    between atoms: C_14  and  C_12 
ROOT
ATOM      1  N   UNL d   1       0.113  -6.838  -0.346  0.00  0.00    -0.309 N 
ATOM      2  HN  UNL d   1       0.018  -7.613  -1.002  1.00  0.00     0.186 HD
ATOM      3  C   UNL d   1       1.272  -6.387   0.001  0.00  0.00     0.118 C 
ENDROOT
BRANCH   1   4
ATOM      4  N   UNL d   1      -0.977  -6.234   0.202  0.00  0.00    -0.277 N 
ATOM      5  H   UNL d   1      -0.928  -5.252   0.429  0.00  0.00     0.189 HD
BRANCH   4   6
ATOM      6  C   UNL d   1      -2.156  -6.918   0.320  0.00  0.00     0.187 C 
ATOM      7  S   UNL d   1      -2.290  -8.581   0.489  0.00  0.00    -0.040 SA
BRANCH   6   8
ATOM      8  N   UNL d   1      -3.320  -6.216   0.282  0.00  0.00    -0.358 N 
ATOM      9  H   UNL d   1      -4.106  -6.849   0.390  0.00  0.00     0.162 HD
BRANCH   8  10
ATOM     10  C   UNL d   1      -3.652  -4.912  -0.330  0.00  0.00     0.021 C 
ATOM     11  C   UNL d   1      -2.979  -4.741  -1.703  0.00  0.00     0.037 C 
ATOM     12  C   UNL d   1      -5.180  -4.892  -0.548  0.00  0.00     0.037 C 
ATOM     13  C   UNL d   1      -3.293  -3.745   0.598  0.00  0.00     0.037 C 
ENDBRANCH   8  10
ENDBRANCH   6   8
ENDBRANCH   4   6
ENDBRANCH   1   4
BRANCH   3  14
ATOM     14  C   UNL d   1       2.482  -6.942  -0.634  0.00  0.00    -0.017 A 
ATOM     15  C   UNL d   1       2.424  -7.364  -1.966  0.00  0.00     0.034 A 
ATOM     16  C   UNL d   1       3.560  -7.890  -2.579  0.00  0.00     0.046 A 
ATOM     17  C   UNL d   1       4.747  -8.020  -1.854  0.00  0.00     0.100 A 
ATOM     18 BR   UNL d   1       3.442  -8.410  -4.399  0.00  0.00    -0.048 Br
ATOM     19  C   UNL d   1       4.792  -7.606  -0.516  0.00  0.00     0.046 A 
ATOM     20  C   UNL d   1       3.666  -7.050   0.097  0.00  0.00     0.034 A 
ATOM     21 BR   UNL d   1       6.380  -7.803   0.502  0.00  0.00    -0.048 Br
BRANCH  17  22
ATOM     22  O   UNL d   1       5.851  -8.556  -2.464  0.00  0.00    -0.358 OA
ATOM     23  H   UNL d   1       6.567  -8.612  -1.805  0.00  0.00     0.217 HD
ENDBRANCH  17  22
ENDBRANCH   3  14
TORSDOF 6
