REMARK  2 active torsions:
REMARK  status: ('A' for Active; 'I' for Inactive)
REMARK    1  A    between atoms: C_7  and  C_3 
REMARK    2  A    between atoms: O_13  and  C_7 
ROOT
ATOM      1  C   UNL d   1      -1.223  -0.455  -0.011  0.00  0.00    -0.046 A 
ATOM      2  C   UNL d   1       0.030   1.660   0.086  0.00  0.00    -0.046 A 
ATOM      3  C   UNL d   1      -1.218   0.973   0.013  0.00  0.00    -0.017 A 
ATOM      4  C   UNL d   1       0.011  -1.170   0.043  0.00  0.00    -0.049 A 
ATOM      5  C   UNL d   1       1.260   0.937   0.030  0.00  0.00    -0.049 A 
ATOM      6  C   UNL d   1       1.250  -0.476   0.057  0.00  0.00    -0.049 A 
ATOM      7  C   UNL d   1       0.114   3.173   0.191  0.00  0.00     0.049 C 
ATOM      8  C   UNL d   1      -2.501  -1.261  -0.071  0.00  0.00     0.049 C 
ATOM      9  C   UNL d   1       0.031  -2.688   0.063  0.00  0.00     0.049 C 
ATOM     10  C   UNL d   1       2.558   1.718  -0.035  0.00  0.00     0.049 C 
ATOM     11  C   UNL d   1       2.528  -1.290   0.067  0.00  0.00     0.049 C 
ENDROOT
BRANCH   3  12
ATOM     12  C   UNL d   1      -2.527   1.766  -0.064  0.00  0.00     0.148 C 
ATOM     13  C   UNL d   1      -3.357   1.702   1.216  0.00  0.00     0.044 C 
BRANCH  12  14
ATOM     14  O   UNL d   1      -3.315   1.377  -1.190  0.00  0.00    -0.391 OA
ATOM     15  H   UNL d   1      -2.692   1.047  -1.861  0.00  0.00     0.210 HD
ENDBRANCH  12  14
ENDBRANCH   3  12
TORSDOF 2
