REMARK  5 active torsions:
REMARK  status: ('A' for Active; 'I' for Inactive)
REMARK    1  A    between atoms: C_4  and  S_1 
REMARK    2  A    between atoms: C_7  and  S_1 
REMARK    3  A    between atoms: C_2  and  C_4 
REMARK    4  A    between atoms: C_3  and  C_5 
REMARK    5  A    between atoms: O_9  and  C_3 
ROOT
ATOM      1  C   UNL d   1       0.966  -2.248   1.415  0.00  0.00    -0.029 A 
ATOM      2  C   UNL d   1       2.204  -2.522   2.032  0.00  0.00     0.044 A 
ATOM      3  C   UNL d   1       0.206  -3.340   0.942  0.00  0.00     0.009 A 
ATOM      4  C   UNL d   1       2.644  -3.851   2.168  0.00  0.00     0.019 A 
ATOM      5  C   UNL d   1       0.659  -4.654   1.071  0.00  0.00     0.001 A 
ATOM      6  C   UNL d   1       1.880  -4.911   1.681  0.00  0.00     0.001 A 
ENDROOT
BRANCH   1   7
ATOM      7  C   UNL d   1       0.407  -0.858   1.192  0.00  0.00     0.153 C 
BRANCH   7   8
ATOM      8  S   UNL d   1       0.939  -0.175  -0.418  0.00  0.00     0.054 S 
ATOM      9  O   UNL d   1       0.430  -1.084  -1.502  0.00  0.00    -0.252 OA
BRANCH   8  10
ATOM     10  C   UNL d   1      -0.122   1.293  -0.483  0.00  0.00     0.031 A 
ATOM     11  C   UNL d   1      -0.001   2.311   0.469  0.00  0.00     0.021 A 
ATOM     12  C   UNL d   1      -0.768   3.476   0.355  0.00  0.00     0.001 A 
ATOM     13  C   UNL d   1      -1.651   3.635  -0.713  0.00  0.00     0.000 A 
ATOM     14  C   UNL d   1      -1.775   2.628  -1.666  0.00  0.00     0.001 A 
ATOM     15  C   UNL d   1      -1.013   1.463  -1.551  0.00  0.00     0.021 A 
ENDBRANCH   8  10
ENDBRANCH   7   8
ENDBRANCH   1   7
BRANCH   2  16
ATOM     16  C   UNL d   1       3.131  -1.499   2.582  0.00  0.00     0.176 C 
ATOM     17  O   UNL d   1       3.896  -1.663   3.511  0.00  0.00    -0.646 OA
BRANCH  16  18
ATOM     18  O   UNL d   1       3.146  -0.361   1.871  0.00  0.00    -0.773 OA
ATOM     19  H   UNL d   1       3.902   0.131   2.259  0.00  0.00     0.167 HD
ENDBRANCH  16  18
ENDBRANCH   2  16
TORSDOF 5
