REMARK  5 active torsions:
REMARK  status: ('A' for Active; 'I' for Inactive)
REMARK    1  A    between atoms: C_13  and  C_1 
REMARK    2  A    between atoms: C_9  and  O_11 
REMARK       I    between atoms: N_16  and  C_9 
REMARK    3  A    between atoms: O_11  and  C_10 
REMARK    4  A    between atoms: C_22  and  C_12 
REMARK    5  A    between atoms: O_23  and  C_22 
ROOT
ATOM      1  C   UNL d   1       1.773   0.984   0.015  0.00  0.00     0.080 A 
ATOM      2  C   UNL d   1       0.233  -0.625   0.028  0.00  0.00     0.137 A 
ATOM      3  C   UNL d   1       0.362   0.756  -0.108  0.00  0.00     0.048 A 
ATOM      4  N   UNL d   1       2.443  -0.148   0.279  0.00  0.00    -0.295 N 
ATOM      5  HN  UNL d   1       3.433  -0.257   0.497  1.00  0.00     0.187 HD
ATOM      6  N   UNL d   1       1.503  -1.107   0.189  0.00  0.00    -0.280 N 
ATOM      7  N   UNL d   1      -0.903  -1.357   0.018  0.00  0.00    -0.321 N 
ATOM      8  HN  UNL d   1      -0.914  -2.372   0.118  1.00  0.00     0.169 HD
ATOM      9  C   UNL d   1      -2.023  -0.617  -0.136  0.00  0.00     0.155 A 
ATOM     10  C   UNL d   1      -0.831   1.507  -0.252  0.00  0.00    -0.014 A 
ATOM     11  C   UNL d   1      -2.032   0.765  -0.277  0.00  0.00     0.067 A 
ATOM     12  C   UNL d   1       1.893  -2.494   0.237  0.00  0.00     0.179 C 
ENDROOT
BRANCH   9  13
ATOM     13  O   UNL d   1      -3.225  -1.345   0.066  0.00  0.00    -0.244 OA
BRANCH  13  14
ATOM     14  C   UNL d   1      -4.485  -0.903  -0.342  0.00  0.00     0.368 C 
ATOM     15  N   UNL d   1      -5.526  -1.596   0.262  0.00  0.00    -0.336 N 
ATOM     16  C   UNL d   1      -6.885  -1.104   0.111  0.00  0.00     0.154 C 
ATOM     17  C   UNL d   1      -5.320  -2.645   1.246  0.00  0.00     0.154 C 
ATOM     18  O   UNL d   1      -4.665   0.012  -1.143  0.00  0.00    -0.238 OA
ENDBRANCH  13  14
ENDBRANCH   9  13
BRANCH  10  19
ATOM     19  C   UNL d   1      -0.890   3.013  -0.343  0.00  0.00     0.206 C 
BRANCH  19  20
ATOM     20  O   UNL d   1      -2.155   3.519   0.084  0.00  0.00    -0.391 OA
ATOM     21  C   UNL d   1      -2.215   4.932  -0.044  0.00  0.00     0.201 C 
ENDBRANCH  19  20
ENDBRANCH  10  19
BRANCH   1  22
ATOM     22  C   UNL d   1       2.516   2.286  -0.089  0.00  0.00     0.034 A 
ATOM     23  S   UNL d   1       3.876   2.681   0.874  0.00  0.00    -0.100 SA
ATOM     24  C   UNL d   1       3.975   4.253   0.203  0.00  0.00     0.050 A 
ATOM     25  C   UNL d   1       3.056   4.440  -0.804  0.00  0.00     0.008 A 
ATOM     26  C   UNL d   1       2.235   3.290  -0.993  0.00  0.00     0.021 A 
ENDBRANCH   1  22
TORSDOF 5
