REMARK  3 active torsions:
REMARK  status: ('A' for Active; 'I' for Inactive)
REMARK    1  A    between atoms: C_10  and  N_1 
REMARK    2  A    between atoms: C_2  and  N_4 
REMARK    3  A    between atoms: C_3  and  C_12 
REMARK       I    between atoms: N_5  and  C_3 
ROOT
ATOM      1  C   UNL d   1      -2.059   0.904  -4.493  0.00  0.00     0.253 C 
ATOM      2  N   UNL d   1      -5.227   3.574  -3.985  0.00  0.00    -0.214 N 
ATOM      3  N   UNL d   1      -3.018   1.905  -4.571  0.00  0.00    -0.345 N 
ATOM      4  C   UNL d   1      -4.335   1.588  -5.143  0.00  0.00     0.146 C 
ATOM      5  C   UNL d   1      -2.819   3.343  -4.332  0.00  0.00     0.146 C 
ATOM      6  C   UNL d   1      -5.473   2.152  -4.265  0.00  0.00     0.161 C 
ATOM      7  C   UNL d   1      -3.921   3.900  -3.410  0.00  0.00     0.161 C 
ATOM      8  O   UNL d   1      -2.206  -0.201  -5.009  0.00  0.00    -0.267 OA
ENDROOT
BRANCH   1   9
ATOM      9  C   UNL d   1      -0.810   1.130  -3.722  0.00  0.00     0.032 A 
ATOM     10  C   UNL d   1      -0.825   1.770  -2.474  0.00  0.00     0.019 A 
ATOM     11  C   UNL d   1       0.362   1.950  -1.760  0.00  0.00     0.037 A 
ATOM     12  C   UNL d   1       1.561   1.436  -2.271  0.00  0.00     0.102 A 
ATOM     13  C   UNL d   1       1.577   0.741  -3.489  0.00  0.00     0.037 A 
ATOM     14  C   UNL d   1       0.388   0.591  -4.210  0.00  0.00     0.019 A 
BRANCH  12  15
ATOM     15  N   UNL d   1       2.807   1.617  -1.518  0.00  0.00    -0.116 N 
ATOM     16  O   UNL d   1       3.826   1.063  -1.945  0.00  0.00    -0.532 OA
ATOM     17  O   UNL d   1       2.763   2.324  -0.497  0.00  0.00    -0.532 OA
ENDBRANCH  12  15
ENDBRANCH   1   9
BRANCH   2  18
ATOM     18  C   UNL d   1      -6.300   4.388  -3.704  0.00  0.00     0.680 A 
ATOM     19  N   UNL d   1      -6.075   5.574  -3.110  0.00  0.00    -0.201 N 
ATOM     20  C   UNL d   1      -7.119   6.422  -2.976  0.00  0.00     0.126 A 
ATOM     21  HN  UNL d   1      -5.146   5.825  -2.771  1.00  0.00     0.183 HD
ATOM     22  C   UNL d   1      -8.385   6.136  -3.413  0.00  0.00     0.042 A 
ATOM     23  C   UNL d   1      -8.536   4.898  -3.978  0.00  0.00     0.126 A 
ATOM     24 BR   UNL d   1      -9.802   7.354  -3.262  0.00  0.00    -0.048 Br
ATOM     25  N   UNL d   1      -7.521   4.017  -4.125  0.00  0.00    -0.201 N 
ATOM     26  HN  UNL d   1      -7.677   3.099  -4.542  1.00  0.00     0.183 HD
ENDBRANCH   2  18
TORSDOF 3
