REMARK  9 active torsions:
REMARK  status: ('A' for Active; 'I' for Inactive)
REMARK    1  A    between atoms: O_9  and  C_1 
REMARK       I    between atoms: C_2  and  N_5 
REMARK       I    between atoms: N_4  and  C_2 
REMARK       I    between atoms: C_3  and  N_7 
REMARK    2  A    between atoms: C_20  and  C_3 
REMARK    3  A    between atoms: N_7  and  N_4 
REMARK    4  A    between atoms: N_5  and  C_17 
REMARK    5  A    between atoms: C_6  and  C_25 
REMARK       I    between atoms: N_8  and  C_6 
REMARK    6  A    between atoms: C_19  and  N_8 
REMARK    7  A    between atoms: C_18  and  O_9 
REMARK    8  A    between atoms: S_16  and  C_20 
REMARK    9  A    between atoms: C_25  and  S_16 
ROOT
ATOM      1  C   UNL d   1       3.512   6.702  -0.937  0.00  0.00     0.339 C 
ATOM      2  N   UNL d   1       4.422   5.706  -1.262  0.00  0.00    -0.249 N 
ATOM      3  N   UNL d   1       3.941   7.946  -1.355  0.00  0.00    -0.308 N 
ATOM      4  O   UNL d   1       2.461   6.431  -0.361  0.00  0.00    -0.245 OA
ATOM      5  H   UNL d   1       5.399   5.917  -1.444  0.00  0.00     0.192 HD
ATOM      6  H   UNL d   1       4.826   7.969  -1.838  0.00  0.00     0.170 HD
ENDROOT
BRANCH   2   7
ATOM      7  N   UNL d   1       4.172   4.410  -0.776  0.00  0.00    -0.265 N 
ATOM      8  C   UNL d   1       5.069   3.413  -1.091  0.00  0.00     0.245 C 
ATOM      9  O   UNL d   1       6.148   3.640  -1.644  0.00  0.00    -0.271 OA
ATOM     10  H   UNL d   1       3.214   4.219  -0.480  0.00  0.00     0.190 HD
BRANCH   8  11
ATOM     11  C   UNL d   1       4.642   2.016  -0.678  0.00  0.00     0.178 C 
BRANCH  11  12
ATOM     12  S   UNL d   1       3.195   1.440  -1.638  0.00  0.00    -0.150 SA
BRANCH  12  13
ATOM     13  C   UNL d   1       3.969   1.399  -3.286  0.00  0.00     0.177 C 
BRANCH  13  14
ATOM     14  C   UNL d   1       3.083   0.898  -4.420  0.00  0.00     0.231 C 
ATOM     15  N   UNL d   1       1.809   0.487  -4.087  0.00  0.00    -0.327 N 
ATOM     16  H   UNL d   1       1.533   0.644  -3.122  0.00  0.00     0.169 HD
ATOM     17  O   UNL d   1       3.549   0.913  -5.564  0.00  0.00    -0.272 OA
BRANCH  15  18
ATOM     18  C   UNL d   1       0.808   0.047  -4.983  0.00  0.00     0.034 A 
ATOM     19  C   UNL d   1       1.069  -0.315  -6.308  0.00  0.00     0.029 A 
ATOM     20  C   UNL d   1       0.027  -0.652  -7.178  0.00  0.00     0.002 A 
ATOM     21  C   UNL d   1      -1.289  -0.642  -6.728  0.00  0.00     0.000 A 
ATOM     22  C   UNL d   1      -1.559  -0.331  -5.397  0.00  0.00     0.002 A 
ATOM     23  C   UNL d   1      -0.513  -0.003  -4.524  0.00  0.00     0.029 A 
ENDBRANCH  15  18
ENDBRANCH  13  14
ENDBRANCH  12  13
ENDBRANCH  11  12
ENDBRANCH   8  11
ENDBRANCH   2   7
BRANCH   3  24
ATOM     24  C   UNL d   1       3.310   9.189  -1.140  0.00  0.00     0.036 A 
ATOM     25  C   UNL d   1       2.075   9.332  -0.511  0.00  0.00     0.032 A 
ATOM     26  C   UNL d   1       1.548  10.606  -0.271  0.00  0.00     0.039 A 
ATOM     27  C   UNL d   1       2.227  11.756  -0.665  0.00  0.00     0.078 A 
ATOM     28  C   UNL d   1       3.461  11.625  -1.303  0.00  0.00     0.039 A 
ATOM     29  C   UNL d   1       3.985  10.345  -1.555  0.00  0.00     0.032 A 
BRANCH  27  30
ATOM     30  O   UNL d   1       1.589  12.916  -0.349  0.00  0.00    -0.255 OA
BRANCH  30  31
ATOM     31  C   UNL d   1       1.930  14.111  -1.029  0.00  0.00     0.530 C 
ATOM     32  F   UNL d   1       2.340  13.899  -2.297  0.00  0.00    -0.144 F 
ATOM     33  F   UNL d   1       2.891  14.774  -0.353  0.00  0.00    -0.144 F 
ATOM     34  F   UNL d   1       0.829  14.896  -1.078  0.00  0.00    -0.144 F 
ENDBRANCH  30  31
ENDBRANCH  27  30
ENDBRANCH   3  24
TORSDOF 9
