REMARK  3 active torsions:
REMARK  status: ('A' for Active; 'I' for Inactive)
REMARK    1  A    between atoms: C_7  and  C_8 
REMARK    2  A    between atoms: O_13  and  C_7 
REMARK    3  A    between atoms: C_15  and  O_13 
ROOT
ATOM      1  N   UNL d   1      -1.919  -0.832  -0.041  0.00  0.00    -0.020 NA
ATOM      2  N   UNL d   1      -0.866  -1.639  -0.065  0.00  0.00    -0.282 N 
ATOM      3  HN  UNL d   1      -0.894  -2.658  -0.074  1.00  0.00     0.184 HD
ATOM      4  C   UNL d   1       0.263  -0.868  -0.076  0.00  0.00     0.075 A 
ATOM      5  N   UNL d   1      -1.460   0.431  -0.040  0.00  0.00    -0.278 N 
ATOM      6  C   UNL d   1      -0.090   0.478  -0.059  0.00  0.00     0.076 A 
ATOM      7  C   UNL d   1       2.581  -0.208  -0.077  0.00  0.00     0.041 A 
ATOM      8  C   UNL d   1       1.615  -1.228  -0.092  0.00  0.00     0.050 A 
ATOM      9  C   UNL d   1       0.842   1.516  -0.053  0.00  0.00     0.034 A 
ATOM     10  C   UNL d   1       2.192   1.143  -0.065  0.00  0.00     0.020 A 
ATOM     11  C   UNL d   1      -2.378   1.537  -0.033  0.00  0.00     0.175 C 
ENDROOT
BRANCH   7  12
ATOM     12  C   UNL d   1       4.007  -0.621  -0.003  0.00  0.00     0.293 C 
ATOM     13  O   UNL d   1       4.369  -1.785   0.047  0.00  0.00    -0.259 OA
BRANCH  12  14
ATOM     14  O   UNL d   1       4.804   0.470   0.105  0.00  0.00    -0.318 OA
BRANCH  14  15
ATOM     15  C   UNL d   1       6.138   0.212   0.564  0.00  0.00     0.174 C 
ATOM     16  C   UNL d   1       6.135   0.263   2.081  0.00  0.00     0.034 C 
ENDBRANCH  14  15
ENDBRANCH  12  14
ENDBRANCH   7  12
TORSDOF 3
