REMARK  3 active torsions:
REMARK  status: ('A' for Active; 'I' for Inactive)
REMARK    1  A    between atoms: C_2  and  S_1 
REMARK    2  A    between atoms: C_7  and  S_1 
REMARK    3  A    between atoms: N_5  and  C_3 
ROOT
ATOM      1  C   UNL d   1       0.445  -1.637  -0.710  0.00  0.00     0.159 C 
ATOM      2  C   UNL d   1      -0.314  -2.469   0.028  0.00  0.00     0.121 C 
ATOM      3  C   UNL d   1       0.913  -1.971  -1.997  0.00  0.00     0.113 C 
ATOM      4  N   UNL d   1       1.297  -2.233  -3.063  0.00  0.00    -0.191 NA
ENDROOT
BRANCH   1   5
ATOM      5  S   UNL d   1       0.956  -0.141  -0.007  0.00  0.00     0.218 S 
ATOM      6  O   UNL d   1       2.215  -0.358   0.684  0.00  0.00    -0.216 OA
ATOM      7  O   UNL d   1      -0.153   0.472   0.706  0.00  0.00    -0.216 OA
BRANCH   5   8
ATOM      8  C   UNL d   1       1.321   0.945  -1.382  0.00  0.00     0.065 A 
ATOM      9  C   UNL d   1       0.328   1.803  -1.868  0.00  0.00     0.025 A 
ATOM     10  C   UNL d   1       0.620   2.658  -2.934  0.00  0.00     0.025 A 
ATOM     11  C   UNL d   1       1.898   2.663  -3.495  0.00  0.00     0.034 A 
ATOM     12  C   UNL d   1       2.898   1.835  -2.986  0.00  0.00     0.025 A 
ATOM     13 CL   UNL d   1       2.243   3.699  -4.824  0.00  0.00    -0.084 Cl
ATOM     14  C   UNL d   1       2.616   0.979  -1.917  0.00  0.00     0.025 A 
ENDBRANCH   5   8
ENDBRANCH   1   5
BRANCH   2  15
ATOM     15  N   UNL d   1      -0.672  -3.789  -0.267  0.00  0.00    -0.385 N 
ATOM     16  C   UNL d   1       0.412  -4.815  -0.285  0.00  0.00     0.152 C 
ATOM     17  C   UNL d   1      -0.024  -6.082  -1.046  0.00  0.00     0.291 C 
ATOM     18  N   UNL d   1      -1.269  -6.702  -0.547  0.00  0.00     0.087 N 
ATOM     19  C   UNL d   1      -2.324  -5.666  -0.493  0.00  0.00     0.291 C 
ATOM     20  C   UNL d   1      -1.071  -7.346   0.750  0.00  0.00     0.310 C 
ATOM     21  C   UNL d   1      -1.947  -4.354   0.247  0.00  0.00     0.152 C 
ENDBRANCH   2  15
TORSDOF 3
