REMARK  1 active torsions:
REMARK  status: ('A' for Active; 'I' for Inactive)
REMARK    1  A    between atoms: N_2  and  C_1 
ROOT
ATOM      1  C   UNL d   1      -0.200  -1.223   0.092  0.00  0.00     0.138 C 
ATOM      2  N   UNL d   1      -0.612  -0.539  -0.927  0.00  0.00    -0.370 N 
ATOM      3  HN  UNL d   1      -0.973  -0.949  -1.789  1.00  0.00     0.161 HD
ATOM      4  S   UNL d   1       0.289  -0.264   1.484  0.00  0.00    -0.093 SA
ATOM      5  C   UNL d   1      -0.492   0.907  -0.682  0.00  0.00     0.132 C 
ATOM      6  C   UNL d   1      -0.529   1.183   0.806  0.00  0.00     0.102 C 
ENDROOT
BRANCH   1   7
ATOM      7  N   UNL d   1      -0.163  -2.603   0.138  0.00  0.00    -0.362 N 
ATOM      8  C   UNL d   1      -0.395  -3.360  -1.099  0.00  0.00     0.125 C 
ATOM      9  C   UNL d   1      -1.252  -4.589  -0.808  0.00  0.00     0.020 C 
ATOM     10  C   UNL d   1      -0.630  -5.453   0.282  0.00  0.00     0.003 C 
ATOM     11  C   UNL d   1      -0.335  -4.619   1.525  0.00  0.00     0.020 C 
ATOM     12  C   UNL d   1       0.497  -3.380   1.191  0.00  0.00     0.125 C 
ENDBRANCH   1   7
TORSDOF 1
