REMARK  6 active torsions:
REMARK  status: ('A' for Active; 'I' for Inactive)
REMARK    1  A    between atoms: C_10  and  C_2 
REMARK    2  A    between atoms: S_11  and  C_3 
REMARK    3  A    between atoms: C_7  and  C_8 
REMARK    4  A    between atoms: C_9  and  C_21 
REMARK       I    between atoms: N_12  and  C_9 
REMARK    5  A    between atoms: C_21  and  S_11 
REMARK    6  A    between atoms: C_22  and  N_12 
ROOT
ATOM      1  S   UNL d   1       0.211  -2.576   1.174  0.00  0.00    -0.095 SA
ENDROOT
BRANCH   1   2
ATOM      2  C   UNL d   1       0.990  -1.029   0.985  0.00  0.00     0.120 C 
ATOM      3  S   UNL d   1       0.300   0.384   1.746  0.00  0.00    -0.076 SA
ATOM      4  C   UNL d   1       1.899   1.208   1.469  0.00  0.00     0.194 C 
ATOM      5  N   UNL d   1       2.499   0.429   0.379  0.00  0.00    -0.219 NA
ATOM      6  N   UNL d   1       2.107  -0.874   0.336  0.00  0.00    -0.308 N 
ATOM      7  H   UNL d   1       3.514   0.545   0.360  0.00  0.00     0.148 HD
ATOM      8  HN  UNL d   1       2.615  -1.620  -0.138  1.00  0.00     0.182 HD
BRANCH   4   9
ATOM      9  C   UNL d   1       1.860   2.693   1.175  0.00  0.00     0.038 A 
ATOM     10  N   UNL d   1       2.538   3.500   2.039  0.00  0.00    -0.367 N 
ATOM     11  C   UNL d   1       2.619   4.816   1.742  0.00  0.00     0.088 A 
ATOM     12  HN  UNL d   1       2.971   3.123   2.882  1.00  0.00     0.165 HD
ATOM     13  C   UNL d   1       2.062   5.385   0.612  0.00  0.00     0.017 A 
ATOM     14  C   UNL d   1       1.367   4.559  -0.262  0.00  0.00     0.003 A 
ATOM     15  C   UNL d   1       1.261   3.198   0.019  0.00  0.00     0.027 A 
ENDBRANCH   4   9
ENDBRANCH   1   2
BRANCH   1  16
ATOM     16  C   UNL d   1       1.473  -3.604   0.371  0.00  0.00     0.184 C 
BRANCH  16  17
ATOM     17  C   UNL d   1       1.365  -5.091   0.654  0.00  0.00     0.231 C 
ATOM     18  N   UNL d   1       0.086  -5.608   0.736  0.00  0.00    -0.327 N 
ATOM     19  H   UNL d   1      -0.675  -4.951   0.600  0.00  0.00     0.169 HD
ATOM     20  O   UNL d   1       2.402  -5.756   0.705  0.00  0.00    -0.272 OA
BRANCH  18  21
ATOM     21  C   UNL d   1      -0.267  -6.948   1.020  0.00  0.00     0.034 A 
ATOM     22  C   UNL d   1       0.660  -7.934   1.369  0.00  0.00     0.030 A 
ATOM     23  C   UNL d   1       0.247  -9.234   1.682  0.00  0.00     0.018 A 
ATOM     24  C   UNL d   1      -1.107  -9.581   1.649  0.00  0.00     0.048 A 
ATOM     25  C   UNL d   1      -2.038  -8.600   1.277  0.00  0.00     0.018 A 
ATOM     26  C   UNL d   1      -1.621  -7.295   0.972  0.00  0.00     0.030 A 
BRANCH  24  27
ATOM     27  C   UNL d   1      -1.561 -10.972   2.017  0.00  0.00     0.417 C 
ATOM     28  F   UNL d   1      -0.545 -11.799   2.391  0.00  0.00    -0.166 F 
ATOM     29  F   UNL d   1      -2.441 -10.972   3.057  0.00  0.00    -0.166 F 
ATOM     30  F   UNL d   1      -2.196 -11.604   0.991  0.00  0.00    -0.166 F 
ENDBRANCH  24  27
ENDBRANCH  18  21
ENDBRANCH  16  17
ENDBRANCH   1  16
TORSDOF 6
