REMARK  1 active torsions:
REMARK  status: ('A' for Active; 'I' for Inactive)
REMARK    1  A    between atoms: C_4  and  C_1 
ROOT
ATOM      1  C   UNL d   1      -2.393  -0.112  -0.062  0.00  0.00     0.045 A 
ATOM      2  N   UNL d   1      -1.560   0.986  -0.052  0.00  0.00    -0.355 N 
ATOM      3  C   UNL d   1      -1.559  -1.219  -0.003  0.00  0.00     0.044 A 
ATOM      4  C   UNL d   1      -0.238   0.615  -0.022  0.00  0.00     0.043 A 
ATOM      5  C   UNL d   1      -0.208  -0.776   0.008  0.00  0.00    -0.007 A 
ATOM      6  C   UNL d   1       0.922   1.398  -0.023  0.00  0.00     0.030 A 
ATOM      7  C   UNL d   1       1.040  -1.427   0.032  0.00  0.00     0.014 A 
ATOM      8  C   UNL d   1       2.211  -0.661   0.021  0.00  0.00     0.001 A 
ATOM      9  C   UNL d   1       2.151   0.731  -0.005  0.00  0.00     0.002 A 
ATOM     10  H   UNL d   1      -1.882   1.944  -0.068  0.00  0.00     0.166 HD
ENDROOT
BRANCH   1  11
ATOM     11  C   UNL d   1      -3.859  -0.022  -0.187  0.00  0.00     0.012 A 
ATOM     12  C   UNL d   1      -4.642   1.037   0.316  0.00  0.00     0.046 A 
ATOM     13 CL   UNL d   1      -3.979   2.357   1.223  0.00  0.00    -0.083 Cl
ATOM     14  C   UNL d   1      -6.029   1.062   0.113  0.00  0.00     0.025 A 
ATOM     15  C   UNL d   1      -6.660   0.036  -0.588  0.00  0.00     0.002 A 
ATOM     16  C   UNL d   1      -5.908  -1.023  -1.081  0.00  0.00     0.001 A 
ATOM     17  C   UNL d   1      -4.524  -1.050  -0.881  0.00  0.00     0.015 A 
ENDBRANCH   1  11
TORSDOF 1
