REMARK  6 active torsions:
REMARK  status: ('A' for Active; 'I' for Inactive)
REMARK    1  A    between atoms: N_6  and  C_1 
REMARK       I    between atoms: C_2  and  N_6 
REMARK       I    between atoms: N_9  and  C_2 
REMARK    2  A    between atoms: C_3  and  C_10 
REMARK    3  A    between atoms: C_8  and  N_9 
REMARK    4  A    between atoms: O_14  and  C_11 
REMARK    5  A    between atoms: C_21  and  O_14 
REMARK    6  A    between atoms: O_28  and  C_22 
ROOT
ATOM      1  C   UNL d   1      -1.466  -2.380   0.033  0.00  0.00     0.071 A 
ATOM      2  C   UNL d   1      -2.265  -0.177   0.748  0.00  0.00     0.050 A 
ATOM      3  C   UNL d   1      -0.743  -1.769  -1.007  0.00  0.00     0.102 A 
ATOM      4  C   UNL d   1      -2.230  -1.577   0.899  0.00  0.00     0.048 A 
ATOM      5  C   UNL d   1      -1.532   0.413  -0.289  0.00  0.00     0.019 A 
ATOM      6  C   UNL d   1      -0.768  -0.373  -1.149  0.00  0.00     0.040 A 
ENDROOT
BRANCH   1   7
ATOM      7  N   UNL d   1      -1.368  -3.775   0.251  0.00  0.00    -0.306 N 
ATOM      8  C   UNL d   1      -2.350  -4.678   0.643  0.00  0.00     0.325 C 
ATOM      9  N   UNL d   1      -3.613  -4.276   0.292  0.00  0.00    -0.307 N 
ATOM     10  O   UNL d   1      -2.023  -5.747   1.139  0.00  0.00    -0.247 OA
ATOM     11  H   UNL d   1      -3.623  -3.412  -0.226  0.00  0.00     0.170 HD
ATOM     12  H   UNL d   1      -0.460  -4.202   0.098  0.00  0.00     0.171 HD
BRANCH   9  13
ATOM     13  C   UNL d   1      -4.866  -4.880   0.408  0.00  0.00     0.054 A 
ATOM     14  C   UNL d   1      -5.319  -6.172   0.907  0.00  0.00     0.008 A 
ATOM     15  C   UNL d   1      -6.723  -6.252   0.869  0.00  0.00     0.017 A 
ATOM     16  C   UNL d   1      -4.652  -7.330   1.391  0.00  0.00     0.015 A 
ATOM     17  C   UNL d   1      -7.442  -7.378   1.329  0.00  0.00     0.020 A 
ATOM     18  S   UNL d   1      -7.441  -4.846   0.192  0.00  0.00    -0.099 SA
ATOM     19  C   UNL d   1      -6.745  -8.485   1.804  0.00  0.00     0.001 A 
ATOM     20  C   UNL d   1      -5.362  -8.466   1.822  0.00  0.00     0.001 A 
ATOM     21  C   UNL d   1      -5.927  -4.132  -0.057  0.00  0.00     0.081 A 
ENDBRANCH   9  13
ENDBRANCH   1   7
BRANCH   3  22
ATOM     22  O   UNL d   1      -0.047  -2.573  -1.898  0.00  0.00    -0.309 OA
BRANCH  22  23
ATOM     23  C   UNL d   1      -0.022  -2.157  -3.216  0.00  0.00     0.076 A 
ATOM     24  C   UNL d   1       1.222  -1.989  -3.828  0.00  0.00     0.040 A 
ATOM     25  C   UNL d   1       1.297  -1.490  -5.136  0.00  0.00     0.039 A 
ATOM     26  C   UNL d   1       0.130  -1.169  -5.832  0.00  0.00     0.068 A 
ATOM     27  C   UNL d   1      -1.110  -1.405  -5.240  0.00  0.00     0.039 A 
ATOM     28  C   UNL d   1      -1.192  -1.899  -3.936  0.00  0.00     0.040 A 
BRANCH  26  29
ATOM     29  O   UNL d   1       0.084  -0.667  -7.104  0.00  0.00    -0.356 OA
ATOM     30  C   UNL d   1       1.169   0.180  -7.469  0.00  0.00     0.210 C 
ENDBRANCH  26  29
ENDBRANCH  22  23
ENDBRANCH   3  22
BRANCH   2  31
ATOM     31  C   UNL d   1      -3.029   0.710   1.702  0.00  0.00     0.417 C 
ATOM     32  F   UNL d   1      -3.731   0.026   2.642  0.00  0.00    -0.166 F 
ATOM     33  F   UNL d   1      -2.210   1.560   2.385  0.00  0.00    -0.166 F 
ATOM     34  F   UNL d   1      -3.934   1.501   1.060  0.00  0.00    -0.166 F 
ENDBRANCH   2  31
TORSDOF 6
