REMARK  6 active torsions:
REMARK  status: ('A' for Active; 'I' for Inactive)
REMARK    1  A    between atoms: N_2  and  S_1 
REMARK    2  A    between atoms: C_3  and  S_1 
REMARK    3  A    between atoms: C_4  and  N_2 
REMARK    4  A    between atoms: C_18  and  N_2 
REMARK    5  A    between atoms: C_6  and  C_4 
REMARK    6  A    between atoms: C_16  and  C_18 
ROOT
ATOM      1  N   UNL d   1       3.086  -2.708   4.432  0.00  0.00    -0.197 NA
ATOM      2  C   UNL d   1       2.811  -1.886   3.664  0.00  0.00     0.060 C 
ATOM      3  C   UNL d   1       2.445  -0.855   2.680  0.00  0.00     0.139 C 
ENDROOT
BRANCH   3   4
ATOM      4  C   UNL d   1       0.929  -0.846   2.481  0.00  0.00     0.122 C 
BRANCH   4   5
ATOM      5  N   UNL d   1       0.415   0.233   1.525  0.00  0.00    -0.200 NA
BRANCH   5   6
ATOM      6  S   UNL d   1       1.060   0.017  -0.061  0.00  0.00     0.244 S 
ATOM      7  O   UNL d   1       0.658  -1.309  -0.485  0.00  0.00    -0.206 OA
ATOM      8  O   UNL d   1       2.458   0.388  -0.017  0.00  0.00    -0.206 OA
BRANCH   6   9
ATOM      9  C   UNL d   1       0.272   1.190  -1.134  0.00  0.00     0.074 A 
ATOM     10  C   UNL d   1       0.457   2.560  -0.929  0.00  0.00     0.026 A 
ATOM     11  C   UNL d   1      -0.053   3.467  -1.864  0.00  0.00     0.025 A 
ATOM     12  C   UNL d   1      -0.728   3.001  -2.996  0.00  0.00     0.034 A 
ATOM     13  C   UNL d   1      -0.909   1.634  -3.199  0.00  0.00     0.025 A 
ATOM     14 CL   UNL d   1      -1.318   4.119  -4.163  0.00  0.00    -0.084 Cl
ATOM     15  C   UNL d   1      -0.410   0.723  -2.266  0.00  0.00     0.026 A 
ENDBRANCH   6   9
ENDBRANCH   5   6
BRANCH   5  16
ATOM     16  C   UNL d   1      -1.090   0.261   1.547  0.00  0.00     0.172 C 
BRANCH  16  17
ATOM     17  C   UNL d   1      -1.594   0.527   2.928  0.00  0.00     0.066 A 
ATOM     18  O   UNL d   1      -2.367  -0.453   3.485  0.00  0.00    -0.326 OA
ATOM     19  C   UNL d   1      -2.651  -0.067   4.755  0.00  0.00     0.142 A 
ATOM     20  C   UNL d   1      -2.076   1.152   5.027  0.00  0.00     0.027 A 
ATOM     21  C   UNL d   1      -1.405   1.546   3.842  0.00  0.00     0.036 A 
ENDBRANCH  16  17
ENDBRANCH   5  16
ENDBRANCH   4   5
ENDBRANCH   3   4
TORSDOF 6
