REMARK  11 active torsions:
REMARK  status: ('A' for Active; 'I' for Inactive)
REMARK    1  A    between atoms: C_10  and  C_1 
REMARK    2  A    between atoms: N_11  and  C_6 
REMARK    3  A    between atoms: N_12  and  C_7 
REMARK       I    between atoms: C_13  and  N_11 
REMARK       I    between atoms: C_14  and  N_12 
REMARK       I    between atoms: N_24  and  C_13 
REMARK       I    between atoms: N_23  and  C_14 
REMARK    4  A    between atoms: O_16  and  C_15 
REMARK    5  A    between atoms: C_17  and  O_16 
REMARK    6  A    between atoms: C_31  and  N_23 
REMARK    7  A    between atoms: C_32  and  N_24 
REMARK    8  A    between atoms: C_34  and  C_31 
REMARK    9  A    between atoms: C_33  and  C_32 
REMARK   10  A    between atoms: C_35  and  C_33 
REMARK   11  A    between atoms: C_36  and  C_34 
ROOT
ATOM      1  C   UNL d   1      -1.326  -0.179  -0.283  0.00  0.00     0.149 A 
ATOM      2  N   UNL d   1      -0.522  -1.241  -0.370  0.00  0.00    -0.174 N 
ATOM      3  HN  UNL d   1      -0.876  -2.194  -0.451  1.00  0.00     0.186 HD
ATOM      4  N   UNL d   1      -0.898   1.076  -0.268  0.00  0.00    -0.174 N 
ATOM      5  HN  UNL d   1      -1.546   1.863  -0.245  1.00  0.00     0.186 HD
ATOM      6  C   UNL d   1       0.777  -0.956  -0.343  0.00  0.00     0.702 A 
ATOM      7  C   UNL d   1       0.407   1.254  -0.284  0.00  0.00     0.702 A 
ATOM      8  N   UNL d   1       1.287   0.268  -0.303  0.00  0.00    -0.022 N 
ATOM      9  HN  UNL d   1       2.293   0.437  -0.288  1.00  0.00     0.203 HD
ENDROOT
BRANCH   1  10
ATOM     10  C   UNL d   1      -2.784  -0.392  -0.241  0.00  0.00     0.043 A 
ATOM     11  C   UNL d   1      -3.660   0.482   0.451  0.00  0.00     0.090 A 
ATOM     12  C   UNL d   1      -5.052   0.327   0.344  0.00  0.00     0.038 A 
ATOM     13  C   UNL d   1      -5.589  -0.764  -0.332  0.00  0.00     0.003 A 
ATOM     14  C   UNL d   1      -4.744  -1.681  -0.949  0.00  0.00     0.001 A 
ATOM     15  C   UNL d   1      -3.361  -1.484  -0.920  0.00  0.00     0.018 A 
BRANCH  11  16
ATOM     16  O   UNL d   1      -3.081   1.470   1.234  0.00  0.00    -0.308 OA
BRANCH  16  17
ATOM     17  C   UNL d   1      -3.797   2.030   2.265  0.00  0.00     0.098 A 
ATOM     18  C   UNL d   1      -4.369   1.314   3.325  0.00  0.00     0.069 A 
ATOM     19  C   UNL d   1      -5.131   1.982   4.286  0.00  0.00     0.050 A 
ATOM     20 CL   UNL d   1      -4.146  -0.388   3.532  0.00  0.00    -0.081 Cl
ATOM     21  C   UNL d   1      -5.254   3.369   4.229  0.00  0.00     0.035 A 
ATOM     22  C   UNL d   1      -4.606   4.099   3.234  0.00  0.00     0.026 A 
ATOM     23 CL   UNL d   1      -6.203   4.187   5.409  0.00  0.00    -0.084 Cl
ATOM     24  C   UNL d   1      -3.876   3.429   2.251  0.00  0.00     0.041 A 
ENDBRANCH  16  17
ENDBRANCH  11  16
ENDBRANCH   1  10
BRANCH   6  25
ATOM     25  N   UNL d   1       1.600  -2.081  -0.365  0.00  0.00    -0.141 N 
ATOM     26  C   UNL d   1       2.930  -2.083  -0.047  0.00  0.00     0.334 C 
ATOM     27  O   UNL d   1       3.597  -1.114   0.298  0.00  0.00    -0.247 OA
ATOM     28  N   UNL d   1       3.467  -3.353  -0.114  0.00  0.00    -0.342 N 
ATOM     29  H   UNL d   1       2.982  -4.055  -0.653  0.00  0.00     0.164 HD
ATOM     30  H   UNL d   1       1.098  -2.950  -0.393  0.00  0.00     0.189 HD
BRANCH  28  31
ATOM     31  C   UNL d   1       4.855  -3.598   0.234  0.00  0.00     0.124 C 
BRANCH  31  32
ATOM     32  C   UNL d   1       5.049  -3.830   1.733  0.00  0.00     0.019 C 
BRANCH  32  33
ATOM     33  C   UNL d   1       4.468  -5.168   2.196  0.00  0.00    -0.003 C 
ATOM     34  C   UNL d   1       4.721  -5.404   3.678  0.00  0.00     0.005 C 
ENDBRANCH  32  33
ENDBRANCH  31  32
ENDBRANCH  28  31
ENDBRANCH   6  25
BRANCH   7  35
ATOM     35  N   UNL d   1       0.939   2.539  -0.247  0.00  0.00    -0.141 N 
ATOM     36  C   UNL d   1       0.211   3.682  -0.436  0.00  0.00     0.334 C 
ATOM     37  O   UNL d   1      -0.975   3.748  -0.736  0.00  0.00    -0.247 OA
ATOM     38  N   UNL d   1       0.975   4.816  -0.281  0.00  0.00    -0.342 N 
ATOM     39  H   UNL d   1       1.793   4.748   0.303  0.00  0.00     0.164 HD
ATOM     40  H   UNL d   1       1.942   2.571  -0.260  0.00  0.00     0.189 HD
BRANCH  38  41
ATOM     41  C   UNL d   1       0.378   6.128  -0.474  0.00  0.00     0.124 C 
BRANCH  41  42
ATOM     42  C   UNL d   1      -0.452   6.601   0.719  0.00  0.00     0.019 C 
BRANCH  42  43
ATOM     43  C   UNL d   1       0.410   6.913   1.943  0.00  0.00    -0.003 C 
ATOM     44  C   UNL d   1      -0.423   7.474   3.084  0.00  0.00     0.005 C 
ENDBRANCH  42  43
ENDBRANCH  41  42
ENDBRANCH  38  41
ENDBRANCH   7  35
TORSDOF 11
