REMARK  5 active torsions:
REMARK  status: ('A' for Active; 'I' for Inactive)
REMARK    1  A    between atoms: N_7  and  C_1 
REMARK    2  A    between atoms: N_10  and  C_1 
REMARK    3  A    between atoms: C_2  and  C_9 
REMARK    4  A    between atoms: N_3  and  N_7 
REMARK    5  A    between atoms: O_15  and  C_6 
ROOT
ATOM      1  N   UNL d   1      -1.306   1.058  -0.093  0.00  0.00    -0.309 N 
ATOM      2  HN  UNL d   1      -1.834   0.325   0.380  1.00  0.00     0.186 HD
ATOM      3  C   UNL d   1      -1.879   2.082  -0.647  0.00  0.00     0.121 C 
ENDROOT
BRANCH   3   4
ATOM      4  C   UNL d   1      -3.352   2.225  -0.635  0.00  0.00     0.015 A 
ATOM      5  C   UNL d   1      -4.185   1.262  -0.047  0.00  0.00     0.077 A 
ATOM      6  C   UNL d   1      -5.567   1.420  -0.051  0.00  0.00     0.039 A 
ATOM      7  C   UNL d   1      -6.132   2.545  -0.650  0.00  0.00     0.022 A 
ATOM      8  C   UNL d   1      -5.305   3.503  -1.239  0.00  0.00     0.011 A 
ATOM      9  C   UNL d   1      -3.917   3.354  -1.235  0.00  0.00     0.034 A 
ATOM     10 BR   UNL d   1      -6.079   5.024  -2.055  0.00  0.00    -0.051 Br
BRANCH   5  11
ATOM     11  O   UNL d   1      -3.706   0.129   0.550  0.00  0.00    -0.360 OA
ATOM     12  H   UNL d   1      -2.732   0.157   0.456  0.00  0.00     0.217 HD
ENDBRANCH   5  11
ENDBRANCH   3   4
BRANCH   1  13
ATOM     13  N   UNL d   1       0.057   1.035  -0.188  0.00  0.00    -0.277 N 
ATOM     14  H   UNL d   1       0.558   1.761  -0.693  0.00  0.00     0.189 HD
BRANCH  13  15
ATOM     15  C   UNL d   1       0.801  -0.004   0.336  0.00  0.00     0.186 C 
ATOM     16  S   UNL d   1       2.453  -0.018   0.122  0.00  0.00    -0.040 SA
BRANCH  15  17
ATOM     17  N   UNL d   1       0.049  -0.935   0.996  0.00  0.00    -0.370 N 
ATOM     18  C   UNL d   1       0.459  -2.175   1.615  0.00  0.00     0.148 C 
ATOM     19  H   UNL d   1      -0.938  -0.715   0.991  0.00  0.00     0.161 HD
ENDBRANCH  15  17
ENDBRANCH  13  15
ENDBRANCH   1  13
TORSDOF 5
