REMARK  7 active torsions:
REMARK  status: ('A' for Active; 'I' for Inactive)
REMARK       I    between atoms: N_2  and  C_1 
REMARK       I    between atoms: N_4  and  C_1 
REMARK       I    between atoms: C_3  and  N_5 
REMARK    1  A    between atoms: O_6  and  C_3 
REMARK    2  A    between atoms: C_14  and  N_4 
REMARK    3  A    between atoms: N_5  and  C_15 
REMARK    4  A    between atoms: C_11  and  O_6 
REMARK    5  A    between atoms: C_24  and  C_16 
REMARK    6  A    between atoms: C_25  and  C_24 
REMARK    7  A    between atoms: C_26  and  C_25 
ROOT
ATOM      1  C   UNL d   1       1.090   0.123  -0.486  0.00  0.00     0.322 C 
ATOM      2  N   UNL d   1       0.920   0.841   0.704  0.00  0.00    -0.334 N 
ATOM      3  N   UNL d   1       1.661   0.827  -1.528  0.00  0.00    -0.309 N 
ATOM      4  O   UNL d   1       0.740  -1.051  -0.561  0.00  0.00    -0.247 OA
ATOM      5  C   UNL d   1       0.130   0.245   1.776  0.00  0.00     0.129 C 
ATOM      6  C   UNL d   1       1.220   2.242   0.966  0.00  0.00     0.129 C 
ATOM      7  C   UNL d   1      -1.240   0.915   1.856  0.00  0.00     0.045 C 
ATOM      8  C   UNL d   1      -0.064   3.052   0.890  0.00  0.00     0.045 C 
ATOM      9  C   UNL d   1      -1.235   2.447   1.688  0.00  0.00     0.089 C 
ATOM     10  H   UNL d   1       1.809   1.810  -1.393  0.00  0.00     0.170 HD
ENDROOT
BRANCH   3  11
ATOM     11  C   UNL d   1       2.076   0.332  -2.791  0.00  0.00     0.036 A 
ATOM     12  C   UNL d   1       1.919  -0.988  -3.211  0.00  0.00     0.030 A 
ATOM     13  C   UNL d   1       2.442  -1.417  -4.440  0.00  0.00     0.009 A 
ATOM     14  C   UNL d   1       3.140  -0.537  -5.273  0.00  0.00    -0.058 A 
ATOM     15  C   UNL d   1       3.248   0.801  -4.881  0.00  0.00     0.009 A 
ATOM     16  C   UNL d   1       2.721   1.230  -3.655  0.00  0.00     0.030 A 
BRANCH  14  17
ATOM     17  C   UNL d   1       3.788  -1.040  -6.542  0.00  0.00     0.038 C 
BRANCH  17  18
ATOM     18  C   UNL d   1       5.319  -0.913  -6.558  0.00  0.00     0.004 C 
BRANCH  18  19
ATOM     19  C   UNL d   1       6.010  -1.686  -5.430  0.00  0.00    -0.004 C 
ATOM     20  C   UNL d   1       7.523  -1.544  -5.503  0.00  0.00     0.005 C 
ENDBRANCH  18  19
ENDBRANCH  17  18
ENDBRANCH  14  17
ENDBRANCH   3  11
BRANCH   9  21
ATOM     21  N   UNL d   1      -1.588   3.216   2.885  0.00  0.00    -0.332 N 
ATOM     22  C   UNL d   1      -1.000   3.417   4.091  0.00  0.00     0.361 C 
ATOM     23  O   UNL d   1      -1.496   4.208   4.883  0.00  0.00    -0.238 OA
ATOM     24  H   UNL d   1      -2.421   3.795   2.812  0.00  0.00     0.165 HD
BRANCH  22  25
ATOM     25  O   UNL d   1       0.117   2.687   4.318  0.00  0.00    -0.294 OA
BRANCH  25  26
ATOM     26  C   UNL d   1       0.772   2.804   5.618  0.00  0.00     0.061 C 
ATOM     27  C   UNL d   1      -0.182   2.510   6.791  0.00  0.00     0.046 C 
ATOM     28  C   UNL d   1       1.877   1.738   5.605  0.00  0.00     0.046 C 
ATOM     29  C   UNL d   1       1.431   4.183   5.785  0.00  0.00     0.046 C 
ENDBRANCH  25  26
ENDBRANCH  22  25
ENDBRANCH   9  21
TORSDOF 7
