REMARK  6 active torsions:
REMARK  status: ('A' for Active; 'I' for Inactive)
REMARK    1  A    between atoms: N_5  and  S_1 
REMARK    2  A    between atoms: C_8  and  S_1 
REMARK    3  A    between atoms: S_2  and  N_4 
REMARK    4  A    between atoms: C_9  and  S_2 
REMARK    5  A    between atoms: N_4  and  C_3 
REMARK    6  A    between atoms: C_6  and  N_5 
ROOT
ATOM      1  C   UNL d   1      -0.192   2.159   2.844  0.00  0.00     0.066 A 
ATOM      2  C   UNL d   1       0.765   1.505   2.053  0.00  0.00     0.050 A 
ATOM      3  C   UNL d   1       0.129   2.549   4.143  0.00  0.00     0.051 A 
ATOM      4  C   UNL d   1       1.411   2.315   4.652  0.00  0.00     0.019 A 
ATOM      5  C   UNL d   1       2.053   1.305   2.553  0.00  0.00     0.034 A 
ATOM      6  C   UNL d   1       2.397   1.711   3.856  0.00  0.00    -0.043 A 
ATOM      7 BR   UNL d   1       1.727   2.871   6.440  0.00  0.00    -0.051 Br
ATOM      8  C   UNL d   1       3.823   1.502   4.286  0.00  0.00     0.049 C 
ENDROOT
BRANCH   1   9
ATOM      9  N   UNL d   1      -1.466   2.519   2.328  0.00  0.00    -0.279 N 
ATOM     10  H   UNL d   1      -1.630   3.470   2.000  0.00  0.00     0.179 HD
BRANCH   9  11
ATOM     11  S   UNL d   1      -2.763   1.474   2.383  0.00  0.00     0.263 S 
ATOM     12  O   UNL d   1      -3.894   2.194   1.838  0.00  0.00    -0.200 OA
ATOM     13  O   UNL d   1      -2.332   0.213   1.815  0.00  0.00    -0.200 OA
BRANCH  11  14
ATOM     14  C   UNL d   1      -3.062   1.256   4.123  0.00  0.00     0.079 A 
ATOM     15  C   UNL d   1      -3.723   2.256   4.842  0.00  0.00     0.026 A 
ATOM     16  C   UNL d   1      -3.979   2.074   6.204  0.00  0.00     0.008 A 
ATOM     17  C   UNL d   1      -3.596   0.888   6.848  0.00  0.00    -0.062 A 
ATOM     18  C   UNL d   1      -2.943  -0.109   6.113  0.00  0.00     0.008 A 
ATOM     19  C   UNL d   1      -3.864   0.708   8.314  0.00  0.00     0.048 C 
ATOM     20  C   UNL d   1      -2.683   0.067   4.750  0.00  0.00     0.026 A 
ENDBRANCH  11  14
ENDBRANCH   9  11
ENDBRANCH   1   9
BRANCH   2  21
ATOM     21  N   UNL d   1       0.476   1.127   0.705  0.00  0.00    -0.179 NA
ATOM     22  H   UNL d   1      -0.472   0.766   0.547  0.00  0.00     0.146 HD
BRANCH  21  23
ATOM     23  S   UNL d   1       0.907   2.216  -0.517  0.00  0.00     0.245 S 
ATOM     24  O   UNL d   1       0.878   3.561   0.023  0.00  0.00    -0.206 OA
ATOM     25  O   UNL d   1       0.127   1.860  -1.683  0.00  0.00    -0.206 OA
BRANCH  23  26
ATOM     26  C   UNL d   1       2.595   1.787  -0.888  0.00  0.00     0.074 A 
ATOM     27  C   UNL d   1       2.901   0.491  -1.315  0.00  0.00     0.025 A 
ATOM     28  C   UNL d   1       4.220   0.162  -1.636  0.00  0.00     0.008 A 
ATOM     29  C   UNL d   1       5.238   1.124  -1.553  0.00  0.00    -0.062 A 
ATOM     30  C   UNL d   1       4.917   2.419  -1.122  0.00  0.00     0.008 A 
ATOM     31  C   UNL d   1       6.656   0.755  -1.883  0.00  0.00     0.048 C 
ATOM     32  C   UNL d   1       3.601   2.755  -0.795  0.00  0.00     0.025 A 
ENDBRANCH  23  26
ENDBRANCH  21  23
ENDBRANCH   2  21
TORSDOF 6
