REMARK  8 active torsions:
REMARK  status: ('A' for Active; 'I' for Inactive)
REMARK    1  A    between atoms: N_4  and  S_1 
REMARK    2  A    between atoms: C_12  and  S_1 
REMARK    3  A    between atoms: C_7  and  C_2 
REMARK    4  A    between atoms: C_3  and  O_8 
REMARK    5  A    between atoms: C_5  and  N_4 
REMARK    6  A    between atoms: C_6  and  C_11 
REMARK    7  A    between atoms: O_26  and  C_7 
REMARK    8  A    between atoms: O_8  and  C_10 
ROOT
ATOM      1  C   UNL d   1       0.963   0.573  -2.628  0.00  0.00     0.057 A 
ATOM      2  C   UNL d   1       2.258   1.098  -2.752  0.00  0.00     0.098 A 
ATOM      3  C   UNL d   1       0.283   1.782  -4.631  0.00  0.00     0.049 A 
ATOM      4  C   UNL d   1      -0.017   0.909  -3.571  0.00  0.00     0.043 A 
ATOM      5  C   UNL d   1       2.535   2.029  -3.759  0.00  0.00     0.040 A 
ATOM      6  C   UNL d   1       1.562   2.353  -4.702  0.00  0.00     0.019 A 
ENDROOT
BRANCH   1   7
ATOM      7  N   UNL d   1       0.622  -0.241  -1.492  0.00  0.00    -0.179 NA
ATOM      8  H   UNL d   1       0.043  -1.040  -1.752  0.00  0.00     0.146 HD
BRANCH   7   9
ATOM      9  S   UNL d   1      -0.217   0.555  -0.232  0.00  0.00     0.245 S 
ATOM     10  O   UNL d   1      -0.146  -0.296   0.933  0.00  0.00    -0.206 OA
ATOM     11  O   UNL d   1      -1.503   0.952  -0.775  0.00  0.00    -0.206 OA
BRANCH   9  12
ATOM     12  C   UNL d   1       0.727   2.025   0.081  0.00  0.00     0.075 A 
ATOM     13  C   UNL d   1       0.314   3.245  -0.472  0.00  0.00     0.028 A 
ATOM     14  C   UNL d   1       1.092   4.386  -0.274  0.00  0.00     0.044 A 
ATOM     15  C   UNL d   1       2.254   4.300   0.486  0.00  0.00     0.116 A 
ATOM     16  C   UNL d   1       2.644   3.099   1.070  0.00  0.00     0.044 A 
ATOM     17  F   UNL d   1       3.014   5.391   0.652  0.00  0.00    -0.206 F 
ATOM     18  C   UNL d   1       1.875   1.951   0.873  0.00  0.00     0.028 A 
ENDBRANCH   9  12
ENDBRANCH   7   9
ENDBRANCH   1   7
BRANCH   2  19
ATOM     19  O   UNL d   1       3.244   0.703  -1.867  0.00  0.00    -0.307 OA
BRANCH  19  20
ATOM     20  C   UNL d   1       4.491   0.403  -2.328  0.00  0.00     0.099 A 
ATOM     21  C   UNL d   1       5.624   0.597  -1.556  0.00  0.00     0.114 A 
ATOM     22  S   UNL d   1       7.047   0.251  -2.462  0.00  0.00    -0.093 SA
ATOM     23  C   UNL d   1       6.156  -0.219  -3.836  0.00  0.00     0.053 A 
ATOM     24  C   UNL d   1       4.801  -0.132  -3.620  0.00  0.00     0.046 A 
BRANCH  21  25
ATOM     25  C   UNL d   1       5.718   1.019  -0.172  0.00  0.00     0.302 C 
ATOM     26  O   UNL d   1       4.856   0.861   0.685  0.00  0.00    -0.259 OA
BRANCH  25  27
ATOM     27  O   UNL d   1       6.913   1.642   0.066  0.00  0.00    -0.322 OA
ATOM     28  C   UNL d   1       7.098   2.092   1.407  0.00  0.00     0.213 C 
ENDBRANCH  25  27
ENDBRANCH  21  25
ENDBRANCH  19  20
ENDBRANCH   2  19
BRANCH   3  29
ATOM     29  C   UNL d   1      -0.730   2.107  -5.703  0.00  0.00     0.417 C 
ATOM     30  F   UNL d   1      -1.965   1.588  -5.465  0.00  0.00    -0.166 F 
ATOM     31  F   UNL d   1      -0.906   3.446  -5.864  0.00  0.00    -0.166 F 
ATOM     32  F   UNL d   1      -0.351   1.630  -6.921  0.00  0.00    -0.166 F 
ENDBRANCH   3  29
TORSDOF 8
