REMARK  10 active torsions:
REMARK  status: ('A' for Active; 'I' for Inactive)
REMARK    1  A    between atoms: N_3  and  C_1 
REMARK    2  A    between atoms: N_8  and  C_1 
REMARK    3  A    between atoms: C_2  and  N_4 
REMARK    4  A    between atoms: N_7  and  C_2 
REMARK    5  A    between atoms: C_5  and  C_10 
REMARK    6  A    between atoms: C_6  and  C_9 
REMARK    7  A    between atoms: C_14  and  N_7 
REMARK    8  A    between atoms: C_13  and  N_8 
REMARK    9  A    between atoms: C_27  and  C_33 
REMARK   10  A    between atoms: C_32  and  C_27 
ROOT
ATOM      1  C   UNL d   1      -1.747  -0.741  -4.443  0.00  0.00     0.009 C 
ENDROOT
BRANCH   1   2
ATOM      2  C   UNL d   1      -1.704  -1.219  -2.962  0.00  0.00    -0.011 C 
ATOM      3  C   UNL d   1      -1.892  -0.086  -1.931  0.00  0.00     0.024 C 
ATOM      4  C   UNL d   1      -0.628   0.750  -1.721  0.00  0.00     0.125 C 
ATOM      5  N   UNL d   1       0.485  -0.122  -1.349  0.00  0.00    -0.358 N 
ATOM      6  C   UNL d   1       0.780  -1.189  -2.296  0.00  0.00     0.125 C 
ATOM      7  C   UNL d   1      -0.438  -2.036  -2.636  0.00  0.00     0.024 C 
BRANCH   5   8
ATOM      8  C   UNL d   1       0.930  -0.108  -0.030  0.00  0.00     0.174 C 
ATOM      9  S   UNL d   1       0.873  -1.410   1.016  0.00  0.00    -0.041 SA
BRANCH   8  10
ATOM     10  N   UNL d   1       1.357   1.116   0.432  0.00  0.00    -0.333 N 
ATOM     11  H   UNL d   1       1.321   1.244   1.436  0.00  0.00     0.168 HD
BRANCH  10  12
ATOM     12  C   UNL d   1       2.238   1.982  -0.262  0.00  0.00     0.035 A 
ATOM     13  C   UNL d   1       3.004   1.542  -1.345  0.00  0.00     0.045 A 
ATOM     14  C   UNL d   1       3.933   2.382  -1.973  0.00  0.00     0.050 A 
ATOM     15  C   UNL d   1       4.068   3.695  -1.510  0.00  0.00     0.016 A 
ATOM     16  C   UNL d   1       3.315   4.143  -0.425  0.00  0.00     0.003 A 
ATOM     17  C   UNL d   1       2.420   3.284   0.217  0.00  0.00     0.029 A 
BRANCH  14  18
ATOM     18  C   UNL d   1       4.794   1.873  -3.103  0.00  0.00     0.417 C 
ATOM     19  F   UNL d   1       4.584   0.560  -3.402  0.00  0.00    -0.166 F 
ATOM     20  F   UNL d   1       4.590   2.555  -4.263  0.00  0.00    -0.166 F 
ATOM     21  F   UNL d   1       6.125   1.983  -2.833  0.00  0.00    -0.166 F 
ENDBRANCH  14  18
ENDBRANCH  10  12
ENDBRANCH   8  10
ENDBRANCH   5   8
ENDBRANCH   1   2
BRANCH   1  22
ATOM     22  C   UNL d   1      -3.107  -0.128  -4.876  0.00  0.00    -0.011 C 
ATOM     23  C   UNL d   1      -4.292  -1.111  -4.731  0.00  0.00     0.024 C 
ATOM     24  C   UNL d   1      -4.601  -1.894  -5.996  0.00  0.00     0.125 C 
ATOM     25  N   UNL d   1      -4.809  -0.958  -7.090  0.00  0.00    -0.358 N 
ATOM     26  C   UNL d   1      -3.588  -0.249  -7.452  0.00  0.00     0.125 C 
ATOM     27  C   UNL d   1      -3.039   0.553  -6.271  0.00  0.00     0.024 C 
BRANCH  25  28
ATOM     28  C   UNL d   1      -5.701  -1.293  -8.081  0.00  0.00     0.174 C 
ATOM     29  S   UNL d   1      -5.428  -2.506  -9.209  0.00  0.00    -0.041 SA
BRANCH  28  30
ATOM     30  N   UNL d   1      -6.907  -0.643  -8.123  0.00  0.00    -0.333 N 
ATOM     31  H   UNL d   1      -7.500  -1.006  -8.862  0.00  0.00     0.168 HD
BRANCH  30  32
ATOM     32  C   UNL d   1      -7.525   0.283  -7.252  0.00  0.00     0.035 A 
ATOM     33  C   UNL d   1      -6.886   0.940  -6.206  0.00  0.00     0.045 A 
ATOM     34  C   UNL d   1      -7.589   1.718  -5.272  0.00  0.00     0.050 A 
ATOM     35  C   UNL d   1      -8.969   1.887  -5.441  0.00  0.00     0.016 A 
ATOM     36  C   UNL d   1      -9.613   1.303  -6.529  0.00  0.00     0.003 A 
ATOM     37  C   UNL d   1      -8.895   0.510  -7.430  0.00  0.00     0.029 A 
BRANCH  34  38
ATOM     38  C   UNL d   1      -6.883   2.319  -4.085  0.00  0.00     0.417 C 
ATOM     39  F   UNL d   1      -5.526   2.166  -4.114  0.00  0.00    -0.166 F 
ATOM     40  F   UNL d   1      -7.100   3.656  -3.960  0.00  0.00    -0.166 F 
ATOM     41  F   UNL d   1      -7.286   1.765  -2.906  0.00  0.00    -0.166 F 
ENDBRANCH  34  38
ENDBRANCH  30  32
ENDBRANCH  28  30
ENDBRANCH  25  28
ENDBRANCH   1  22
TORSDOF 10
