REMARK  5 active torsions:
REMARK  status: ('A' for Active; 'I' for Inactive)
REMARK    1  A    between atoms: N_2  and  C_1 
REMARK    2  A    between atoms: N_4  and  C_1 
REMARK    3  A    between atoms: C_3  and  N_2 
REMARK    4  A    between atoms: O_8  and  C_3 
REMARK    5  A    between atoms: C_9  and  N_4 
ROOT
ATOM      1  C   UNL d   1       0.966  -0.054   0.125  0.00  0.00     0.179 C 
ATOM      2  S   UNL d   1       0.852   1.601  -0.056  0.00  0.00    -0.040 SA
ENDROOT
BRANCH   1   3
ATOM      3  N   UNL d   1       2.128  -0.579   0.661  0.00  0.00    -0.299 N 
ATOM      4  H   UNL d   1       2.900   0.066   0.740  0.00  0.00     0.171 HD
BRANCH   3   5
ATOM      5  C   UNL d   1       2.369  -1.813   1.195  0.00  0.00     0.218 C 
ATOM      6  N   UNL d   1       1.462  -2.677   1.477  0.00  0.00    -0.365 N 
ATOM      7  H   UNL d   1       0.542  -2.256   1.292  0.00  0.00     0.159 HD
ATOM      8  HN  UNL d   1       1.626  -3.622   1.825  1.00  0.00     0.159 HD
BRANCH   5   9
ATOM      9  O   UNL d   1       3.683  -2.020   1.416  0.00  0.00    -0.327 OA
ATOM     10  C   UNL d   1       4.035  -3.302   1.954  0.00  0.00     0.213 C 
ENDBRANCH   5   9
ENDBRANCH   3   5
ENDBRANCH   1   3
BRANCH   1  11
ATOM     11  N   UNL d   1       0.058  -1.007  -0.295  0.00  0.00    -0.333 N 
ATOM     12  H   UNL d   1       0.495  -1.803  -0.755  0.00  0.00     0.168 HD
BRANCH  11  13
ATOM     13  C   UNL d   1      -1.325  -0.870  -0.515  0.00  0.00     0.034 A 
ATOM     14  C   UNL d   1      -1.914  -1.640  -1.519  0.00  0.00     0.029 A 
ATOM     15  C   UNL d   1      -3.289  -1.579  -1.743  0.00  0.00     0.002 A 
ATOM     16  C   UNL d   1      -4.090  -0.779  -0.930  0.00  0.00     0.000 A 
ATOM     17  C   UNL d   1      -3.512  -0.037   0.099  0.00  0.00     0.002 A 
ATOM     18  C   UNL d   1      -2.130  -0.076   0.300  0.00  0.00     0.029 A 
ENDBRANCH  11  13
ENDBRANCH   1  11
TORSDOF 5
