REMARK  3 active torsions:
REMARK  status: ('A' for Active; 'I' for Inactive)
REMARK    1  A    between atoms: C_13  and  N_4 
REMARK    2  A    between atoms: C_10  and  C_11 
REMARK    3  A    between atoms: C_14  and  C_13 
ROOT
ATOM      1  N   UNL d   1       4.606  -0.742  -0.103  0.00  0.00    -0.394 N 
ATOM      2  HN  UNL d   1       4.619   0.276  -0.167  1.00  0.00     0.159 HD
ATOM      3  C   UNL d   1       3.503  -1.401  -0.047  0.00  0.00     0.094 C 
ENDROOT
BRANCH   3   4
ATOM      4  C   UNL d   1       2.205  -0.693  -0.036  0.00  0.00    -0.018 A 
ATOM      5  C   UNL d   1       1.015  -1.427   0.000  0.00  0.00     0.052 A 
ATOM      6  C   UNL d   1      -0.165  -0.710   0.026  0.00  0.00     0.105 A 
ATOM      7  C   UNL d   1      -0.183   0.667   0.014  0.00  0.00     0.105 A 
ATOM      8  O   UNL d   1      -1.417  -1.241   0.071  0.00  0.00    -0.323 OA
ATOM      9  O   UNL d   1      -1.445   1.172   0.048  0.00  0.00    -0.323 OA
ATOM     10  C   UNL d   1       0.974   1.411  -0.025  0.00  0.00     0.040 A 
ATOM     11  C   UNL d   1      -2.221  -0.042   0.119  0.00  0.00     0.352 A 
ATOM     12  C   UNL d   1       2.185   0.717  -0.049  0.00  0.00     0.015 A 
ENDBRANCH   3   4
BRANCH   1  13
ATOM     13  C   UNL d   1       5.842  -1.524  -0.072  0.00  0.00     0.157 C 
BRANCH  13  14
ATOM     14  C   UNL d   1       6.696  -1.162   1.123  0.00  0.00    -0.041 A 
ATOM     15  C   UNL d   1       7.105  -2.142   2.036  0.00  0.00     0.009 A 
ATOM     16  C   UNL d   1       7.910  -1.802   3.126  0.00  0.00     0.001 A 
ATOM     17  C   UNL d   1       8.314  -0.482   3.313  0.00  0.00     0.000 A 
ATOM     18  C   UNL d   1       7.909   0.503   2.414  0.00  0.00     0.001 A 
ATOM     19  C   UNL d   1       7.104   0.164   1.325  0.00  0.00     0.009 A 
ENDBRANCH  13  14
ENDBRANCH   1  13
TORSDOF 3
