REMARK  4 active torsions:
REMARK  status: ('A' for Active; 'I' for Inactive)
REMARK    1  A    between atoms: C_2  and  C_1 
REMARK    2  A    between atoms: O_3  and  C_1 
REMARK    3  A    between atoms: C_9  and  O_3 
REMARK    4  A    between atoms: C_10  and  C_6 
ROOT
ATOM      1  C   UNL d   1      -3.684  -0.780  -1.087  0.00  0.00    -0.054 A 
ATOM      2  C   UNL d   1      -3.019  -2.019  -1.043  0.00  0.00     0.010 A 
ATOM      3  C   UNL d   1      -2.886   0.373  -1.124  0.00  0.00     0.010 A 
ATOM      4  C   UNL d   1      -0.861  -0.927  -0.947  0.00  0.00     0.079 A 
ATOM      5  C   UNL d   1      -1.622  -2.094  -0.961  0.00  0.00     0.038 A 
ATOM      6  C   UNL d   1      -1.492   0.307  -1.024  0.00  0.00     0.038 A 
ENDROOT
BRANCH   4   7
ATOM      7  O   UNL d   1       0.534  -1.095  -0.772  0.00  0.00    -0.275 OA
BRANCH   7   8
ATOM      8  C   UNL d   1       1.450  -0.107  -1.095  0.00  0.00     0.299 C 
ATOM      9  O   UNL d   1       1.235   0.905  -1.741  0.00  0.00    -0.259 OA
BRANCH   8  10
ATOM     10  C   UNL d   1       2.829  -0.469  -0.660  0.00  0.00     0.056 A 
ATOM     11  C   UNL d   1       3.195  -1.111   0.532  0.00  0.00     0.022 A 
ATOM     12  I   UNL d   1       1.867  -1.774   2.020  0.00  0.00    -0.043 I 
ATOM     13  C   UNL d   1       4.559  -1.298   0.831  0.00  0.00     0.019 A 
ATOM     14  C   UNL d   1       5.552  -0.854  -0.043  0.00  0.00     0.001 A 
ATOM     15  C   UNL d   1       5.197  -0.220  -1.227  0.00  0.00     0.001 A 
ATOM     16  C   UNL d   1       3.848  -0.028  -1.530  0.00  0.00     0.019 A 
ENDBRANCH   8  10
ENDBRANCH   7   8
ENDBRANCH   4   7
BRANCH   1  17
ATOM     17  C   UNL d   1      -5.215  -0.731  -1.120  0.00  0.00     0.018 C 
ATOM     18  C   UNL d   1      -5.855   0.675  -1.113  0.00  0.00     0.009 C 
ATOM     19  C   UNL d   1      -5.747   1.392   0.237  0.00  0.00     0.001 C 
ATOM     20  C   UNL d   1      -6.231   0.543   1.408  0.00  0.00     0.000 C 
ATOM     21  C   UNL d   1      -5.708  -0.889   1.383  0.00  0.00     0.001 C 
ATOM     22  C   UNL d   1      -5.874  -1.548   0.015  0.00  0.00     0.009 C 
ENDBRANCH   1  17
TORSDOF 4
