REMARK  4 active torsions:
REMARK  status: ('A' for Active; 'I' for Inactive)
REMARK    1  A    between atoms: C_14  and  N_1 
REMARK    2  A    between atoms: C_4  and  C_5 
REMARK    3  A    between atoms: C_15  and  C_8 
REMARK    4  A    between atoms: C_13  and  C_9 
ROOT
ATOM      1  N   UNL d   1       0.171  -1.095   0.029  0.00  0.00    -0.281 N 
ATOM      2  N   UNL d   1       1.174  -0.176   0.061  0.00  0.00    -0.301 N 
ATOM      3  HN  UNL d   1       2.175  -0.369   0.108  1.00  0.00     0.187 HD
ATOM      4  C   UNL d   1      -1.176  -0.515   0.014  0.00  0.00     0.164 A 
ATOM      5  C   UNL d   1       0.613   0.995   0.019  0.00  0.00     0.038 A 
ATOM      6  C   UNL d   1      -0.892   0.988   0.035  0.00  0.00     0.093 A 
ENDROOT
BRANCH   4   7
ATOM      7  C   UNL d   1      -2.102  -0.893   1.148  0.00  0.00     0.042 A 
ATOM      8  N   UNL d   1      -3.476  -0.880   0.937  0.00  0.00    -0.351 N 
ATOM      9  C   UNL d   1      -4.117  -1.223   2.041  0.00  0.00     0.084 A 
ATOM     10  HN  UNL d   1      -3.927  -0.639   0.054  1.00  0.00     0.166 HD
ATOM     11  S   UNL d   1      -3.096  -1.599   3.379  0.00  0.00    -0.081 SA
ATOM     12  C   UNL d   1      -1.723  -1.260   2.427  0.00  0.00     0.079 A 
BRANCH   9  13
ATOM     13  C   UNL d   1      -5.578  -1.339   2.152  0.00  0.00    -0.002 A 
ATOM     14  C   UNL d   1      -6.323  -1.763   1.040  0.00  0.00     0.014 A 
ATOM     15  C   UNL d   1      -7.712  -1.900   1.118  0.00  0.00     0.001 A 
ATOM     16  C   UNL d   1      -8.376  -1.605   2.306  0.00  0.00     0.000 A 
ATOM     17  C   UNL d   1      -7.657  -1.162   3.412  0.00  0.00     0.001 A 
ATOM     18  C   UNL d   1      -6.268  -1.031   3.336  0.00  0.00     0.014 A 
ENDBRANCH   9  13
ENDBRANCH   4   7
BRANCH   1  19
ATOM     19  C   UNL d   1       0.430  -2.463   0.066  0.00  0.00     0.051 A 
ATOM     20  C   UNL d   1       1.599  -2.958   0.665  0.00  0.00     0.031 A 
ATOM     21  C   UNL d   1       1.841  -4.330   0.768  0.00  0.00     0.002 A 
ATOM     22  C   UNL d   1       0.932  -5.240   0.237  0.00  0.00     0.000 A 
ATOM     23  C   UNL d   1      -0.218  -4.775  -0.392  0.00  0.00     0.002 A 
ATOM     24  C   UNL d   1      -0.468  -3.401  -0.467  0.00  0.00     0.031 A 
ENDBRANCH   1  19
BRANCH   5  25
ATOM     25  C   UNL d   1       1.377   2.263  -0.050  0.00  0.00    -0.012 A 
ATOM     26  C   UNL d   1       2.772   2.214  -0.169  0.00  0.00     0.015 A 
ATOM     27  C   UNL d   1       3.512   3.396  -0.266  0.00  0.00     0.024 A 
ATOM     28  C   UNL d   1       2.858   4.626  -0.242  0.00  0.00     0.034 A 
ATOM     29  C   UNL d   1       1.472   4.685  -0.122  0.00  0.00     0.024 A 
ATOM     30 CL   UNL d   1       3.766   6.082  -0.367  0.00  0.00    -0.084 Cl
ATOM     31  C   UNL d   1       0.729   3.504  -0.027  0.00  0.00     0.015 A 
ENDBRANCH   5  25
TORSDOF 4
