REMARK  4 active torsions:
REMARK  status: ('A' for Active; 'I' for Inactive)
REMARK    1  A    between atoms: C_2  and  C_1 
REMARK    2  A    between atoms: C_7  and  C_2 
REMARK    3  A    between atoms: N_10  and  C_3 
REMARK    4  A    between atoms: O_11  and  N_4 
ROOT
ATOM      1  C   UNL d   1      -2.002   2.545  -0.061  0.00  0.00     0.076 C 
ATOM      2  N   UNL d   1      -1.525   3.761  -0.002  0.00  0.00    -0.268 N 
ATOM      3  HN  UNL d   1      -2.112   4.594  -0.045  1.00  0.00     0.194 HD
ENDROOT
BRANCH   1   4
ATOM      4  C   UNL d   1      -3.506   2.402  -0.081  0.00  0.00     0.016 A 
ATOM      5  C   UNL d   1      -4.327   3.308   0.630  0.00  0.00     0.018 A 
ATOM      6  C   UNL d   1      -5.710   3.080   0.671  0.00  0.00     0.026 A 
ATOM      7  C   UNL d   1      -6.285   2.031  -0.049  0.00  0.00     0.026 A 
ATOM      8  C   UNL d   1      -5.476   1.190  -0.805  0.00  0.00     0.035 A 
ATOM      9  C   UNL d   1      -4.096   1.374  -0.835  0.00  0.00     0.039 A 
ATOM     10 CL   UNL d   1      -6.184  -0.110  -1.681  0.00  0.00    -0.084 Cl
BRANCH   5  11
ATOM     11  N   UNL d   1      -3.794   4.286   1.496  0.00  0.00    -0.302 NA
ATOM     12  H   UNL d   1      -2.845   4.541   1.200  0.00  0.00     0.124 HD
ATOM     13  H   UNL d   1      -4.385   5.104   1.599  0.00  0.00     0.124 HD
ENDBRANCH   5  11
ENDBRANCH   1   4
BRANCH   1  14
ATOM     14  C   UNL d   1      -1.172   1.291  -0.106  0.00  0.00    -0.007 A 
ATOM     15  C   UNL d   1      -0.054   1.209  -0.946  0.00  0.00     0.014 A 
ATOM     16  C   UNL d   1       0.686   0.027  -1.021  0.00  0.00     0.001 A 
ATOM     17  C   UNL d   1       0.298  -1.089  -0.282  0.00  0.00     0.000 A 
ATOM     18  C   UNL d   1      -0.821  -1.020   0.548  0.00  0.00     0.001 A 
ATOM     19  C   UNL d   1      -1.546   0.170   0.650  0.00  0.00     0.014 A 
ENDBRANCH   1  14
BRANCH   2  20
ATOM     20  O   UNL d   1      -0.136   3.812   0.127  0.00  0.00    -0.289 OA
ATOM     21  H   UNL d   1       0.044   4.771   0.129  0.00  0.00     0.244 HD
ENDBRANCH   2  20
TORSDOF 4
