REMARK  4 active torsions:
REMARK  status: ('A' for Active; 'I' for Inactive)
REMARK    1  A    between atoms: C_15  and  C_5 
REMARK    2  A    between atoms: O_12  and  C_7 
REMARK    3  A    between atoms: O_13  and  C_8 
REMARK    4  A    between atoms: O_14  and  C_10 
ROOT
ATOM      1  N   UNL d   1       2.474   0.654  -0.025  0.00  0.00    -0.340 N 
ATOM      2  HN  UNL d   1       3.367   1.147  -0.026  1.00  0.00     0.167 HD
ATOM      3  C   UNL d   1       0.040   0.659  -0.006  0.00  0.00    -0.000 A 
ATOM      4  C   UNL d   1       0.037  -0.750  -0.014  0.00  0.00    -0.017 A 
ATOM      5  C   UNL d   1       1.293   1.322  -0.015  0.00  0.00     0.022 A 
ATOM      6  C   UNL d   1      -1.206   1.325   0.017  0.00  0.00     0.054 A 
ATOM      7  C   UNL d   1       2.410  -0.682  -0.034  0.00  0.00     0.140 A 
ATOM      8  C   UNL d   1      -2.417   0.626   0.035  0.00  0.00     0.102 A 
ATOM      9  C   UNL d   1      -1.183  -1.453   0.013  0.00  0.00     0.052 A 
ATOM     10  C   UNL d   1      -2.408  -0.775   0.058  0.00  0.00     0.102 A 
ATOM     11  C   UNL d   1       1.256  -1.432  -0.034  0.00  0.00     0.068 A 
ENDROOT
BRANCH   5  12
ATOM     12  C   UNL d   1       1.356   2.837  -0.007  0.00  0.00     0.053 C 
ATOM     13  C   UNL d   1       2.754   3.435  -0.023  0.00  0.00     0.011 C 
ENDBRANCH   5  12
BRANCH   7  14
ATOM     14  O   UNL d   1       3.621  -1.289  -0.027  0.00  0.00    -0.346 OA
ATOM     15  H   UNL d   1       4.194  -0.501   0.001  0.00  0.00     0.219 HD
ENDBRANCH   7  14
BRANCH   8  16
ATOM     16  O   UNL d   1      -3.640   1.256   0.073  0.00  0.00    -0.353 OA
ATOM     17  C   UNL d   1      -3.681   2.584  -0.441  0.00  0.00     0.210 C 
ENDBRANCH   8  16
BRANCH  10  18
ATOM     18  O   UNL d   1      -3.632  -1.396   0.123  0.00  0.00    -0.353 OA
ATOM     19  C   UNL d   1      -3.648  -2.817   0.156  0.00  0.00     0.210 C 
ENDBRANCH  10  18
TORSDOF 4
