REMARK  3 active torsions:
REMARK  status: ('A' for Active; 'I' for Inactive)
REMARK    1  A    between atoms: C_9  and  N_4 
REMARK    2  A    between atoms: C_10  and  C_6 
REMARK    3  A    between atoms: O_16  and  C_13 
ROOT
ATOM      1  C   UNL d   1       1.297  -0.590   0.020  0.00  0.00     0.183 C 
ATOM      2  N   UNL d   1       1.207   0.787  -0.011  0.00  0.00    -0.332 N 
ATOM      3  HN  UNL d   1       2.059   1.347   0.005  1.00  0.00     0.168 HD
ATOM      4  N   UNL d   1       0.090  -1.348   0.165  0.00  0.00    -0.299 N 
ATOM      5  C   UNL d   1      -1.125  -0.666   0.095  0.00  0.00     0.102 C 
ATOM      6  C   UNL d   1       0.062   1.376  -0.060  0.00  0.00     0.045 C 
ATOM      7  C   UNL d   1      -1.220   0.660  -0.038  0.00  0.00     0.048 C 
ATOM      8  S   UNL d   1       2.857  -1.217  -0.248  0.00  0.00    -0.040 SA
ENDROOT
BRANCH   4   9
ATOM      9  C   UNL d   1       0.081  -2.794   0.291  0.00  0.00     0.041 A 
ATOM     10  C   UNL d   1       1.024  -3.478   1.068  0.00  0.00     0.033 A 
ATOM     11  C   UNL d   1       1.057  -4.877   1.105  0.00  0.00     0.039 A 
ATOM     12  C   UNL d   1       0.114  -5.632   0.412  0.00  0.00     0.068 A 
ATOM     13  C   UNL d   1      -0.887  -4.971  -0.292  0.00  0.00     0.039 A 
ATOM     14  C   UNL d   1      -0.900  -3.568  -0.354  0.00  0.00     0.033 A 
BRANCH  12  15
ATOM     15  O   UNL d   1       0.286  -6.984   0.504  0.00  0.00    -0.356 OA
ATOM     16  C   UNL d   1      -0.626  -7.804  -0.214  0.00  0.00     0.210 C 
ENDBRANCH  12  15
ENDBRANCH   4   9
BRANCH   6  17
ATOM     17  C   UNL d   1       0.035   2.861  -0.179  0.00  0.00    -0.009 A 
ATOM     18  C   UNL d   1       1.083   3.479  -0.878  0.00  0.00     0.013 A 
ATOM     19  C   UNL d   1       1.131   4.869  -0.995  0.00  0.00     0.001 A 
ATOM     20  C   UNL d   1       0.137   5.647  -0.409  0.00  0.00     0.000 A 
ATOM     21  C   UNL d   1      -0.905   5.040   0.293  0.00  0.00     0.001 A 
ATOM     22  C   UNL d   1      -0.960   3.648   0.410  0.00  0.00     0.013 A 
ENDBRANCH   6  17
TORSDOF 3
