REMARK  3 active torsions:
REMARK  status: ('A' for Active; 'I' for Inactive)
REMARK    1  A    between atoms: C_14  and  N_1 
REMARK    2  A    between atoms: C_9  and  C_3 
REMARK    3  A    between atoms: C_6  and  C_9 
ROOT
ATOM      1  N   UNL d   1       0.204  -1.256   0.095  0.00  0.00    -0.262 N 
ATOM      2  C   UNL d   1       1.044  -0.164   0.242  0.00  0.00     0.153 A 
ATOM      3  C   UNL d   1      -1.406   0.473   0.136  0.00  0.00     0.077 A 
ATOM      4  C   UNL d   1      -1.153  -0.985  -0.045  0.00  0.00     0.271 A 
ATOM      5  S   UNL d   1       0.087   1.319   0.264  0.00  0.00    -0.054 SA
ATOM      6  S   UNL d   1       2.714  -0.113   0.308  0.00  0.00    -0.052 SA
ATOM      7  O   UNL d   1      -2.042  -1.802  -0.249  0.00  0.00    -0.266 OA
ENDROOT
BRANCH   3   8
ATOM      8  C   UNL d   1      -2.604   1.068   0.229  0.00  0.00     0.042 C 
BRANCH   8   9
ATOM      9  C   UNL d   1      -3.889   0.398   0.206  0.00  0.00     0.039 C 
ATOM     10  C   UNL d   1      -4.835   0.657  -0.913  0.00  0.00     0.197 C 
ATOM     11  C   UNL d   1      -6.040  -0.215  -0.995  0.00  0.00     0.055 A 
ATOM     12  O   UNL d   1      -4.596   1.560  -1.706  0.00  0.00    -0.286 OA
ATOM     13  C   UNL d   1      -6.949  -0.212  -2.074  0.00  0.00    -0.044 A 
ATOM     14  C   UNL d   1      -6.264  -1.087   0.082  0.00  0.00     0.090 A 
ATOM     15  C   UNL d   1      -8.061  -1.082  -2.022  0.00  0.00     0.014 A 
ATOM     16  C   UNL d   1      -6.864   0.664  -3.294  0.00  0.00     0.049 C 
ATOM     17  C   UNL d   1      -8.274  -1.953  -0.948  0.00  0.00    -0.059 A 
ATOM     18  C   UNL d   1      -7.363  -1.950   0.105  0.00  0.00     0.045 A 
ATOM     19  C   UNL d   1      -9.471  -2.855  -0.935  0.00  0.00     0.048 C 
ATOM     20  O   UNL d   1      -5.452  -1.158   1.187  0.00  0.00    -0.321 OA
ATOM     21  C   UNL d   1      -4.281  -0.454   1.163  0.00  0.00     0.158 C 
ENDBRANCH   8   9
ENDBRANCH   3   8
BRANCH   1  22
ATOM     22  C   UNL d   1       0.630  -2.612   0.114  0.00  0.00     0.044 A 
ATOM     23  C   UNL d   1       0.274  -3.478  -0.931  0.00  0.00     0.033 A 
ATOM     24  C   UNL d   1       0.624  -4.828  -0.881  0.00  0.00     0.044 A 
ATOM     25  C   UNL d   1       1.303  -5.316   0.228  0.00  0.00     0.116 A 
ATOM     26  C   UNL d   1       1.649  -4.480   1.281  0.00  0.00     0.044 A 
ATOM     27  F   UNL d   1       1.614  -6.618   0.289  0.00  0.00    -0.206 F 
ATOM     28  C   UNL d   1       1.323  -3.123   1.223  0.00  0.00     0.033 A 
ENDBRANCH   1  22
TORSDOF 3
