REMARK  4 active torsions:
REMARK  status: ('A' for Active; 'I' for Inactive)
REMARK    1  A    between atoms: C_9  and  S_1 
REMARK    2  A    between atoms: N_13  and  S_1 
REMARK    3  A    between atoms: S_2  and  C_8 
REMARK    4  A    between atoms: N_12  and  S_2 
ROOT
ATOM      1  C   UNL d   1      -0.578   1.376  -6.201  0.00  0.00     0.027 A 
ATOM      2  C   UNL d   1      -0.197   0.757  -3.949  0.00  0.00     0.027 A 
ATOM      3  C   UNL d   1      -0.526   0.220  -5.285  0.00  0.00     0.194 A 
ATOM      4  C   UNL d   1      -0.112   2.158  -4.060  0.00  0.00    -0.011 A 
ATOM      5  C   UNL d   1      -0.348   2.537  -5.438  0.00  0.00    -0.011 A 
ATOM      6  C   UNL d   1      -0.717   2.628  -8.192  0.00  0.00     0.080 A 
ATOM      7  C   UNL d   1       0.468   0.830  -1.686  0.00  0.00     0.080 A 
ATOM      8  C   UNL d   1       0.067   0.066  -2.785  0.00  0.00     0.041 A 
ATOM      9  C   UNL d   1      -0.752   1.380  -7.569  0.00  0.00     0.041 A 
ATOM     10  C   UNL d   1      -0.312   3.771  -6.065  0.00  0.00     0.015 A 
ATOM     11  C   UNL d   1       0.216   2.913  -2.946  0.00  0.00     0.015 A 
ATOM     12  O   UNL d   1      -0.702  -0.943  -5.577  0.00  0.00    -0.287 OA
ATOM     13  C   UNL d   1      -0.490   3.814  -7.455  0.00  0.00     0.026 A 
ATOM     14  C   UNL d   1       0.506   2.241  -1.749  0.00  0.00     0.026 A 
ENDROOT
BRANCH   6  15
ATOM     15  S   UNL d   1      -0.893   2.724  -9.968  0.00  0.00     0.260 S 
ATOM     16  O   UNL d   1      -0.330   3.990 -10.380  0.00  0.00    -0.200 OA
ATOM     17  O   UNL d   1      -0.409   1.472 -10.514  0.00  0.00    -0.200 OA
BRANCH  15  18
ATOM     18  N   UNL d   1      -2.579   2.795 -10.170  0.00  0.00    -0.315 N 
ATOM     19  C   UNL d   1      -3.332   1.552  -9.929  0.00  0.00     0.162 C 
ATOM     20  C   UNL d   1      -3.252   3.999  -9.654  0.00  0.00     0.162 C 
ENDBRANCH  15  18
ENDBRANCH   6  15
BRANCH   7  21
ATOM     21  S   UNL d   1       0.899  -0.001  -0.167  0.00  0.00     0.260 S 
ATOM     22  O   UNL d   1       0.249  -1.292  -0.189  0.00  0.00    -0.200 OA
ATOM     23  O   UNL d   1       0.665   0.940   0.910  0.00  0.00    -0.200 OA
BRANCH  21  24
ATOM     24  N   UNL d   1       2.576  -0.246  -0.311  0.00  0.00    -0.315 N 
ATOM     25  C   UNL d   1       3.034  -1.200  -1.336  0.00  0.00     0.162 C 
ATOM     26  C   UNL d   1       3.454   0.921  -0.147  0.00  0.00     0.162 C 
ENDBRANCH  21  24
ENDBRANCH   7  21
TORSDOF 4
