REMARK  4 active torsions:
REMARK  status: ('A' for Active; 'I' for Inactive)
REMARK    1  A    between atoms: C_7  and  C_1 
REMARK    2  A    between atoms: C_10  and  C_2 
REMARK    3  A    between atoms: N_6  and  C_7 
REMARK    4  A    between atoms: O_20  and  C_17 
ROOT
ATOM      1  C   UNL d   1       1.021   0.769   0.034  0.00  0.00     0.016 A 
ATOM      2  C   UNL d   1      -0.363   1.156  -0.034  0.00  0.00     0.067 A 
ATOM      3  N   UNL d   1      -1.157   0.070  -0.013  0.00  0.00    -0.300 N 
ATOM      4  HN  UNL d   1      -2.176   0.046  -0.036  1.00  0.00     0.187 HD
ATOM      5  N   UNL d   1      -0.319  -0.968   0.046  0.00  0.00    -0.311 N 
ATOM      6  C   UNL d   1       0.991  -0.613   0.068  0.00  0.00     0.118 A 
ATOM      7  H   UNL d   1      -0.716  -1.901   0.076  0.00  0.00     0.186 HD
ENDROOT
BRANCH   1   8
ATOM      8  C   UNL d   1       2.256   1.612   0.085  0.00  0.00     0.315 C 
BRANCH   8   9
ATOM      9  N   UNL d   1       2.224   2.538   1.222  0.00  0.00     0.096 N 
ATOM     10  C   UNL d   1       2.258   1.837   2.520  0.00  0.00     0.303 C 
ATOM     11  C   UNL d   1       2.305   2.815   3.717  0.00  0.00     0.302 C 
ATOM     12  N   UNL d   1       3.405   3.799   3.672  0.00  0.00     0.087 N 
ATOM     13  C   UNL d   1       3.395   4.461   2.353  0.00  0.00     0.302 C 
ATOM     14  C   UNL d   1       4.695   3.178   3.960  0.00  0.00     0.310 C 
ATOM     15  C   UNL d   1       3.337   3.503   1.139  0.00  0.00     0.303 C 
ENDBRANCH   8   9
ENDBRANCH   1   8
BRANCH   2  16
ATOM     16  C   UNL d   1      -0.952   2.500  -0.082  0.00  0.00    -0.007 A 
ATOM     17  C   UNL d   1      -0.341   3.539  -0.793  0.00  0.00     0.016 A 
ATOM     18  C   UNL d   1      -0.880   4.831  -0.789  0.00  0.00     0.037 A 
ATOM     19  C   UNL d   1      -2.050   5.097  -0.083  0.00  0.00     0.068 A 
ATOM     20  C   UNL d   1      -2.704   4.056   0.577  0.00  0.00     0.037 A 
ATOM     21  C   UNL d   1      -2.156   2.769   0.585  0.00  0.00     0.016 A 
BRANCH  19  22
ATOM     22  O   UNL d   1      -2.659   6.321  -0.014  0.00  0.00    -0.356 OA
ATOM     23  C   UNL d   1      -1.775   7.436  -0.083  0.00  0.00     0.210 C 
ENDBRANCH  19  22
ENDBRANCH   2  16
TORSDOF 4
