REMARK  5 active torsions:
REMARK  status: ('A' for Active; 'I' for Inactive)
REMARK    1  A    between atoms: C_4  and  C_1 
REMARK    2  A    between atoms: N_5  and  N_2 
REMARK    3  A    between atoms: O_9  and  C_4 
REMARK    4  A    between atoms: C_6  and  N_5 
REMARK    5  A    between atoms: C_14  and  O_9 
ROOT
ATOM      1  C   UNL d   1       1.041   0.085  -0.119  0.00  0.00     0.097 C 
ATOM      2  N   UNL d   1       0.323   0.617  -1.065  0.00  0.00    -0.299 N 
ATOM      3  HN  UNL d   1      -0.694   0.645  -0.985  1.00  0.00     0.186 HD
ATOM      4  C   UNL d   1       2.540  -0.002  -0.041  0.00  0.00     0.076 C 
ENDROOT
BRANCH   2   5
ATOM      5  N   UNL d   1       0.936   1.135  -2.156  0.00  0.00    -0.299 N 
ATOM      6  H   UNL d   1       1.900   1.465  -2.145  0.00  0.00     0.187 HD
BRANCH   5   7
ATOM      7  C   UNL d   1       0.147   1.776  -3.141  0.00  0.00     0.069 A 
ATOM      8  C   UNL d   1       0.745   2.347  -4.281  0.00  0.00     0.062 A 
ATOM      9 CL   UNL d   1       2.465   2.338  -4.476  0.00  0.00    -0.082 Cl
ATOM     10  C   UNL d   1      -0.030   2.938  -5.285  0.00  0.00     0.026 A 
ATOM     11  C   UNL d   1      -1.419   2.955  -5.173  0.00  0.00     0.002 A 
ATOM     12  C   UNL d   1      -2.031   2.369  -4.069  0.00  0.00     0.002 A 
ATOM     13  C   UNL d   1      -1.255   1.772  -3.072  0.00  0.00     0.033 A 
ENDBRANCH   5   7
ENDBRANCH   2   5
BRANCH   1  14
ATOM     14  C   UNL d   1       0.316  -0.600   1.034  0.00  0.00     0.306 C 
ATOM     15  O   UNL d   1       0.792  -0.647   2.151  0.00  0.00    -0.258 OA
BRANCH  14  16
ATOM     16  O   UNL d   1      -0.756  -1.270   0.562  0.00  0.00    -0.317 OA
BRANCH  16  17
ATOM     17  C   UNL d   1      -1.227  -2.342   1.386  0.00  0.00     0.175 C 
ATOM     18  C   UNL d   1      -0.540  -3.613   0.920  0.00  0.00     0.034 C 
ENDBRANCH  16  17
ENDBRANCH  14  16
ENDBRANCH   1  14
TORSDOF 5
