REMARK  7 active torsions:
REMARK  status: ('A' for Active; 'I' for Inactive)
REMARK       I    between atoms: N_3  and  C_1 
REMARK    1  A    between atoms: C_5  and  C_1 
REMARK    2  A    between atoms: C_7  and  C_2 
REMARK    3  A    between atoms: C_4  and  N_3 
REMARK    4  A    between atoms: O_14  and  C_6 
REMARK    5  A    between atoms: O_15  and  C_7 
REMARK    6  A    between atoms: O_16  and  C_8 
REMARK    7  A    between atoms: O_17  and  C_9 
ROOT
ATOM      1  C   UNL d   1       1.002  -0.113   0.520  0.00  0.00     0.258 C 
ATOM      2  N   UNL d   1       0.234  -1.152  -0.033  0.00  0.00    -0.317 N 
ATOM      3  O   UNL d   1       2.210  -0.208   0.735  0.00  0.00    -0.267 OA
ATOM      4  C   UNL d   1      -1.221  -1.276   0.091  0.00  0.00     0.159 C 
ENDROOT
BRANCH   1   5
ATOM      5  C   UNL d   1       0.381   1.215   0.830  0.00  0.00     0.038 A 
ATOM      6  C   UNL d   1       0.955   1.998   1.844  0.00  0.00     0.057 A 
ATOM      7  C   UNL d   1       0.481   3.291   2.134  0.00  0.00     0.105 A 
ATOM      8  C   UNL d   1      -0.613   3.811   1.405  0.00  0.00     0.135 A 
ATOM      9  C   UNL d   1      -1.175   3.022   0.378  0.00  0.00     0.105 A 
ATOM     10  C   UNL d   1      -0.664   1.751   0.085  0.00  0.00     0.057 A 
BRANCH   7  11
ATOM     11  O   UNL d   1       1.035   4.076   3.111  0.00  0.00    -0.353 OA
ATOM     12  C   UNL d   1       2.146   3.587   3.850  0.00  0.00     0.210 C 
ENDBRANCH   7  11
BRANCH   8  13
ATOM     13  O   UNL d   1      -1.233   5.015   1.619  0.00  0.00    -0.351 OA
ATOM     14  C   UNL d   1      -0.650   5.986   2.475  0.00  0.00     0.210 C 
ENDBRANCH   8  13
BRANCH   9  15
ATOM     15  O   UNL d   1      -2.281   3.333  -0.380  0.00  0.00    -0.353 OA
ATOM     16  C   UNL d   1      -2.372   4.676  -0.841  0.00  0.00     0.210 C 
ENDBRANCH   9  15
ENDBRANCH   1   5
BRANCH   2  17
ATOM     17  C   UNL d   1       0.881  -2.356  -0.466  0.00  0.00     0.053 A 
ATOM     18  C   UNL d   1       0.704  -2.888  -1.759  0.00  0.00     0.066 A 
ATOM     19  C   UNL d   1       1.177  -4.180  -2.053  0.00  0.00     0.020 A 
ATOM     20  C   UNL d   1       1.836  -4.934  -1.083  0.00  0.00     0.001 A 
ATOM     21  C   UNL d   1       2.051  -4.394   0.181  0.00  0.00     0.002 A 
ATOM     22  C   UNL d   1       1.583  -3.114   0.486  0.00  0.00     0.031 A 
BRANCH  18  23
ATOM     23  C   UNL d   1       0.083  -2.155  -2.890  0.00  0.00     0.295 C 
ATOM     24  O   UNL d   1      -0.520  -2.718  -3.793  0.00  0.00    -0.259 OA
BRANCH  23  25
ATOM     25  O   UNL d   1       0.367  -0.833  -2.824  0.00  0.00    -0.322 OA
ATOM     26  C   UNL d   1      -0.081  -0.031  -3.920  0.00  0.00     0.213 C 
ENDBRANCH  23  25
ENDBRANCH  18  23
ENDBRANCH   2  17
TORSDOF 7
