REMARK  7 active torsions:
REMARK  status: ('A' for Active; 'I' for Inactive)
REMARK    1  A    between atoms: C_4  and  C_1 
REMARK    2  A    between atoms: C_2  and  N_5 
REMARK    3  A    between atoms: N_6  and  C_2 
REMARK    4  A    between atoms: N_5  and  C_3 
REMARK    5  A    between atoms: O_15  and  C_4 
REMARK    6  A    between atoms: C_9  and  N_6 
REMARK    7  A    between atoms: C_21  and  O_15 
ROOT
ATOM      1  N   UNL d   1       0.973   2.907   0.830  0.00  0.00    -0.332 N 
ATOM      2  H   UNL d   1       1.976   2.749   0.830  0.00  0.00     0.168 HD
ENDROOT
BRANCH   1   3
ATOM      3  C   UNL d   1       0.610   4.136   1.283  0.00  0.00     0.176 C 
ATOM      4  S   UNL d   1      -0.407   5.195   0.468  0.00  0.00    -0.041 SA
BRANCH   3   5
ATOM      5  N   UNL d   1       1.190   4.609   2.422  0.00  0.00    -0.333 N 
ATOM      6  H   UNL d   1       0.948   5.585   2.565  0.00  0.00     0.168 HD
BRANCH   5   7
ATOM      7  C   UNL d   1       1.934   4.022   3.469  0.00  0.00     0.035 A 
ATOM      8  C   UNL d   1       2.367   4.907   4.472  0.00  0.00     0.053 A 
ATOM      9  C   UNL d   1       3.095   4.446   5.569  0.00  0.00     0.036 A 
ATOM     10 CL   UNL d   1       3.606   5.558   6.780  0.00  0.00    -0.084 Cl
ATOM     11  C   UNL d   1       3.405   3.098   5.693  0.00  0.00     0.024 A 
ATOM     12  C   UNL d   1       2.964   2.206   4.710  0.00  0.00     0.004 A 
ATOM     13  C   UNL d   1       2.226   2.665   3.611  0.00  0.00     0.029 A 
ENDBRANCH   5   7
ENDBRANCH   3   5
ENDBRANCH   1   3
BRANCH   1  14
ATOM     14  C   UNL d   1       0.176   1.919   0.199  0.00  0.00     0.050 C 
ATOM     15  C   UNL d   1       0.787   0.877  -0.525  0.00  0.00     0.066 C 
ATOM     16  C   UNL d   1       0.095  -0.327  -0.738  0.00  0.00     0.026 C 
ATOM     17  C   UNL d   1      -1.227  -0.467  -0.300  0.00  0.00    -0.061 C 
ATOM     18  C   UNL d   1      -1.896   0.655   0.197  0.00  0.00     0.009 C 
ATOM     19  C   UNL d   1      -1.927  -1.792  -0.344  0.00  0.00     0.048 C 
ATOM     20  C   UNL d   1      -1.195   1.833   0.463  0.00  0.00     0.031 C 
BRANCH  15  21
ATOM     21  C   UNL d   1       2.131   1.018  -1.143  0.00  0.00     0.295 C 
ATOM     22  O   UNL d   1       2.892   0.095  -1.369  0.00  0.00    -0.259 OA
BRANCH  21  23
ATOM     23  O   UNL d   1       2.307   2.317  -1.496  0.00  0.00    -0.318 OA
BRANCH  23  24
ATOM     24  C   UNL d   1       3.467   2.650  -2.270  0.00  0.00     0.174 C 
ATOM     25  C   UNL d   1       4.622   2.986  -1.349  0.00  0.00     0.034 C 
ENDBRANCH  23  24
ENDBRANCH  21  23
ENDBRANCH  15  21
ENDBRANCH   1  14
TORSDOF 7
