REMARK  4 active torsions:
REMARK  status: ('A' for Active; 'I' for Inactive)
REMARK    1  A    between atoms: O_13  and  C_3 
REMARK    2  A    between atoms: C_12  and  C_10 
REMARK    3  A    between atoms: C_14  and  C_11 
REMARK    4  A    between atoms: C_18  and  O_13 
ROOT
ATOM      1  N   UNL d   1       0.262   0.614  -0.011  0.00  0.00    -0.217 N 
ATOM      2  C   UNL d   1       0.136  -0.779   0.006  0.00  0.00     0.132 A 
ATOM      3  C   UNL d   1      -0.886   1.429  -0.056  0.00  0.00     0.173 A 
ATOM      4  N   UNL d   1       1.572   0.984   0.004  0.00  0.00    -0.294 N 
ATOM      5  HN  UNL d   1       1.944   1.934   0.016  1.00  0.00     0.187 HD
ATOM      6  N   UNL d   1      -1.075  -1.413   0.030  0.00  0.00    -0.337 N 
ATOM      7  HN  UNL d   1      -1.143  -2.429   0.090  1.00  0.00     0.167 HD
ATOM      8  C   UNL d   1       1.411  -1.282   0.007  0.00  0.00     0.077 A 
ATOM      9  C   UNL d   1      -2.094   0.836  -0.150  0.00  0.00     0.092 A 
ATOM     10  C   UNL d   1      -2.140  -0.659  -0.026  0.00  0.00     0.122 A 
ATOM     11  C   UNL d   1       2.269  -0.158  -0.001  0.00  0.00     0.037 A 
ENDROOT
BRANCH   3  12
ATOM     12  O   UNL d   1      -0.694   2.808  -0.076  0.00  0.00    -0.292 OA
BRANCH  12  13
ATOM     13  C   UNL d   1      -1.630   3.657   0.478  0.00  0.00     0.077 A 
ATOM     14  C   UNL d   1      -2.393   3.347   1.607  0.00  0.00     0.037 A 
ATOM     15  C   UNL d   1      -3.341   4.255   2.082  0.00  0.00     0.003 A 
ATOM     16  C   UNL d   1      -3.488   5.497   1.466  0.00  0.00     0.000 A 
ATOM     17  C   UNL d   1      -2.684   5.833   0.378  0.00  0.00     0.003 A 
ATOM     18  C   UNL d   1      -1.756   4.915  -0.117  0.00  0.00     0.037 A 
ENDBRANCH  12  13
ENDBRANCH   3  12
BRANCH  10  19
ATOM     19  C   UNL d   1      -3.529  -1.295   0.076  0.00  0.00     0.432 C 
ATOM     20  F   UNL d   1      -4.533  -0.373   0.039  0.00  0.00    -0.165 F 
ATOM     21  F   UNL d   1      -3.779  -2.170  -0.935  0.00  0.00    -0.165 F 
ATOM     22  F   UNL d   1      -3.693  -1.980   1.240  0.00  0.00    -0.165 F 
ENDBRANCH  10  19
BRANCH  11  23
ATOM     23  C   UNL d   1       3.792  -0.172  -0.008  0.00  0.00    -0.007 C 
ATOM     24  C   UNL d   1       4.391   1.250   0.010  0.00  0.00     0.021 C 
ATOM     25  C   UNL d   1       4.317  -0.925   1.232  0.00  0.00     0.021 C 
ATOM     26  C   UNL d   1       4.304  -0.888  -1.276  0.00  0.00     0.021 C 
ENDBRANCH  11  23
TORSDOF 4
