REMARK  3 active torsions:
REMARK  status: ('A' for Active; 'I' for Inactive)
REMARK       I    between atoms: N_2  and  C_1 
REMARK    1  A    between atoms: C_3  and  C_1 
REMARK    2  A    between atoms: C_7  and  C_4 
REMARK    3  A    between atoms: O_15  and  C_8 
ROOT
ATOM      1  C   UNL d   1       0.261  -0.524   0.994  0.00  0.00     0.075 C 
ATOM      2  C   UNL d   1      -1.051  -0.789   0.999  0.00  0.00     0.017 C 
ENDROOT
BRANCH   1   3
ATOM      3  C   UNL d   1       0.899  -0.041  -0.253  0.00  0.00     0.243 C 
ATOM      4  N   UNL d   1       1.784   1.007  -0.114  0.00  0.00    -0.345 N 
ATOM      5  C   UNL d   1       1.966   1.851   1.072  0.00  0.00     0.152 C 
ATOM      6  C   UNL d   1       2.557   1.457  -1.272  0.00  0.00     0.152 C 
ATOM      7  C   UNL d   1       3.458   1.998   1.385  0.00  0.00     0.187 C 
ATOM      8  O   UNL d   1       4.181   2.491   0.245  0.00  0.00    -0.388 OA
ATOM      9  C   UNL d   1       4.031   1.609  -0.881  0.00  0.00     0.187 C 
ATOM     10  O   UNL d   1       0.655  -0.594  -1.321  0.00  0.00    -0.268 OA
ENDBRANCH   1   3
BRANCH   2  11
ATOM     11  C   UNL d   1      -1.794  -1.299   2.161  0.00  0.00    -0.036 A 
ATOM     12  C   UNL d   1      -1.406  -1.045   3.483  0.00  0.00     0.014 A 
ATOM     13  C   UNL d   1      -2.159  -1.530   4.561  0.00  0.00     0.037 A 
ATOM     14  C   UNL d   1      -3.319  -2.267   4.332  0.00  0.00     0.068 A 
ATOM     15  C   UNL d   1      -3.719  -2.509   3.018  0.00  0.00     0.037 A 
ATOM     16  C   UNL d   1      -2.968  -2.026   1.941  0.00  0.00     0.014 A 
BRANCH  14  17
ATOM     17  O   UNL d   1      -4.138  -2.796   5.289  0.00  0.00    -0.356 OA
ATOM     18  C   UNL d   1      -3.782  -2.557   6.645  0.00  0.00     0.210 C 
ENDBRANCH  14  17
ENDBRANCH   2  11
TORSDOF 3
