REMARK  4 active torsions:
REMARK  status: ('A' for Active; 'I' for Inactive)
REMARK    1  A    between atoms: N_4  and  S_1 
REMARK    2  A    between atoms: C_6  and  S_1 
REMARK    3  A    between atoms: N_3  and  C_2 
REMARK    4  A    between atoms: C_5  and  N_4 
ROOT
ATOM      1  N   UNL d   1       0.623  -1.355   1.040  0.00  0.00    -0.179 NA
ATOM      2  H   UNL d   1      -0.120  -1.325   1.751  0.00  0.00     0.146 HD
ENDROOT
BRANCH   1   3
ATOM      3  S   UNL d   1       0.269  -0.213  -0.174  0.00  0.00     0.245 S 
ATOM      4  O   UNL d   1      -1.008  -0.576  -0.749  0.00  0.00    -0.206 OA
ATOM      5  O   UNL d   1       1.446  -0.039  -1.000  0.00  0.00    -0.206 OA
BRANCH   3   6
ATOM      6  C   UNL d   1       0.037   1.281   0.769  0.00  0.00     0.074 A 
ATOM      7  C   UNL d   1       1.114   2.157   0.957  0.00  0.00     0.026 A 
ATOM      8  C   UNL d   1       0.907   3.372   1.618  0.00  0.00     0.025 A 
ATOM      9  C   UNL d   1      -0.366   3.705   2.079  0.00  0.00     0.034 A 
ATOM     10  C   UNL d   1      -1.440   2.834   1.887  0.00  0.00     0.025 A 
ATOM     11 CL   UNL d   1      -0.620   5.213   2.871  0.00  0.00    -0.084 Cl
ATOM     12  C   UNL d   1      -1.241   1.619   1.225  0.00  0.00     0.026 A 
ENDBRANCH   3   6
ENDBRANCH   1   3
BRANCH   1  13
ATOM     13  C   UNL d   1       0.819  -2.697   0.530  0.00  0.00     0.056 A 
ATOM     14  C   UNL d   1      -0.218  -3.626   0.349  0.00  0.00     0.125 A 
ATOM     15  C   UNL d   1       0.025  -4.907  -0.174  0.00  0.00     0.044 A 
ATOM     16  C   UNL d   1       1.324  -5.271  -0.542  0.00  0.00    -0.060 A 
ATOM     17  C   UNL d   1       2.356  -4.333  -0.406  0.00  0.00     0.009 A 
ATOM     18  C   UNL d   1       1.593  -6.651  -1.069  0.00  0.00     0.048 C 
ATOM     19  C   UNL d   1       2.103  -3.054   0.112  0.00  0.00     0.027 A 
BRANCH  14  20
ATOM     20  N   UNL d   1      -1.573  -3.302   0.756  0.00  0.00    -0.114 N 
ATOM     21  O   UNL d   1      -1.709  -2.680   1.822  0.00  0.00    -0.532 OA
ATOM     22  O   UNL d   1      -2.500  -3.686   0.025  0.00  0.00    -0.532 OA
ENDBRANCH  14  20
ENDBRANCH   1  13
TORSDOF 4
