REMARK  5 active torsions:
REMARK  status: ('A' for Active; 'I' for Inactive)
REMARK    1  A    between atoms: C_7  and  N_1 
REMARK    2  A    between atoms: S_11  and  C_2 
REMARK    3  A    between atoms: C_16  and  S_11 
REMARK    4  A    between atoms: C_13  and  C_16 
REMARK    5  A    between atoms: C_20  and  C_13 
ROOT
ATOM      1  N   UNL d   1      -0.233  -1.327   0.077  0.00  0.00    -0.279 N 
ATOM      2  C   UNL d   1       1.019  -0.719   0.145  0.00  0.00     0.168 A 
ATOM      3  N   UNL d   1       0.902   0.588   0.099  0.00  0.00    -0.278 N 
ATOM      4  HN  UNL d   1       1.668   1.260   0.131  1.00  0.00     0.189 HD
ATOM      5  N   UNL d   1      -0.426   0.886  -0.001  0.00  0.00    -0.287 N 
ATOM      6  HN  UNL d   1      -0.823   1.824  -0.059  1.00  0.00     0.188 HD
ATOM      7  C   UNL d   1      -1.109  -0.242  -0.011  0.00  0.00     0.101 A 
ATOM      8  C   UNL d   1      -2.593  -0.296   0.014  0.00  0.00     0.091 C 
ENDROOT
BRANCH   1   9
ATOM      9  C   UNL d   1      -0.551  -2.722   0.057  0.00  0.00     0.045 A 
ATOM     10  C   UNL d   1       0.240  -3.643   0.760  0.00  0.00     0.069 A 
ATOM     11  C   UNL d   1       0.018  -5.015   0.625  0.00  0.00     0.104 A 
ATOM     12  O   UNL d   1       0.904  -5.848   1.261  0.00  0.00    -0.346 OA
ATOM     13  C   UNL d   1      -1.053  -5.485  -0.137  0.00  0.00     0.102 A 
ATOM     14  C   UNL d   1       0.850  -7.167   0.706  0.00  0.00     0.202 C 
ATOM     15  C   UNL d   1      -0.592  -7.635   0.605  0.00  0.00     0.202 C 
ATOM     16  O   UNL d   1      -1.335  -6.815  -0.305  0.00  0.00    -0.346 OA
ATOM     17  C   UNL d   1      -1.877  -4.579  -0.795  0.00  0.00     0.042 A 
ATOM     18  C   UNL d   1      -1.623  -3.205  -0.710  0.00  0.00     0.033 A 
ENDBRANCH   1   9
BRANCH   2  19
ATOM     19  S   UNL d   1       2.549  -1.537   0.022  0.00  0.00    -0.084 SA
BRANCH  19  20
ATOM     20  C   UNL d   1       3.656  -0.399   0.893  0.00  0.00     0.166 C 
BRANCH  20  21
ATOM     21  C   UNL d   1       3.380  -0.282   2.385  0.00  0.00     0.169 C 
ATOM     22  O   UNL d   1       2.431  -0.829   2.950  0.00  0.00    -0.291 OA
BRANCH  21  23
ATOM     23  C   UNL d   1       4.340   0.524   3.209  0.00  0.00     0.010 A 
ATOM     24  C   UNL d   1       5.509   1.084   2.673  0.00  0.00     0.015 A 
ATOM     25  C   UNL d   1       6.392   1.800   3.490  0.00  0.00     0.001 A 
ATOM     26  C   UNL d   1       6.114   1.970   4.845  0.00  0.00     0.000 A 
ATOM     27  C   UNL d   1       4.953   1.425   5.386  0.00  0.00     0.001 A 
ATOM     28  C   UNL d   1       4.071   0.706   4.577  0.00  0.00     0.015 A 
ENDBRANCH  21  23
ENDBRANCH  20  21
ENDBRANCH  19  20
ENDBRANCH   2  19
TORSDOF 5
