REMARK  6 active torsions:
REMARK  status: ('A' for Active; 'I' for Inactive)
REMARK    1  A    between atoms: N_2  and  C_3 
REMARK       I    between atoms: C_5  and  N_2 
REMARK    2  A    between atoms: C_11  and  C_5 
REMARK    3  A    between atoms: C_6  and  C_12 
REMARK    4  A    between atoms: O_10  and  C_6 
REMARK    5  A    between atoms: C_13  and  C_11 
REMARK    6  A    between atoms: C_12  and  C_13 
ROOT
ATOM      1  N   UNL d   1       1.336   2.288   0.925  0.00  0.00    -0.348 N 
ATOM      2  C   UNL d   1       1.193   3.121   2.005  0.00  0.00     0.218 C 
ATOM      3  O   UNL d   1       0.267   3.031   2.806  0.00  0.00    -0.274 OA
ATOM      4  H   UNL d   1       2.187   2.296   0.369  0.00  0.00     0.163 HD
ENDROOT
BRANCH   1   5
ATOM      5  C   UNL d   1       0.421   1.171   0.706  0.00  0.00     0.176 C 
ATOM      6  C   UNL d   1       1.208   0.022   0.054  0.00  0.00     0.240 C 
ATOM      7  N   UNL d   1       0.568  -1.173  -0.099  0.00  0.00    -0.359 N 
ATOM      8  O   UNL d   1       2.369   0.156  -0.339  0.00  0.00    -0.271 OA
ATOM      9  C   UNL d   1      -0.770  -1.488   0.351  0.00  0.00     0.122 C 
ATOM     10  H   UNL d   1       1.129  -1.899  -0.533  0.00  0.00     0.162 HD
ATOM     11  C   UNL d   1      -1.837  -0.724  -0.428  0.00  0.00     0.020 C 
ATOM     12  C   UNL d   1      -1.993   0.735  -0.000  0.00  0.00     0.004 C 
ATOM     13  C   UNL d   1      -0.747   1.601  -0.183  0.00  0.00     0.035 C 
ENDBRANCH   1   5
BRANCH   2  14
ATOM     14  C   UNL d   1       2.273   4.175   2.121  0.00  0.00     0.103 C 
BRANCH  14  15
ATOM     15  C   UNL d   1       2.457   4.629   3.568  0.00  0.00     0.019 C 
BRANCH  15  16
ATOM     16  C   UNL d   1       3.007   3.509   4.448  0.00  0.00     0.110 C 
BRANCH  16  17
ATOM     17  C   UNL d   1       3.117   3.964   5.878  0.00  0.00     0.139 C 
ATOM     18  O   UNL d   1       4.130   4.445   6.364  0.00  0.00    -0.650 OA
BRANCH  17  19
ATOM     19  O   UNL d   1       1.969   3.815   6.576  0.00  0.00    -0.776 OA
ATOM     20  H   UNL d   1       1.235   3.443   6.047  0.00  0.00     0.167 HD
ENDBRANCH  17  19
ENDBRANCH  16  17
ENDBRANCH  15  16
ENDBRANCH  14  15
ENDBRANCH   2  14
TORSDOF 6
