REMARK  5 active torsions:
REMARK  status: ('A' for Active; 'I' for Inactive)
REMARK    1  A    between atoms: C_3  and  C_1 
REMARK    2  A    between atoms: C_2  and  C_9 
REMARK    3  A    between atoms: N_19  and  C_2 
REMARK    4  A    between atoms: N_10  and  N_4 
REMARK       I    between atoms: C_6  and  N_10 
REMARK       I    between atoms: N_11  and  C_6 
REMARK    5  A    between atoms: C_20  and  N_11 
ROOT
ATOM      1  C   UNL d   1      -0.205   4.187  -3.472  0.00  0.00     0.119 C 
ATOM      2  N   UNL d   1       0.203   5.417  -3.293  0.00  0.00    -0.284 N 
ATOM      3  HN  UNL d   1       0.175   6.126  -4.026  1.00  0.00     0.188 HD
ENDROOT
BRANCH   1   4
ATOM      4  C   UNL d   1      -0.807   3.795  -4.797  0.00  0.00     0.071 A 
ATOM      5  C   UNL d   1      -1.004   4.726  -5.804  0.00  0.00     0.034 A 
ATOM      6  C   UNL d   1      -1.515   4.278  -7.019  0.00  0.00     0.020 A 
ATOM      7  C   UNL d   1      -1.815   2.921  -7.192  0.00  0.00     0.063 A 
ATOM      8  C   UNL d   1      -1.593   2.068  -6.117  0.00  0.00     0.104 A 
ATOM      9  N   UNL d   1      -1.091   2.467  -4.924  0.00  0.00    -0.362 N 
ATOM     10  HN  UNL d   1      -0.933   1.809  -4.162  1.00  0.00     0.165 HD
BRANCH   7  11
ATOM     11  C   UNL d   1      -2.342   2.402  -8.496  0.00  0.00     0.418 C 
ATOM     12  F   UNL d   1      -2.565   1.059  -8.499  0.00  0.00    -0.166 F 
ATOM     13  F   UNL d   1      -1.488   2.641  -9.528  0.00  0.00    -0.166 F 
ATOM     14  F   UNL d   1      -3.523   2.979  -8.846  0.00  0.00    -0.166 F 
ENDBRANCH   7  11
ENDBRANCH   1   4
BRANCH   1  15
ATOM     15  N   UNL d   1      -0.080   3.186  -2.519  0.00  0.00    -0.286 NA
ATOM     16  H   UNL d   1      -0.328   2.275  -2.917  0.00  0.00     0.125 HD
ATOM     17  H   UNL d   1       0.854   3.138  -2.123  0.00  0.00     0.125 HD
ENDBRANCH   1  15
BRANCH   2  18
ATOM     18  N   UNL d   1       0.669   5.663  -2.032  0.00  0.00    -0.250 N 
ATOM     19  C   UNL d   1       1.265   6.839  -1.636  0.00  0.00     0.339 C 
ATOM     20  N   UNL d   1       1.322   7.791  -2.623  0.00  0.00    -0.308 N 
ATOM     21  O   UNL d   1       1.672   6.943  -0.482  0.00  0.00    -0.245 OA
ATOM     22  H   UNL d   1       0.773   7.537  -3.434  0.00  0.00     0.170 HD
ATOM     23  H   UNL d   1       0.515   4.965  -1.312  0.00  0.00     0.192 HD
BRANCH  20  24
ATOM     24  C   UNL d   1       1.923   9.061  -2.549  0.00  0.00     0.036 A 
ATOM     25  C   UNL d   1       2.798   9.429  -1.522  0.00  0.00     0.031 A 
ATOM     26  C   UNL d   1       3.380  10.700  -1.497  0.00  0.00     0.026 A 
ATOM     27  C   UNL d   1       3.083  11.617  -2.499  0.00  0.00     0.034 A 
ATOM     28  C   UNL d   1       2.214  11.268  -3.531  0.00  0.00     0.026 A 
ATOM     29 CL   UNL d   1       3.797  13.181  -2.466  0.00  0.00    -0.084 Cl
ATOM     30  C   UNL d   1       1.642   9.989  -3.560  0.00  0.00     0.031 A 
ENDBRANCH  20  24
ENDBRANCH   2  18
TORSDOF 5
