REMARK  5 active torsions:
REMARK  status: ('A' for Active; 'I' for Inactive)
REMARK    1  A    between atoms: C_4  and  C_1 
REMARK       I    between atoms: N_9  and  C_4 
REMARK    2  A    between atoms: C_18  and  C_5 
REMARK       I    between atoms: C_8  and  N_10 
REMARK       I    between atoms: N_13  and  C_8 
REMARK    3  A    between atoms: N_10  and  N_9 
REMARK    4  A    between atoms: C_12  and  C_18 
REMARK    5  A    between atoms: C_20  and  N_13 
ROOT
ATOM      1  C   UNL d   1       2.303   1.735   0.140  0.00  0.00     0.287 C 
ATOM      2  N   UNL d   1       2.039   3.025   0.555  0.00  0.00    -0.261 N 
ATOM      3  O   UNL d   1       3.436   1.323  -0.103  0.00  0.00    -0.264 OA
ATOM      4  H   UNL d   1       1.121   3.251   0.943  0.00  0.00     0.190 HD
ENDROOT
BRANCH   1   5
ATOM      5  C   UNL d   1       1.103   0.905  -0.013  0.00  0.00     0.109 A 
ATOM      6  N   UNL d   1      -0.190   1.416   0.153  0.00  0.00    -0.349 N 
ATOM      7  C   UNL d   1      -1.083   0.486  -0.133  0.00  0.00     0.055 A 
ATOM      8  HN  UNL d   1      -0.409   2.367   0.451  1.00  0.00     0.166 HD
ATOM      9  S   UNL d   1      -0.435  -1.063  -0.519  0.00  0.00    -0.086 SA
ATOM     10  C   UNL d   1       1.145  -0.432  -0.361  0.00  0.00     0.086 A 
BRANCH   7  11
ATOM     11  C   UNL d   1      -2.573   0.696  -0.151  0.00  0.00     0.103 C 
BRANCH  11  12
ATOM     12  C   UNL d   1      -3.062   1.147  -1.502  0.00  0.00    -0.045 A 
ATOM     13  C   UNL d   1      -3.498   0.308  -2.513  0.00  0.00     0.057 A 
ATOM     14  S   UNL d   1      -3.964   1.153  -3.925  0.00  0.00    -0.113 SA
ATOM     15  C   UNL d   1      -3.603   2.660  -3.206  0.00  0.00     0.050 A 
ATOM     16  C   UNL d   1      -3.136   2.519  -1.919  0.00  0.00     0.015 A 
ENDBRANCH  11  12
ENDBRANCH   7  11
ENDBRANCH   1   5
BRANCH   2  17
ATOM     17  N   UNL d   1       3.116   3.866   0.904  0.00  0.00    -0.248 N 
ATOM     18  C   UNL d   1       2.867   4.851   1.847  0.00  0.00     0.339 C 
ATOM     19  N   UNL d   1       3.965   5.665   2.045  0.00  0.00    -0.308 N 
ATOM     20  O   UNL d   1       1.779   4.923   2.412  0.00  0.00    -0.245 OA
ATOM     21  H   UNL d   1       4.816   5.387   1.574  0.00  0.00     0.170 HD
ATOM     22  H   UNL d   1       3.783   4.037   0.160  0.00  0.00     0.192 HD
BRANCH  19  23
ATOM     23  C   UNL d   1       4.050   6.797   2.885  0.00  0.00     0.036 A 
ATOM     24  C   UNL d   1       2.982   7.278   3.645  0.00  0.00     0.029 A 
ATOM     25  C   UNL d   1       3.123   8.424   4.434  0.00  0.00     0.002 A 
ATOM     26  C   UNL d   1       4.338   9.102   4.473  0.00  0.00     0.000 A 
ATOM     27  C   UNL d   1       5.416   8.626   3.731  0.00  0.00     0.002 A 
ATOM     28  C   UNL d   1       5.274   7.478   2.944  0.00  0.00     0.029 A 
ENDBRANCH  19  23
ENDBRANCH   2  17
TORSDOF 5
