REMARK  5 active torsions:
REMARK  status: ('A' for Active; 'I' for Inactive)
REMARK    1  A    between atoms: C_3  and  C_1 
REMARK    2  A    between atoms: C_2  and  C_9 
REMARK    3  A    between atoms: N_19  and  C_2 
REMARK    4  A    between atoms: N_10  and  N_4 
REMARK       I    between atoms: C_6  and  N_10 
REMARK       I    between atoms: N_11  and  C_6 
REMARK    5  A    between atoms: C_20  and  N_11 
ROOT
ATOM      1  C   UNL d   1      -0.240   2.545  -4.932  0.00  0.00     0.119 C 
ATOM      2  N   UNL d   1       0.043   3.794  -5.192  0.00  0.00    -0.284 N 
ATOM      3  HN  UNL d   1       0.064   4.180  -6.136  1.00  0.00     0.188 HD
ENDROOT
BRANCH   1   4
ATOM      4  C   UNL d   1      -0.652   1.626  -6.053  0.00  0.00     0.071 A 
ATOM      5  C   UNL d   1      -0.855   2.099  -7.341  0.00  0.00     0.034 A 
ATOM      6  C   UNL d   1      -1.191   1.176  -8.328  0.00  0.00     0.020 A 
ATOM      7  C   UNL d   1      -1.313  -0.181  -8.005  0.00  0.00     0.063 A 
ATOM      8  C   UNL d   1      -1.102  -0.551  -6.683  0.00  0.00     0.104 A 
ATOM      9  N   UNL d   1      -0.770   0.315  -5.698  0.00  0.00    -0.362 N 
ATOM     10  HN  UNL d   1      -0.616   0.004  -4.739  1.00  0.00     0.165 HD
BRANCH   7  11
ATOM     11  C   UNL d   1      -1.645  -1.205  -9.049  0.00  0.00     0.418 C 
ATOM     12  F   UNL d   1      -1.712  -2.476  -8.565  0.00  0.00    -0.166 F 
ATOM     13  F   UNL d   1      -0.724  -1.237 -10.051  0.00  0.00    -0.166 F 
ATOM     14  F   UNL d   1      -2.843  -0.969  -9.649  0.00  0.00    -0.166 F 
ENDBRANCH   7  11
ENDBRANCH   1   4
BRANCH   1  15
ATOM     15  N   UNL d   1      -0.147   1.983  -3.665  0.00  0.00    -0.286 NA
ATOM     16  H   UNL d   1      -0.261   0.967  -3.712  0.00  0.00     0.125 HD
ATOM     17  H   UNL d   1       0.731   2.206  -3.208  0.00  0.00     0.125 HD
ENDBRANCH   1  15
BRANCH   2  18
ATOM     18  N   UNL d   1       0.310   4.535  -4.072  0.00  0.00    -0.250 N 
ATOM     19  C   UNL d   1       0.649   5.871  -4.085  0.00  0.00     0.339 C 
ATOM     20  N   UNL d   1       0.792   6.387  -5.349  0.00  0.00    -0.308 N 
ATOM     21  O   UNL d   1       0.783   6.463  -3.018  0.00  0.00    -0.245 OA
ATOM     22  H   UNL d   1       0.597   5.699  -6.064  0.00  0.00     0.170 HD
ATOM     23  H   UNL d   1       0.079   4.141  -3.166  0.00  0.00     0.192 HD
BRANCH  20  24
ATOM     24  C   UNL d   1       1.089   7.713  -5.714  0.00  0.00     0.036 A 
ATOM     25  C   UNL d   1       1.363   8.724  -4.790  0.00  0.00     0.029 A 
ATOM     26  C   UNL d   1       1.625  10.031  -5.215  0.00  0.00     0.002 A 
ATOM     27  C   UNL d   1       1.619  10.338  -6.572  0.00  0.00     0.000 A 
ATOM     28  C   UNL d   1       1.357   9.337  -7.505  0.00  0.00     0.002 A 
ATOM     29  C   UNL d   1       1.096   8.029  -7.077  0.00  0.00     0.029 A 
ENDBRANCH  20  24
ENDBRANCH   2  18
TORSDOF 5
