REMARK  5 active torsions:
REMARK  status: ('A' for Active; 'I' for Inactive)
REMARK    1  A    between atoms: C_8  and  N_1 
REMARK    2  A    between atoms: C_5  and  C_2 
REMARK    3  A    between atoms: C_18  and  C_6 
REMARK    4  A    between atoms: C_7  and  C_12 
REMARK    5  A    between atoms: C_21  and  C_13 
ROOT
ATOM      1  C   UNL d   1      -4.118   9.023  -1.783  0.00  0.00     0.387 C 
ATOM      2  O   UNL d   1      -5.312   9.475  -1.141  0.00  0.00    -0.342 OA
ATOM      3  N   UNL d   1      -3.229  10.169  -1.902  0.00  0.00     0.119 N 
ATOM      4  C   UNL d   1      -4.917  10.539  -0.260  0.00  0.00     0.185 C 
ATOM      5  C   UNL d   1      -3.535  10.991  -0.735  0.00  0.00     0.310 C 
ATOM      6  H   UNL d   1      -2.257   9.880  -1.900  0.00  0.00     0.319 HD
ENDROOT
BRANCH   1   7
ATOM      7  C   UNL d   1      -3.486   7.844  -1.044  0.00  0.00    -0.025 C 
ATOM      8  C   UNL d   1      -4.015   7.315   0.080  0.00  0.00     0.018 C 
ATOM      9  C   UNL d   1      -2.239   7.274  -1.677  0.00  0.00     0.048 C 
BRANCH   8  10
ATOM     10  C   UNL d   1      -3.418   6.256   0.897  0.00  0.00    -0.036 A 
ATOM     11  C   UNL d   1      -2.615   6.603   1.987  0.00  0.00     0.012 A 
ATOM     12  C   UNL d   1      -2.098   5.614   2.828  0.00  0.00     0.008 A 
ATOM     13  C   UNL d   1      -2.373   4.259   2.593  0.00  0.00    -0.055 A 
ATOM     14  C   UNL d   1      -3.156   3.919   1.479  0.00  0.00     0.008 A 
ATOM     15  C   UNL d   1      -3.676   4.909   0.638  0.00  0.00     0.012 A 
BRANCH  13  16
ATOM     16  C   UNL d   1      -1.870   3.173   3.530  0.00  0.00     0.010 C 
ATOM     17  C   UNL d   1      -0.341   3.138   3.598  0.00  0.00     0.015 C 
ATOM     18  C   UNL d   1      -2.471   3.324   4.931  0.00  0.00     0.015 C 
ENDBRANCH  13  16
ENDBRANCH   8  10
ENDBRANCH   1   7
BRANCH   4  19
ATOM     19  C   UNL d   1      -5.946  11.647  -0.192  0.00  0.00    -0.028 A 
ATOM     20  C   UNL d   1      -6.056  12.400   0.992  0.00  0.00     0.012 A 
ATOM     21  C   UNL d   1      -6.987  13.435   1.099  0.00  0.00     0.037 A 
ATOM     22  C   UNL d   1      -7.816  13.730   0.012  0.00  0.00     0.102 A 
ATOM     23  C   UNL d   1      -7.716  12.998  -1.177  0.00  0.00     0.037 A 
ATOM     24  C   UNL d   1      -6.780  11.962  -1.275  0.00  0.00     0.012 A 
BRANCH  22  25
ATOM     25  N   UNL d   1      -8.797  14.820   0.122  0.00  0.00    -0.116 N 
ATOM     26  O   UNL d   1      -9.511  15.056  -0.862  0.00  0.00    -0.532 OA
ATOM     27  O   UNL d   1      -8.849  15.440   1.194  0.00  0.00    -0.532 OA
ENDBRANCH  22  25
ENDBRANCH   4  19
TORSDOF 5
