REMARK  2 active torsions:
REMARK  status: ('A' for Active; 'I' for Inactive)
REMARK       I    between atoms: C_4  and  N_1 
REMARK    1  A    between atoms: C_6  and  C_2 
REMARK    2  A    between atoms: C_10  and  C_4 
ROOT
ATOM      1  N   UNL d   1       1.528   1.207   0.061  0.00  0.00    -0.279 N 
ATOM      2  C   UNL d   1       2.343  -0.019  -0.025  0.00  0.00     0.272 A 
ATOM      3  O   UNL d   1       1.448  -1.168  -0.005  0.00  0.00    -0.319 OA
ATOM      4  C   UNL d   1       1.915   2.531   0.182  0.00  0.00     0.260 C 
ATOM      5  C   UNL d   1       0.200   0.766   0.032  0.00  0.00     0.073 A 
ATOM      6  C   UNL d   1       0.195  -0.619   0.004  0.00  0.00     0.099 A 
ATOM      7  O   UNL d   1       1.125   3.477   0.151  0.00  0.00    -0.267 OA
ATOM      8  C   UNL d   1      -0.995   1.465   0.040  0.00  0.00     0.033 A 
ATOM      9  C   UNL d   1      -0.969  -1.358  -0.004  0.00  0.00     0.039 A 
ATOM     10  C   UNL d   1      -2.190   0.736   0.022  0.00  0.00     0.002 A 
ATOM     11  C   UNL d   1      -2.179  -0.666   0.004  0.00  0.00     0.003 A 
ENDROOT
BRANCH   2  12
ATOM     12  C   UNL d   1       3.202  -0.160  -1.267  0.00  0.00    -0.006 A 
ATOM     13  C   UNL d   1       2.763   0.293  -2.525  0.00  0.00     0.051 A 
ATOM     14  C   UNL d   1       3.534  -0.003  -3.630  0.00  0.00     0.105 A 
ATOM     15  O   UNL d   1       3.234   0.324  -4.916  0.00  0.00    -0.323 OA
ATOM     16  C   UNL d   1       4.706  -0.713  -3.530  0.00  0.00     0.105 A 
ATOM     17  C   UNL d   1       4.325  -0.308  -5.617  0.00  0.00     0.352 A 
ATOM     18  O   UNL d   1       5.289  -0.927  -4.740  0.00  0.00    -0.323 OA
ATOM     19  C   UNL d   1       5.182  -1.160  -2.319  0.00  0.00     0.040 A 
ATOM     20  C   UNL d   1       4.418  -0.884  -1.181  0.00  0.00     0.014 A 
ENDBRANCH   2  12
BRANCH   4  21
ATOM     21  C   UNL d   1       3.350   2.912   0.346  0.00  0.00     0.032 A 
ATOM     22  C   UNL d   1       3.777   4.109  -0.259  0.00  0.00     0.018 A 
ATOM     23  C   UNL d   1       5.084   4.575  -0.087  0.00  0.00     0.025 A 
ATOM     24  C   UNL d   1       5.981   3.841   0.683  0.00  0.00     0.034 A 
ATOM     25  C   UNL d   1       5.569   2.668   1.310  0.00  0.00     0.025 A 
ATOM     26 CL   UNL d   1       7.592   4.402   0.895  0.00  0.00    -0.084 Cl
ATOM     27  C   UNL d   1       4.248   2.225   1.170  0.00  0.00     0.018 A 
ENDBRANCH   4  21
TORSDOF 2
