REMARK  5 active torsions:
REMARK  status: ('A' for Active; 'I' for Inactive)
REMARK       I    between atoms: N_2  and  C_1 
REMARK    1  A    between atoms: C_5  and  C_1 
REMARK    2  A    between atoms: C_6  and  N_2 
REMARK    3  A    between atoms: C_15  and  N_2 
REMARK    4  A    between atoms: C_12  and  C_6 
REMARK    5  A    between atoms: C_10  and  C_15 
ROOT
ATOM      1  N   UNL d   1       1.524   5.835   0.880  0.00  0.00    -0.197 NA
ATOM      2  C   UNL d   1       0.883   4.908   0.608  0.00  0.00     0.060 C 
ATOM      3  C   UNL d   1       0.092   3.713   0.272  0.00  0.00     0.143 C 
ENDROOT
BRANCH   3   4
ATOM      4  C   UNL d   1       0.945   2.459   0.475  0.00  0.00     0.140 C 
BRANCH   4   5
ATOM      5  N   UNL d   1       0.381   1.136   0.133  0.00  0.00    -0.343 N 
ATOM      6  C   UNL d   1       1.167  -0.005  -0.159  0.00  0.00     0.254 C 
ATOM      7  O   UNL d   1       0.679  -1.104  -0.400  0.00  0.00    -0.267 OA
BRANCH   6   8
ATOM      8  C   UNL d   1       2.650   0.111  -0.273  0.00  0.00     0.032 A 
ATOM      9  C   UNL d   1       3.439   0.783   0.668  0.00  0.00     0.018 A 
ATOM     10  C   UNL d   1       4.793   1.020   0.410  0.00  0.00     0.025 A 
ATOM     11  C   UNL d   1       5.380   0.503  -0.742  0.00  0.00     0.034 A 
ATOM     12  C   UNL d   1       4.633  -0.278  -1.623  0.00  0.00     0.025 A 
ATOM     13 CL   UNL d   1       7.033   0.835  -1.080  0.00  0.00    -0.084 Cl
ATOM     14  C   UNL d   1       3.268  -0.472  -1.390  0.00  0.00     0.018 A 
ENDBRANCH   6   8
BRANCH   5  15
ATOM     15  C   UNL d   1      -1.069   0.920   0.248  0.00  0.00     0.164 C 
BRANCH  15  16
ATOM     16  C   UNL d   1      -1.869   1.545  -0.878  0.00  0.00    -0.040 A 
ATOM     17  C   UNL d   1      -1.428   1.488  -2.209  0.00  0.00     0.009 A 
ATOM     18  C   UNL d   1      -2.158   2.102  -3.229  0.00  0.00     0.001 A 
ATOM     19  C   UNL d   1      -3.353   2.755  -2.937  0.00  0.00     0.000 A 
ATOM     20  C   UNL d   1      -3.827   2.781  -1.627  0.00  0.00     0.001 A 
ATOM     21  C   UNL d   1      -3.094   2.174  -0.605  0.00  0.00     0.009 A 
ENDBRANCH  15  16
ENDBRANCH   5  15
ENDBRANCH   4   5
ENDBRANCH   3   4
TORSDOF 5
