REMARK  3 active torsions:
REMARK  status: ('A' for Active; 'I' for Inactive)
REMARK    1  A    between atoms: C_2  and  C_1 
REMARK    2  A    between atoms: C_3  and  C_1 
REMARK    3  A    between atoms: O_6  and  C_2 
ROOT
ATOM      1  C   UNL d   1       0.980  -0.089   0.164  0.00  0.00     0.043 C 
ATOM      2  C   UNL d   1       2.329  -0.026   0.142  0.00  0.00    -0.012 C 
ATOM      3  C   UNL d   1       3.338  -0.665   1.043  0.00  0.00     0.037 C 
ENDROOT
BRANCH   1   4
ATOM      4  C   UNL d   1       0.192  -0.874   1.171  0.00  0.00     0.176 C 
ATOM      5  O   UNL d   1       0.673  -1.511   2.094  0.00  0.00    -0.646 OA
BRANCH   4   6
ATOM      6  O   UNL d   1      -1.147  -0.829   0.983  0.00  0.00    -0.773 OA
ATOM      7  H   UNL d   1      -1.451  -0.301   0.222  0.00  0.00     0.167 HD
ENDBRANCH   4   6
ENDBRANCH   1   4
BRANCH   1   8
ATOM      8  C   UNL d   1       0.292   0.678  -0.893  0.00  0.00    -0.020 A 
ATOM      9  C   UNL d   1       0.008   0.077  -2.127  0.00  0.00     0.012 A 
ATOM     10  C   UNL d   1      -0.700   0.781  -3.100  0.00  0.00     0.001 A 
ATOM     11  C   UNL d   1      -1.123   2.086  -2.848  0.00  0.00     0.000 A 
ATOM     12  C   UNL d   1      -0.832   2.693  -1.627  0.00  0.00     0.001 A 
ATOM     13  C   UNL d   1      -0.124   1.993  -0.650  0.00  0.00     0.012 A 
ENDBRANCH   1   8
TORSDOF 3
