REMARK  3 active torsions:
REMARK  status: ('A' for Active; 'I' for Inactive)
REMARK    1  A    between atoms: C_2  and  C_1 
REMARK       I    between atoms: N_4  and  C_2 
REMARK    2  A    between atoms: N_6  and  N_4 
REMARK    3  A    between atoms: C_5  and  N_6 
ROOT
ATOM      1  C   UNL d   1       2.369  -1.969   0.159  0.00  0.00     0.269 C 
ATOM      2  N   UNL d   1       2.477  -3.344   0.257  0.00  0.00    -0.282 N 
ATOM      3  O   UNL d   1       1.318  -1.393  -0.114  0.00  0.00    -0.266 OA
ATOM      4  H   UNL d   1       3.387  -3.793   0.299  0.00  0.00     0.184 HD
ENDROOT
BRANCH   2   5
ATOM      5  N   UNL d   1       1.372  -4.129  -0.111  0.00  0.00    -0.200 NA
ATOM      6  H   UNL d   1       0.489  -3.622   0.043  0.00  0.00     0.153 HD
BRANCH   5   7
ATOM      7  C   UNL d   1       1.337  -5.425   0.472  0.00  0.00     0.066 A 
ATOM      8  C   UNL d   1       0.097  -6.025   0.758  0.00  0.00     0.142 A 
ATOM      9  C   UNL d   1      -0.004  -7.331   1.232  0.00  0.00     0.086 A 
ATOM     10  F   UNL d   1      -1.034  -5.319   0.584  0.00  0.00    -0.204 F 
ATOM     11  C   UNL d   1       1.155  -8.070   1.403  0.00  0.00     0.119 A 
ATOM     12  C   UNL d   1       2.399  -7.526   1.105  0.00  0.00     0.044 A 
ATOM     13  F   UNL d   1       1.079  -9.333   1.842  0.00  0.00    -0.206 F 
ATOM     14  C   UNL d   1       2.487  -6.213   0.628  0.00  0.00     0.031 A 
ENDBRANCH   5   7
ENDBRANCH   2   5
BRANCH   1  15
ATOM     15  C   UNL d   1       3.609  -1.180   0.430  0.00  0.00     0.072 A 
ATOM     16  C   UNL d   1       4.819  -1.779   0.801  0.00  0.00     0.135 A 
ATOM     17  C   UNL d   1       5.940  -1.014   1.113  0.00  0.00     0.085 A 
ATOM     18  F   UNL d   1       4.937  -3.114   0.872  0.00  0.00    -0.205 F 
ATOM     19  C   UNL d   1       5.854   0.369   1.047  0.00  0.00     0.119 A 
ATOM     20  C   UNL d   1       4.673   0.994   0.661  0.00  0.00     0.043 A 
ATOM     21  F   UNL d   1       6.923   1.111   1.361  0.00  0.00    -0.206 F 
ATOM     22  C   UNL d   1       3.550   0.221   0.350  0.00  0.00     0.023 A 
ENDBRANCH   1  15
TORSDOF 3
