REMARK  3 active torsions:
REMARK  status: ('A' for Active; 'I' for Inactive)
REMARK    1  A    between atoms: C_4  and  C_1 
REMARK    2  A    between atoms: C_11  and  C_6 
REMARK    3  A    between atoms: O_17  and  C_12 
ROOT
ATOM      1  C   UNL d   1      -3.743  -0.033   0.012  0.00  0.00     0.089 C 
ATOM      2  C   UNL d   1      -4.424   1.132  -0.002  0.00  0.00     0.038 C 
ATOM      3  C   UNL d   1      -2.312  -0.058  -0.006  0.00  0.00     0.103 C 
ATOM      4  N   UNL d   1      -1.156  -0.156  -0.021  0.00  0.00    -0.191 NA
ENDROOT
BRANCH   1   5
ATOM      5  C   UNL d   1      -4.506  -1.243   0.023  0.00  0.00     0.127 A 
ATOM      6  N   UNL d   1      -5.817  -1.417   0.029  0.00  0.00    -0.339 N 
ATOM      7  C   UNL d   1      -6.029  -2.773   0.004  0.00  0.00     0.060 A 
ATOM      8  HN  UNL d   1      -6.531  -0.688   0.049  1.00  0.00     0.167 HD
ATOM      9  C   UNL d   1      -7.230  -3.495  -0.011  0.00  0.00     0.032 A 
ATOM     10  C   UNL d   1      -4.822  -3.459  -0.012  0.00  0.00     0.060 A 
ATOM     11  C   UNL d   1      -7.172  -4.894  -0.042  0.00  0.00     0.002 A 
ATOM     12  C   UNL d   1      -5.943  -5.558  -0.058  0.00  0.00     0.002 A 
ATOM     13  C   UNL d   1      -4.734  -4.852  -0.043  0.00  0.00     0.032 A 
ATOM     14  N   UNL d   1      -3.870  -2.470   0.007  0.00  0.00    -0.339 N 
ATOM     15  H   UNL d   1      -2.872  -2.628  -0.003  0.00  0.00     0.167 HD
ENDBRANCH   1   5
BRANCH   2  16
ATOM     16  C   UNL d   1      -3.807   2.459  -0.070  0.00  0.00    -0.035 A 
ATOM     17  C   UNL d   1      -3.545   3.037  -1.316  0.00  0.00     0.014 A 
ATOM     18  C   UNL d   1      -2.912   4.282  -1.400  0.00  0.00     0.037 A 
ATOM     19  C   UNL d   1      -2.538   4.958  -0.239  0.00  0.00     0.068 A 
ATOM     20  C   UNL d   1      -2.821   4.387   1.005  0.00  0.00     0.037 A 
ATOM     21  C   UNL d   1      -3.451   3.143   1.094  0.00  0.00     0.014 A 
BRANCH  19  22
ATOM     22  O   UNL d   1      -1.897   6.165  -0.185  0.00  0.00    -0.356 OA
ATOM     23  C   UNL d   1      -1.551   6.763  -1.429  0.00  0.00     0.210 C 
ENDBRANCH  19  22
ENDBRANCH   2  16
TORSDOF 3
