REMARK  3 active torsions:
REMARK  status: ('A' for Active; 'I' for Inactive)
REMARK    1  A    between atoms: N_2  and  S_1 
REMARK    2  A    between atoms: N_3  and  S_1 
REMARK    3  A    between atoms: C_6  and  N_2 
ROOT
ATOM      1  N   UNL d   1       0.554  -0.370   1.585  0.00  0.00    -0.172 NA
ATOM      2  H   UNL d   1       1.133  -0.274   0.752  0.00  0.00     0.147 HD
ENDROOT
BRANCH   1   3
ATOM      3  S   UNL d   1       0.870   1.005   2.527  0.00  0.00     0.284 S 
ATOM      4  O   UNL d   1       2.301   1.086   2.708  0.00  0.00    -0.194 OA
ATOM      5  O   UNL d   1      -0.063   1.086   3.622  0.00  0.00    -0.194 OA
BRANCH   3   6
ATOM      6  N   UNL d   1       0.434   2.166   1.364  0.00  0.00    -0.206 NA
ATOM      7  C   UNL d   1      -1.000   2.194   1.006  0.00  0.00     0.130 C 
ATOM      8  C   UNL d   1       0.967   3.521   1.628  0.00  0.00     0.130 C 
ENDBRANCH   3   6
ENDBRANCH   1   3
BRANCH   1   9
ATOM      9  C   UNL d   1       0.803  -1.616   2.248  0.00  0.00     0.023 A 
ATOM     10  C   UNL d   1      -0.214  -2.222   2.981  0.00  0.00     0.025 A 
ATOM     11  C   UNL d   1       0.035  -3.417   3.662  0.00  0.00     0.008 A 
ATOM     12  C   UNL d   1       1.309  -4.001   3.634  0.00  0.00    -0.062 A 
ATOM     13  C   UNL d   1       2.326  -3.380   2.900  0.00  0.00     0.008 A 
ATOM     14  C   UNL d   1       1.571  -5.262   4.405  0.00  0.00     0.048 C 
ATOM     15  C   UNL d   1       2.076  -2.187   2.214  0.00  0.00     0.025 A 
ENDBRANCH   1   9
TORSDOF 3
