REMARK  8 active torsions:
REMARK  status: ('A' for Active; 'I' for Inactive)
REMARK       I    between atoms: N_3  and  C_1 
REMARK       I    between atoms: N_5  and  C_1 
REMARK    1  A    between atoms: C_2  and  N_3 
REMARK    2  A    between atoms: C_13  and  N_5 
REMARK    3  A    between atoms: O_10  and  C_14 
REMARK    4  A    between atoms: C_12  and  O_10 
REMARK    5  A    between atoms: C_11  and  C_13 
REMARK    6  A    between atoms: C_14  and  C_11 
REMARK    7  A    between atoms: O_22  and  C_11 
REMARK    8  A    between atoms: O_23  and  C_15 
ROOT
ATOM      1  C   UNL d   1      -1.362   1.704  -0.254  0.00  0.00     0.320 C 
ATOM      2  N   UNL d   1      -2.160   2.811  -0.444  0.00  0.00    -0.308 N 
ATOM      3  N   UNL d   1      -1.765   0.677  -1.071  0.00  0.00    -0.340 N 
ATOM      4  O   UNL d   1      -0.462   1.588   0.567  0.00  0.00    -0.247 OA
ATOM      5  H   UNL d   1      -3.090   2.577  -0.753  0.00  0.00     0.170 HD
ATOM      6  H   UNL d   1      -2.201   0.927  -1.950  0.00  0.00     0.164 HD
ENDROOT
BRANCH   3   7
ATOM      7  C   UNL d   1      -1.181  -0.646  -0.966  0.00  0.00     0.158 C 
BRANCH   7   8
ATOM      8  C   UNL d   1      -1.679  -1.569  -2.083  0.00  0.00     0.160 C 
BRANCH   8   9
ATOM      9  C   UNL d   1      -1.143  -2.994  -1.890  0.00  0.00     0.209 C 
BRANCH   9  10
ATOM     10  O   UNL d   1      -1.555  -3.797  -3.001  0.00  0.00    -0.349 OA
BRANCH  10  11
ATOM     11  C   UNL d   1      -1.227  -5.122  -2.962  0.00  0.00     0.069 A 
ATOM     12  C   UNL d   1      -0.412  -5.734  -2.009  0.00  0.00     0.039 A 
ATOM     13  C   UNL d   1      -0.143  -7.108  -2.086  0.00  0.00     0.039 A 
ATOM     14  C   UNL d   1      -0.686  -7.878  -3.113  0.00  0.00     0.068 A 
ATOM     15  C   UNL d   1      -1.499  -7.264  -4.067  0.00  0.00     0.039 A 
ATOM     16  C   UNL d   1      -1.764  -5.896  -3.994  0.00  0.00     0.039 A 
BRANCH  14  17
ATOM     17  O   UNL d   1      -0.495  -9.219  -3.296  0.00  0.00    -0.356 OA
ATOM     18  C   UNL d   1       0.315  -9.888  -2.338  0.00  0.00     0.210 C 
ENDBRANCH  14  17
ENDBRANCH  10  11
ENDBRANCH   9  10
ENDBRANCH   8   9
BRANCH   8  19
ATOM     19  O   UNL d   1      -3.116  -1.556  -2.100  0.00  0.00    -0.392 OA
ATOM     20  H   UNL d   1      -3.433  -2.030  -1.313  0.00  0.00     0.210 HD
ENDBRANCH   8  19
ENDBRANCH   7   8
ENDBRANCH   3   7
BRANCH   2  21
ATOM     21  C   UNL d   1      -1.985   4.029   0.244  0.00  0.00     0.045 A 
ATOM     22  C   UNL d   1      -0.699   4.562   0.396  0.00  0.00     0.072 A 
ATOM     23  C   UNL d   1      -0.527   5.796   1.011  0.00  0.00     0.118 A 
ATOM     24  F   UNL d   1       0.704   6.311   1.130  0.00  0.00    -0.206 F 
ATOM     25  C   UNL d   1      -1.613   6.512   1.492  0.00  0.00     0.043 A 
ATOM     26  C   UNL d   1      -2.895   5.984   1.356  0.00  0.00     0.012 A 
ATOM     27  C   UNL d   1      -3.101   4.738   0.735  0.00  0.00    -0.035 A 
ATOM     28  C   UNL d   1      -4.511   4.213   0.693  0.00  0.00     0.050 C 
ENDBRANCH   2  21
TORSDOF 8
