REMARK  5 active torsions:
REMARK  status: ('A' for Active; 'I' for Inactive)
REMARK    1  A    between atoms: N_8  and  C_2 
REMARK    2  A    between atoms: C_13  and  N_8 
REMARK    3  A    between atoms: C_9  and  C_13 
REMARK    4  A    between atoms: O_14  and  C_9 
REMARK    5  A    between atoms: C_15  and  O_14 
ROOT
ATOM      1  N   UNL d   1      -1.230  -0.955  -0.245  0.00  0.00    -0.271 N 
ATOM      2  C   UNL d   1       1.212  -1.113  -0.078  0.00  0.00     0.186 A 
ATOM      3  C   UNL d   1      -0.131  -1.707  -0.527  0.00  0.00     0.294 A 
ATOM      4  N   UNL d   1       1.259   0.075   0.454  0.00  0.00    -0.277 N 
ATOM      5  HN  UNL d   1       2.147   0.490   0.736  1.00  0.00     0.189 HD
ATOM      6  C   UNL d   1      -1.163   0.288   0.296  0.00  0.00     0.341 A 
ATOM      7  N   UNL d   1       0.084   0.747   0.621  0.00  0.00    -0.250 N 
ATOM      8  O   UNL d   1      -0.154  -2.776  -1.123  0.00  0.00    -0.264 OA
ATOM      9  O   UNL d   1      -2.172   0.965   0.471  0.00  0.00    -0.245 OA
ATOM     10  H   UNL d   1      -2.132  -1.294  -0.535  0.00  0.00     0.174 HD
ATOM     11  H   UNL d   1       0.144   1.668   1.043  0.00  0.00     0.192 HD
ENDROOT
BRANCH   2  12
ATOM     12  N   UNL d   1       2.334  -1.884  -0.269  0.00  0.00    -0.361 N 
ATOM     13  H   UNL d   1       2.202  -2.762  -0.774  0.00  0.00     0.161 HD
BRANCH  12  14
ATOM     14  C   UNL d   1       3.672  -1.319  -0.326  0.00  0.00     0.232 C 
BRANCH  14  15
ATOM     15  C   UNL d   1       4.726  -2.416  -0.298  0.00  0.00     0.276 C 
ATOM     16  O   UNL d   1       4.492  -3.617  -0.314  0.00  0.00    -0.263 OA
BRANCH  15  17
ATOM     17  O   UNL d   1       5.967  -1.851  -0.230  0.00  0.00    -0.321 OA
BRANCH  17  18
ATOM     18  C   UNL d   1       7.045  -2.750   0.063  0.00  0.00     0.174 C 
ATOM     19  C   UNL d   1       7.237  -2.787   1.567  0.00  0.00     0.034 C 
ENDBRANCH  17  18
ENDBRANCH  15  17
ENDBRANCH  14  15
ENDBRANCH  12  14
ENDBRANCH   2  12
TORSDOF 5
