REMARK  6 active torsions:
REMARK  status: ('A' for Active; 'I' for Inactive)
REMARK    1  A    between atoms: C_13  and  N_1 
REMARK    2  A    between atoms: C_11  and  C_2 
REMARK    3  A    between atoms: N_7  and  C_5 
REMARK       I    between atoms: C_8  and  N_7 
REMARK    4  A    between atoms: O_14  and  C_8 
REMARK    5  A    between atoms: N_9  and  O_14 
REMARK    6  A    between atoms: C_15  and  C_12 
ROOT
ATOM      1  N   UNL d   1      -4.230   4.452   0.170  0.00  0.00    -0.258 N 
ATOM      2  C   UNL d   1      -4.785   3.248  -0.290  0.00  0.00     0.046 C 
ATOM      3  N   UNL d   1      -2.901   4.302   0.452  0.00  0.00    -0.278 N 
ATOM      4  HN  UNL d   1      -2.294   4.970   0.928  1.00  0.00     0.189 HD
ATOM      5  C   UNL d   1      -2.564   3.111  -0.020  0.00  0.00     0.126 C 
ATOM      6  C   UNL d   1      -3.685   2.439  -0.533  0.00  0.00     0.077 C 
ENDROOT
BRANCH   5   7
ATOM      7  N   UNL d   1      -1.319   2.538   0.007  0.00  0.00    -0.286 N 
ATOM      8  C   UNL d   1      -0.108   3.101   0.286  0.00  0.00     0.388 C 
ATOM      9  O   UNL d   1       0.904   2.399   0.198  0.00  0.00    -0.236 OA
ATOM     10  H   UNL d   1      -1.238   1.589  -0.318  0.00  0.00     0.172 HD
BRANCH   8  11
ATOM     11  O   UNL d   1      -0.107   4.437   0.596  0.00  0.00    -0.181 OA
BRANCH  11  12
ATOM     12  N   UNL d   1       1.039   5.013   0.020  0.00  0.00    -0.264 N 
ATOM     13  C   UNL d   1       1.373   6.156   0.537  0.00  0.00     0.014 C 
ATOM     14  C   UNL d   1       0.711   6.764   1.751  0.00  0.00     0.066 C 
ATOM     15  HN  UNL d   1       1.561   4.572  -0.737  1.00  0.00     0.194 HD
BRANCH  13  16
ATOM     16  C   UNL d   1       2.478   6.939  -0.216  0.00  0.00    -0.011 C 
ATOM     17  C   UNL d   1       1.953   7.213  -1.639  0.00  0.00     0.021 C 
ATOM     18  C   UNL d   1       2.842   8.281   0.430  0.00  0.00     0.021 C 
ATOM     19  C   UNL d   1       3.743   6.067  -0.292  0.00  0.00     0.021 C 
ENDBRANCH  13  16
ENDBRANCH  11  12
ENDBRANCH   8  11
ENDBRANCH   5   7
BRANCH   1  20
ATOM     20  C   UNL d   1      -4.829   5.722   0.421  0.00  0.00     0.056 A 
ATOM     21  C   UNL d   1      -4.330   6.512   1.468  0.00  0.00     0.031 A 
ATOM     22  C   UNL d   1      -4.966   7.707   1.813  0.00  0.00     0.002 A 
ATOM     23  C   UNL d   1      -6.079   8.141   1.095  0.00  0.00     0.000 A 
ATOM     24  C   UNL d   1      -6.529   7.404   0.005  0.00  0.00     0.002 A 
ATOM     25  C   UNL d   1      -5.896   6.206  -0.342  0.00  0.00     0.031 A 
ENDBRANCH   1  20
BRANCH   2  26
ATOM     26  C   UNL d   1      -6.261   2.837  -0.380  0.00  0.00    -0.007 C 
ATOM     27  C   UNL d   1      -6.827   3.123  -1.785  0.00  0.00     0.021 C 
ATOM     28  C   UNL d   1      -6.379   1.301  -0.145  0.00  0.00     0.021 C 
ATOM     29  C   UNL d   1      -7.134   3.462   0.729  0.00  0.00     0.021 C 
ENDBRANCH   2  26
TORSDOF 6
