REMARK  5 active torsions:
REMARK  status: ('A' for Active; 'I' for Inactive)
REMARK       I    between atoms: C_3  and  N_1 
REMARK    1  A    between atoms: C_4  and  N_2 
REMARK    2  A    between atoms: C_13  and  C_3 
REMARK    3  A    between atoms: C_7  and  C_15 
REMARK    4  A    between atoms: O_16  and  C_7 
REMARK    5  A    between atoms: C_15  and  C_13 
ROOT
ATOM      1  N   UNL d   1      -1.406   0.031   0.328  0.00  0.00    -0.349 N 
ATOM      2  N   UNL d   1       1.360  -0.040  -0.312  0.00  0.00    -0.364 N 
ATOM      3  C   UNL d   1      -2.648   0.144   0.926  0.00  0.00     0.220 C 
ATOM      4  C   UNL d   1      -0.799  -1.218  -0.171  0.00  0.00     0.145 C 
ATOM      5  C   UNL d   1      -0.710   1.252  -0.104  0.00  0.00     0.145 C 
ATOM      6  C   UNL d   1       0.711  -1.282   0.107  0.00  0.00     0.144 C 
ATOM      7  C   UNL d   1       0.797   1.201   0.215  0.00  0.00     0.144 C 
ATOM      8  O   UNL d   1      -3.142   1.236   1.212  0.00  0.00    -0.273 OA
ENDROOT
BRANCH   3   9
ATOM      9  C   UNL d   1      -3.367  -1.139   1.286  0.00  0.00     0.113 C 
BRANCH   9  10
ATOM     10  C   UNL d   1      -4.857  -0.897   1.498  0.00  0.00     0.119 C 
BRANCH  10  11
ATOM     11  C   UNL d   1      -5.561  -2.186   1.834  0.00  0.00     0.139 C 
ATOM     12  O   UNL d   1      -5.016  -3.262   2.010  0.00  0.00    -0.650 OA
BRANCH  11  13
ATOM     13  O   UNL d   1      -6.902  -2.030   1.927  0.00  0.00    -0.776 OA
ATOM     14  H   UNL d   1      -7.201  -1.115   1.769  0.00  0.00     0.167 HD
ENDBRANCH  11  13
ENDBRANCH  10  11
ENDBRANCH   9  10
ENDBRANCH   3   9
BRANCH   2  15
ATOM     15  C   UNL d   1       2.587  -0.118  -0.924  0.00  0.00     0.102 A 
ATOM     16  N   UNL d   1       2.750  -1.075  -1.863  0.00  0.00    -0.352 N 
ATOM     17  C   UNL d   1       3.921  -1.125  -2.537  0.00  0.00     0.089 A 
ATOM     18  HN  UNL d   1       2.007  -1.745  -2.059  1.00  0.00     0.166 HD
ATOM     19  C   UNL d   1       4.983  -0.276  -2.301  0.00  0.00     0.017 A 
ATOM     20  C   UNL d   1       4.832   0.684  -1.314  0.00  0.00     0.005 A 
ATOM     21  C   UNL d   1       3.619   0.769  -0.629  0.00  0.00     0.048 A 
ENDBRANCH   2  15
TORSDOF 5
