REMARK  6 active torsions:
REMARK  status: ('A' for Active; 'I' for Inactive)
REMARK    1  A    between atoms: C_10  and  C_1 
REMARK    2  A    between atoms: C_16  and  C_2 
REMARK    3  A    between atoms: C_3  and  C_11 
REMARK    4  A    between atoms: C_4  and  N_5 
REMARK    5  A    between atoms: N_9  and  C_10 
REMARK    6  A    between atoms: O_30  and  C_26 
ROOT
ATOM      1  N   UNL d   1       3.560  -1.948  -0.320  0.00  0.00    -0.364 N 
ATOM      2  N   UNL d   1       3.351   0.993  -0.246  0.00  0.00     0.096 N 
ATOM      3  C   UNL d   1       2.849  -1.247  -1.397  0.00  0.00     0.154 C 
ATOM      4  C   UNL d   1       3.651  -1.253   0.963  0.00  0.00     0.154 C 
ATOM      5  C   UNL d   1       4.101   0.216   0.765  0.00  0.00     0.292 C 
ATOM      6  C   UNL d   1       3.334   0.216  -1.509  0.00  0.00     0.292 C 
ENDROOT
BRANCH   2   7
ATOM      7  C   UNL d   1       2.022   1.366   0.249  0.00  0.00     0.315 C 
BRANCH   7   8
ATOM      8  C   UNL d   1       1.303   2.257  -0.715  0.00  0.00     0.016 A 
ATOM      9  C   UNL d   1       1.718   3.489  -1.330  0.00  0.00     0.067 A 
ATOM     10  N   UNL d   1       0.784   3.923  -2.194  0.00  0.00    -0.300 N 
ATOM     11  N   UNL d   1      -0.213   3.040  -2.096  0.00  0.00    -0.311 N 
ATOM     12  HN  UNL d   1       0.827   4.747  -2.794  1.00  0.00     0.187 HD
ATOM     13  C   UNL d   1       0.033   2.037  -1.215  0.00  0.00     0.118 A 
ATOM     14  H   UNL d   1      -1.040   3.186  -2.666  0.00  0.00     0.186 HD
BRANCH   9  15
ATOM     15  C   UNL d   1       2.949   4.263  -1.140  0.00  0.00    -0.007 A 
ATOM     16  C   UNL d   1       3.566   4.898  -2.228  0.00  0.00     0.016 A 
ATOM     17  C   UNL d   1       4.727   5.667  -2.055  0.00  0.00     0.037 A 
ATOM     18  C   UNL d   1       5.286   5.812  -0.788  0.00  0.00     0.068 A 
ATOM     19  C   UNL d   1       4.672   5.188   0.300  0.00  0.00     0.037 A 
ATOM     20  C   UNL d   1       3.512   4.424   0.131  0.00  0.00     0.016 A 
BRANCH  18  21
ATOM     21  O   UNL d   1       6.409   6.525  -0.471  0.00  0.00    -0.356 OA
ATOM     22  C   UNL d   1       7.043   7.230  -1.530  0.00  0.00     0.210 C 
ENDBRANCH  18  21
ENDBRANCH   9  15
ENDBRANCH   7   8
ENDBRANCH   2   7
BRANCH   1  23
ATOM     23  C   UNL d   1       3.774  -3.302  -0.455  0.00  0.00     0.103 A 
ATOM     24  C   UNL d   1       3.758  -4.171   0.634  0.00  0.00     0.064 A 
ATOM     25  C   UNL d   1       4.085  -5.526   0.477  0.00  0.00     0.052 A 
ATOM     26  C   UNL d   1       4.437  -5.981  -0.790  0.00  0.00     0.033 A 
ATOM     27  C   UNL d   1       4.405  -5.077  -1.831  0.00  0.00     0.090 A 
ATOM     28  N   UNL d   1       4.067  -3.777  -1.686  0.00  0.00    -0.352 N 
ATOM     29  HN  UNL d   1       4.034  -3.160  -2.497  1.00  0.00     0.166 HD
BRANCH  25  30
ATOM     30  C   UNL d   1       4.074  -6.466   1.650  0.00  0.00     0.417 C 
ATOM     31  F   UNL d   1       3.657  -5.886   2.810  0.00  0.00    -0.166 F 
ATOM     32  F   UNL d   1       3.254  -7.535   1.453  0.00  0.00    -0.166 F 
ATOM     33  F   UNL d   1       5.306  -6.983   1.914  0.00  0.00    -0.166 F 
ENDBRANCH  25  30
ENDBRANCH   1  23
TORSDOF 6
