REMARK  4 active torsions:
REMARK  status: ('A' for Active; 'I' for Inactive)
REMARK    1  A    between atoms: S_9  and  C_2 
REMARK    2  A    between atoms: N_3  and  C_10 
REMARK    3  A    between atoms: C_15  and  S_9 
REMARK    4  A    between atoms: C_17  and  C_15 
ROOT
ATOM      1  C   UNL d   1       2.037   3.009  -0.097  0.00  0.00     0.121 C 
ENDROOT
BRANCH   1   2
ATOM      2  S   UNL d   1       0.264   2.764  -0.437  0.00  0.00    -0.088 SA
BRANCH   2   3
ATOM      3  C   UNL d   1       0.118   1.068  -0.150  0.00  0.00     0.162 A 
ATOM      4  N   UNL d   1      -1.066   0.390  -0.153  0.00  0.00    -0.326 N 
ATOM      5  C   UNL d   1      -0.739  -0.914   0.090  0.00  0.00     0.201 A 
ATOM      6  C   UNL d   1      -2.407   0.867  -0.355  0.00  0.00     0.159 C 
ATOM      7  N   UNL d   1       0.560  -1.023   0.244  0.00  0.00    -0.294 N 
ATOM      8  N   UNL d   1       1.102   0.233   0.093  0.00  0.00    -0.279 N 
ATOM      9  HN  UNL d   1       1.075  -1.881   0.441  1.00  0.00     0.187 HD
ATOM     10  HN  UNL d   1       2.091   0.473   0.157  1.00  0.00     0.189 HD
ENDBRANCH   2   3
ENDBRANCH   1   2
BRANCH   1  11
ATOM     11  C   UNL d   1       2.499   4.452  -0.203  0.00  0.00    -0.048 A 
ATOM     12  C   UNL d   1       1.734   5.525   0.288  0.00  0.00     0.010 A 
ATOM     13  C   UNL d   1       2.200   6.841   0.199  0.00  0.00     0.036 A 
ATOM     14  C   UNL d   1       3.459   7.092  -0.357  0.00  0.00     0.102 A 
ATOM     15  C   UNL d   1       4.255   6.036  -0.813  0.00  0.00     0.036 A 
ATOM     16  C   UNL d   1       3.773   4.724  -0.731  0.00  0.00     0.010 A 
BRANCH  14  17
ATOM     17  N   UNL d   1       3.947   8.472  -0.456  0.00  0.00    -0.116 N 
ATOM     18  O   UNL d   1       3.200   9.379  -0.061  0.00  0.00    -0.532 OA
ATOM     19  O   UNL d   1       5.077   8.652  -0.934  0.00  0.00    -0.532 OA
ENDBRANCH  14  17
ENDBRANCH   1  11
TORSDOF 4
