REMARK  7 active torsions:
REMARK  status: ('A' for Active; 'I' for Inactive)
REMARK    1  A    between atoms: N_2  and  C_1 
REMARK    2  A    between atoms: C_3  and  C_6 
REMARK       I    between atoms: N_4  and  C_3 
REMARK    3  A    between atoms: C_10  and  N_4 
REMARK    4  A    between atoms: C_12  and  N_4 
REMARK    5  A    between atoms: S_8  and  C_7 
REMARK    6  A    between atoms: C_26  and  S_8 
REMARK    7  A    between atoms: C_20  and  C_12 
ROOT
ATOM      1  C   UNL d   1      -1.788  -2.319  -0.025  0.00  0.00     0.258 C 
ATOM      2  N   UNL d   1      -3.180  -2.300   0.158  0.00  0.00    -0.310 N 
ATOM      3  O   UNL d   1      -1.141  -1.280  -0.192  0.00  0.00    -0.267 OA
ENDROOT
BRANCH   1   4
ATOM      4  C   UNL d   1      -0.974  -3.578   0.089  0.00  0.00     0.035 A 
ATOM      5  C   UNL d   1       0.296  -3.591  -0.512  0.00  0.00     0.054 A 
ATOM      6  C   UNL d   1       1.138  -4.706  -0.361  0.00  0.00     0.120 A 
ATOM      7  C   UNL d   1       0.762  -5.829   0.385  0.00  0.00     0.038 A 
ATOM      8  C   UNL d   1      -0.505  -5.807   0.978  0.00  0.00     0.022 A 
ATOM      9  C   UNL d   1      -1.353  -4.688   0.855  0.00  0.00     0.018 A 
BRANCH   6  10
ATOM     10  N   UNL d   1       2.432  -4.641  -1.007  0.00  0.00    -0.114 N 
ATOM     11  O   UNL d   1       3.227  -3.792  -0.589  0.00  0.00    -0.532 OA
ATOM     12  O   UNL d   1       2.630  -5.414  -1.957  0.00  0.00    -0.532 OA
ENDBRANCH   6  10
BRANCH   7  13
ATOM     13  S   UNL d   1       1.770  -7.289   0.610  0.00  0.00    -0.088 SA
BRANCH  13  14
ATOM     14  C   UNL d   1       2.588  -6.922   2.151  0.00  0.00     0.005 A 
ATOM     15  C   UNL d   1       1.993  -7.273   3.369  0.00  0.00     0.019 A 
ATOM     16  C   UNL d   1       2.652  -7.024   4.576  0.00  0.00     0.001 A 
ATOM     17  C   UNL d   1       3.914  -6.434   4.573  0.00  0.00     0.000 A 
ATOM     18  C   UNL d   1       4.519  -6.095   3.364  0.00  0.00     0.001 A 
ATOM     19  C   UNL d   1       3.861  -6.341   2.156  0.00  0.00     0.019 A 
ENDBRANCH  13  14
ENDBRANCH   7  13
ENDBRANCH   1   4
BRANCH   2  20
ATOM     20  C   UNL d   1      -4.046  -3.410  -0.029  0.00  0.00     0.038 A 
ATOM     21  C   UNL d   1      -5.085  -3.631   0.889  0.00  0.00     0.033 A 
ATOM     22  C   UNL d   1      -5.985  -4.679   0.701  0.00  0.00     0.044 A 
ATOM     23  C   UNL d   1      -5.862  -5.489  -0.418  0.00  0.00     0.116 A 
ATOM     24  C   UNL d   1      -4.843  -5.283  -1.344  0.00  0.00     0.044 A 
ATOM     25  F   UNL d   1      -6.742  -6.481  -0.614  0.00  0.00    -0.206 F 
ATOM     26  C   UNL d   1      -3.927  -4.249  -1.144  0.00  0.00     0.033 A 
ENDBRANCH   2  20
BRANCH   2  27
ATOM     27  C   UNL d   1      -3.821  -0.972   0.288  0.00  0.00     0.171 C 
BRANCH  27  28
ATOM     28  C   UNL d   1      -4.108  -0.282  -1.036  0.00  0.00    -0.037 A 
ATOM     29  C   UNL d   1      -4.917  -0.884  -2.016  0.00  0.00     0.048 A 
ATOM     30  C   UNL d   1      -5.046  -0.254  -3.235  0.00  0.00     0.105 A 
ATOM     31  O   UNL d   1      -5.684  -0.758  -4.328  0.00  0.00    -0.323 OA
ATOM     32  C   UNL d   1      -4.476   0.972  -3.485  0.00  0.00     0.105 A 
ATOM     33  C   UNL d   1      -5.230   0.174  -5.332  0.00  0.00     0.352 C 
ATOM     34  O   UNL d   1      -4.686   1.384  -4.765  0.00  0.00    -0.323 OA
ATOM     35  C   UNL d   1      -3.757   1.642  -2.524  0.00  0.00     0.040 A 
ATOM     36  C   UNL d   1      -3.558   0.998  -1.297  0.00  0.00     0.012 A 
ENDBRANCH  27  28
ENDBRANCH   2  27
TORSDOF 7
