REMARK  3 active torsions:
REMARK  status: ('A' for Active; 'I' for Inactive)
REMARK    1  A    between atoms: C_9  and  C_3 
REMARK    2  A    between atoms: C_10  and  C_7 
REMARK    3  A    between atoms: O_15  and  C_9 
ROOT
ATOM      1  C   UNL d   1       0.096  -0.894  -0.042  0.00  0.00     0.030 A 
ATOM      2  C   UNL d   1      -0.117   0.451  -0.043  0.00  0.00     0.025 A 
ATOM      3  C   UNL d   1      -2.226  -0.841   0.020  0.00  0.00     0.088 A 
ATOM      4  C   UNL d   1      -1.111  -1.667  -0.008  0.00  0.00    -0.020 A 
ATOM      5  S   UNL d   1      -1.813   0.834  -0.063  0.00  0.00    -0.082 SA
ATOM      6  S   UNL d   1       1.793  -1.279  -0.085  0.00  0.00    -0.088 SA
ATOM      7  C   UNL d   1       2.209   0.388   0.008  0.00  0.00     0.017 A 
ATOM      8  C   UNL d   1       1.097   1.211  -0.020  0.00  0.00     0.040 A 
ATOM      9  C   UNL d   1      -1.014  -3.152  -0.014  0.00  0.00     0.051 C 
ENDROOT
BRANCH   7  10
ATOM     10  C   UNL d   1       3.635   0.764   0.063  0.00  0.00    -0.019 A 
ATOM     11  C   UNL d   1       4.105   1.888  -0.636  0.00  0.00     0.016 A 
ATOM     12  C   UNL d   1       5.460   2.235  -0.599  0.00  0.00     0.043 A 
ATOM     13  C   UNL d   1       6.349   1.464   0.138  0.00  0.00     0.116 A 
ATOM     14  C   UNL d   1       5.912   0.354   0.845  0.00  0.00     0.043 A 
ATOM     15  F   UNL d   1       7.647   1.795   0.166  0.00  0.00    -0.206 F 
ATOM     16  C   UNL d   1       4.559   0.010   0.813  0.00  0.00     0.016 A 
ENDBRANCH   7  10
BRANCH   3  17
ATOM     17  C   UNL d   1      -3.643  -1.174   0.089  0.00  0.00     0.300 C 
ATOM     18  O   UNL d   1      -4.575  -0.477  -0.293  0.00  0.00    -0.259 OA
BRANCH  17  19
ATOM     19  O   UNL d   1      -3.804  -2.400   0.671  0.00  0.00    -0.322 OA
ATOM     20  C   UNL d   1      -5.154  -2.854   0.747  0.00  0.00     0.213 C 
ENDBRANCH  17  19
ENDBRANCH   3  17
TORSDOF 3
