REMARK  2 active torsions:
REMARK  status: ('A' for Active; 'I' for Inactive)
REMARK    1  A    between atoms: S_8  and  C_4 
REMARK    2  A    between atoms: C_9  and  S_8 
ROOT
ATOM      1  S   UNL d   1      -1.434  -1.787  -0.040  0.00  0.00     0.177 S 
ATOM      2  C   UNL d   1      -2.685  -0.522   0.105  0.00  0.00     0.166 A 
ATOM      3  C   UNL d   1      -0.071  -0.708   0.034  0.00  0.00     0.066 A 
ATOM      4  C   UNL d   1      -1.973   0.843   0.144  0.00  0.00     0.101 A 
ATOM      5  C   UNL d   1      -0.475   0.621   0.118  0.00  0.00    -0.022 A 
ATOM      6  O   UNL d   1      -1.477  -2.346  -1.375  0.00  0.00    -0.223 OA
ATOM      7  O   UNL d   1      -1.426  -2.602   1.156  0.00  0.00    -0.223 OA
ATOM      8  C   UNL d   1       0.510   1.606   0.121  0.00  0.00     0.010 A 
ATOM      9  C   UNL d   1       1.254  -1.113  -0.011  0.00  0.00     0.024 A 
ATOM     10  C   UNL d   1       1.860   1.231   0.071  0.00  0.00     0.001 A 
ATOM     11  C   UNL d   1       2.231  -0.121   0.012  0.00  0.00     0.002 A 
ENDROOT
BRANCH   4  12
ATOM     12  S   UNL d   1      -2.472   1.807   1.633  0.00  0.00    -0.119 SA
BRANCH  12  13
ATOM     13  C   UNL d   1      -4.223   2.015   1.353  0.00  0.00     0.001 A 
ATOM     14  C   UNL d   1      -5.128   1.488   2.284  0.00  0.00     0.018 A 
ATOM     15  C   UNL d   1      -6.503   1.670   2.119  0.00  0.00     0.001 A 
ATOM     16  C   UNL d   1      -6.987   2.389   1.028  0.00  0.00     0.000 A 
ATOM     17  C   UNL d   1      -6.092   2.928   0.104  0.00  0.00     0.001 A 
ATOM     18  C   UNL d   1      -4.715   2.743   0.266  0.00  0.00     0.018 A 
ENDBRANCH  12  13
ENDBRANCH   4  12
TORSDOF 2
