REMARK  4 active torsions:
REMARK  status: ('A' for Active; 'I' for Inactive)
REMARK    1  A    between atoms: C_3  and  N_1 
REMARK    2  A    between atoms: C_2  and  C_9 
REMARK    3  A    between atoms: N_4  and  C_12 
REMARK    4  A    between atoms: O_21  and  C_7 
ROOT
ATOM      1  N   UNL d   1      -1.419   0.688   5.045  0.00  0.00    -0.364 N 
ATOM      2  HN  UNL d   1      -1.550  -0.160   5.598  1.00  0.00     0.165 HD
ATOM      3  C   UNL d   1      -1.789   1.841   5.507  0.00  0.00     0.102 C 
ENDROOT
BRANCH   1   4
ATOM      4  C   UNL d   1      -0.833   0.625   3.764  0.00  0.00     0.054 A 
ATOM      5  C   UNL d   1      -1.386  -0.308   2.874  0.00  0.00     0.034 A 
ATOM      6  C   UNL d   1      -0.849  -0.508   1.597  0.00  0.00     0.038 A 
ATOM      7  C   UNL d   1       0.262   0.239   1.196  0.00  0.00     0.104 A 
ATOM      8  C   UNL d   1       0.838   1.175   2.062  0.00  0.00     0.062 A 
ATOM      9  C   UNL d   1       0.304   1.350   3.345  0.00  0.00     0.063 A 
ATOM     10 CL   UNL d   1       1.135   2.453   4.391  0.00  0.00    -0.082 Cl
BRANCH   7  11
ATOM     11  N   UNL d   1       0.847   0.025  -0.134  0.00  0.00    -0.116 N 
ATOM     12  O   UNL d   1       1.802   0.739  -0.465  0.00  0.00    -0.532 OA
ATOM     13  O   UNL d   1       0.348  -0.861  -0.845  0.00  0.00    -0.532 OA
ENDBRANCH   7  11
ENDBRANCH   1   4
BRANCH   3  14
ATOM     14  C   UNL d   1      -2.415   1.974   6.840  0.00  0.00     0.016 A 
ATOM     15  C   UNL d   1      -2.485   3.224   7.460  0.00  0.00     0.099 A 
ATOM     16  C   UNL d   1      -3.103   3.346   8.710  0.00  0.00     0.069 A 
ATOM     17 CL   UNL d   1      -3.191   4.882   9.491  0.00  0.00    -0.081 Cl
ATOM     18  C   UNL d   1      -3.657   2.232   9.339  0.00  0.00     0.050 A 
ATOM     19  C   UNL d   1      -3.580   0.989   8.715  0.00  0.00     0.036 A 
ATOM     20  C   UNL d   1      -2.955   0.848   7.476  0.00  0.00     0.039 A 
ATOM     21 CL   UNL d   1      -4.274  -0.387   9.479  0.00  0.00    -0.084 Cl
BRANCH  15  22
ATOM     22  O   UNL d   1      -1.934   4.319   6.844  0.00  0.00    -0.358 OA
ATOM     23  H   UNL d   1      -2.018   5.078   7.453  0.00  0.00     0.217 HD
ENDBRANCH  15  22
ENDBRANCH   3  14
TORSDOF 4
