REMARK  7 active torsions:
REMARK  status: ('A' for Active; 'I' for Inactive)
REMARK    1  A    between atoms: C_11  and  N_1 
REMARK    2  A    between atoms: C_3  and  C_4 
REMARK    3  A    between atoms: C_8  and  C_3 
REMARK    4  A    between atoms: N_9  and  C_6 
REMARK    5  A    between atoms: O_15  and  C_8 
REMARK    6  A    between atoms: C_14  and  N_9 
REMARK    7  A    between atoms: C_25  and  O_15 
ROOT
ATOM      1  C   UNL d   1      -1.350  -2.154  -1.141  0.00  0.00     0.053 C 
ATOM      2  C   UNL d   1      -0.704  -2.744  -2.183  0.00  0.00     0.018 C 
ATOM      3  C   UNL d   1       0.815  -2.760  -2.240  0.00  0.00     0.069 C 
ENDROOT
BRANCH   1   4
ATOM      4  C   UNL d   1      -0.692  -1.306  -0.057  0.00  0.00     0.128 A 
ATOM      5  C   UNL d   1      -0.978  -1.851   1.333  0.00  0.00     0.240 A 
ATOM      6  N   UNL d   1      -1.583  -0.871   2.088  0.00  0.00    -0.252 N 
ATOM      7  O   UNL d   1      -0.698  -3.001   1.649  0.00  0.00    -0.272 OA
ATOM      8  C   UNL d   1      -1.703   0.311   1.389  0.00  0.00     0.232 A 
ATOM      9  C   UNL d   1      -1.157   0.138   0.001  0.00  0.00     0.123 A 
ATOM     10  O   UNL d   1      -2.083   1.406   1.788  0.00  0.00    -0.273 OA
BRANCH   6  11
ATOM     11  C   UNL d   1      -2.000  -1.030   3.445  0.00  0.00     0.045 A 
ATOM     12  C   UNL d   1      -1.404  -1.975   4.294  0.00  0.00     0.030 A 
ATOM     13  C   UNL d   1      -1.794  -2.092   5.635  0.00  0.00     0.002 A 
ATOM     14  C   UNL d   1      -2.806  -1.285   6.145  0.00  0.00     0.000 A 
ATOM     15  C   UNL d   1      -3.429  -0.362   5.314  0.00  0.00     0.002 A 
ATOM     16  C   UNL d   1      -3.025  -0.232   3.981  0.00  0.00     0.030 A 
ENDBRANCH   6  11
ENDBRANCH   1   4
BRANCH   1  17
ATOM     17  C   UNL d   1      -2.812  -2.371  -0.890  0.00  0.00     0.292 C 
ATOM     18  O   UNL d   1      -3.503  -1.542  -0.321  0.00  0.00    -0.260 OA
BRANCH  17  19
ATOM     19  O   UNL d   1      -3.157  -3.651  -1.156  0.00  0.00    -0.318 OA
BRANCH  19  20
ATOM     20  C   UNL d   1      -4.344  -4.139  -0.524  0.00  0.00     0.174 C 
ATOM     21  C   UNL d   1      -3.898  -4.938   0.684  0.00  0.00     0.034 C 
ENDBRANCH  19  20
ENDBRANCH  17  19
ENDBRANCH   1  17
BRANCH   2  22
ATOM     22  N   UNL d   1      -1.284  -3.479  -3.211  0.00  0.00    -0.359 N 
ATOM     23  H   UNL d   1      -0.678  -4.191  -3.614  0.00  0.00     0.166 HD
BRANCH  22  24
ATOM     24  C   UNL d   1      -2.279  -3.084  -4.134  0.00  0.00     0.032 A 
ATOM     25  C   UNL d   1      -2.815  -1.793  -4.203  0.00  0.00     0.032 A 
ATOM     26  C   UNL d   1      -3.839  -1.492  -5.110  0.00  0.00     0.044 A 
ATOM     27  C   UNL d   1      -4.341  -2.486  -5.940  0.00  0.00     0.116 A 
ATOM     28  C   UNL d   1      -3.841  -3.778  -5.881  0.00  0.00     0.044 A 
ATOM     29  F   UNL d   1      -5.324  -2.197  -6.803  0.00  0.00    -0.206 F 
ATOM     30  C   UNL d   1      -2.819  -4.074  -4.977  0.00  0.00     0.032 A 
ENDBRANCH  22  24
ENDBRANCH   2  22
TORSDOF 7
