REMARK  7 active torsions:
REMARK  status: ('A' for Active; 'I' for Inactive)
REMARK    1  A    between atoms: N_2  and  C_1 
REMARK    2  A    between atoms: C_3  and  C_1 
REMARK    3  A    between atoms: C_4  and  C_1 
REMARK    4  A    between atoms: N_5  and  C_1 
REMARK       I    between atoms: C_6  and  N_2 
REMARK    5  A    between atoms: C_7  and  N_5 
REMARK    6  A    between atoms: O_16  and  C_6 
REMARK    7  A    between atoms: C_20  and  O_16 
ROOT
ATOM      1  C   UNL d   1       0.860   0.222  -0.079  0.00  0.00     0.308 C 
ENDROOT
BRANCH   1   2
ATOM      2  N   UNL d   1       0.287   0.505  -1.390  0.00  0.00    -0.295 N 
ATOM      3  C   UNL d   1      -0.973   0.200  -1.740  0.00  0.00     0.362 C 
ATOM      4  O   UNL d   1      -1.823  -0.224  -0.975  0.00  0.00    -0.238 OA
ATOM      5  H   UNL d   1       0.922   0.789  -2.119  0.00  0.00     0.168 HD
BRANCH   3   6
ATOM      6  O   UNL d   1      -1.084   0.310  -3.081  0.00  0.00    -0.304 OA
BRANCH   6   7
ATOM      7  C   UNL d   1      -2.144  -0.448  -3.678  0.00  0.00     0.176 C 
ATOM      8  C   UNL d   1      -1.642  -1.863  -3.919  0.00  0.00     0.034 C 
ENDBRANCH   6   7
ENDBRANCH   3   6
ENDBRANCH   1   2
BRANCH   1   9
ATOM      9  C   UNL d   1       0.527  -1.213   0.479  0.00  0.00     0.441 C 
ATOM     10  F   UNL d   1       0.691  -2.152  -0.495  0.00  0.00    -0.166 F 
ATOM     11  F   UNL d   1       1.421  -1.542   1.455  0.00  0.00    -0.166 F 
ATOM     12  F   UNL d   1      -0.700  -1.396   0.994  0.00  0.00    -0.166 F 
ENDBRANCH   1   9
BRANCH   1  13
ATOM     13  C   UNL d   1       0.453   1.169   1.094  0.00  0.00     0.441 C 
ATOM     14  F   UNL d   1       0.054   2.392   0.664  0.00  0.00    -0.166 F 
ATOM     15  F   UNL d   1      -0.553   0.709   1.869  0.00  0.00    -0.166 F 
ATOM     16  F   UNL d   1       1.504   1.381   1.933  0.00  0.00    -0.166 F 
ENDBRANCH   1  13
BRANCH   1  17
ATOM     17  N   UNL d   1       2.346   0.218  -0.416  0.00  0.00    -0.346 N 
ATOM     18  H   UNL d   1       2.825  -0.489   0.148  0.00  0.00     0.163 HD
BRANCH  17  19
ATOM     19  C   UNL d   1       3.179   1.311  -0.636  0.00  0.00     0.069 A 
ATOM     20  C   UNL d   1       2.780   2.606  -0.984  0.00  0.00     0.142 A 
ATOM     21  F   UNL d   1       1.483   2.911  -1.111  0.00  0.00    -0.204 F 
ATOM     22  C   UNL d   1       3.701   3.624  -1.241  0.00  0.00     0.044 A 
ATOM     23  C   UNL d   1       5.065   3.354  -1.208  0.00  0.00     0.003 A 
ATOM     24  C   UNL d   1       5.497   2.063  -0.930  0.00  0.00     0.002 A 
ATOM     25  C   UNL d   1       4.564   1.057  -0.658  0.00  0.00     0.032 A 
ENDBRANCH  17  19
ENDBRANCH   1  17
TORSDOF 7
