REMARK  5 active torsions:
REMARK  status: ('A' for Active; 'I' for Inactive)
REMARK    1  A    between atoms: N_2  and  C_1 
REMARK    2  A    between atoms: C_7  and  N_2 
REMARK    3  A    between atoms: C_11  and  N_6 
REMARK    4  A    between atoms: C_8  and  C_10 
REMARK    5  A    between atoms: C_10  and  C_11 
ROOT
ATOM      1  C   UNL d   1       1.051   0.122   0.152  0.00  0.00     0.172 C 
ATOM      2  S   UNL d   1       0.158  -1.280   0.026  0.00  0.00    -0.041 SA
ATOM      3  N   UNL d   1       2.398   0.064   0.006  0.00  0.00    -0.367 N 
ATOM      4  H   UNL d   1       2.743  -0.844  -0.285  0.00  0.00     0.161 HD
ENDROOT
BRANCH   1   5
ATOM      5  N   UNL d   1       0.443   1.288   0.486  0.00  0.00    -0.333 N 
ATOM      6  H   UNL d   1      -0.455   1.169   0.943  0.00  0.00     0.168 HD
BRANCH   5   7
ATOM      7  C   UNL d   1       0.629   2.559  -0.098  0.00  0.00     0.034 A 
ATOM      8  C   UNL d   1       1.335   2.754  -1.289  0.00  0.00     0.031 A 
ATOM      9  C   UNL d   1       1.410   4.027  -1.864  0.00  0.00     0.026 A 
ATOM     10  C   UNL d   1       0.792   5.108  -1.241  0.00  0.00     0.034 A 
ATOM     11  C   UNL d   1       0.099   4.927  -0.046  0.00  0.00     0.026 A 
ATOM     12 CL   UNL d   1       0.871   6.670  -1.955  0.00  0.00    -0.084 Cl
ATOM     13  C   UNL d   1       0.005   3.651   0.515  0.00  0.00     0.031 A 
ENDBRANCH   5   7
ENDBRANCH   1   5
BRANCH   3  14
ATOM     14  C   UNL d   1       3.382   0.965   0.608  0.00  0.00     0.128 C 
BRANCH  14  15
ATOM     15  C   UNL d   1       4.238   0.254   1.659  0.00  0.00     0.076 C 
BRANCH  15  16
ATOM     16  C   UNL d   1       5.213   1.211   2.297  0.00  0.00     0.010 A 
ATOM     17  N   UNL d   1       6.013   1.915   1.460  0.00  0.00    -0.369 N 
ATOM     18  C   UNL d   1       6.884   2.788   2.012  0.00  0.00     0.088 A 
ATOM     19  HN  UNL d   1       5.960   1.790   0.449  1.00  0.00     0.165 HD
ATOM     20  C   UNL d   1       7.008   2.990   3.374  0.00  0.00     0.017 A 
ATOM     21  C   UNL d   1       6.195   2.250   4.223  0.00  0.00     0.003 A 
ATOM     22  C   UNL d   1       5.284   1.343   3.682  0.00  0.00     0.025 A 
ENDBRANCH  15  16
ENDBRANCH  14  15
ENDBRANCH   3  14
TORSDOF 5
