REMARK  4 active torsions:
REMARK  status: ('A' for Active; 'I' for Inactive)
REMARK    1  A    between atoms: N_2  and  C_1 
REMARK    2  A    between atoms: C_10  and  N_2 
REMARK    3  A    between atoms: C_12  and  N_6 
REMARK    4  A    between atoms: C_11  and  C_12 
ROOT
ATOM      1  C   UNL d   1       1.173  -0.358  -0.759  0.00  0.00     0.172 C 
ATOM      2  S   UNL d   1       1.052  -0.529  -2.417  0.00  0.00    -0.041 SA
ATOM      3  N   UNL d   1       2.190   0.253  -0.086  0.00  0.00    -0.363 N 
ATOM      4  H   UNL d   1       2.260   0.032   0.899  0.00  0.00     0.162 HD
ENDROOT
BRANCH   3   5
ATOM      5  C   UNL d   1       3.268   1.059  -0.639  0.00  0.00     0.160 C 
BRANCH   5   6
ATOM      6  C   UNL d   1       4.623   0.574  -0.184  0.00  0.00    -0.040 A 
ATOM      7  C   UNL d   1       5.183  -0.585  -0.750  0.00  0.00     0.018 A 
ATOM      8  C   UNL d   1       6.443  -0.987  -0.328  0.00  0.00    -0.022 A 
ATOM      9  C   UNL d   1       7.288  -2.102  -0.804  0.00  0.00     0.068 C 
ATOM     10  C   UNL d   1       7.139  -0.258   0.625  0.00  0.00     0.075 A 
ATOM     11  C   UNL d   1       8.354  -2.082   0.294  0.00  0.00     0.180 C 
ATOM     12  O   UNL d   1       8.380  -0.771   0.907  0.00  0.00    -0.350 OA
ATOM     13  C   UNL d   1       6.622   0.884   1.192  0.00  0.00     0.038 A 
ATOM     14  C   UNL d   1       5.348   1.296   0.790  0.00  0.00     0.011 A 
ENDBRANCH   5   6
ENDBRANCH   3   5
BRANCH   1  15
ATOM     15  N   UNL d   1       0.202  -0.938   0.012  0.00  0.00    -0.333 N 
ATOM     16  H   UNL d   1      -0.342  -1.637  -0.485  0.00  0.00     0.168 HD
BRANCH  15  17
ATOM     17  C   UNL d   1      -0.363  -0.496   1.228  0.00  0.00     0.034 A 
ATOM     18  C   UNL d   1      -0.163   0.787   1.746  0.00  0.00     0.031 A 
ATOM     19  C   UNL d   1      -0.850   1.203   2.892  0.00  0.00     0.026 A 
ATOM     20  C   UNL d   1      -1.734   0.335   3.526  0.00  0.00     0.034 A 
ATOM     21  C   UNL d   1      -1.936  -0.949   3.026  0.00  0.00     0.026 A 
ATOM     22 CL   UNL d   1      -2.602   0.860   4.914  0.00  0.00    -0.084 Cl
ATOM     23  C   UNL d   1      -1.258  -1.359   1.873  0.00  0.00     0.031 A 
ENDBRANCH  15  17
ENDBRANCH   1  15
TORSDOF 4
