REMARK  7 active torsions:
REMARK  status: ('A' for Active; 'I' for Inactive)
REMARK    1  A    between atoms: C_9  and  C_1 
REMARK       I    between atoms: C_2  and  N_3 
REMARK       I    between atoms: N_6  and  C_2 
REMARK    2  A    between atoms: N_12  and  C_4 
REMARK    3  A    between atoms: C_5  and  C_8 
REMARK    4  A    between atoms: C_11  and  N_6 
REMARK    5  A    between atoms: C_8  and  C_10 
REMARK    6  A    between atoms: O_26  and  C_9 
REMARK       I    between atoms: C_10  and  N_12 
REMARK    7  A    between atoms: O_30  and  C_19 
ROOT
ATOM      1  C   UNL d   1       1.303   0.513  -0.818  0.00  0.00     0.323 C 
ATOM      2  N   UNL d   1       0.719   1.175   0.243  0.00  0.00    -0.319 N 
ATOM      3  C   UNL d   1       0.564   2.696   0.179  0.00  0.00     0.184 C 
ATOM      4  N   UNL d   1       1.434  -0.830  -0.977  0.00  0.00    -0.306 N 
ATOM      5  C   UNL d   1       0.008   3.276   1.524  0.00  0.00     0.221 C 
ATOM      6  N   UNL d   1      -1.036   2.595   2.099  0.00  0.00    -0.260 NA
ATOM      7  O   UNL d   1       1.868   1.159  -1.710  0.00  0.00    -0.247 OA
ATOM      8  O   UNL d   1       0.363   4.319   2.066  0.00  0.00    -0.278 OA
ATOM      9  C   UNL d   1      -0.263   0.498   1.074  0.00  0.00     0.143 C 
ATOM     10  C   UNL d   1      -0.771   1.211   2.318  0.00  0.00     0.115 C 
ATOM     11  H   UNL d   1       2.147  -0.924  -1.692  0.00  0.00     0.171 HD
ATOM     12  H   UNL d   1      -1.368   3.107   2.912  0.00  0.00     0.130 HD
ENDROOT
BRANCH   3  13
ATOM     13  C   UNL d   1       1.813   3.550  -0.171  0.00  0.00     0.137 C 
BRANCH  13  14
ATOM     14  C   UNL d   1       1.425   5.049  -0.247  0.00  0.00     0.224 C 
ATOM     15  N   UNL d   1       2.251   5.853   0.524  0.00  0.00    -0.326 N 
ATOM     16  H   UNL d   1       2.990   5.362   1.005  0.00  0.00     0.169 HD
ATOM     17  O   UNL d   1       0.445   5.422  -0.880  0.00  0.00    -0.273 OA
BRANCH  15  18
ATOM     18  C   UNL d   1       1.880   7.041   1.185  0.00  0.00     0.058 A 
ATOM     19  C   UNL d   1       0.925   8.018   0.916  0.00  0.00     0.106 A 
ATOM     20  S   UNL d   1       0.822   9.160   2.229  0.00  0.00    -0.094 SA
ATOM     21  C   UNL d   1       2.042   8.396   3.113  0.00  0.00     0.053 A 
ATOM     22  C   UNL d   1       2.547   7.313   2.436  0.00  0.00     0.038 A 
BRANCH  19  23
ATOM     23  C   UNL d   1       0.004   8.326  -0.172  0.00  0.00     0.302 C 
ATOM     24  O   UNL d   1      -1.100   8.828  -0.021  0.00  0.00    -0.259 OA
BRANCH  23  25
ATOM     25  O   UNL d   1       0.620   8.189  -1.383  0.00  0.00    -0.322 OA
ATOM     26  C   UNL d   1      -0.148   8.671  -2.502  0.00  0.00     0.213 C 
ENDBRANCH  23  25
ENDBRANCH  19  23
ENDBRANCH  15  18
ENDBRANCH  13  14
ENDBRANCH   3  13
BRANCH   4  27
ATOM     27  C   UNL d   1       1.064  -2.119  -0.500  0.00  0.00     0.071 C 
ATOM     28  C   UNL d   1      -0.018  -2.435   0.311  0.00  0.00     0.056 C 
ATOM     29  C   UNL d   1      -0.122  -3.688   0.930  0.00  0.00     0.036 C 
ATOM     30 CL   UNL d   1      -1.320  -3.926   2.149  0.00  0.00    -0.084 Cl
ATOM     31  C   UNL d   1       0.750  -4.717   0.618  0.00  0.00     0.026 C 
ATOM     32  C   UNL d   1       1.722  -4.490  -0.355  0.00  0.00     0.041 C 
ATOM     33  C   UNL d   1       1.871  -3.209  -0.903  0.00  0.00     0.095 C 
BRANCH  33  34
ATOM     34  O   UNL d   1       2.944  -3.017  -1.749  0.00  0.00    -0.354 OA
ATOM     35  C   UNL d   1       2.558  -3.038  -3.127  0.00  0.00     0.210 C 
ENDBRANCH  33  34
ENDBRANCH   4  27
TORSDOF 7
