REMARK  4 active torsions:
REMARK  status: ('A' for Active; 'I' for Inactive)
REMARK    1  A    between atoms: N_4  and  C_1 
REMARK       I    between atoms: C_8  and  N_4 
REMARK    2  A    between atoms: C_11  and  C_8 
REMARK    3  A    between atoms: S_9  and  C_11 
REMARK    4  A    between atoms: C_12  and  S_9 
ROOT
ATOM      1  N   UNL d   1       4.149   0.792   0.603  0.00  0.00    -0.324 N 
ATOM      2  C   UNL d   1       3.762   2.041   0.158  0.00  0.00     0.231 C 
ATOM      3  O   UNL d   1       2.608   2.362  -0.125  0.00  0.00    -0.272 OA
ATOM      4  H   UNL d   1       5.152   0.654   0.720  0.00  0.00     0.169 HD
ENDROOT
BRANCH   1   5
ATOM      5  C   UNL d   1       3.348  -0.354   0.782  0.00  0.00     0.076 A 
ATOM      6  C   UNL d   1       1.957  -0.367   0.675  0.00  0.00     0.078 A 
ATOM      7  C   UNL d   1       1.264  -1.566   0.851  0.00  0.00     0.157 A 
ATOM      8  F   UNL d   1      -0.071  -1.572   0.747  0.00  0.00    -0.203 F 
ATOM      9  C   UNL d   1       1.944  -2.747   1.135  0.00  0.00     0.157 A 
ATOM     10  C   UNL d   1       3.325  -2.752   1.256  0.00  0.00     0.090 A 
ATOM     11  F   UNL d   1       1.267  -3.892   1.295  0.00  0.00    -0.203 F 
ATOM     12  C   UNL d   1       4.013  -1.555   1.085  0.00  0.00     0.146 A 
ATOM     13  F   UNL d   1       5.350  -1.557   1.199  0.00  0.00    -0.204 F 
ENDBRANCH   1   5
BRANCH   2  14
ATOM     14  C   UNL d   1       4.875   3.085   0.088  0.00  0.00     0.182 C 
BRANCH  14  15
ATOM     15  S   UNL d   1       6.530   2.345  -0.148  0.00  0.00    -0.121 SA
BRANCH  15  16
ATOM     16  C   UNL d   1       7.598   3.776  -0.101  0.00  0.00     0.001 A 
ATOM     17  C   UNL d   1       8.862   3.626   0.486  0.00  0.00     0.020 A 
ATOM     18  C   UNL d   1       9.776   4.684   0.500  0.00  0.00     0.020 A 
ATOM     19  C   UNL d   1       9.430   5.901  -0.080  0.00  0.00     0.011 A 
ATOM     20  C   UNL d   1       8.180   6.068  -0.667  0.00  0.00     0.020 A 
ATOM     21 BR   UNL d   1      10.672   7.324  -0.091  0.00  0.00    -0.051 Br
ATOM     22  C   UNL d   1       7.267   5.006  -0.681  0.00  0.00     0.020 A 
ENDBRANCH  15  16
ENDBRANCH  14  15
ENDBRANCH   2  14
TORSDOF 4
