REMARK  4 active torsions:
REMARK  status: ('A' for Active; 'I' for Inactive)
REMARK    1  A    between atoms: C_18  and  N_1 
REMARK    2  A    between atoms: C_4  and  C_3 
REMARK    3  A    between atoms: C_13  and  C_20 
REMARK    4  A    between atoms: C_20  and  C_18 
ROOT
ATOM      1  C   UNL d   1       4.145  -6.012  -0.083  0.00  0.00     0.200 A 
ATOM      2  N   UNL d   1       3.465  -4.948  -0.473  0.00  0.00    -0.321 N 
ATOM      3  HN  UNL d   1       2.638  -4.904  -1.068  1.00  0.00     0.169 HD
ATOM      4  N   UNL d   1       5.245  -4.286   0.792  0.00  0.00    -0.247 N 
ATOM      5  HN  UNL d   1       5.919  -3.693   1.276  1.00  0.00     0.196 HD
ATOM      6  C   UNL d   1       4.148  -3.919   0.121  0.00  0.00     0.105 A 
ATOM      7  O   UNL d   1       5.244  -5.680   0.667  0.00  0.00    -0.216 OA
ENDROOT
BRANCH   6   8
ATOM      8  C   UNL d   1       3.681  -2.512   0.048  0.00  0.00     0.099 C 
BRANCH   8   9
ATOM      9  C   UNL d   1       2.154  -2.425   0.011  0.00  0.00     0.142 C 
BRANCH   9  10
ATOM     10  N   UNL d   1       1.667  -1.068  -0.021  0.00  0.00    -0.290 N 
ATOM     11  C   UNL d   1       1.367  -0.292   1.081  0.00  0.00     0.372 A 
ATOM     12  O   UNL d   1       0.912   0.976   0.695  0.00  0.00    -0.259 OA
ATOM     13  O   UNL d   1       1.476  -0.637   2.249  0.00  0.00    -0.237 OA
ATOM     14  C   UNL d   1       0.972   0.906  -0.688  0.00  0.00     0.107 A 
ATOM     15  C   UNL d   1       1.431  -0.312  -1.145  0.00  0.00     0.073 A 
ATOM     16  C   UNL d   1       0.619   1.918  -1.554  0.00  0.00     0.040 A 
ATOM     17  C   UNL d   1       1.572  -0.591  -2.488  0.00  0.00     0.039 A 
ATOM     18  C   UNL d   1       1.224   0.419  -3.398  0.00  0.00    -0.060 A 
ATOM     19  C   UNL d   1       0.749   1.666  -2.924  0.00  0.00     0.009 A 
ATOM     20  C   UNL d   1       1.347   0.192  -4.878  0.00  0.00     0.048 C 
ENDBRANCH   9  10
ENDBRANCH   8   9
ENDBRANCH   6   8
BRANCH   1  21
ATOM     21  C   UNL d   1       3.724  -7.407  -0.396  0.00  0.00     0.110 A 
ATOM     22  N   UNL d   1       4.358  -8.495   0.059  0.00  0.00    -0.257 N 
ATOM     23  O   UNL d   1       3.633  -9.576  -0.421  0.00  0.00    -0.242 OA
ATOM     24  HN  UNL d   1       5.197  -8.523   0.637  1.00  0.00     0.195 HD
ATOM     25  C   UNL d   1       2.588  -9.125  -1.168  0.00  0.00     0.075 A 
ATOM     26  C   UNL d   1       2.604  -7.754  -1.185  0.00  0.00     0.070 A 
ATOM     27  C   UNL d   1       1.708 -10.145  -1.762  0.00  0.00     0.079 C 
ENDBRANCH   1  21
TORSDOF 4
