REMARK  3 active torsions:
REMARK  status: ('A' for Active; 'I' for Inactive)
REMARK    1  A    between atoms: N_7  and  C_1 
REMARK    2  A    between atoms: C_12  and  C_6 
REMARK       I    between atoms: C_8  and  N_7 
REMARK       I    between atoms: N_9  and  C_8 
REMARK    3  A    between atoms: C_10  and  N_9 
ROOT
ATOM      1  N   UNL d   1      -0.416  -2.258   0.046  0.00  0.00    -0.293 N 
ATOM      2  C   UNL d   1      -0.239  -3.317  -0.890  0.00  0.00     0.326 C 
ATOM      3  N   UNL d   1       0.681  -3.143  -1.884  0.00  0.00    -0.308 N 
ATOM      4  O   UNL d   1      -0.969  -4.271  -0.686  0.00  0.00    -0.247 OA
ATOM      5  H   UNL d   1      -1.242  -2.430   0.611  0.00  0.00     0.172 HD
ATOM      6  H   UNL d   1       1.320  -2.380  -1.792  0.00  0.00     0.170 HD
ENDROOT
BRANCH   1   7
ATOM      7  C   UNL d   1       0.308  -1.110   0.307  0.00  0.00     0.127 C 
ATOM      8  C   UNL d   1       1.590  -0.763  -0.052  0.00  0.00     0.077 C 
ATOM      9  C   UNL d   1       1.760   0.580   0.376  0.00  0.00     0.037 C 
ATOM     10  N   UNL d   1       0.707   0.984   1.094  0.00  0.00    -0.301 N 
ATOM     11  N   UNL d   1      -0.136  -0.056   1.077  0.00  0.00    -0.281 N 
ATOM     12  HN  UNL d   1       0.575   1.885   1.553  1.00  0.00     0.187 HD
ATOM     13  C   UNL d   1      -1.392   0.073   1.778  0.00  0.00     0.179 C 
BRANCH   9  14
ATOM     14  C   UNL d   1       2.884   1.559   0.084  0.00  0.00    -0.007 C 
ATOM     15  C   UNL d   1       4.028   0.909  -0.718  0.00  0.00     0.021 C 
ATOM     16  C   UNL d   1       2.318   2.724  -0.759  0.00  0.00     0.021 C 
ATOM     17  C   UNL d   1       3.471   2.116   1.395  0.00  0.00     0.021 C 
ENDBRANCH   9  14
ENDBRANCH   1   7
BRANCH   3  18
ATOM     18  C   UNL d   1       1.092  -4.178  -2.765  0.00  0.00     0.043 C 
ATOM     19  C   UNL d   1       0.221  -5.083  -3.407  0.00  0.00    -0.013 C 
ATOM     20  C   UNL d   1       0.789  -6.176  -4.097  0.00  0.00     0.042 C 
ATOM     21  C   UNL d   1      -1.272  -4.882  -3.460  0.00  0.00     0.052 C 
ATOM     22 CL   UNL d   1      -0.192  -7.387  -4.851  0.00  0.00    -0.084 Cl
ATOM     23  C   UNL d   1       2.173  -6.323  -4.209  0.00  0.00     0.024 C 
ATOM     24  C   UNL d   1       3.018  -5.359  -3.673  0.00  0.00     0.004 C 
ATOM     25  C   UNL d   1       2.479  -4.283  -2.970  0.00  0.00     0.030 C 
ENDBRANCH   3  18
TORSDOF 3
