REMARK  7 active torsions:
REMARK  status: ('A' for Active; 'I' for Inactive)
REMARK    1  A    between atoms: N_2  and  C_1 
REMARK    2  A    between atoms: N_6  and  C_1 
REMARK    3  A    between atoms: C_7  and  N_2 
REMARK    4  A    between atoms: C_11  and  N_2 
REMARK    5  A    between atoms: C_12  and  N_6 
REMARK    6  A    between atoms: C_8  and  C_12 
REMARK    7  A    between atoms: C_10  and  C_11 
ROOT
ATOM      1  N   UNL d   1       2.709   2.362  -4.818  0.00  0.00    -0.197 NA
ATOM      2  C   UNL d   1       2.243   1.658  -4.017  0.00  0.00     0.060 C 
ATOM      3  C   UNL d   1       1.676   0.759  -3.010  0.00  0.00     0.143 C 
ENDROOT
BRANCH   3   4
ATOM      4  C   UNL d   1       0.768   1.514  -2.035  0.00  0.00     0.139 C 
BRANCH   4   5
ATOM      5  N   UNL d   1       0.057   0.671  -1.046  0.00  0.00    -0.353 N 
BRANCH   5   6
ATOM      6  C   UNL d   1       0.786  -0.025  -0.097  0.00  0.00     0.170 C 
ATOM      7  S   UNL d   1       1.668  -1.417  -0.405  0.00  0.00    -0.041 SA
BRANCH   6   8
ATOM      8  N   UNL d   1       0.748   0.397   1.190  0.00  0.00    -0.364 N 
ATOM      9  H   UNL d   1       1.266  -0.199   1.825  0.00  0.00     0.162 HD
BRANCH   8  10
ATOM     10  C   UNL d   1       0.328   1.668   1.737  0.00  0.00     0.148 C 
BRANCH  10  11
ATOM     11  C   UNL d   1      -0.732   1.478   2.782  0.00  0.00    -0.018 C 
ATOM     12  C   UNL d   1      -1.421   0.360   3.060  0.00  0.00     0.008 C 
ENDBRANCH  10  11
ENDBRANCH   8  10
ENDBRANCH   6   8
ENDBRANCH   5   6
BRANCH   5  13
ATOM     13  C   UNL d   1      -1.435   0.559  -1.009  0.00  0.00     0.086 C 
ATOM     14  C   UNL d   1      -1.908  -0.879  -1.296  0.00  0.00     0.025 C 
ATOM     15  C   UNL d   1      -1.792  -1.224  -2.774  0.00  0.00     0.002 C 
ATOM     16  C   UNL d   1      -2.673  -0.310  -3.612  0.00  0.00     0.000 C 
ATOM     17  C   UNL d   1      -2.449   1.174  -3.333  0.00  0.00     0.002 C 
ATOM     18  C   UNL d   1      -2.276   1.539  -1.853  0.00  0.00     0.025 C 
ENDBRANCH   5  13
ENDBRANCH   4   5
ENDBRANCH   3   4
TORSDOF 7
