REMARK  4 active torsions:
REMARK  status: ('A' for Active; 'I' for Inactive)
REMARK       I    between atoms: N_2  and  C_1 
REMARK    1  A    between atoms: C_3  and  C_1 
REMARK    2  A    between atoms: C_4  and  N_2 
REMARK       I    between atoms: N_6  and  C_3 
REMARK    3  A    between atoms: C_15  and  N_6 
REMARK    4  A    between atoms: C_14  and  C_15 
ROOT
ATOM      1  C   UNL d   1       1.014   0.072   0.105  0.00  0.00     0.314 C 
ATOM      2  N   UNL d   1       0.440  -0.659   1.121  0.00  0.00    -0.317 N 
ATOM      3  O   UNL d   1       2.100   0.637   0.096  0.00  0.00    -0.262 OA
ATOM      4  H   UNL d   1      -0.357  -1.236   0.854  0.00  0.00     0.169 HD
ENDROOT
BRANCH   1   5
ATOM      5  C   UNL d   1       0.175   0.054  -1.189  0.00  0.00     0.309 C 
ATOM      6  N   UNL d   1       0.898   0.370  -2.314  0.00  0.00    -0.349 N 
ATOM      7  H   UNL d   1       1.856   0.674  -2.161  0.00  0.00     0.163 HD
ATOM      8  O   UNL d   1      -1.012  -0.238  -1.145  0.00  0.00    -0.262 OA
BRANCH   6   9
ATOM      9  C   UNL d   1       0.276   0.583  -3.597  0.00  0.00     0.163 C 
BRANCH   9  10
ATOM     10  C   UNL d   1       0.027   2.041  -3.834  0.00  0.00    -0.025 A 
ATOM     11  C   UNL d   1       0.975   2.837  -4.472  0.00  0.00     0.096 A 
ATOM     12  N   UNL d   1       0.823   4.161  -4.700  0.00  0.00    -0.375 N 
ATOM     13  C   UNL d   1      -0.323   4.724  -4.269  0.00  0.00     0.087 A 
ATOM     14  HN  UNL d   1       1.541   4.708  -5.176  1.00  0.00     0.164 HD
ATOM     15  C   UNL d   1      -1.327   4.026  -3.615  0.00  0.00     0.018 A 
ATOM     16  C   UNL d   1      -1.142   2.666  -3.392  0.00  0.00     0.011 A 
ENDBRANCH   9  10
ENDBRANCH   6   9
ENDBRANCH   1   5
BRANCH   2  17
ATOM     17  C   UNL d   1       0.983  -0.854   2.406  0.00  0.00     0.057 A 
ATOM     18  C   UNL d   1       0.645  -2.012   3.129  0.00  0.00     0.062 A 
ATOM     19  C   UNL d   1       1.191  -2.250   4.392  0.00  0.00     0.050 A 
ATOM     20 CL   UNL d   1      -0.400  -3.212   2.449  0.00  0.00    -0.082 Cl
ATOM     21  C   UNL d   1       2.045  -1.307   4.957  0.00  0.00     0.035 A 
ATOM     22  C   UNL d   1       2.359  -0.136   4.271  0.00  0.00     0.026 A 
ATOM     23 CL   UNL d   1       2.717  -1.590   6.515  0.00  0.00    -0.084 Cl
ATOM     24  C   UNL d   1       1.838   0.085   2.993  0.00  0.00     0.033 A 
ENDBRANCH   2  17
TORSDOF 4
