REMARK  4 active torsions:
REMARK  status: ('A' for Active; 'I' for Inactive)
REMARK    1  A    between atoms: C_2  and  S_1 
REMARK    2  A    between atoms: N_3  and  S_1 
REMARK    3  A    between atoms: C_9  and  N_3 
REMARK    4  A    between atoms: O_19  and  C_13 
ROOT
ATOM      1  S   UNL d   1       1.054  -0.120  -0.051  0.00  0.00     0.264 S 
ATOM      2  O   UNL d   1       0.330  -1.105   0.718  0.00  0.00    -0.200 OA
ATOM      3  O   UNL d   1       2.492  -0.247  -0.203  0.00  0.00    -0.200 OA
ENDROOT
BRANCH   1   4
ATOM      4  C   UNL d   1       0.717   1.509   0.607  0.00  0.00     0.096 A 
ATOM      5  C   UNL d   1      -0.483   1.892   1.220  0.00  0.00     0.031 A 
ATOM      6  C   UNL d   1      -0.594   3.185   1.769  0.00  0.00     0.043 A 
ATOM      7  I   UNL d   1      -2.233   0.742   1.347  0.00  0.00    -0.043 I 
ATOM      8  C   UNL d   1       0.468   4.084   1.692  0.00  0.00     0.035 A 
ATOM      9  C   UNL d   1       1.651   3.718   1.065  0.00  0.00     0.025 A 
ATOM     10 CL   UNL d   1       0.313   5.657   2.370  0.00  0.00    -0.084 Cl
ATOM     11  C   UNL d   1       1.778   2.435   0.531  0.00  0.00     0.028 A 
ENDBRANCH   1   4
BRANCH   1  12
ATOM     12  N   UNL d   1       0.367  -0.074  -1.575  0.00  0.00    -0.281 N 
ATOM     13  H   UNL d   1      -0.332  -0.780  -1.799  0.00  0.00     0.179 HD
BRANCH  12  14
ATOM     14  C   UNL d   1       0.895   0.772  -2.577  0.00  0.00     0.042 A 
ATOM     15  C   UNL d   1       2.009   0.395  -3.326  0.00  0.00     0.033 A 
ATOM     16  C   UNL d   1       2.526   1.264  -4.294  0.00  0.00     0.039 A 
ATOM     17  C   UNL d   1       1.927   2.508  -4.507  0.00  0.00     0.068 A 
ATOM     18  C   UNL d   1       0.781   2.853  -3.788  0.00  0.00     0.039 A 
ATOM     19  C   UNL d   1       0.265   1.988  -2.825  0.00  0.00     0.033 A 
BRANCH  17  20
ATOM     20  O   UNL d   1       2.345   3.438  -5.417  0.00  0.00    -0.356 OA
ATOM     21  C   UNL d   1       3.751   3.480  -5.639  0.00  0.00     0.210 C 
ENDBRANCH  17  20
ENDBRANCH  12  14
ENDBRANCH   1  12
TORSDOF 4
