REMARK  8 active torsions:
REMARK  status: ('A' for Active; 'I' for Inactive)
REMARK    1  A    between atoms: C_8  and  N_1 
REMARK    2  A    between atoms: S_7  and  C_2 
REMARK    3  A    between atoms: C_12  and  S_7 
REMARK    4  A    between atoms: C_9  and  C_12 
REMARK    5  A    between atoms: C_11  and  C_9 
REMARK    6  A    between atoms: O_18  and  C_19 
REMARK    7  A    between atoms: C_21  and  O_18 
REMARK    8  A    between atoms: C_27  and  C_21 
ROOT
ATOM      1  N   UNL d   1       0.929  -0.682  -0.055  0.00  0.00    -0.241 N 
ATOM      2  C   UNL d   1       0.889   0.678  -0.037  0.00  0.00     0.170 A 
ATOM      3  C   UNL d   1      -0.383  -1.087  -0.129  0.00  0.00     0.347 A 
ATOM      4  N   UNL d   1      -0.313   1.188  -0.048  0.00  0.00    -0.275 N 
ATOM      5  HN  UNL d   1      -0.580   2.172  -0.026  1.00  0.00     0.189 HD
ATOM      6  N   UNL d   1      -1.131   0.091  -0.097  0.00  0.00    -0.249 N 
ATOM      7  O   UNL d   1      -0.850  -2.211  -0.178  0.00  0.00    -0.245 OA
ATOM      8  H   UNL d   1      -2.140   0.149  -0.122  0.00  0.00     0.192 HD
ENDROOT
BRANCH   1   9
ATOM      9  C   UNL d   1       2.035  -1.538  -0.029  0.00  0.00     0.046 A 
ATOM     10  C   UNL d   1       2.260  -2.433  -1.080  0.00  0.00     0.033 A 
ATOM     11  C   UNL d   1       3.449  -3.166  -1.126  0.00  0.00     0.039 A 
ATOM     12  C   UNL d   1       4.392  -3.041  -0.104  0.00  0.00     0.069 A 
ATOM     13  C   UNL d   1       4.097  -2.257   1.012  0.00  0.00     0.039 A 
ATOM     14  C   UNL d   1       2.939  -1.482   1.035  0.00  0.00     0.033 A 
BRANCH  12  15
ATOM     15  O   UNL d   1       5.577  -3.703  -0.294  0.00  0.00    -0.347 OA
BRANCH  15  16
ATOM     16  C   UNL d   1       6.687  -3.128   0.402  0.00  0.00     0.214 C 
BRANCH  16  17
ATOM     17  C   UNL d   1       7.972  -3.443  -0.318  0.00  0.00    -0.034 A 
ATOM     18  C   UNL d   1       8.437  -2.593  -1.333  0.00  0.00     0.009 A 
ATOM     19  C   UNL d   1       9.655  -2.845  -1.963  0.00  0.00     0.001 A 
ATOM     20  C   UNL d   1      10.413  -3.954  -1.594  0.00  0.00     0.000 A 
ATOM     21  C   UNL d   1       9.948  -4.818  -0.603  0.00  0.00     0.001 A 
ATOM     22  C   UNL d   1       8.730  -4.568   0.030  0.00  0.00     0.009 A 
ENDBRANCH  16  17
ENDBRANCH  15  16
ENDBRANCH  12  15
ENDBRANCH   1   9
BRANCH   2  23
ATOM     23  S   UNL d   1       2.330   1.640  -0.103  0.00  0.00    -0.084 SA
BRANCH  23  24
ATOM     24  C   UNL d   1       1.619   3.284  -0.406  0.00  0.00     0.166 C 
BRANCH  24  25
ATOM     25  C   UNL d   1       2.677   4.334  -0.710  0.00  0.00     0.169 C 
ATOM     26  O   UNL d   1       3.880   4.093  -0.797  0.00  0.00    -0.291 OA
BRANCH  25  27
ATOM     27  C   UNL d   1       2.222   5.748  -0.932  0.00  0.00     0.011 A 
ATOM     28  C   UNL d   1       0.879   6.135  -0.810  0.00  0.00     0.017 A 
ATOM     29  C   UNL d   1       0.506   7.466  -1.035  0.00  0.00     0.025 A 
ATOM     30  C   UNL d   1       1.467   8.413  -1.383  0.00  0.00     0.034 A 
ATOM     31  C   UNL d   1       2.804   8.043  -1.505  0.00  0.00     0.025 A 
ATOM     32 CL   UNL d   1       0.998  10.043  -1.667  0.00  0.00    -0.084 Cl
ATOM     33  C   UNL d   1       3.179   6.714  -1.278  0.00  0.00     0.017 A 
ENDBRANCH  25  27
ENDBRANCH  24  25
ENDBRANCH  23  24
ENDBRANCH   2  23
TORSDOF 8
