REMARK  3 active torsions:
REMARK  status: ('A' for Active; 'I' for Inactive)
REMARK    1  A    between atoms: C_2  and  C_1 
REMARK       I    between atoms: N_8  and  C_2 
REMARK    2  A    between atoms: C_14  and  C_5 
REMARK    3  A    between atoms: C_12  and  N_8 
ROOT
ATOM      1  C   UNL d   1       0.174  -2.611  -0.016  0.00  0.00     0.261 C 
ATOM      2  N   UNL d   1      -0.893  -3.486  -0.153  0.00  0.00    -0.323 N 
ATOM      3  O   UNL d   1       1.346  -2.950   0.040  0.00  0.00    -0.267 OA
ATOM      4  H   UNL d   1      -1.798  -3.074  -0.301  0.00  0.00     0.169 HD
ENDROOT
BRANCH   1   5
ATOM      5  C   UNL d   1      -0.201  -1.194   0.037  0.00  0.00     0.093 C 
ATOM      6  C   UNL d   1       0.594  -0.045  -0.324  0.00  0.00     0.083 C 
ATOM      7  N   UNL d   1      -0.055   1.087   0.001  0.00  0.00    -0.259 N 
ATOM      8  O   UNL d   1      -1.291   0.718   0.448  0.00  0.00    -0.241 OA
ATOM      9  HN  UNL d   1       0.306   2.037  -0.073  1.00  0.00     0.195 HD
ATOM     10  C   UNL d   1      -1.407  -0.631   0.430  0.00  0.00     0.090 C 
ATOM     11  C   UNL d   1      -2.748  -1.120   0.811  0.00  0.00     0.080 C 
BRANCH   6  12
ATOM     12  C   UNL d   1       1.863   0.064  -1.055  0.00  0.00    -0.006 A 
ATOM     13  C   UNL d   1       2.701   1.175  -0.861  0.00  0.00     0.014 A 
ATOM     14  C   UNL d   1       3.823   1.378  -1.670  0.00  0.00     0.001 A 
ATOM     15  C   UNL d   1       4.125   0.470  -2.681  0.00  0.00     0.000 A 
ATOM     16  C   UNL d   1       3.313  -0.645  -2.876  0.00  0.00     0.001 A 
ATOM     17  C   UNL d   1       2.188  -0.845  -2.071  0.00  0.00     0.014 A 
ENDBRANCH   6  12
ENDBRANCH   1   5
BRANCH   2  18
ATOM     18  C   UNL d   1      -0.868  -4.895  -0.276  0.00  0.00     0.037 A 
ATOM     19  C   UNL d   1       0.278  -5.688  -0.189  0.00  0.00     0.069 A 
ATOM     20  C   UNL d   1       0.206  -7.058  -0.475  0.00  0.00     0.104 A 
ATOM     21  O   UNL d   1       1.373  -7.775  -0.419  0.00  0.00    -0.346 OA
ATOM     22  C   UNL d   1      -1.008  -7.652  -0.817  0.00  0.00     0.102 A 
ATOM     23  C   UNL d   1       1.330  -8.848  -1.362  0.00  0.00     0.202 C 
ATOM     24  C   UNL d   1       0.077  -9.698  -1.208  0.00  0.00     0.202 C 
ATOM     25  O   UNL d   1      -1.144  -8.953  -1.211  0.00  0.00    -0.346 OA
ATOM     26  C   UNL d   1      -2.169  -6.887  -0.811  0.00  0.00     0.042 A 
ATOM     27  C   UNL d   1      -2.099  -5.518  -0.543  0.00  0.00     0.032 A 
ENDBRANCH   2  18
TORSDOF 3
