REMARK  10 active torsions:
REMARK  status: ('A' for Active; 'I' for Inactive)
REMARK    1  A    between atoms: N_2  and  S_1 
REMARK    2  A    between atoms: C_3  and  S_1 
REMARK    3  A    between atoms: C_8  and  N_2 
REMARK       I    between atoms: C_6  and  N_7 
REMARK    4  A    between atoms: N_7  and  C_13 
REMARK    5  A    between atoms: C_12  and  C_8 
REMARK    6  A    between atoms: C_16  and  C_12 
REMARK    7  A    between atoms: O_24  and  C_12 
REMARK    8  A    between atoms: O_14  and  C_16 
REMARK    9  A    between atoms: C_15  and  O_14 
REMARK   10  A    between atoms: O_25  and  C_17 
ROOT
ATOM      1  N   UNL d   1       0.472  -1.429   0.553  0.00  0.00    -0.313 N 
ATOM      2  H   UNL d   1      -0.505  -1.298   0.807  0.00  0.00     0.172 HD
ENDROOT
BRANCH   1   3
ATOM      3  S   UNL d   1       1.153   0.014   0.004  0.00  0.00     0.258 S 
ATOM      4  O   UNL d   1       2.578  -0.055   0.171  0.00  0.00    -0.201 OA
ATOM      5  O   UNL d   1       0.352   1.073   0.579  0.00  0.00    -0.201 OA
BRANCH   3   6
ATOM      6  C   UNL d   1       0.787  -0.043  -1.738  0.00  0.00     0.079 A 
ATOM      7  C   UNL d   1      -0.408   0.478  -2.245  0.00  0.00     0.027 A 
ATOM      8  C   UNL d   1      -0.642   0.442  -3.629  0.00  0.00     0.031 A 
ATOM      9  C   UNL d   1       0.299  -0.136  -4.496  0.00  0.00     0.034 A 
ATOM     10  C   UNL d   1       1.482  -0.653  -3.961  0.00  0.00     0.031 A 
ATOM     11  C   UNL d   1       1.734  -0.601  -2.594  0.00  0.00     0.027 A 
BRANCH   9  12
ATOM     12  N   UNL d   1       0.038  -0.148  -5.885  0.00  0.00    -0.328 N 
ATOM     13  C   UNL d   1       0.696  -0.937  -6.816  0.00  0.00     0.218 C 
ATOM     14  O   UNL d   1       1.528  -1.807  -6.571  0.00  0.00    -0.274 OA
ATOM     15  C   UNL d   1       0.288  -0.682  -8.242  0.00  0.00     0.117 C 
ATOM     16  H   UNL d   1      -0.738   0.416  -6.208  0.00  0.00     0.169 HD
ENDBRANCH   9  12
ENDBRANCH   3   6
ENDBRANCH   1   3
BRANCH   1  17
ATOM     17  C   UNL d   1       0.912  -2.677  -0.083  0.00  0.00     0.166 C 
BRANCH  17  18
ATOM     18  C   UNL d   1       0.366  -3.942   0.588  0.00  0.00     0.161 C 
BRANCH  18  19
ATOM     19  C   UNL d   1      -1.169  -3.966   0.614  0.00  0.00     0.209 C 
BRANCH  19  20
ATOM     20  O   UNL d   1      -1.612  -5.180   1.223  0.00  0.00    -0.349 OA
BRANCH  20  21
ATOM     21  C   UNL d   1      -2.963  -5.373   1.295  0.00  0.00     0.069 A 
ATOM     22  C   UNL d   1      -3.941  -4.461   0.898  0.00  0.00     0.039 A 
ATOM     23  C   UNL d   1      -5.298  -4.778   1.025  0.00  0.00     0.039 A 
ATOM     24  C   UNL d   1      -5.689  -6.006   1.558  0.00  0.00     0.068 A 
ATOM     25  C   UNL d   1      -4.709  -6.917   1.956  0.00  0.00     0.039 A 
ATOM     26  C   UNL d   1      -3.355  -6.601   1.827  0.00  0.00     0.039 A 
BRANCH  24  27
ATOM     27  O   UNL d   1      -6.978  -6.422   1.744  0.00  0.00    -0.356 OA
ATOM     28  C   UNL d   1      -8.001  -5.520   1.343  0.00  0.00     0.210 C 
ENDBRANCH  24  27
ENDBRANCH  20  21
ENDBRANCH  19  20
ENDBRANCH  18  19
BRANCH  18  29
ATOM     29  O   UNL d   1       0.867  -5.072  -0.148  0.00  0.00    -0.392 OA
ATOM     30  H   UNL d   1       0.475  -5.066  -1.038  0.00  0.00     0.210 HD
ENDBRANCH  18  29
ENDBRANCH  17  18
ENDBRANCH   1  17
TORSDOF 10
