REMARK  4 active torsions:
REMARK  status: ('A' for Active; 'I' for Inactive)
REMARK    1  A    between atoms: S_15  and  C_6 
REMARK    2  A    between atoms: C_20  and  C_10 
REMARK    3  A    between atoms: C_12  and  S_15 
REMARK    4  A    between atoms: C_19  and  C_16 
ROOT
ATOM      1  N   UNL d   1      -0.163  -0.607   0.073  0.00  0.00    -0.243 N 
ATOM      2  C   UNL d   1      -0.163   0.786   0.050  0.00  0.00     0.129 A 
ATOM      3  N   UNL d   1      -1.439  -1.093   0.037  0.00  0.00    -0.292 N 
ATOM      4  HN  UNL d   1      -1.725  -2.072   0.026  1.00  0.00     0.187 HD
ATOM      5  C   UNL d   1       1.047  -1.328   0.103  0.00  0.00     0.051 A 
ATOM      6  C   UNL d   1       2.220  -0.648   0.107  0.00  0.00     0.055 A 
ATOM      7  N   UNL d   1       0.981   1.522   0.001  0.00  0.00    -0.344 N 
ATOM      8  HN  UNL d   1       0.958   2.541  -0.027  1.00  0.00     0.167 HD
ATOM      9  C   UNL d   1      -1.477   1.175   0.037  0.00  0.00     0.082 A 
ATOM     10  C   UNL d   1      -2.239  -0.015   0.017  0.00  0.00     0.062 A 
ATOM     11  C   UNL d   1       2.106   0.865  -0.009  0.00  0.00     0.026 A 
ATOM     12  C   UNL d   1       0.956  -2.832   0.110  0.00  0.00     0.072 C 
ATOM     13  C   UNL d   1       3.344   1.727  -0.175  0.00  0.00     0.070 C 
ENDROOT
BRANCH   6  14
ATOM     14  S   UNL d   1       3.770  -1.422   0.055  0.00  0.00    -0.050 SA
BRANCH  14  15
ATOM     15  C   UNL d   1       4.487  -1.030   1.638  0.00  0.00     0.149 A 
ATOM     16  N   UNL d   1       5.623  -1.686   1.950  0.00  0.00    -0.336 N 
ATOM     17  C   UNL d   1       6.242  -1.372   3.112  0.00  0.00     0.047 A 
ATOM     18  HN  UNL d   1       6.005  -2.398   1.328  1.00  0.00     0.168 HD
ATOM     19  C   UNL d   1       5.727  -0.405   3.956  0.00  0.00     0.047 A 
ATOM     20  C   UNL d   1       4.559   0.202   3.554  0.00  0.00     0.092 A 
ATOM     21  N   UNL d   1       3.921  -0.091   2.408  0.00  0.00    -0.346 N 
ATOM     22  HN  UNL d   1       3.055   0.376   2.140  1.00  0.00     0.167 HD
BRANCH  17  23
ATOM     23  C   UNL d   1       7.466  -2.136   3.427  0.00  0.00     0.006 A 
ATOM     24  C   UNL d   1       8.510  -1.617   4.200  0.00  0.00     0.101 A 
ATOM     25  N   UNL d   1       9.633  -2.291   4.562  0.00  0.00    -0.374 N 
ATOM     26  C   UNL d   1       9.745  -3.559   4.122  0.00  0.00     0.087 A 
ATOM     27  HN  UNL d   1      10.355  -1.858   5.138  1.00  0.00     0.164 HD
ATOM     28  C   UNL d   1       8.793  -4.177   3.332  0.00  0.00     0.018 A 
ATOM     29  C   UNL d   1       7.650  -3.455   2.982  0.00  0.00     0.016 A 
ENDBRANCH  17  23
ENDBRANCH  14  15
ENDBRANCH   6  14
BRANCH  10  30
ATOM     30  C   UNL d   1      -3.701  -0.115  -0.057  0.00  0.00    -0.008 A 
ATOM     31  C   UNL d   1      -4.512   0.901   0.476  0.00  0.00     0.014 A 
ATOM     32  C   UNL d   1      -5.903   0.847   0.353  0.00  0.00     0.001 A 
ATOM     33  C   UNL d   1      -6.502  -0.225  -0.305  0.00  0.00     0.000 A 
ATOM     34  C   UNL d   1      -5.712  -1.247  -0.828  0.00  0.00     0.001 A 
ATOM     35  C   UNL d   1      -4.319  -1.196  -0.701  0.00  0.00     0.014 A 
ENDBRANCH  10  30
TORSDOF 4
