REMARK  3 active torsions:
REMARK  status: ('A' for Active; 'I' for Inactive)
REMARK    1  A    between atoms: C_2  and  C_3 
REMARK       I    between atoms: N_7  and  C_2 
REMARK    2  A    between atoms: C_6  and  C_12 
REMARK    3  A    between atoms: C_14  and  N_7 
ROOT
ATOM      1  C   UNL d   1       5.881  -1.715   0.035  0.00  0.00     0.245 C 
ATOM      2  N   UNL d   1       7.067  -1.200  -0.441  0.00  0.00    -0.324 N 
ATOM      3  O   UNL d   1       5.721  -2.822   0.537  0.00  0.00    -0.268 OA
ATOM      4  H   UNL d   1       7.097  -0.217  -0.683  0.00  0.00     0.169 HD
ENDROOT
BRANCH   1   5
ATOM      5  C   UNL d   1       4.726  -0.778  -0.113  0.00  0.00     0.075 C 
ATOM      6  C   UNL d   1       3.527  -1.165   0.352  0.00  0.00     0.017 C 
BRANCH   6   7
ATOM      7  C   UNL d   1       2.278  -0.400   0.233  0.00  0.00    -0.033 A 
ATOM      8  C   UNL d   1       1.337  -0.487   1.272  0.00  0.00     0.051 A 
ATOM      9  C   UNL d   1       0.154   0.212   1.143  0.00  0.00     0.105 A 
ATOM     10  C   UNL d   1      -0.127   0.960   0.025  0.00  0.00     0.105 A 
ATOM     11  O   UNL d   1      -0.848   0.257   2.062  0.00  0.00    -0.323 OA
ATOM     12  O   UNL d   1      -1.338   1.573   0.102  0.00  0.00    -0.323 OA
ATOM     13  C   UNL d   1       0.754   1.042  -1.030  0.00  0.00     0.040 A 
ATOM     14  C   UNL d   1      -1.758   1.177   1.424  0.00  0.00     0.352 A 
ATOM     15  C   UNL d   1       1.967   0.352  -0.922  0.00  0.00     0.014 A 
ENDBRANCH   6   7
ENDBRANCH   1   5
BRANCH   2  16
ATOM     16  C   UNL d   1       8.268  -1.925  -0.637  0.00  0.00     0.035 A 
ATOM     17  C   UNL d   1       8.348  -3.318  -0.530  0.00  0.00     0.031 A 
ATOM     18  C   UNL d   1       9.542  -3.993  -0.811  0.00  0.00     0.021 A 
ATOM     19  C   UNL d   1      10.669  -3.274  -1.192  0.00  0.00     0.011 A 
ATOM     20  C   UNL d   1      10.615  -1.885  -1.282  0.00  0.00     0.021 A 
ATOM     21 BR   UNL d   1      12.267  -4.190  -1.609  0.00  0.00    -0.051 Br
ATOM     22  C   UNL d   1       9.416  -1.214  -1.008  0.00  0.00     0.031 A 
ENDBRANCH   2  16
TORSDOF 3
