REMARK  6 active torsions:
REMARK  status: ('A' for Active; 'I' for Inactive)
REMARK    1  A    between atoms: C_11  and  C_1 
REMARK    2  A    between atoms: C_13  and  C_2 
REMARK    3  A    between atoms: C_3  and  O_10 
REMARK       I    between atoms: N_4  and  C_3 
REMARK    4  A    between atoms: C_7  and  N_4 
REMARK    5  A    between atoms: O_10  and  N_5 
REMARK    6  A    between atoms: C_12  and  C_15 
ROOT
ATOM      1  N   UNL d   1      -5.371  -0.220  -1.028  0.00  0.00    -0.267 N 
ATOM      2  HN  UNL d   1      -4.965  -1.154  -0.977  1.00  0.00     0.194 HD
ATOM      3  C   UNL d   1      -6.488   0.147  -0.460  0.00  0.00     0.126 C 
ENDROOT
BRANCH   3   4
ATOM      4  C   UNL d   1      -7.086   1.510  -0.377  0.00  0.00    -0.019 A 
ATOM      5  C   UNL d   1      -8.481   1.634  -0.398  0.00  0.00     0.014 A 
ATOM      6  C   UNL d   1      -9.070   2.906  -0.357  0.00  0.00     0.021 A 
ATOM      7  C   UNL d   1      -8.273   4.053  -0.285  0.00  0.00     0.018 A 
ATOM      8  C   UNL d   1      -6.887   3.926  -0.218  0.00  0.00     0.021 A 
ATOM      9  C   UNL d   1      -6.298   2.659  -0.244  0.00  0.00     0.014 A 
BRANCH   7  10
ATOM     10  C   UNL d   1      -8.872   5.352  -0.289  0.00  0.00    -0.061 C 
ATOM     11  C   UNL d   1      -9.366   6.446  -0.298  0.00  0.00    -0.061 C 
BRANCH  11  12
ATOM     12  C   UNL d   1      -9.959   7.749  -0.299  0.00  0.00     0.018 A 
ATOM     13  C   UNL d   1     -11.348   7.881  -0.255  0.00  0.00     0.020 A 
ATOM     14  C   UNL d   1     -11.931   9.150  -0.229  0.00  0.00     0.001 A 
ATOM     15  C   UNL d   1     -11.125  10.288  -0.250  0.00  0.00     0.000 A 
ATOM     16  C   UNL d   1      -9.737  10.159  -0.306  0.00  0.00     0.001 A 
ATOM     17  C   UNL d   1      -9.152   8.890  -0.332  0.00  0.00     0.020 A 
ENDBRANCH  11  12
ENDBRANCH   7  10
ENDBRANCH   3   4
BRANCH   1  18
ATOM     18  O   UNL d   1      -4.809   0.871  -1.720  0.00  0.00    -0.181 OA
BRANCH  18  19
ATOM     19  C   UNL d   1      -3.525   0.692  -2.181  0.00  0.00     0.387 C 
ATOM     20  N   UNL d   1      -3.014  -0.579  -2.036  0.00  0.00    -0.301 N 
ATOM     21  H   UNL d   1      -3.692  -1.239  -1.670  0.00  0.00     0.171 HD
ATOM     22  O   UNL d   1      -2.956   1.645  -2.708  0.00  0.00    -0.236 OA
BRANCH  20  23
ATOM     23  C   UNL d   1      -1.774  -1.031  -2.539  0.00  0.00     0.038 A 
ATOM     24  C   UNL d   1      -0.760  -0.160  -2.956  0.00  0.00     0.053 A 
ATOM     25  C   UNL d   1       0.399  -0.653  -3.558  0.00  0.00     0.036 A 
ATOM     26 CL   UNL d   1       1.610   0.442  -4.104  0.00  0.00    -0.084 Cl
ATOM     27  C   UNL d   1       0.575  -2.021  -3.734  0.00  0.00     0.024 A 
ATOM     28  C   UNL d   1      -0.402  -2.901  -3.272  0.00  0.00     0.004 A 
ATOM     29  C   UNL d   1      -1.566  -2.410  -2.665  0.00  0.00     0.029 A 
ENDBRANCH  20  23
ENDBRANCH  18  19
ENDBRANCH   1  18
TORSDOF 6
