REMARK  2 active torsions:
REMARK  status: ('A' for Active; 'I' for Inactive)
REMARK    1  A    between atoms: C_7  and  C_2 
REMARK    2  A    between atoms: O_17  and  C_12 
ROOT
ATOM      1  N   UNL d   1      -1.644  -1.755  -0.395  0.00  0.00    -0.260 NA
ATOM      2  C   UNL d   1      -2.403  -0.563   0.033  0.00  0.00     0.239 A 
ATOM      3  O   UNL d   1      -1.530   0.576   0.270  0.00  0.00    -0.324 OA
ATOM      4  C   UNL d   1      -0.326  -1.272  -0.300  0.00  0.00     0.046 A 
ATOM      5  C   UNL d   1      -0.282   0.069   0.035  0.00  0.00     0.092 A 
ATOM      6  C   UNL d   1       0.836  -1.987  -0.508  0.00  0.00     0.050 A 
ATOM      7  C   UNL d   1       0.902   0.766   0.156  0.00  0.00     0.040 A 
ATOM      8  C   UNL d   1       2.051  -1.307  -0.382  0.00  0.00     0.035 A 
ATOM      9  C   UNL d   1       2.088   0.061  -0.060  0.00  0.00     0.026 A 
ATOM     10 CL   UNL d   1       3.528  -2.161  -0.618  0.00  0.00    -0.084 Cl
ATOM     11  H   UNL d   1      -1.774  -2.541   0.238  0.00  0.00     0.130 HD
ENDROOT
BRANCH   2  12
ATOM     12  C   UNL d   1      -3.229  -0.905   1.264  0.00  0.00    -0.015 A 
ATOM     13  C   UNL d   1      -2.712  -0.768   2.560  0.00  0.00     0.014 A 
ATOM     14  C   UNL d   1      -3.455  -1.181   3.669  0.00  0.00     0.037 A 
ATOM     15  C   UNL d   1      -4.722  -1.745   3.510  0.00  0.00     0.068 A 
ATOM     16  C   UNL d   1      -5.251  -1.876   2.226  0.00  0.00     0.037 A 
ATOM     17  C   UNL d   1      -4.507  -1.466   1.113  0.00  0.00     0.014 A 
BRANCH  15  18
ATOM     18  O   UNL d   1      -5.325  -2.133   4.674  0.00  0.00    -0.356 OA
ATOM     19  C   UNL d   1      -6.600  -2.752   4.567  0.00  0.00     0.210 C 
ENDBRANCH  15  18
ENDBRANCH   2  12
TORSDOF 2
