REMARK  6 active torsions:
REMARK  status: ('A' for Active; 'I' for Inactive)
REMARK    1  A    between atoms: C_4  and  S_1 
REMARK    2  A    between atoms: N_9  and  S_1 
REMARK    3  A    between atoms: S_2  and  N_3 
REMARK    4  A    between atoms: C_7  and  S_2 
REMARK    5  A    between atoms: N_3  and  C_6 
REMARK    6  A    between atoms: C_5  and  C_10 
ROOT
ATOM      1  N   UNL d   1      -2.346  -3.725  -1.654  0.00  0.00    -0.280 N 
ATOM      2  H   UNL d   1      -3.193  -3.539  -1.124  0.00  0.00     0.179 HD
ENDROOT
BRANCH   1   3
ATOM      3  S   UNL d   1      -2.583  -3.877  -3.314  0.00  0.00     0.263 S 
ATOM      4  O   UNL d   1      -1.768  -4.971  -3.804  0.00  0.00    -0.200 OA
ATOM      5  O   UNL d   1      -4.021  -3.874  -3.502  0.00  0.00    -0.200 OA
BRANCH   3   6
ATOM      6  C   UNL d   1      -1.956  -2.368  -4.022  0.00  0.00     0.080 A 
ATOM      7  C   UNL d   1      -2.804  -1.273  -4.251  0.00  0.00     0.041 A 
ATOM      8  C   UNL d   1      -2.285  -0.081  -4.794  0.00  0.00     0.049 A 
ATOM      9  C   UNL d   1      -0.921  -0.025  -5.130  0.00  0.00     0.016 A 
ATOM     10  C   UNL d   1      -0.095  -1.135  -4.950  0.00  0.00     0.002 A 
ATOM     11  C   UNL d   1      -0.611  -2.310  -4.405  0.00  0.00     0.025 A 
BRANCH   8  12
ATOM     12  C   UNL d   1      -3.149   1.143  -5.000  0.00  0.00     0.417 C 
ATOM     13  F   UNL d   1      -4.454   0.948  -4.661  0.00  0.00    -0.166 F 
ATOM     14  F   UNL d   1      -2.728   2.204  -4.258  0.00  0.00    -0.166 F 
ATOM     15  F   UNL d   1      -3.158   1.571  -6.292  0.00  0.00    -0.166 F 
ENDBRANCH   8  12
ENDBRANCH   3   6
ENDBRANCH   1   3
BRANCH   1  16
ATOM     16  C   UNL d   1      -1.081  -3.435  -1.072  0.00  0.00     0.050 A 
ATOM     17  C   UNL d   1      -0.728  -2.093  -0.903  0.00  0.00     0.055 A 
ATOM     18  C   UNL d   1       0.463  -1.761  -0.245  0.00  0.00     0.081 A 
ATOM     19  C   UNL d   1       1.320  -2.756   0.220  0.00  0.00     0.026 A 
ATOM     20  C   UNL d   1       0.954  -4.090   0.076  0.00  0.00     0.010 A 
ATOM     21  C   UNL d   1      -0.256  -4.448  -0.550  0.00  0.00    -0.035 A 
ATOM     22  C   UNL d   1      -0.607  -5.909  -0.612  0.00  0.00     0.050 C 
BRANCH  18  23
ATOM     23  S   UNL d   1       0.930  -0.051  -0.051  0.00  0.00     0.260 S 
ATOM     24  O   UNL d   1       0.255   0.693  -1.086  0.00  0.00    -0.200 OA
ATOM     25  O   UNL d   1       2.372  -0.017   0.086  0.00  0.00    -0.200 OA
BRANCH  23  26
ATOM     26  N   UNL d   1       0.245   0.365   1.452  0.00  0.00    -0.315 N 
ATOM     27  C   UNL d   1      -1.219   0.501   1.502  0.00  0.00     0.162 C 
ATOM     28  C   UNL d   1       0.819  -0.260   2.656  0.00  0.00     0.162 C 
ENDBRANCH  23  26
ENDBRANCH  18  23
ENDBRANCH   1  16
TORSDOF 6
