REMARK  1 active torsions:
REMARK  status: ('A' for Active; 'I' for Inactive)
REMARK    1  A    between atoms: C_11  and  N_3 
ROOT
ATOM      1  C   UNL d   1      -1.386   0.006  -0.005  0.00  0.00     0.329 A 
ATOM      2  N   UNL d   1      -0.664   1.170   0.069  0.00  0.00    -0.274 N 
ATOM      3  N   UNL d   1      -0.629  -1.166  -0.052  0.00  0.00    -0.304 N 
ATOM      4  C   UNL d   1       1.452   0.026  -0.066  0.00  0.00     0.128 A 
ATOM      5  C   UNL d   1       0.758  -1.120  -0.078  0.00  0.00     0.124 A 
ATOM      6  C   UNL d   1       0.695   1.292  -0.023  0.00  0.00     0.271 A 
ATOM      7  C   UNL d   1       2.868   0.043  -0.106  0.00  0.00     0.106 C 
ATOM      8  N   UNL d   1       4.028  -0.011  -0.137  0.00  0.00    -0.191 NA
ATOM      9  O   UNL d   1      -2.612   0.055  -0.033  0.00  0.00    -0.246 OA
ATOM     10  O   UNL d   1       1.239   2.389  -0.075  0.00  0.00    -0.266 OA
ATOM     11  H   UNL d   1      -1.200   2.024   0.085  0.00  0.00     0.173 HD
ENDROOT
BRANCH   3  12
ATOM     12  C   UNL d   1      -1.296  -2.488  -0.124  0.00  0.00     0.086 C 
ATOM     13  C   UNL d   1      -2.203  -2.762   1.079  0.00  0.00     0.032 C 
ATOM     14  C   UNL d   1      -2.049  -2.687  -1.441  0.00  0.00     0.032 C 
ENDBRANCH   3  12
TORSDOF 1
