REMARK  1 active torsions:
REMARK  status: ('A' for Active; 'I' for Inactive)
REMARK    1  A    between atoms: C_5  and  C_3 
ROOT
ATOM      1  C   UNL d   1      -2.068   0.323   0.006  0.00  0.00    -0.006 C 
ATOM      2  C   UNL d   1      -1.085  -0.805  -0.011  0.00  0.00     0.189 C 
ATOM      3  C   UNL d   1      -3.272   0.124  -0.557  0.00  0.00     0.023 C 
ATOM      4  C   UNL d   1       0.356  -0.416   0.003  0.00  0.00     0.021 A 
ATOM      5  C   UNL d   1       0.738   0.939  -0.041  0.00  0.00    -0.044 A 
ATOM      6  C   UNL d   1      -1.570   1.588   0.643  0.00  0.00     0.047 C 
ATOM      7  O   UNL d   1      -1.435  -1.978  -0.042  0.00  0.00    -0.287 OA
ATOM      8  C   UNL d   1      -0.296   2.035  -0.064  0.00  0.00     0.044 C 
ATOM      9  C   UNL d   1       1.332  -1.418   0.025  0.00  0.00     0.016 A 
ATOM     10  C   UNL d   1       2.098   1.267  -0.106  0.00  0.00     0.008 A 
ATOM     11  C   UNL d   1       2.685  -1.077  -0.017  0.00  0.00     0.001 A 
ATOM     12  C   UNL d   1       3.066   0.262  -0.091  0.00  0.00     0.001 A 
ENDROOT
BRANCH   3  13
ATOM     13  C   UNL d   1      -4.292   1.182  -0.621  0.00  0.00    -0.025 A 
ATOM     14  C   UNL d   1      -5.278   1.331   0.390  0.00  0.00    -0.016 A 
ATOM     15  C   UNL d   1      -6.154   2.441   0.321  0.00  0.00    -0.025 A 
ATOM     16  C   UNL d   1      -5.426   0.432   1.470  0.00  0.00     0.013 A 
ATOM     17  C   UNL d   1      -7.134   2.616   1.312  0.00  0.00     0.012 A 
ATOM     18  C   UNL d   1      -6.035   3.362  -0.733  0.00  0.00     0.012 A 
ATOM     19  C   UNL d   1      -7.263   1.709   2.363  0.00  0.00     0.001 A 
ATOM     20  C   UNL d   1      -6.409   0.617   2.442  0.00  0.00     0.001 A 
ATOM     21  C   UNL d   1      -5.076   3.191  -1.730  0.00  0.00     0.002 A 
ATOM     22  C   UNL d   1      -4.211   2.103  -1.676  0.00  0.00     0.012 A 
ENDBRANCH   3  13
TORSDOF 1
