REMARK  7 active torsions:
REMARK  status: ('A' for Active; 'I' for Inactive)
REMARK    1  A    between atoms: S_9  and  C_1 
REMARK    2  A    between atoms: C_10  and  C_4 
REMARK       I    between atoms: C_5  and  N_6 
REMARK    3  A    between atoms: C_14  and  C_5 
REMARK    4  A    between atoms: N_6  and  C_11 
REMARK    5  A    between atoms: C_13  and  S_9 
REMARK    6  A    between atoms: O_20  and  C_10 
REMARK    7  A    between atoms: O_24  and  C_21 
ROOT
ATOM      1  C   UNL d   1       3.803   1.741  -0.774  0.00  0.00     0.052 A 
ATOM      2  C   UNL d   1       3.439   2.199   0.508  0.00  0.00     0.035 A 
ATOM      3  C   UNL d   1       5.169   1.772  -1.140  0.00  0.00     0.031 A 
ATOM      4  C   UNL d   1       4.434   2.818   1.301  0.00  0.00     0.021 A 
ATOM      5  C   UNL d   1       6.137   2.356  -0.326  0.00  0.00     0.002 A 
ATOM      6  C   UNL d   1       5.763   2.911   0.885  0.00  0.00     0.002 A 
ENDROOT
BRANCH   2   7
ATOM      7  S   UNL d   1       1.870   2.068   1.360  0.00  0.00    -0.052 SA
BRANCH   7   8
ATOM      8  C   UNL d   1       1.339   0.388   1.155  0.00  0.00     0.150 A 
ATOM      9  N   UNL d   1       2.062  -0.470   0.431  0.00  0.00    -0.332 N 
ATOM     10  C   UNL d   1       1.521  -1.686   0.222  0.00  0.00     0.112 A 
ATOM     11  HN  UNL d   1       2.976  -0.218   0.055  1.00  0.00     0.168 HD
ATOM     12  C   UNL d   1       0.322  -2.097   0.764  0.00  0.00     0.060 A 
ATOM     13  C   UNL d   1      -0.328  -1.168   1.543  0.00  0.00     0.009 A 
ATOM     14  N   UNL d   1       0.173   0.067   1.748  0.00  0.00    -0.340 N 
ATOM     15  C   UNL d   1      -1.621  -1.491   2.226  0.00  0.00     0.068 C 
ATOM     16  HN  UNL d   1      -0.319   0.740   2.336  1.00  0.00     0.167 HD
BRANCH  10  17
ATOM     17  C   UNL d   1       2.250  -2.611  -0.695  0.00  0.00     0.309 C 
ATOM     18  O   UNL d   1       1.857  -3.731  -0.986  0.00  0.00    -0.258 OA
BRANCH  17  19
ATOM     19  O   UNL d   1       3.373  -2.018  -1.181  0.00  0.00    -0.321 OA
ATOM     20  C   UNL d   1       4.140  -2.826  -2.070  0.00  0.00     0.213 C 
ENDBRANCH  17  19
ENDBRANCH  10  17
ENDBRANCH   7   8
ENDBRANCH   2   7
BRANCH   1  21
ATOM     21  N   UNL d   1       2.964   1.248  -1.807  0.00  0.00    -0.322 N 
ATOM     22  C   UNL d   1       1.640   1.544  -2.052  0.00  0.00     0.256 C 
ATOM     23  O   UNL d   1       0.908   2.281  -1.406  0.00  0.00    -0.267 OA
ATOM     24  H   UNL d   1       3.460   0.826  -2.578  0.00  0.00     0.169 HD
BRANCH  22  25
ATOM     25  C   UNL d   1       1.120   1.012  -3.348  0.00  0.00     0.032 A 
ATOM     26  C   UNL d   1       1.578  -0.182  -3.923  0.00  0.00     0.020 A 
ATOM     27  C   UNL d   1       1.170  -0.546  -5.213  0.00  0.00     0.038 A 
ATOM     28  C   UNL d   1       0.300   0.279  -5.929  0.00  0.00     0.068 A 
ATOM     29  C   UNL d   1      -0.220   1.424  -5.323  0.00  0.00     0.038 A 
ATOM     30  C   UNL d   1       0.186   1.787  -4.038  0.00  0.00     0.020 A 
BRANCH  28  31
ATOM     31  O   UNL d   1      -0.120   0.075  -7.214  0.00  0.00    -0.356 OA
ATOM     32  C   UNL d   1       0.638  -0.842  -7.994  0.00  0.00     0.210 C 
ENDBRANCH  28  31
ENDBRANCH  22  25
ENDBRANCH   1  21
TORSDOF 7
