REMARK  3 active torsions:
REMARK  status: ('A' for Active; 'I' for Inactive)
REMARK    1  A    between atoms: N_8  and  C_1 
REMARK    2  A    between atoms: C_9  and  N_2 
REMARK    3  A    between atoms: N_7  and  C_3 
ROOT
ATOM      1  C   UNL d   1      -0.303  -1.246  -0.035  0.00  0.00     0.161 C 
ATOM      2  N   UNL d   1       0.980  -0.679   0.134  0.00  0.00    -0.237 N 
ATOM      3  C   UNL d   1      -1.158  -0.149  -0.019  0.00  0.00     0.172 C 
ATOM      4  N   UNL d   1       0.919   0.654   0.403  0.00  0.00    -0.294 N 
ATOM      5  HN  UNL d   1       1.682   1.263   0.698  1.00  0.00     0.187 HD
ATOM      6  C   UNL d   1      -0.355   0.991   0.198  0.00  0.00     0.059 C 
ATOM      7  C   UNL d   1      -0.733   2.427   0.214  0.00  0.00     0.072 C 
ENDROOT
BRANCH   1   8
ATOM      8  N   UNL d   1      -0.492  -2.610  -0.144  0.00  0.00    -0.360 N 
ATOM      9  C   UNL d   1      -1.619  -3.164  -0.921  0.00  0.00     0.151 C 
ATOM     10  C   UNL d   1      -1.313  -4.625  -1.296  0.00  0.00     0.187 C 
ATOM     11  O   UNL d   1      -1.052  -5.427  -0.132  0.00  0.00    -0.388 OA
ATOM     12  C   UNL d   1       0.068  -4.901   0.598  0.00  0.00     0.187 C 
ATOM     13  C   UNL d   1      -0.185  -3.451   1.045  0.00  0.00     0.151 C 
ENDBRANCH   1   8
BRANCH   2  14
ATOM     14  C   UNL d   1       2.262  -1.291   0.020  0.00  0.00     0.058 A 
ATOM     15  C   UNL d   1       2.464  -2.411  -0.796  0.00  0.00     0.031 A 
ATOM     16  C   UNL d   1       3.733  -2.986  -0.893  0.00  0.00     0.002 A 
ATOM     17  C   UNL d   1       4.801  -2.450  -0.176  0.00  0.00     0.000 A 
ATOM     18  C   UNL d   1       4.609  -1.327   0.628  0.00  0.00     0.002 A 
ATOM     19  C   UNL d   1       3.348  -0.737   0.715  0.00  0.00     0.031 A 
ENDBRANCH   2  14
BRANCH   3  20
ATOM     20  N   UNL d   1      -2.578  -0.141  -0.114  0.00  0.00    -0.110 N 
ATOM     21  O   UNL d   1      -3.077  -0.538  -1.175  0.00  0.00    -0.532 OA
ATOM     22  O   UNL d   1      -3.194   0.309   0.859  0.00  0.00    -0.532 OA
ENDBRANCH   3  20
TORSDOF 3
