REMARK  4 active torsions:
REMARK  status: ('A' for Active; 'I' for Inactive)
REMARK       I    between atoms: N_2  and  C_1 
REMARK       I    between atoms: N_3  and  C_1 
REMARK    1  A    between atoms: C_5  and  N_2 
REMARK    2  A    between atoms: C_6  and  N_3 
REMARK    3  A    between atoms: C_12  and  C_6 
REMARK    4  A    between atoms: O_13  and  C_7 
ROOT
ATOM      1  C   UNL d   1       0.987  -0.109   0.113  0.00  0.00     0.320 C 
ATOM      2  N   UNL d   1       0.394  -0.893  -0.855  0.00  0.00    -0.309 N 
ATOM      3  N   UNL d   1       0.097   0.786   0.656  0.00  0.00    -0.339 N 
ATOM      4  O   UNL d   1       2.163  -0.138   0.451  0.00  0.00    -0.247 OA
ATOM      5  H   UNL d   1      -0.526  -0.605  -1.150  0.00  0.00     0.170 HD
ATOM      6  H   UNL d   1      -0.890   0.587   0.599  0.00  0.00     0.164 HD
ENDROOT
BRANCH   2   7
ATOM      7  C   UNL d   1       1.025  -1.886  -1.635  0.00  0.00     0.036 A 
ATOM      8  C   UNL d   1       2.301  -2.383  -1.367  0.00  0.00     0.032 A 
ATOM      9  C   UNL d   1       2.900  -3.323  -2.214  0.00  0.00     0.039 A 
ATOM     10  C   UNL d   1       2.226  -3.779  -3.342  0.00  0.00     0.068 A 
ATOM     11  C   UNL d   1       0.927  -3.332  -3.586  0.00  0.00     0.039 A 
ATOM     12  C   UNL d   1       0.329  -2.389  -2.740  0.00  0.00     0.032 A 
BRANCH  10  13
ATOM     13  O   UNL d   1       2.725  -4.674  -4.248  0.00  0.00    -0.356 OA
ATOM     14  C   UNL d   1       4.145  -4.686  -4.370  0.00  0.00     0.210 C 
ENDBRANCH  10  13
ENDBRANCH   2   7
BRANCH   3  15
ATOM     15  C   UNL d   1       0.521   1.754   1.646  0.00  0.00     0.162 C 
BRANCH  15  16
ATOM     16  C   UNL d   1      -0.097   1.499   2.996  0.00  0.00    -0.040 A 
ATOM     17  C   UNL d   1       0.139   0.295   3.677  0.00  0.00     0.009 A 
ATOM     18  C   UNL d   1      -0.395   0.083   4.949  0.00  0.00     0.001 A 
ATOM     19  C   UNL d   1      -1.164   1.073   5.558  0.00  0.00     0.000 A 
ATOM     20  C   UNL d   1      -1.402   2.275   4.895  0.00  0.00     0.001 A 
ATOM     21  C   UNL d   1      -0.872   2.487   3.621  0.00  0.00     0.009 A 
ENDBRANCH  15  16
ENDBRANCH   3  15
TORSDOF 4
