REMARK  2 active torsions:
REMARK  status: ('A' for Active; 'I' for Inactive)
REMARK    1  A    between atoms: N_2  and  C_3 
REMARK    2  A    between atoms: C_5  and  N_2 
ROOT
ATOM      1  C   UNL d   1      -3.094  -0.054   0.220  0.00  0.00     0.017 A 
ATOM      2  C   UNL d   1      -2.361  -1.200  -0.183  0.00  0.00     0.046 A 
ATOM      3  C   UNL d   1      -2.652   1.204  -0.245  0.00  0.00     0.046 A 
ATOM      4  C   UNL d   1      -3.373   2.340   0.100  0.00  0.00     0.054 A 
ATOM      5  C   UNL d   1      -4.224  -0.116   1.068  0.00  0.00     0.018 A 
ATOM      6  N   UNL d   1      -1.570   1.349  -1.021  0.00  0.00    -0.365 N 
ATOM      7  HN  UNL d   1      -1.275   2.271  -1.340  1.00  0.00     0.165 HD
ATOM      8  C   UNL d   1      -4.500   2.262   0.914  0.00  0.00     0.036 A 
ATOM      9  C   UNL d   1      -1.238  -1.035  -0.994  0.00  0.00     0.047 A 
ATOM     10  C   UNL d   1      -4.922   1.038   1.415  0.00  0.00     0.025 A 
ATOM     11  C   UNL d   1      -0.881   0.243  -1.370  0.00  0.00     0.090 A 
ATOM     12 CL   UNL d   1      -5.378   3.691   1.300  0.00  0.00    -0.084 Cl
ENDROOT
BRANCH   2  13
ATOM     13  N   UNL d   1      -2.863  -2.502   0.101  0.00  0.00    -0.355 N 
ATOM     14  H   UNL d   1      -3.706  -2.650  -0.442  0.00  0.00     0.166 HD
BRANCH  13  15
ATOM     15  C   UNL d   1      -2.123  -3.691   0.307  0.00  0.00     0.038 A 
ATOM     16  C   UNL d   1      -2.563  -4.941  -0.171  0.00  0.00    -0.035 A 
ATOM     17  C   UNL d   1      -1.877  -6.110   0.220  0.00  0.00     0.015 A 
ATOM     18  C   UNL d   1      -3.755  -5.131  -1.071  0.00  0.00     0.050 C 
ATOM     19  C   UNL d   1      -0.754  -6.058   1.052  0.00  0.00    -0.061 A 
ATOM     20  C   UNL d   1      -0.283  -4.814   1.466  0.00  0.00     0.009 A 
ATOM     21  C   UNL d   1      -0.106  -7.328   1.519  0.00  0.00     0.048 C 
ATOM     22  C   UNL d   1      -0.962  -3.648   1.100  0.00  0.00     0.030 A 
ENDBRANCH  13  15
ENDBRANCH   2  13
TORSDOF 2
