REMARK  4 active torsions:
REMARK  status: ('A' for Active; 'I' for Inactive)
REMARK    1  A    between atoms: C_7  and  N_1 
REMARK    2  A    between atoms: C_6  and  C_9 
REMARK    3  A    between atoms: C_8  and  C_7 
REMARK       I    between atoms: N_10  and  C_8 
REMARK    4  A    between atoms: C_14  and  N_10 
ROOT
ATOM      1  C   UNL d   1       3.805   1.329  -0.447  0.00  0.00     0.240 C 
ATOM      2  N   UNL d   1       3.052   2.377   0.063  0.00  0.00    -0.326 N 
ATOM      3  O   UNL d   1       4.925   1.409  -0.943  0.00  0.00    -0.271 OA
ATOM      4  H   UNL d   1       2.045   2.236   0.045  0.00  0.00     0.169 HD
ENDROOT
BRANCH   1   5
ATOM      5  C   UNL d   1       3.059  -0.007  -0.351  0.00  0.00     0.238 C 
BRANCH   5   6
ATOM      6  N   UNL d   1       2.244  -0.329  -1.506  0.00  0.00    -0.271 N 
ATOM      7  C   UNL d   1       1.399   0.570  -2.087  0.00  0.00     0.262 C 
ATOM      8  C   UNL d   1       0.506  -0.174  -2.957  0.00  0.00     0.048 A 
ATOM      9  O   UNL d   1       1.243   1.752  -1.839  0.00  0.00    -0.267 OA
ATOM     10  C   UNL d   1      -0.471   0.289  -3.813  0.00  0.00     0.018 A 
ATOM     11  C   UNL d   1       0.671  -1.512  -2.658  0.00  0.00     0.048 A 
ATOM     12  C   UNL d   1      -1.340  -0.660  -4.348  0.00  0.00     0.001 A 
ATOM     13  C   UNL d   1      -1.217  -2.023  -4.003  0.00  0.00     0.001 A 
ATOM     14  C   UNL d   1      -0.196  -2.466  -3.152  0.00  0.00     0.018 A 
ATOM     15  C   UNL d   1       1.762  -1.605  -1.689  0.00  0.00     0.262 C 
ATOM     16  O   UNL d   1       2.055  -2.626  -1.094  0.00  0.00    -0.267 OA
ENDBRANCH   5   6
ENDBRANCH   1   5
BRANCH   2  17
ATOM     17  C   UNL d   1       3.479   3.667   0.414  0.00  0.00     0.035 A 
ATOM     18  C   UNL d   1       4.818   4.051   0.428  0.00  0.00     0.045 A 
ATOM     19  C   UNL d   1       5.196   5.309   0.927  0.00  0.00     0.050 A 
ATOM     20  C   UNL d   1       4.205   6.199   1.369  0.00  0.00     0.016 A 
ATOM     21  C   UNL d   1       2.861   5.834   1.324  0.00  0.00     0.003 A 
ATOM     22  C   UNL d   1       2.502   4.571   0.853  0.00  0.00     0.029 A 
BRANCH  19  23
ATOM     23  C   UNL d   1       6.653   5.681   1.038  0.00  0.00     0.417 C 
ATOM     24  F   UNL d   1       7.507   4.702   0.632  0.00  0.00    -0.166 F 
ATOM     25  F   UNL d   1       6.972   6.785   0.308  0.00  0.00    -0.166 F 
ATOM     26  F   UNL d   1       7.008   5.969   2.323  0.00  0.00    -0.166 F 
ENDBRANCH  19  23
ENDBRANCH   2  17
TORSDOF 4
