REMARK  4 active torsions:
REMARK  status: ('A' for Active; 'I' for Inactive)
REMARK    1  A    between atoms: C_3  and  S_1 
REMARK    2  A    between atoms: C_4  and  S_1 
REMARK    3  A    between atoms: C_2  and  C_3 
REMARK    4  A    between atoms: N_7  and  C_6 
ROOT
ATOM      1  C   UNL d   1       2.894   0.066  -0.007  0.00  0.00     0.021 A 
ATOM      2  C   UNL d   1       3.728   0.734   0.913  0.00  0.00     0.022 A 
ATOM      3  C   UNL d   1       3.448  -0.505  -1.162  0.00  0.00     0.020 A 
ATOM      4  C   UNL d   1       5.082   0.903   0.598  0.00  0.00     0.024 A 
ATOM      5  C   UNL d   1       4.813  -0.381  -1.429  0.00  0.00     0.001 A 
ATOM      6  C   UNL d   1       5.628   0.327  -0.551  0.00  0.00     0.002 A 
ENDROOT
BRANCH   1   7
ATOM      7  S   UNL d   1       1.157  -0.234   0.327  0.00  0.00    -0.123 SA
BRANCH   7   8
ATOM      8  C   UNL d   1       0.452   1.426   0.009  0.00  0.00     0.119 C 
BRANCH   8   9
ATOM      9  C   UNL d   1      -1.070   1.509  -0.006  0.00  0.00    -0.027 A 
ATOM     10  C   UNL d   1      -1.708   2.766  -0.008  0.00  0.00     0.041 A 
ATOM     11 CL   UNL d   1      -0.808   4.245   0.012  0.00  0.00    -0.084 Cl
ATOM     12  C   UNL d   1      -3.107   2.874  -0.035  0.00  0.00     0.024 A 
ATOM     13  C   UNL d   1      -3.898   1.731  -0.074  0.00  0.00     0.002 A 
ATOM     14  C   UNL d   1      -3.294   0.480  -0.091  0.00  0.00     0.001 A 
ATOM     15  C   UNL d   1      -1.899   0.370  -0.066  0.00  0.00     0.009 A 
ENDBRANCH   8   9
ENDBRANCH   7   8
ENDBRANCH   1   7
BRANCH   2  16
ATOM     16  N   UNL d   1       3.201   1.402   2.037  0.00  0.00    -0.302 NA
ATOM     17  H   UNL d   1       2.340   0.962   2.357  0.00  0.00     0.124 HD
ATOM     18  H   UNL d   1       3.873   1.518   2.788  0.00  0.00     0.124 HD
ENDBRANCH   2  16
TORSDOF 4
