REMARK  7 active torsions:
REMARK  status: ('A' for Active; 'I' for Inactive)
REMARK    1  A    between atoms: N_3  and  C_1 
REMARK    2  A    between atoms: N_4  and  C_1 
REMARK    3  A    between atoms: C_2  and  N_3 
REMARK    4  A    between atoms: CA_8  and  N_4 
REMARK    5  A    between atoms: C_15  and  CA_8 
REMARK    6  A    between atoms: C_16  and  CA_8 
REMARK    7  A    between atoms: O_9  and  C_15 
ROOT
ATOM      1  C   UNL d   1       1.007  -0.370   0.172  0.00  0.00     0.172 C 
ATOM      2  S   UNL d   1       2.261  -1.442   0.439  0.00  0.00    -0.041 SA
ENDROOT
BRANCH   1   3
ATOM      3  N   UNL d   1       0.537   0.601   1.024  0.00  0.00    -0.332 N 
ATOM      4  H   UNL d   1      -0.468   0.564   1.095  0.00  0.00     0.168 HD
BRANCH   3   5
ATOM      5  C   UNL d   1       1.199   1.217   2.111  0.00  0.00     0.046 A 
ATOM      6  C   UNL d   1       2.470   1.818   1.952  0.00  0.00    -0.035 A 
ATOM      7  C   UNL d   1       3.074   2.453   3.054  0.00  0.00     0.009 A 
ATOM      8  C   UNL d   1       3.216   1.902   0.646  0.00  0.00     0.050 C 
ATOM      9  C   UNL d   1       2.416   2.553   4.274  0.00  0.00     0.001 A 
ATOM     10  C   UNL d   1       1.142   2.018   4.411  0.00  0.00     0.009 A 
ATOM     11  C   UNL d   1       0.516   1.348   3.343  0.00  0.00    -0.035 A 
ATOM     12  C   UNL d   1      -0.853   0.786   3.630  0.00  0.00     0.050 C 
ENDBRANCH   3   5
ENDBRANCH   1   3
BRANCH   1  13
ATOM     13  N   UNL d   1       0.299  -0.486  -0.993  0.00  0.00    -0.360 N 
ATOM     14  H   UNL d   1       0.625  -1.212  -1.630  0.00  0.00     0.162 HD
BRANCH  13  15
ATOM     15  CA  UNL d   1      -0.696   0.442  -1.550  0.00  0.00     0.107 C 
BRANCH  15  16
ATOM     16  C   UNL d   1      -0.237   0.916  -2.942  0.00  0.00     0.189 C 
BRANCH  16  17
ATOM     17  O   UNL d   1      -0.205  -0.174  -3.862  0.00  0.00    -0.399 OA
ATOM     18  H   UNL d   1       0.045   0.194  -4.728  0.00  0.00     0.209 HD
ENDBRANCH  16  17
ENDBRANCH  15  16
BRANCH  15  19
ATOM     19  C   UNL d   1      -2.077  -0.230  -1.611  0.00  0.00     0.023 C 
ATOM     20  C   UNL d   1      -2.635  -0.568  -0.234  0.00  0.00     0.007 C 
ENDBRANCH  15  19
ENDBRANCH  13  15
ENDBRANCH   1  13
TORSDOF 7
