REMARK  2 active torsions:
REMARK  status: ('A' for Active; 'I' for Inactive)
REMARK    1  A    between atoms: C_10  and  C_2 
REMARK    2  A    between atoms: O_18  and  C_15 
ROOT
ATOM      1  C   UNL d   1       1.845   0.084   0.543  0.00  0.00     0.030 A 
ATOM      2  C   UNL d   1       1.491  -1.168   0.107  0.00  0.00     0.121 A 
ATOM      3  O   UNL d   1       0.202  -1.096  -0.344  0.00  0.00    -0.236 OA
ATOM      4  N   UNL d   1      -0.303   0.183  -0.186  0.00  0.00    -0.260 N 
ATOM      5  HN  UNL d   1      -1.238   0.504  -0.436  1.00  0.00     0.195 HD
ATOM      6  C   UNL d   1       0.679   0.918   0.359  0.00  0.00     0.068 A 
ATOM      7  C   UNL d   1       3.078   0.485   1.054  0.00  0.00     0.035 A 
ATOM      8  C   UNL d   1       0.696   2.273   0.732  0.00  0.00     0.034 A 
ATOM      9  C   UNL d   1       3.060   1.844   1.424  0.00  0.00     0.012 A 
ATOM     10  C   UNL d   1       1.928   2.702   1.276  0.00  0.00     0.021 A 
ATOM     11 BR   UNL d   1       4.646   2.577   2.172  0.00  0.00    -0.051 Br
ENDROOT
BRANCH   2  12
ATOM     12  C   UNL d   1       2.110  -2.485   0.036  0.00  0.00     0.001 A 
ATOM     13  C   UNL d   1       3.041  -2.898   0.997  0.00  0.00     0.017 A 
ATOM     14  C   UNL d   1       3.652  -4.152   0.909  0.00  0.00     0.037 A 
ATOM     15  C   UNL d   1       3.332  -5.027  -0.128  0.00  0.00     0.068 A 
ATOM     16  C   UNL d   1       2.388  -4.640  -1.076  0.00  0.00     0.037 A 
ATOM     17  C   UNL d   1       1.784  -3.377  -0.996  0.00  0.00     0.017 A 
BRANCH  15  18
ATOM     18  O   UNL d   1       4.009  -6.214  -0.100  0.00  0.00    -0.356 OA
ATOM     19  C   UNL d   1       3.704  -7.151  -1.124  0.00  0.00     0.210 C 
ENDBRANCH  15  18
ENDBRANCH   2  12
TORSDOF 2
