REMARK  4 active torsions:
REMARK  status: ('A' for Active; 'I' for Inactive)
REMARK    1  A    between atoms: C_8  and  C_1 
REMARK    2  A    between atoms: C_11  and  C_4 
REMARK       I    between atoms: C_7  and  N_9 
REMARK       I    between atoms: N_10  and  C_7 
REMARK    3  A    between atoms: N_9  and  C_8 
REMARK    4  A    between atoms: C_13  and  N_10 
ROOT
ATOM      1  C   UNL d   1       0.340  -2.592   0.143  0.00  0.00     0.168 C 
ENDROOT
BRANCH   1   2
ATOM      2  C   UNL d   1      -0.007  -1.145   0.205  0.00  0.00     0.020 A 
ATOM      3  C   UNL d   1      -1.290  -0.597   0.565  0.00  0.00     0.075 A 
ATOM      4  N   UNL d   1      -1.273   0.741   0.472  0.00  0.00    -0.260 N 
ATOM      5  O   UNL d   1      -0.009   1.089   0.067  0.00  0.00    -0.242 OA
ATOM      6  HN  UNL d   1      -2.048   1.375   0.665  1.00  0.00     0.195 HD
ATOM      7  C   UNL d   1       0.745  -0.025  -0.103  0.00  0.00     0.082 A 
ATOM      8  C   UNL d   1       2.125   0.217  -0.575  0.00  0.00     0.079 C 
BRANCH   3   9
ATOM      9  C   UNL d   1      -2.521  -1.295   0.944  0.00  0.00    -0.007 A 
ATOM     10  C   UNL d   1      -3.756  -0.858   0.438  0.00  0.00     0.014 A 
ATOM     11  C   UNL d   1      -4.938  -1.529   0.766  0.00  0.00     0.001 A 
ATOM     12  C   UNL d   1      -4.899  -2.645   1.598  0.00  0.00     0.000 A 
ATOM     13  C   UNL d   1      -3.683  -3.078   2.121  0.00  0.00     0.001 A 
ATOM     14  C   UNL d   1      -2.502  -2.398   1.807  0.00  0.00     0.014 A 
ENDBRANCH   3   9
ENDBRANCH   1   2
BRANCH   1  15
ATOM     15  N   UNL d   1       1.714  -2.808  -0.243  0.00  0.00    -0.338 N 
ATOM     16  C   UNL d   1       2.272  -3.660  -1.144  0.00  0.00     0.320 C 
ATOM     17  N   UNL d   1       1.422  -4.285  -2.010  0.00  0.00    -0.309 N 
ATOM     18  O   UNL d   1       3.493  -3.784  -1.103  0.00  0.00    -0.247 OA
ATOM     19  H   UNL d   1       0.450  -4.038  -1.956  0.00  0.00     0.170 HD
ATOM     20  H   UNL d   1       2.420  -2.448   0.387  0.00  0.00     0.164 HD
BRANCH  17  21
ATOM     21  C   UNL d   1       1.756  -5.167  -3.061  0.00  0.00     0.037 A 
ATOM     22  C   UNL d   1       3.058  -5.564  -3.370  0.00  0.00     0.053 A 
ATOM     23  C   UNL d   1       3.292  -6.402  -4.463  0.00  0.00     0.036 A 
ATOM     24 CL   UNL d   1       4.904  -6.867  -4.856  0.00  0.00    -0.084 Cl
ATOM     25  C   UNL d   1       2.238  -6.861  -5.250  0.00  0.00     0.024 A 
ATOM     26  C   UNL d   1       0.935  -6.486  -4.936  0.00  0.00     0.004 A 
ATOM     27  C   UNL d   1       0.696  -5.644  -3.847  0.00  0.00     0.029 A 
ENDBRANCH  17  21
ENDBRANCH   1  15
TORSDOF 4
