REMARK  6 active torsions:
REMARK  status: ('A' for Active; 'I' for Inactive)
REMARK    1  A    between atoms: C_8  and  N_1 
REMARK    2  A    between atoms: C_7  and  C_3 
REMARK    3  A    between atoms: C_13  and  N_5 
REMARK    4  A    between atoms: N_14  and  C_7 
REMARK    5  A    between atoms: C_15  and  C_8 
REMARK    6  A    between atoms: O_16  and  N_11 
ROOT
ATOM      1  N   UNL d   1       5.673  -2.492   0.016  0.00  0.00    -0.261 N 
ATOM      2  C   UNL d   1       4.985  -3.693   0.178  0.00  0.00     0.332 C 
ATOM      3  C   UNL d   1       3.583  -1.235  -0.075  0.00  0.00     0.088 C 
ATOM      4  C   UNL d   1       5.061  -1.260  -0.163  0.00  0.00     0.266 C 
ATOM      5  N   UNL d   1       3.600  -3.624   0.021  0.00  0.00    -0.304 N 
ATOM      6  C   UNL d   1       2.945  -2.410  -0.023  0.00  0.00     0.116 C 
ATOM      7  O   UNL d   1       5.558  -4.753   0.443  0.00  0.00    -0.246 OA
ATOM      8  O   UNL d   1       5.679  -0.215  -0.386  0.00  0.00    -0.267 OA
ENDROOT
BRANCH   3   9
ATOM      9  C   UNL d   1       2.780   0.036  -0.051  0.00  0.00     0.115 C 
ATOM     10  N   UNL d   1       1.470  -0.045  -0.102  0.00  0.00    -0.257 N 
ATOM     11  HN  UNL d   1       0.951  -0.921  -0.157  1.00  0.00     0.195 HD
BRANCH  10  12
ATOM     12  O   UNL d   1       0.875   1.227  -0.072  0.00  0.00    -0.289 OA
ATOM     13  H   UNL d   1      -0.071   1.008   0.021  0.00  0.00     0.244 HD
ENDBRANCH  10  12
BRANCH   9  14
ATOM     14  N   UNL d   1       3.398   1.260   0.021  0.00  0.00    -0.286 NA
ATOM     15  H   UNL d   1       4.349   1.306  -0.342  0.00  0.00     0.125 HD
ATOM     16  H   UNL d   1       2.788   2.017  -0.268  0.00  0.00     0.125 HD
ENDBRANCH   9  14
ENDBRANCH   3   9
BRANCH   1  17
ATOM     17  C   UNL d   1       7.129  -2.552  -0.023  0.00  0.00     0.175 C 
BRANCH  17  18
ATOM     18  C   UNL d   1       7.638  -2.955  -1.392  0.00  0.00    -0.040 A 
ATOM     19  C   UNL d   1       7.886  -1.990  -2.379  0.00  0.00     0.009 A 
ATOM     20  C   UNL d   1       8.283  -2.377  -3.662  0.00  0.00     0.001 A 
ATOM     21  C   UNL d   1       8.431  -3.728  -3.972  0.00  0.00     0.000 A 
ATOM     22  C   UNL d   1       8.199  -4.694  -2.997  0.00  0.00     0.001 A 
ATOM     23  C   UNL d   1       7.810  -4.310  -1.714  0.00  0.00     0.009 A 
ENDBRANCH  17  18
ENDBRANCH   1  17
BRANCH   5  24
ATOM     24  C   UNL d   1       2.824  -4.885   0.066  0.00  0.00     0.086 C 
ATOM     25  C   UNL d   1       2.258  -5.136   1.463  0.00  0.00     0.032 C 
ATOM     26  C   UNL d   1       1.731  -4.967  -1.006  0.00  0.00     0.032 C 
ENDBRANCH   5  24
TORSDOF 6
