REMARK  5 active torsions:
REMARK  status: ('A' for Active; 'I' for Inactive)
REMARK    1  A    between atoms: S_9  and  C_3 
REMARK    2  A    between atoms: C_12  and  C_5 
REMARK       I    between atoms: N_8  and  C_10 
REMARK    3  A    between atoms: C_11  and  N_8 
REMARK    4  A    between atoms: C_18  and  S_9 
REMARK    5  A    between atoms: C_10  and  C_18 
ROOT
ATOM      1  N   UNL d   1       0.124  -4.198  -0.595  0.00  0.00    -0.347 N 
ATOM      2  HN  UNL d   1       1.080  -4.000  -0.890  1.00  0.00     0.167 HD
ATOM      3  C   UNL d   1      -0.440  -3.518   0.437  0.00  0.00     0.091 A 
ATOM      4  C   UNL d   1      -1.746  -3.760   0.863  0.00  0.00     0.078 A 
ATOM      5  C   UNL d   1      -0.614  -5.147  -1.223  0.00  0.00     0.079 A 
ATOM      6  C   UNL d   1      -2.353  -3.037   1.941  0.00  0.00     0.102 C 
ATOM      7  N   UNL d   1      -2.883  -2.465   2.796  0.00  0.00    -0.191 NA
ATOM      8  C   UNL d   1      -2.470  -4.774   0.230  0.00  0.00     0.028 A 
ATOM      9  C   UNL d   1      -1.895  -5.489  -0.818  0.00  0.00     0.035 A 
ENDROOT
BRANCH   3  10
ATOM     10  S   UNL d   1       0.677  -2.480   1.377  0.00  0.00    -0.101 SA
BRANCH  10  11
ATOM     11  C   UNL d   1       2.244  -2.609   0.454  0.00  0.00     0.184 C 
BRANCH  11  12
ATOM     12  C   UNL d   1       3.002  -3.934   0.523  0.00  0.00     0.231 C 
ATOM     13  N   UNL d   1       2.335  -5.026   1.057  0.00  0.00    -0.325 N 
ATOM     14  H   UNL d   1       1.336  -4.965   0.933  0.00  0.00     0.169 HD
ATOM     15  O   UNL d   1       4.123  -4.001   0.017  0.00  0.00    -0.272 OA
BRANCH  13  16
ATOM     16  C   UNL d   1       2.878  -6.332   1.000  0.00  0.00     0.056 A 
ATOM     17  C   UNL d   1       4.147  -6.676   1.488  0.00  0.00     0.060 A 
ATOM     18 CL   UNL d   1       5.081  -5.612   2.481  0.00  0.00    -0.082 Cl
ATOM     19  C   UNL d   1       4.643  -7.969   1.285  0.00  0.00     0.026 A 
ATOM     20  C   UNL d   1       3.878  -8.922   0.611  0.00  0.00     0.002 A 
ATOM     21  C   UNL d   1       2.592  -8.603   0.185  0.00  0.00     0.002 A 
ATOM     22  C   UNL d   1       2.084  -7.323   0.408  0.00  0.00     0.031 A 
ENDBRANCH  13  16
ENDBRANCH  11  12
ENDBRANCH  10  11
ENDBRANCH   3  10
BRANCH   5  23
ATOM     23  C   UNL d   1       0.037  -5.906  -2.332  0.00  0.00     0.172 C 
ATOM     24  O   UNL d   1      -0.517  -6.907  -2.786  0.00  0.00    -0.291 OA
ATOM     25  C   UNL d   1       1.373  -5.447  -2.859  0.00  0.00     0.098 C 
ENDBRANCH   5  23
TORSDOF 5
