REMARK  3 active torsions:
REMARK  status: ('A' for Active; 'I' for Inactive)
REMARK    1  A    between atoms: C_2  and  N_1 
REMARK       I    between atoms: C_3  and  N_1 
REMARK    2  A    between atoms: C_4  and  C_2 
REMARK    3  A    between atoms: C_5  and  C_3 
ROOT
ATOM      1  N   UNL d   1       1.211  -0.051   0.059  0.00  0.00    -0.308 N 
ATOM      2  C   UNL d   1       2.565  -0.118  -0.226  0.00  0.00     0.264 C 
ATOM      3  O   UNL d   1       3.322  -0.880   0.373  0.00  0.00    -0.267 OA
ATOM      4  H   UNL d   1       0.676   0.608  -0.489  0.00  0.00     0.170 HD
ENDROOT
BRANCH   1   5
ATOM      5  C   UNL d   1       0.496  -0.785   0.977  0.00  0.00     0.119 C 
ATOM      6  N   UNL d   1       1.048  -1.671   1.731  0.00  0.00    -0.384 N 
ATOM      7  H   UNL d   1       2.057  -1.710   1.516  0.00  0.00     0.157 HD
ATOM      8  HN  UNL d   1       0.566  -2.242   2.426  1.00  0.00     0.157 HD
BRANCH   5   9
ATOM      9  C   UNL d   1      -0.932  -0.534   1.071  0.00  0.00     0.048 A 
ATOM     10  S   UNL d   1      -1.709   0.649   0.097  0.00  0.00    -0.098 SA
ATOM     11  C   UNL d   1      -3.244   0.292   0.759  0.00  0.00     0.050 A 
ATOM     12  C   UNL d   1      -3.176  -0.697   1.714  0.00  0.00     0.009 A 
ATOM     13  C   UNL d   1      -1.843  -1.164   1.899  0.00  0.00     0.023 A 
ENDBRANCH   5   9
ENDBRANCH   1   5
BRANCH   2  14
ATOM     14  C   UNL d   1       3.019   0.775  -1.289  0.00  0.00     0.072 A 
ATOM     15  S   UNL d   1       1.943   1.844  -2.096  0.00  0.00    -0.097 SA
ATOM     16  C   UNL d   1       3.179   2.442  -3.110  0.00  0.00     0.050 A 
ATOM     17  C   UNL d   1       4.394   1.853  -2.843  0.00  0.00     0.009 A 
ATOM     18  C   UNL d   1       4.303   0.895  -1.791  0.00  0.00     0.025 A 
ENDBRANCH   2  14
TORSDOF 3
