REMARK  2 active torsions:
REMARK  status: ('A' for Active; 'I' for Inactive)
REMARK    1  A    between atoms: C_9  and  N_4 
REMARK    2  A    between atoms: C_12  and  C_7 
ROOT
ATOM      1  C   UNL d   1      -2.527  -1.323  -1.410  0.00  0.00     0.141 C 
ATOM      2  N   UNL d   1      -2.800   0.019  -1.319  0.00  0.00    -0.361 N 
ATOM      3  S   UNL d   1      -3.710  -2.056  -2.487  0.00  0.00    -0.092 SA
ATOM      4  N   UNL d   1      -1.485  -1.857  -0.869  0.00  0.00    -0.337 N 
ATOM      5  HN  UNL d   1      -0.932  -1.295  -0.221  1.00  0.00     0.168 HD
ATOM      6  C   UNL d   1      -3.533   0.591  -2.458  0.00  0.00     0.033 C 
ATOM      7  C   UNL d   1      -3.694  -0.543  -3.494  0.00  0.00     0.112 C 
ATOM      8  C   UNL d   1      -4.906   1.089  -1.993  0.00  0.00     0.039 C 
ATOM      9  C   UNL d   1      -2.729   1.751  -3.051  0.00  0.00     0.039 C 
ATOM     10  H   UNL d   1      -2.045   0.557  -0.919  0.00  0.00     0.162 HD
ENDROOT
BRANCH   4  11
ATOM     11  C   UNL d   1      -1.075  -3.180  -1.130  0.00  0.00     0.034 A 
ATOM     12  C   UNL d   1      -0.998  -3.696  -2.426  0.00  0.00     0.030 A 
ATOM     13  C   UNL d   1      -0.562  -4.998  -2.667  0.00  0.00     0.010 A 
ATOM     14  C   UNL d   1      -0.095  -5.798  -1.621  0.00  0.00    -0.055 A 
ATOM     15  C   UNL d   1      -0.096  -5.264  -0.326  0.00  0.00     0.010 A 
ATOM     16  C   UNL d   1      -0.591  -3.970  -0.086  0.00  0.00     0.030 A 
BRANCH  14  17
ATOM     17  C   UNL d   1       0.429  -7.195  -1.900  0.00  0.00     0.010 C 
ATOM     18  C   UNL d   1      -0.684  -8.110  -2.421  0.00  0.00     0.015 C 
ATOM     19  C   UNL d   1       1.600  -7.160  -2.889  0.00  0.00     0.015 C 
ENDBRANCH  14  17
ENDBRANCH   4  11
TORSDOF 2
