REMARK  7 active torsions:
REMARK  status: ('A' for Active; 'I' for Inactive)
REMARK       I    between atoms: C_4  and  N_1 
REMARK    1  A    between atoms: C_3  and  C_2 
REMARK       I    between atoms: N_5  and  C_3 
REMARK    2  A    between atoms: O_10  and  C_4 
REMARK    3  A    between atoms: C_9  and  C_15 
REMARK    4  A    between atoms: O_20  and  C_9 
REMARK    5  A    between atoms: C_19  and  O_10 
REMARK    6  A    between atoms: C_21  and  C_19 
REMARK    7  A    between atoms: C_24  and  O_20 
ROOT
ATOM      1  N   UNL d   1       1.490   1.130  -0.072  0.00  0.00    -0.279 N 
ATOM      2  C   UNL d   1       2.346  -0.031   0.278  0.00  0.00     0.191 C 
ATOM      3  C   UNL d   1       2.003   2.404  -0.183  0.00  0.00     0.368 C 
ATOM      4  C   UNL d   1       0.151   0.697  -0.090  0.00  0.00     0.046 A 
ATOM      5  C   UNL d   1       1.511  -1.262  -0.124  0.00  0.00     0.076 C 
ATOM      6  C   UNL d   1       0.121  -0.702  -0.083  0.00  0.00    -0.029 A 
ATOM      7  O   UNL d   1       3.197   2.655  -0.049  0.00  0.00    -0.238 OA
ATOM      8  C   UNL d   1      -1.024   1.425  -0.062  0.00  0.00     0.030 A 
ATOM      9  C   UNL d   1      -1.075  -1.399  -0.070  0.00  0.00     0.009 A 
ATOM     10  C   UNL d   1      -2.238   0.731  -0.023  0.00  0.00     0.002 A 
ATOM     11  C   UNL d   1      -2.263  -0.671  -0.030  0.00  0.00     0.001 A 
ENDROOT
BRANCH   2  12
ATOM     12  C   UNL d   1       2.618  -0.016   1.810  0.00  0.00     0.243 C 
ATOM     13  N   UNL d   1       3.456  -0.983   2.367  0.00  0.00    -0.350 N 
ATOM     14  C   UNL d   1       3.583  -1.018   3.824  0.00  0.00     0.127 C 
ATOM     15  C   UNL d   1       4.098  -2.089   1.658  0.00  0.00     0.127 C 
ATOM     16  C   UNL d   1       5.050  -1.080   4.235  0.00  0.00     0.034 C 
ATOM     17  C   UNL d   1       5.753  -2.284   3.600  0.00  0.00     0.088 C 
ATOM     18  C   UNL d   1       5.563  -2.252   2.074  0.00  0.00     0.034 C 
ATOM     19  O   UNL d   1       2.096   0.843   2.533  0.00  0.00    -0.271 OA
BRANCH  17  20
ATOM     20  C   UNL d   1       5.269  -3.600   4.193  0.00  0.00     0.263 C 
ATOM     21  O   UNL d   1       4.872  -4.553   3.536  0.00  0.00    -0.265 OA
BRANCH  20  22
ATOM     22  O   UNL d   1       5.365  -3.578   5.552  0.00  0.00    -0.322 OA
BRANCH  22  23
ATOM     23  C   UNL d   1       4.918  -4.761   6.232  0.00  0.00     0.174 C 
ATOM     24  C   UNL d   1       3.414  -4.710   6.435  0.00  0.00     0.034 C 
ENDBRANCH  22  23
ENDBRANCH  20  22
ENDBRANCH  17  20
ENDBRANCH   2  12
BRANCH   3  25
ATOM     25  O   UNL d   1       1.064   3.333  -0.493  0.00  0.00    -0.299 OA
BRANCH  25  26
ATOM     26  C   UNL d   1       1.453   4.712  -0.519  0.00  0.00     0.219 C 
BRANCH  26  27
ATOM     27  C   UNL d   1       1.082   5.370  -1.831  0.00  0.00    -0.034 A 
ATOM     28  C   UNL d   1       0.022   4.908  -2.626  0.00  0.00     0.009 A 
ATOM     29  C   UNL d   1      -0.321   5.567  -3.810  0.00  0.00     0.001 A 
ATOM     30  C   UNL d   1       0.383   6.701  -4.208  0.00  0.00     0.000 A 
ATOM     31  C   UNL d   1       1.426   7.182  -3.421  0.00  0.00     0.001 A 
ATOM     32  C   UNL d   1       1.770   6.524  -2.237  0.00  0.00     0.009 A 
ENDBRANCH  26  27
ENDBRANCH  25  26
ENDBRANCH   3  25
TORSDOF 7
