REMARK  5 active torsions:
REMARK  status: ('A' for Active; 'I' for Inactive)
REMARK    1  A    between atoms: N_2  and  S_1 
REMARK    2  A    between atoms: C_4  and  S_1 
REMARK    3  A    between atoms: C_3  and  N_2 
REMARK       I    between atoms: C_9  and  N_10 
REMARK    4  A    between atoms: N_10  and  C_15 
REMARK    5  A    between atoms: C_22  and  C_19 
ROOT
ATOM      1  S   UNL d   1       1.061  -0.104   0.066  0.00  0.00     0.247 S 
ATOM      2  O   UNL d   1       0.359  -0.558  -1.118  0.00  0.00    -0.205 OA
ATOM      3  O   UNL d   1       2.500   0.037   0.070  0.00  0.00    -0.205 OA
ENDROOT
BRANCH   1   4
ATOM      4  N   UNL d   1       0.537  -1.102   1.319  0.00  0.00    -0.166 NA
ATOM      5  H   UNL d   1       0.300  -2.010   0.921  0.00  0.00     0.147 HD
BRANCH   4   6
ATOM      6  C   UNL d   1       1.413  -1.235   2.410  0.00  0.00     0.094 A 
ATOM      7  N   UNL d   1       2.296  -2.235   2.269  0.00  0.00    -0.356 N 
ATOM      8  C   UNL d   1       3.176  -2.396   3.280  0.00  0.00     0.090 A 
ATOM      9  HN  UNL d   1       2.302  -2.838   1.447  1.00  0.00     0.166 HD
ATOM     10  C   UNL d   1       3.178  -1.626   4.434  0.00  0.00     0.024 A 
ATOM     11  C   UNL d   1       2.226  -0.610   4.568  0.00  0.00    -0.054 A 
ATOM     12  C   UNL d   1       1.329  -0.405   3.515  0.00  0.00     0.050 A 
BRANCH  11  13
ATOM     13  C   UNL d   1       2.137   0.195   5.839  0.00  0.00     0.034 C 
ATOM     14  C   UNL d   1       2.312   1.691   5.621  0.00  0.00     0.010 C 
ENDBRANCH  11  13
ENDBRANCH   4   6
ENDBRANCH   1   4
BRANCH   1  15
ATOM     15  C   UNL d   1       0.368   1.478   0.498  0.00  0.00     0.075 A 
ATOM     16  C   UNL d   1       1.134   2.408   1.206  0.00  0.00     0.027 A 
ATOM     17  C   UNL d   1       0.616   3.685   1.460  0.00  0.00     0.031 A 
ATOM     18  C   UNL d   1      -0.659   4.046   0.998  0.00  0.00     0.034 A 
ATOM     19  C   UNL d   1      -1.399   3.107   0.274  0.00  0.00     0.031 A 
ATOM     20  C   UNL d   1      -0.892   1.830   0.019  0.00  0.00     0.027 A 
BRANCH  18  21
ATOM     21  N   UNL d   1      -1.121   5.353   1.282  0.00  0.00    -0.328 N 
ATOM     22  C   UNL d   1      -2.349   5.890   0.930  0.00  0.00     0.218 C 
ATOM     23  O   UNL d   1      -3.248   5.330   0.316  0.00  0.00    -0.274 OA
ATOM     24  C   UNL d   1      -2.539   7.316   1.384  0.00  0.00     0.117 C 
ATOM     25  H   UNL d   1      -0.484   5.949   1.794  0.00  0.00     0.169 HD
ENDBRANCH  18  21
ENDBRANCH   1  15
TORSDOF 5
