REMARK  6 active torsions:
REMARK  status: ('A' for Active; 'I' for Inactive)
REMARK    1  A    between atoms: N_4  and  C_1 
REMARK    2  A    between atoms: C_3  and  S_9 
REMARK    3  A    between atoms: C_16  and  C_5 
REMARK    4  A    between atoms: S_9  and  C_6 
REMARK    5  A    between atoms: C_17  and  C_12 
REMARK    6  A    between atoms: O_27  and  C_17 
ROOT
ATOM      1  N   UNL d   1      -0.499   4.844   0.988  0.00  0.00    -0.320 N 
ATOM      2  C   UNL d   1      -0.659   4.043  -0.098  0.00  0.00     0.167 A 
ATOM      3  C   UNL d   1       0.234   5.930   0.582  0.00  0.00     0.132 A 
ATOM      4  N   UNL d   1       0.470   5.798  -0.710  0.00  0.00    -0.283 N 
ATOM      5  HN  UNL d   1       0.973   6.465  -1.296  1.00  0.00     0.188 HD
ATOM      6  N   UNL d   1      -0.085   4.597  -1.138  0.00  0.00    -0.278 N 
ATOM      7  HN  UNL d   1      -0.051   4.218  -2.085  1.00  0.00     0.189 HD
ATOM      8  H   UNL d   1      -0.813   4.638   1.922  0.00  0.00     0.169 HD
ENDROOT
BRANCH   2   9
ATOM      9  S   UNL d   1      -1.644   2.635   0.015  0.00  0.00    -0.032 SA
BRANCH   9  10
ATOM     10  C   UNL d   1      -0.413   1.350  -0.041  0.00  0.00     0.110 A 
ATOM     11  C   UNL d   1       0.430   0.973   1.000  0.00  0.00     0.137 A 
ATOM     12  C   UNL d   1       1.293  -0.123   0.870  0.00  0.00     0.058 A 
ATOM     13  C   UNL d   1       1.268  -0.867  -0.309  0.00  0.00     0.057 A 
ATOM     14  C   UNL d   1       0.369  -0.477  -1.291  0.00  0.00     0.106 A 
ATOM     15  N   UNL d   1      -0.453   0.603  -1.179  0.00  0.00    -0.357 N 
ATOM     16  HN  UNL d   1      -1.089   0.850  -1.938  1.00  0.00     0.166 HD
BRANCH  11  17
ATOM     17  N   UNL d   1       0.356   1.590   2.301  0.00  0.00    -0.113 N 
ATOM     18  O   UNL d   1       0.636   2.791   2.395  0.00  0.00    -0.532 OA
ATOM     19  O   UNL d   1       0.048   0.857   3.248  0.00  0.00    -0.532 OA
ENDBRANCH  11  17
BRANCH  13  20
ATOM     20  C   UNL d   1       2.128  -2.048  -0.538  0.00  0.00     0.294 C 
ATOM     21  O   UNL d   1       2.067  -2.753  -1.535  0.00  0.00    -0.259 OA
BRANCH  20  22
ATOM     22  O   UNL d   1       2.977  -2.198   0.506  0.00  0.00    -0.322 OA
ATOM     23  C   UNL d   1       3.886  -3.295   0.387  0.00  0.00     0.213 C 
ENDBRANCH  20  22
ENDBRANCH  13  20
ENDBRANCH   9  10
ENDBRANCH   2   9
BRANCH   3  24
ATOM     24  C   UNL d   1       0.599   7.028   1.474  0.00  0.00     0.013 A 
ATOM     25  C   UNL d   1       0.847   6.803   2.837  0.00  0.00     0.039 A 
ATOM     26  C   UNL d   1       1.137   7.871   3.689  0.00  0.00     0.036 A 
ATOM     27 CL   UNL d   1       1.424   7.570   5.359  0.00  0.00    -0.084 Cl
ATOM     28  C   UNL d   1       1.186   9.173   3.203  0.00  0.00     0.047 A 
ATOM     29  C   UNL d   1       0.957   9.399   1.849  0.00  0.00     0.036 A 
ATOM     30  C   UNL d   1       0.672   8.338   0.984  0.00  0.00     0.039 A 
ATOM     31 CL   UNL d   1       1.004  11.009   1.241  0.00  0.00    -0.084 Cl
ENDBRANCH   3  24
TORSDOF 6
