REMARK  5 active torsions:
REMARK  status: ('A' for Active; 'I' for Inactive)
REMARK    1  A    between atoms: C_9  and  C_3 
REMARK    2  A    between atoms: O_16  and  C_4 
REMARK    3  A    between atoms: C_8  and  C_5 
REMARK    4  A    between atoms: O_17  and  C_9 
REMARK    5  A    between atoms: C_18  and  O_17 
ROOT
ATOM      1  N   UNL d   1      -0.240  -1.153   0.130  0.00  0.00    -0.321 N 
ATOM      2  HN  UNL d   1      -0.767  -2.026   0.130  1.00  0.00     0.169 HD
ATOM      3  C   UNL d   1      -0.172   1.248   0.050  0.00  0.00     0.105 A 
ATOM      4  C   UNL d   1      -0.848   0.044   0.049  0.00  0.00     0.159 A 
ATOM      5  C   UNL d   1       1.102  -1.134   0.210  0.00  0.00     0.124 A 
ATOM      6  N   UNL d   1       1.858  -0.021   0.239  0.00  0.00    -0.350 N 
ATOM      7  HN  UNL d   1       2.874  -0.062   0.317  1.00  0.00     0.166 HD
ATOM      8  C   UNL d   1       1.197   1.151   0.157  0.00  0.00     0.111 A 
ENDROOT
BRANCH   3   9
ATOM      9  C   UNL d   1      -0.872   2.524  -0.126  0.00  0.00     0.299 C 
ATOM     10  O   UNL d   1      -2.082   2.584  -0.281  0.00  0.00    -0.259 OA
BRANCH   9  11
ATOM     11  O   UNL d   1       0.011   3.547  -0.174  0.00  0.00    -0.318 OA
BRANCH  11  12
ATOM     12  C   UNL d   1      -0.497   4.802  -0.648  0.00  0.00     0.174 C 
ATOM     13  C   UNL d   1      -0.331   4.846  -2.156  0.00  0.00     0.034 C 
ENDBRANCH  11  12
ENDBRANCH   9  11
ENDBRANCH   3   9
BRANCH   4  14
ATOM     14  O   UNL d   1      -2.210  -0.046  -0.051  0.00  0.00    -0.345 OA
ATOM     15  H   UNL d   1      -2.583   0.855  -0.143  0.00  0.00     0.219 HD
ENDBRANCH   4  14
BRANCH   5  16
ATOM     16  C   UNL d   1       1.778  -2.435   0.231  0.00  0.00     0.049 A 
ATOM     17  S   UNL d   1       3.495  -2.543   0.277  0.00  0.00    -0.098 SA
ATOM     18  C   UNL d   1       3.466  -4.250   0.270  0.00  0.00     0.050 A 
ATOM     19  C   UNL d   1       2.183  -4.745   0.232  0.00  0.00     0.009 A 
ATOM     20  C   UNL d   1       1.214  -3.701   0.206  0.00  0.00     0.023 A 
ENDBRANCH   5  16
TORSDOF 5
