REMARK  4 active torsions:
REMARK  status: ('A' for Active; 'I' for Inactive)
REMARK    1  A    between atoms: C_7  and  C_1 
REMARK    2  A    between atoms: C_3  and  C_4 
REMARK    3  A    between atoms: C_11  and  C_5 
REMARK    4  A    between atoms: O_12  and  N_9 
ROOT
ATOM      1  C   UNL d   1      -6.919  -0.169   0.034  0.00  0.00     0.030 A 
ATOM      2  S   UNL d   1      -8.546   0.383   0.077  0.00  0.00    -0.079 SA
ATOM      3  C   UNL d   1      -9.178  -1.197   0.082  0.00  0.00     0.059 A 
ATOM      4  C   UNL d   1      -6.876  -1.553   0.057  0.00  0.00     0.023 A 
ATOM      5  C   UNL d   1      -8.177  -2.144   0.068  0.00  0.00     0.029 A 
ENDROOT
BRANCH   3   6
ATOM      6  C   UNL d   1     -10.574  -1.492   0.097  0.00  0.00    -0.054 C 
ATOM      7  C   UNL d   1     -11.746  -1.749   0.099  0.00  0.00    -0.061 C 
BRANCH   7   8
ATOM      8  C   UNL d   1     -13.146  -2.054   0.087  0.00  0.00     0.018 A 
ATOM      9  C   UNL d   1     -14.084  -1.018   0.070  0.00  0.00     0.020 A 
ATOM     10  C   UNL d   1     -15.450  -1.311   0.039  0.00  0.00     0.001 A 
ATOM     11  C   UNL d   1     -15.879  -2.637   0.027  0.00  0.00     0.000 A 
ATOM     12  C   UNL d   1     -14.947  -3.673   0.050  0.00  0.00     0.001 A 
ATOM     13  C   UNL d   1     -13.580  -3.382   0.082  0.00  0.00     0.020 A 
ENDBRANCH   7   8
ENDBRANCH   3   6
BRANCH   1  14
ATOM     14  C   UNL d   1      -5.804   0.774   0.014  0.00  0.00     0.045 C 
ATOM     15  N   UNL d   1      -4.669   0.410   0.545  0.00  0.00    -0.273 N 
ATOM     16  HN  UNL d   1      -4.498  -0.502   0.970  1.00  0.00     0.194 HD
ATOM     17  C   UNL d   1      -5.980   2.131  -0.642  0.00  0.00     0.071 C 
BRANCH  15  18
ATOM     18  O   UNL d   1      -3.712   1.437   0.458  0.00  0.00    -0.290 OA
ATOM     19  H   UNL d   1      -2.937   1.055   0.912  0.00  0.00     0.244 HD
ENDBRANCH  15  18
ENDBRANCH   1  14
TORSDOF 4
