REMARK  4 active torsions:
REMARK  status: ('A' for Active; 'I' for Inactive)
REMARK    1  A    between atoms: C_8  and  C_1 
REMARK    2  A    between atoms: S_11  and  C_5 
REMARK    3  A    between atoms: C_15  and  S_11 
REMARK    4  A    between atoms: C_16  and  C_15 
ROOT
ATOM      1  C   UNL d   1      -0.508   1.133  -0.058  0.00  0.00     0.119 A 
ATOM      2  S   UNL d   1      -1.234  -0.241   0.691  0.00  0.00    -0.043 SA
ATOM      3  N   UNL d   1       0.581   0.833  -0.746  0.00  0.00    -0.290 N 
ATOM      4  HN  UNL d   1       1.137   1.522  -1.252  1.00  0.00     0.187 HD
ATOM      5  C   UNL d   1       0.015  -1.194   0.009  0.00  0.00     0.129 A 
ATOM      6  N   UNL d   1       0.885  -0.513  -0.704  0.00  0.00    -0.287 N 
ATOM      7  HN  UNL d   1       1.689  -0.931  -1.172  1.00  0.00     0.188 HD
ENDROOT
BRANCH   1   8
ATOM      8  C   UNL d   1      -1.071   2.481   0.075  0.00  0.00     0.083 A 
ATOM      9  N   UNL d   1      -2.184   2.640   0.841  0.00  0.00    -0.361 N 
ATOM     10  C   UNL d   1      -2.665   3.905   0.933  0.00  0.00     0.105 A 
ATOM     11  HN  UNL d   1      -2.630   1.856   1.317  1.00  0.00     0.165 HD
ATOM     12  C   UNL d   1      -2.068   4.977   0.293  0.00  0.00     0.104 A 
ATOM     13  N   UNL d   1      -0.962   4.835  -0.471  0.00  0.00    -0.372 N 
ATOM     14  C   UNL d   1      -0.481   3.568  -0.564  0.00  0.00     0.120 A 
ATOM     15  HN  UNL d   1      -0.520   5.623  -0.944  1.00  0.00     0.164 HD
ENDBRANCH   1   8
BRANCH   5  16
ATOM     16  S   UNL d   1       0.108  -2.927   0.221  0.00  0.00    -0.099 SA
BRANCH  16  17
ATOM     17  C   UNL d   1       1.880  -3.207  -0.065  0.00  0.00     0.120 C 
BRANCH  17  18
ATOM     18  C   UNL d   1       2.227  -4.677  -0.033  0.00  0.00    -0.049 A 
ATOM     19  C   UNL d   1       2.243  -5.429  -1.218  0.00  0.00     0.008 A 
ATOM     20  C   UNL d   1       2.570  -6.787  -1.194  0.00  0.00     0.001 A 
ATOM     21  C   UNL d   1       2.879  -7.410   0.013  0.00  0.00     0.000 A 
ATOM     22  C   UNL d   1       2.855  -6.677   1.198  0.00  0.00     0.001 A 
ATOM     23  C   UNL d   1       2.529  -5.320   1.177  0.00  0.00     0.008 A 
ENDBRANCH  17  18
ENDBRANCH  16  17
ENDBRANCH   5  16
TORSDOF 4
