REMARK  2 active torsions:
REMARK  status: ('A' for Active; 'I' for Inactive)
REMARK    1  A    between atoms: C_7  and  C_1 
REMARK    2  A    between atoms: O_12  and  C_7 
ROOT
ATOM      1  C   UNL d   1       1.426  -1.230  -0.024  0.00  0.00     0.137 A 
ATOM      2  C   UNL d   1      -0.029   0.439  -0.010  0.00  0.00     0.155 A 
ATOM      3  N   UNL d   1       0.080  -0.917  -0.018  0.00  0.00    -0.294 N 
ATOM      4  N   UNL d   1       1.112   1.058   0.003  0.00  0.00    -0.338 N 
ATOM      5  HN  UNL d   1       1.284   2.064   0.012  1.00  0.00     0.168 HD
ATOM      6  C   UNL d   1       2.042   0.031   0.001  0.00  0.00     0.041 A 
ATOM      7  S   UNL d   1      -1.687   0.953  -0.005  0.00  0.00    -0.064 SA
ATOM      8  C   UNL d   1      -1.127  -1.591  -0.014  0.00  0.00     0.107 A 
ATOM      9  C   UNL d   1      -2.174  -0.748  -0.006  0.00  0.00     0.071 A 
ATOM     10  C   UNL d   1       3.476   0.414   0.031  0.00  0.00     0.071 C 
ENDROOT
BRANCH   1  11
ATOM     11  C   UNL d   1       1.900  -2.592  -0.044  0.00  0.00     0.196 C 
ATOM     12  O   UNL d   1       1.180  -3.578  -0.052  0.00  0.00    -0.645 OA
BRANCH  11  13
ATOM     13  O   UNL d   1       3.245  -2.724  -0.058  0.00  0.00    -0.772 OA
ATOM     14  H   UNL d   1       3.759  -1.906  -0.061  0.00  0.00     0.167 HD
ENDBRANCH  11  13
ENDBRANCH   1  11
TORSDOF 2
