REMARK  5 active torsions:
REMARK  status: ('A' for Active; 'I' for Inactive)
REMARK    1  A    between atoms: C_7  and  C_6 
REMARK    2  A    between atoms: O_11  and  C_7 
REMARK    3  A    between atoms: C_16  and  O_11 
REMARK    4  A    between atoms: C_17  and  C_16 
REMARK    5  A    between atoms: C_18  and  C_17 
ROOT
ATOM      1  C   UNL d   1      -0.677   0.819  -0.039  0.00  0.00     0.006 A 
ATOM      2  C   UNL d   1      -1.141  -0.514  -0.132  0.00  0.00     0.027 A 
ATOM      3  C   UNL d   1       0.021  -1.420  -0.130  0.00  0.00     0.194 A 
ATOM      4  C   UNL d   1       0.784   0.779  -0.029  0.00  0.00    -0.010 A 
ATOM      5  C   UNL d   1       1.213  -0.563  -0.067  0.00  0.00     0.026 A 
ATOM      6  C   UNL d   1      -1.636   1.827   0.031  0.00  0.00     0.051 A 
ATOM      7  O   UNL d   1      -0.006  -2.631  -0.176  0.00  0.00    -0.287 OA
ATOM      8  C   UNL d   1      -2.472  -0.892  -0.188  0.00  0.00     0.016 A 
ATOM      9  C   UNL d   1       1.755   1.767  -0.032  0.00  0.00     0.013 A 
ATOM     10  C   UNL d   1       2.537  -0.964  -0.075  0.00  0.00     0.016 A 
ATOM     11  C   UNL d   1      -3.006   1.458  -0.042  0.00  0.00     0.018 A 
ATOM     12  C   UNL d   1      -3.417   0.121  -0.157  0.00  0.00     0.002 A 
ATOM     13  C   UNL d   1       3.111   1.391  -0.042  0.00  0.00     0.001 A 
ATOM     14  C   UNL d   1       3.499   0.040  -0.057  0.00  0.00     0.001 A 
ENDROOT
BRANCH   6  15
ATOM     15  C   UNL d   1      -1.325   3.243   0.364  0.00  0.00     0.294 C 
ATOM     16  O   UNL d   1      -0.433   3.596   1.115  0.00  0.00    -0.259 OA
BRANCH  15  17
ATOM     17  O   UNL d   1      -2.303   4.044  -0.135  0.00  0.00    -0.317 OA
BRANCH  17  18
ATOM     18  C   UNL d   1      -2.738   5.080   0.757  0.00  0.00     0.179 C 
BRANCH  18  19
ATOM     19  C   UNL d   1      -2.348   6.467   0.268  0.00  0.00     0.026 C 
BRANCH  19  20
ATOM     20  C   UNL d   1      -2.921   7.520   1.220  0.00  0.00    -0.002 C 
ATOM     21  C   UNL d   1      -2.585   8.938   0.796  0.00  0.00     0.005 C 
ENDBRANCH  19  20
ENDBRANCH  18  19
ENDBRANCH  17  18
ENDBRANCH  15  17
ENDBRANCH   6  15
TORSDOF 5
