REMARK  7 active torsions:
REMARK  status: ('A' for Active; 'I' for Inactive)
REMARK    1  A    between atoms: N_2  and  C_1 
REMARK    2  A    between atoms: S_9  and  C_3 
REMARK    3  A    between atoms: C_12  and  C_4 
REMARK       I    between atoms: C_5  and  N_10 
REMARK    4  A    between atoms: C_11  and  C_5 
REMARK    5  A    between atoms: C_14  and  S_9 
REMARK    6  A    between atoms: N_10  and  C_13 
REMARK    7  A    between atoms: O_24  and  C_12 
ROOT
ATOM      1  C   UNL d   1      -0.001   3.963  -0.814  0.00  0.00     0.052 A 
ATOM      2  C   UNL d   1      -0.478   3.871   0.512  0.00  0.00     0.034 A 
ATOM      3  C   UNL d   1       0.672   5.133  -1.211  0.00  0.00     0.031 A 
ATOM      4  C   UNL d   1      -0.410   5.010   1.338  0.00  0.00     0.021 A 
ATOM      5  C   UNL d   1       0.770   6.236  -0.364  0.00  0.00     0.002 A 
ATOM      6  C   UNL d   1       0.199   6.187   0.900  0.00  0.00     0.002 A 
ENDROOT
BRANCH   2   7
ATOM      7  S   UNL d   1      -0.991   2.371   1.368  0.00  0.00    -0.068 SA
BRANCH   7   8
ATOM      8  C   UNL d   1       0.337   1.246   0.963  0.00  0.00     0.108 A 
ATOM      9  C   UNL d   1       0.143  -0.053   0.508  0.00  0.00     0.137 A 
ATOM     10  C   UNL d   1       1.219  -0.795  -0.003  0.00  0.00     0.058 A 
ATOM     11  C   UNL d   1       2.491  -0.222  -0.004  0.00  0.00     0.057 A 
ATOM     12  C   UNL d   1       2.632   1.039   0.552  0.00  0.00     0.106 A 
ATOM     13  N   UNL d   1       1.592   1.775   1.024  0.00  0.00    -0.357 N 
ATOM     14  HN  UNL d   1       1.747   2.703   1.416  1.00  0.00     0.166 HD
BRANCH   9  15
ATOM     15  N   UNL d   1      -1.155  -0.686   0.548  0.00  0.00    -0.113 N 
ATOM     16  O   UNL d   1      -1.742  -0.719   1.637  0.00  0.00    -0.532 OA
ATOM     17  O   UNL d   1      -1.530  -1.261  -0.483  0.00  0.00    -0.532 OA
ENDBRANCH   9  15
BRANCH  11  18
ATOM     18  C   UNL d   1       3.678  -0.872  -0.599  0.00  0.00     0.294 C 
ATOM     19  O   UNL d   1       4.812  -0.441  -0.487  0.00  0.00    -0.259 OA
BRANCH  18  20
ATOM     20  O   UNL d   1       3.293  -1.948  -1.327  0.00  0.00    -0.322 OA
ATOM     21  C   UNL d   1       4.347  -2.573  -2.060  0.00  0.00     0.213 C 
ENDBRANCH  18  20
ENDBRANCH  11  18
ENDBRANCH   7   8
ENDBRANCH   2   7
BRANCH   1  22
ATOM     22  N   UNL d   1      -0.084   2.967  -1.813  0.00  0.00    -0.321 N 
ATOM     23  C   UNL d   1      -1.090   2.043  -2.015  0.00  0.00     0.263 C 
ATOM     24  O   UNL d   1      -2.140   2.021  -1.384  0.00  0.00    -0.267 OA
ATOM     25  H   UNL d   1       0.550   3.070  -2.599  0.00  0.00     0.169 HD
BRANCH  23  26
ATOM     26  C   UNL d   1      -0.808   1.062  -3.063  0.00  0.00     0.072 A 
ATOM     27  S   UNL d   1       0.627   1.107  -4.005  0.00  0.00    -0.097 SA
ATOM     28  C   UNL d   1       0.233  -0.350  -4.805  0.00  0.00     0.050 A 
ATOM     29  C   UNL d   1      -0.977  -0.857  -4.389  0.00  0.00     0.009 A 
ATOM     30  C   UNL d   1      -1.590  -0.026  -3.408  0.00  0.00     0.025 A 
ENDBRANCH  23  26
ENDBRANCH   1  22
TORSDOF 7
