REMARK  7 active torsions:
REMARK  status: ('A' for Active; 'I' for Inactive)
REMARK    1  A    between atoms: C_3  and  O_10 
REMARK       I    between atoms: N_12  and  C_3 
REMARK    2  A    between atoms: C_17  and  C_4 
REMARK    3  A    between atoms: O_10  and  N_5 
REMARK    4  A    between atoms: C_9  and  C_13 
REMARK    5  A    between atoms: N_18  and  C_9 
REMARK    6  A    between atoms: O_19  and  C_17 
REMARK    7  A    between atoms: C_20  and  O_19 
ROOT
ATOM      1  C   UNL d   1       4.788  -9.031   0.807  0.00  0.00     0.004 A 
ATOM      2  C   UNL d   1       5.310  -8.028   1.630  0.00  0.00     0.017 A 
ATOM      3  C   UNL d   1       5.362 -10.308   0.829  0.00  0.00     0.017 A 
ATOM      4  C   UNL d   1       7.014  -9.564   2.430  0.00  0.00     0.069 A 
ATOM      5  C   UNL d   1       6.462 -10.578   1.648  0.00  0.00     0.037 A 
ATOM      6  C   UNL d   1       6.417  -8.300   2.443  0.00  0.00     0.037 A 
ENDROOT
BRANCH   1   7
ATOM      7  C   UNL d   1       3.644  -8.760  -0.123  0.00  0.00     0.109 C 
ATOM      8  N   UNL d   1       3.554  -9.516  -1.174  0.00  0.00    -0.244 N 
ATOM      9  HN  UNL d   1       4.210 -10.268  -1.386  1.00  0.00     0.196 HD
BRANCH   8  10
ATOM     10  O   UNL d   1       2.453  -9.189  -1.993  0.00  0.00    -0.180 OA
BRANCH  10  11
ATOM     11  C   UNL d   1       2.503  -9.938  -3.155  0.00  0.00     0.384 C 
ATOM     12  N   UNL d   1       1.423  -9.713  -4.006  0.00  0.00    -0.335 N 
ATOM     13  C   UNL d   1       0.322  -8.820  -3.700  0.00  0.00     0.154 C 
ATOM     14  C   UNL d   1       1.356 -10.427  -5.268  0.00  0.00     0.154 C 
ATOM     15  O   UNL d   1       3.401 -10.734  -3.431  0.00  0.00    -0.236 OA
ENDBRANCH  10  11
ENDBRANCH   8  10
BRANCH   7  16
ATOM     16  N   UNL d   1       2.758  -7.754   0.183  0.00  0.00    -0.286 NA
ATOM     17  H   UNL d   1       1.901  -7.828  -0.353  0.00  0.00     0.125 HD
ATOM     18  H   UNL d   1       2.584  -7.614   1.172  0.00  0.00     0.125 HD
ENDBRANCH   7  16
ENDBRANCH   1   7
BRANCH   4  19
ATOM     19  O   UNL d   1       8.131  -9.698   3.211  0.00  0.00    -0.345 OA
BRANCH  19  20
ATOM     20  C   UNL d   1       9.043 -10.730   2.800  0.00  0.00     0.233 C 
BRANCH  20  21
ATOM     21  C   UNL d   1      10.435 -10.489   3.301  0.00  0.00     0.041 A 
ATOM     22  N   UNL d   1      11.298 -11.574   3.410  0.00  0.00    -0.355 N 
ATOM     23  C   UNL d   1      12.486 -11.171   3.808  0.00  0.00     0.047 A 
ATOM     24  HN  UNL d   1      11.047 -12.542   3.210  1.00  0.00     0.166 HD
ATOM     25  S   UNL d   1      12.640  -9.482   4.080  0.00  0.00    -0.087 SA
ATOM     26  C   UNL d   1      13.653 -12.069   4.014  0.00  0.00     0.076 C 
ATOM     27  C   UNL d   1      11.004  -9.271   3.625  0.00  0.00     0.078 A 
ENDBRANCH  20  21
ENDBRANCH  19  20
ENDBRANCH   4  19
TORSDOF 7
