REMARK  6 active torsions:
REMARK  status: ('A' for Active; 'I' for Inactive)
REMARK    1  A    between atoms: C_11  and  C_3 
REMARK    2  A    between atoms: C_16  and  C_10 
REMARK    3  A    between atoms: O_15  and  C_11 
REMARK    4  A    between atoms: N_12  and  O_15 
REMARK    5  A    between atoms: C_17  and  C_14 
REMARK    6  A    between atoms: N_23  and  C_14 
ROOT
ATOM      1  C   UNL d   1      -2.993   3.017  -0.115  0.00  0.00     0.172 A 
ATOM      2  N   UNL d   1      -4.100   2.231   0.007  0.00  0.00    -0.235 N 
ATOM      3  C   UNL d   1      -2.533   0.610  -0.004  0.00  0.00     0.109 A 
ATOM      4  N   UNL d   1      -3.288   4.285  -0.115  0.00  0.00    -0.319 N 
ATOM      5  HN  UNL d   1      -2.669   5.091  -0.197  1.00  0.00     0.169 HD
ATOM      6  N   UNL d   1      -5.191   3.007   0.082  0.00  0.00    -0.276 N 
ATOM      7  HN  UNL d   1      -6.170   2.729   0.162  1.00  0.00     0.189 HD
ATOM      8  C   UNL d   1      -3.860   0.868   0.064  0.00  0.00     0.056 A 
ATOM      9  S   UNL d   1      -1.544   2.078  -0.183  0.00  0.00    -0.044 SA
ATOM     10  C   UNL d   1      -4.665   4.248   0.025  0.00  0.00     0.132 A 
ATOM     11  C   UNL d   1      -4.997  -0.078   0.234  0.00  0.00     0.072 C 
ENDROOT
BRANCH   3  12
ATOM     12  C   UNL d   1      -1.907  -0.731   0.141  0.00  0.00     0.324 C 
ATOM     13  O   UNL d   1      -2.544  -1.740   0.420  0.00  0.00    -0.257 OA
BRANCH  12  14
ATOM     14  O   UNL d   1      -0.558  -0.670  -0.067  0.00  0.00    -0.193 OA
BRANCH  14  15
ATOM     15  N   UNL d   1       0.093  -1.508   0.865  0.00  0.00    -0.246 N 
ATOM     16  C   UNL d   1       1.339  -1.704   0.539  0.00  0.00     0.109 C 
ATOM     17  HN  UNL d   1      -0.355  -1.908   1.689  1.00  0.00     0.196 HD
BRANCH  16  18
ATOM     18  C   UNL d   1       2.216  -2.402   1.532  0.00  0.00     0.004 A 
ATOM     19  C   UNL d   1       1.661  -3.253   2.497  0.00  0.00     0.016 A 
ATOM     20  C   UNL d   1       2.483  -3.870   3.445  0.00  0.00     0.024 A 
ATOM     21  C   UNL d   1       3.856  -3.628   3.435  0.00  0.00     0.034 A 
ATOM     22  C   UNL d   1       4.417  -2.773   2.487  0.00  0.00     0.024 A 
ATOM     23 CL   UNL d   1       4.867  -4.380   4.606  0.00  0.00    -0.084 Cl
ATOM     24  C   UNL d   1       3.597  -2.159   1.536  0.00  0.00     0.016 A 
ENDBRANCH  16  18
BRANCH  16  25
ATOM     25  N   UNL d   1       1.886  -1.306  -0.660  0.00  0.00    -0.286 NA
ATOM     26  H   UNL d   1       1.175  -1.118  -1.360  0.00  0.00     0.125 HD
ATOM     27  H   UNL d   1       2.613  -1.916  -1.024  0.00  0.00     0.125 HD
ENDBRANCH  16  25
ENDBRANCH  14  15
ENDBRANCH  12  14
ENDBRANCH   3  12
BRANCH  10  28
ATOM     28  C   UNL d   1      -5.487   5.453   0.124  0.00  0.00     0.009 A 
ATOM     29  C   UNL d   1      -4.942   6.722  -0.120  0.00  0.00     0.017 A 
ATOM     30  C   UNL d   1      -5.743   7.868  -0.028  0.00  0.00     0.025 A 
ATOM     31  C   UNL d   1      -7.090   7.750   0.313  0.00  0.00     0.034 A 
ATOM     32  C   UNL d   1      -7.645   6.499   0.566  0.00  0.00     0.025 A 
ATOM     33 CL   UNL d   1      -8.073   9.158   0.424  0.00  0.00    -0.084 Cl
ATOM     34  C   UNL d   1      -6.846   5.357   0.469  0.00  0.00     0.017 A 
ENDBRANCH  10  28
TORSDOF 6
