REMARK  6 active torsions:
REMARK  status: ('A' for Active; 'I' for Inactive)
REMARK    1  A    between atoms: C_2  and  S_1 
REMARK    2  A    between atoms: N_6  and  S_1 
REMARK    3  A    between atoms: C_13  and  N_6 
REMARK    4  A    between atoms: C_15  and  N_6 
REMARK    5  A    between atoms: C_16  and  C_13 
REMARK    6  A    between atoms: C_14  and  C_15 
ROOT
ATOM      1  N   UNL d   1       3.118   1.629   5.129  0.00  0.00    -0.197 NA
ATOM      2  C   UNL d   1       2.854   1.622   3.999  0.00  0.00     0.060 C 
ATOM      3  C   UNL d   1       2.495   1.568   2.576  0.00  0.00     0.139 C 
ENDROOT
BRANCH   3   4
ATOM      4  C   UNL d   1       1.014   1.222   2.434  0.00  0.00     0.122 C 
BRANCH   4   5
ATOM      5  N   UNL d   1       0.530   1.142   1.013  0.00  0.00    -0.201 NA
BRANCH   5   6
ATOM      6  S   UNL d   1       1.128  -0.164   0.071  0.00  0.00     0.248 S 
ATOM      7  O   UNL d   1       0.396  -0.268  -1.169  0.00  0.00    -0.206 OA
ATOM      8  O   UNL d   1       2.571  -0.062   0.058  0.00  0.00    -0.206 OA
BRANCH   6   9
ATOM      9  C   UNL d   1       0.815  -1.648   0.866  0.00  0.00     0.130 A 
ATOM     10  C   UNL d   1      -0.327  -2.410   0.775  0.00  0.00     0.097 A 
ATOM     11  O   UNL d   1      -0.187  -3.507   1.567  0.00  0.00    -0.241 OA
ATOM     12  C   UNL d   1      -1.601  -2.333   0.035  0.00  0.00     0.081 C 
ATOM     13  N   UNL d   1       1.043  -3.480   2.184  0.00  0.00    -0.264 N 
ATOM     14  C   UNL d   1       1.664  -2.376   1.742  0.00  0.00     0.054 A 
ATOM     15  HN  UNL d   1       1.410  -4.163   2.847  1.00  0.00     0.194 HD
ATOM     16  C   UNL d   1       3.036  -2.104   2.235  0.00  0.00     0.072 C 
ENDBRANCH   6   9
ENDBRANCH   5   6
BRANCH   5  17
ATOM     17  C   UNL d   1      -0.938   1.411   0.920  0.00  0.00     0.146 C 
BRANCH  17  18
ATOM     18  C   UNL d   1      -1.460   1.929  -0.401  0.00  0.00    -0.044 A 
ATOM     19  C   UNL d   1      -2.798   1.682  -0.756  0.00  0.00     0.008 A 
ATOM     20  C   UNL d   1      -3.314   2.146  -1.968  0.00  0.00     0.001 A 
ATOM     21  C   UNL d   1      -2.505   2.874  -2.836  0.00  0.00     0.000 A 
ATOM     22  C   UNL d   1      -1.187   3.155  -2.484  0.00  0.00     0.001 A 
ATOM     23  C   UNL d   1      -0.672   2.700  -1.267  0.00  0.00     0.008 A 
ENDBRANCH  17  18
ENDBRANCH   5  17
ENDBRANCH   4   5
ENDBRANCH   3   4
TORSDOF 6
