REMARK  2 active torsions:
REMARK  status: ('A' for Active; 'I' for Inactive)
REMARK       I    between atoms: C_2  and  N_5 
REMARK    1  A    between atoms: C_12  and  C_2 
REMARK    2  A    between atoms: N_5  and  C_8 
ROOT
ATOM      1  C   UNL d   1       1.541   0.264  -0.197  0.00  0.00     0.294 A 
ATOM      2  C   UNL d   1       0.089   0.344  -0.098  0.00  0.00     0.050 A 
ATOM      3  O   UNL d   1       1.860  -1.065  -0.138  0.00  0.00    -0.313 OA
ATOM      4  C   UNL d   1      -0.423  -0.928   0.015  0.00  0.00    -0.018 A 
ATOM      5  C   UNL d   1      -0.708   1.476  -0.110  0.00  0.00     0.048 A 
ATOM      6  C   UNL d   1      -2.094   1.317  -0.009  0.00  0.00     0.036 A 
ATOM      7  C   UNL d   1       0.689  -1.899  -0.004  0.00  0.00     0.218 A 
ATOM      8  O   UNL d   1       2.320   1.188  -0.309  0.00  0.00    -0.259 OA
ATOM      9  C   UNL d   1      -1.788  -1.119   0.122  0.00  0.00     0.012 A 
ATOM     10  C   UNL d   1      -2.622   0.012   0.108  0.00  0.00     0.030 A 
ENDROOT
BRANCH   6  11
ATOM     11  N   UNL d   1      -3.007   2.400  -0.015  0.00  0.00    -0.323 N 
ATOM     12  C   UNL d   1      -2.677   3.739  -0.157  0.00  0.00     0.256 C 
ATOM     13  O   UNL d   1      -1.548   4.179  -0.343  0.00  0.00    -0.267 OA
ATOM     14  H   UNL d   1      -3.987   2.159   0.039  0.00  0.00     0.169 HD
BRANCH  12  15
ATOM     15  C   UNL d   1      -3.789   4.735  -0.102  0.00  0.00     0.032 A 
ATOM     16  C   UNL d   1      -4.998   4.512   0.567  0.00  0.00     0.017 A 
ATOM     17  C   UNL d   1      -5.956   5.531   0.631  0.00  0.00     0.001 A 
ATOM     18  C   UNL d   1      -5.711   6.771   0.038  0.00  0.00     0.000 A 
ATOM     19  C   UNL d   1      -4.511   6.999  -0.628  0.00  0.00     0.001 A 
ATOM     20  C   UNL d   1      -3.556   5.986  -0.697  0.00  0.00     0.017 A 
ENDBRANCH  12  15
ENDBRANCH   6  11
TORSDOF 2
