REMARK  7 active torsions:
REMARK  status: ('A' for Active; 'I' for Inactive)
REMARK    1  A    between atoms: N_5  and  C_1 
REMARK    2  A    between atoms: N_6  and  C_1 
REMARK    3  A    between atoms: N_2  and  N_5 
REMARK    4  A    between atoms: C_15  and  N_6 
REMARK    5  A    between atoms: C_8  and  C_7 
REMARK    6  A    between atoms: C_17  and  C_15 
REMARK    7  A    between atoms: C_16  and  C_17 
ROOT
ATOM      1  C   UNL d   1       0.868   0.012   0.115  0.00  0.00     0.186 C 
ATOM      2  S   UNL d   1       0.052   0.706   1.411  0.00  0.00    -0.040 SA
ENDROOT
BRANCH   1   3
ATOM      3  N   UNL d   1       0.239  -0.654  -0.937  0.00  0.00    -0.277 N 
ATOM      4  H   UNL d   1       0.772  -1.001  -1.720  0.00  0.00     0.189 HD
BRANCH   3   5
ATOM      5  N   UNL d   1      -1.027  -1.119  -0.753  0.00  0.00    -0.309 N 
ATOM      6  C   UNL d   1      -1.561  -1.834  -1.682  0.00  0.00     0.118 C 
ATOM      7  HN  UNL d   1      -1.541  -0.905   0.102  1.00  0.00     0.186 HD
BRANCH   6   8
ATOM      8  C   UNL d   1      -2.893  -2.440  -1.458  0.00  0.00    -0.019 A 
ATOM      9  C   UNL d   1      -3.492  -2.352  -0.193  0.00  0.00     0.014 A 
ATOM     10  C   UNL d   1      -4.730  -2.952   0.039  0.00  0.00     0.024 A 
ATOM     11  C   UNL d   1      -5.368  -3.633  -0.994  0.00  0.00     0.034 A 
ATOM     12  C   UNL d   1      -4.777  -3.719  -2.257  0.00  0.00     0.024 A 
ATOM     13 CL   UNL d   1      -6.893  -4.377  -0.710  0.00  0.00    -0.084 Cl
ATOM     14  C   UNL d   1      -3.533  -3.124  -2.492  0.00  0.00     0.014 A 
ENDBRANCH   6   8
ENDBRANCH   3   5
ENDBRANCH   1   3
BRANCH   1  15
ATOM     15  N   UNL d   1       2.253  -0.008  -0.016  0.00  0.00    -0.366 N 
ATOM     16  H   UNL d   1       2.622  -0.532  -0.795  0.00  0.00     0.161 HD
BRANCH  15  17
ATOM     17  C   UNL d   1       3.142   0.151   1.135  0.00  0.00     0.126 C 
BRANCH  17  18
ATOM     18  C   UNL d   1       4.620   0.004   0.783  0.00  0.00     0.058 C 
BRANCH  18  19
ATOM     19  C   UNL d   1       5.476   0.053   2.026  0.00  0.00    -0.057 A 
ATOM     20  C   UNL d   1       5.762  -1.119   2.740  0.00  0.00     0.007 A 
ATOM     21  C   UNL d   1       6.513  -1.067   3.916  0.00  0.00     0.001 A 
ATOM     22  C   UNL d   1       6.981   0.157   4.391  0.00  0.00     0.000 A 
ATOM     23  C   UNL d   1       6.697   1.329   3.692  0.00  0.00     0.001 A 
ATOM     24  C   UNL d   1       5.945   1.278   2.517  0.00  0.00     0.007 A 
ENDBRANCH  18  19
ENDBRANCH  17  18
ENDBRANCH  15  17
ENDBRANCH   1  15
TORSDOF 7
