REMARK  2 active torsions:
REMARK  status: ('A' for Active; 'I' for Inactive)
REMARK    1  A    between atoms: O_9  and  C_6 
REMARK    2  A    between atoms: C_11  and  O_9 
ROOT
ATOM      1  C   UNL d   1      -0.771  -1.209   0.020  0.00  0.00     0.104 A 
ATOM      2  N   UNL d   1      -0.236   0.686   1.292  0.00  0.00    -0.307 N 
ATOM      3  C   UNL d   1      -1.209   0.139   0.499  0.00  0.00     0.266 A 
ATOM      4  C   UNL d   1       0.902  -0.024   1.506  0.00  0.00     0.146 A 
ATOM      5  S   UNL d   1       0.827  -1.526   0.624  0.00  0.00    -0.052 SA
ATOM      6  C   UNL d   1      -1.510  -2.054  -0.724  0.00  0.00     0.065 C 
ATOM      7  S   UNL d   1       2.144   0.490   2.468  0.00  0.00    -0.052 SA
ATOM      8  O   UNL d   1      -2.262   0.705   0.253  0.00  0.00    -0.267 OA
ATOM      9  C   UNL d   1      -1.006  -3.379  -1.244  0.00  0.00     0.078 C 
ATOM     10  H   UNL d   1      -0.382   1.595   1.707  0.00  0.00     0.170 HD
ENDROOT
BRANCH   6  11
ATOM     11  O   UNL d   1      -2.789  -1.693  -1.130  0.00  0.00    -0.355 OA
BRANCH  11  12
ATOM     12  C   UNL d   1      -3.767  -2.729  -0.987  0.00  0.00     0.171 C 
ATOM     13  C   UNL d   1      -5.145  -2.146  -1.237  0.00  0.00     0.034 C 
ENDBRANCH  11  12
ENDBRANCH   6  11
TORSDOF 2
