REMARK  4 active torsions:
REMARK  status: ('A' for Active; 'I' for Inactive)
REMARK    1  A    between atoms: C_5  and  C_1 
REMARK    2  A    between atoms: O_15  and  C_6 
REMARK    3  A    between atoms: O_17  and  C_8 
REMARK    4  A    between atoms: O_16  and  C_9 
ROOT
ATOM      1  C   UNL d   1      -3.248  -0.948   1.245  0.00  0.00    -0.009 A 
ATOM      2  C   UNL d   1      -4.759  -1.663   3.549  0.00  0.00     0.135 A 
ATOM      3  C   UNL d   1      -3.507  -1.013   3.682  0.00  0.00     0.104 A 
ATOM      4  C   UNL d   1      -5.237  -1.952   2.251  0.00  0.00     0.104 A 
ATOM      5  C   UNL d   1      -2.773  -0.670   2.533  0.00  0.00     0.050 A 
ATOM      6  C   UNL d   1      -4.478  -1.598   1.125  0.00  0.00     0.050 A 
ENDROOT
BRANCH   1   7
ATOM      7  C   UNL d   1      -2.429  -0.633   0.003  0.00  0.00     0.239 A 
ATOM      8  N   UNL d   1      -1.559  -1.778  -0.327  0.00  0.00    -0.260 NA
ATOM      9  C   UNL d   1      -0.289  -1.183  -0.224  0.00  0.00     0.046 A 
ATOM     10  H   UNL d   1      -1.653  -2.549   0.328  0.00  0.00     0.130 HD
ATOM     11  C   UNL d   1       0.936  -1.807  -0.359  0.00  0.00     0.050 A 
ATOM     12  C   UNL d   1      -0.367   0.176   0.021  0.00  0.00     0.092 A 
ATOM     13  C   UNL d   1       2.084  -1.020  -0.239  0.00  0.00     0.035 A 
ATOM     14 CL   UNL d   1       3.635  -1.756  -0.386  0.00  0.00    -0.084 Cl
ATOM     15  C   UNL d   1       1.998   0.362   0.002  0.00  0.00     0.026 A 
ATOM     16  C   UNL d   1       0.750   0.976   0.137  0.00  0.00     0.040 A 
ATOM     17  O   UNL d   1      -1.659   0.591   0.177  0.00  0.00    -0.324 OA
ENDBRANCH   1   7
BRANCH   3  18
ATOM     18  O   UNL d   1      -3.043  -0.742   4.944  0.00  0.00    -0.353 OA
ATOM     19  C   UNL d   1      -1.791  -0.084   5.093  0.00  0.00     0.210 C 
ENDBRANCH   3  18
BRANCH   4  20
ATOM     20  O   UNL d   1      -6.404  -2.575   1.879  0.00  0.00    -0.353 OA
ATOM     21  C   UNL d   1      -7.319  -3.009   2.874  0.00  0.00     0.210 C 
ENDBRANCH   4  20
BRANCH   2  22
ATOM     22  O   UNL d   1      -5.570  -2.055   4.582  0.00  0.00    -0.351 OA
ATOM     23  C   UNL d   1      -5.207  -1.827   5.933  0.00  0.00     0.210 C 
ENDBRANCH   2  22
TORSDOF 4
