REMARK  9 active torsions:
REMARK  status: ('A' for Active; 'I' for Inactive)
REMARK    1  A    between atoms: C_2  and  N_1 
REMARK    2  A    between atoms: N_5  and  C_2 
REMARK    3  A    between atoms: C_19  and  C_3 
REMARK    4  A    between atoms: C_6  and  N_5 
REMARK    5  A    between atoms: O_30  and  C_15 
REMARK    6  A    between atoms: O_31  and  C_18 
REMARK    7  A    between atoms: C_24  and  C_19 
REMARK    8  A    between atoms: O_32  and  C_20 
REMARK    9  A    between atoms: O_33  and  C_22 
ROOT
ATOM      1  N   UNL d   1       2.213   0.692   0.292  0.00  0.00    -0.349 N 
ATOM      2  C   UNL d   1       1.237   1.200  -0.707  0.00  0.00     0.124 C 
ATOM      3  C   UNL d   1      -0.106   0.562  -0.395  0.00  0.00    -0.026 A 
ATOM      4  C   UNL d   1      -0.162  -0.820  -0.175  0.00  0.00    -0.045 A 
ATOM      5  C   UNL d   1      -1.271   1.331  -0.276  0.00  0.00     0.049 A 
ATOM      6  C   UNL d   1       2.158  -0.744   0.650  0.00  0.00     0.130 C 
ATOM      7  C   UNL d   1      -2.500   0.736   0.041  0.00  0.00     0.102 A 
ATOM      8  C   UNL d   1      -1.392  -1.430   0.054  0.00  0.00     0.047 A 
ATOM      9  C   UNL d   1      -2.566  -0.666   0.167  0.00  0.00     0.102 A 
ATOM     10  C   UNL d   1       1.138  -1.574  -0.143  0.00  0.00     0.059 C 
ENDROOT
BRANCH   1  11
ATOM     11  C   UNL d   1       3.020   1.577   1.013  0.00  0.00     0.175 C 
ATOM     12  S   UNL d   1       3.823   2.864   0.286  0.00  0.00    -0.041 SA
BRANCH  11  13
ATOM     13  N   UNL d   1       2.995   1.323   2.388  0.00  0.00    -0.332 N 
ATOM     14  H   UNL d   1       2.034   1.271   2.733  0.00  0.00     0.168 HD
BRANCH  13  15
ATOM     15  C   UNL d   1       3.930   1.863   3.304  0.00  0.00     0.058 A 
ATOM     16  C   UNL d   1       5.293   1.663   3.073  0.00  0.00     0.057 A 
ATOM     17  C   UNL d   1       6.247   2.270   3.889  0.00  0.00     0.058 A 
ATOM     18 CL   UNL d   1       7.910   1.987   3.520  0.00  0.00    -0.082 Cl
ATOM     19  C   UNL d   1       5.835   3.077   4.956  0.00  0.00     0.057 A 
ATOM     20  C   UNL d   1       4.477   3.210   5.246  0.00  0.00     0.051 A 
ATOM     21 CL   UNL d   1       6.962   3.947   5.936  0.00  0.00    -0.082 Cl
ATOM     22  C   UNL d   1       3.520   2.583   4.439  0.00  0.00     0.062 A 
ATOM     23 CL   UNL d   1       1.852   2.780   4.822  0.00  0.00    -0.082 Cl
ENDBRANCH  13  15
ENDBRANCH  11  13
ENDBRANCH   1  11
BRANCH   2  24
ATOM     24  C   UNL d   1       1.711   0.994  -2.175  0.00  0.00     0.068 C 
BRANCH  24  25
ATOM     25  C   UNL d   1       0.715   1.492  -3.203  0.00  0.00    -0.053 A 
ATOM     26  C   UNL d   1       0.727   2.831  -3.626  0.00  0.00     0.046 A 
ATOM     27  C   UNL d   1      -0.261   3.334  -4.494  0.00  0.00     0.102 A 
ATOM     28  C   UNL d   1      -1.268   2.466  -4.952  0.00  0.00     0.101 A 
ATOM     29  C   UNL d   1      -1.266   1.128  -4.541  0.00  0.00     0.040 A 
ATOM     30  C   UNL d   1      -0.281   0.639  -3.686  0.00  0.00     0.010 A 
BRANCH  27  31
ATOM     31  O   UNL d   1      -0.318   4.646  -4.883  0.00  0.00    -0.353 OA
ATOM     32  C   UNL d   1       0.693   5.530  -4.419  0.00  0.00     0.210 C 
ENDBRANCH  27  31
BRANCH  28  33
ATOM     33  O   UNL d   1      -2.347   2.766  -5.745  0.00  0.00    -0.353 OA
ATOM     34  C   UNL d   1      -2.235   3.869  -6.631  0.00  0.00     0.210 C 
ENDBRANCH  28  33
ENDBRANCH  24  25
ENDBRANCH   2  24
BRANCH   7  35
ATOM     35  O   UNL d   1      -3.640   1.468   0.243  0.00  0.00    -0.353 OA
ATOM     36  C   UNL d   1      -3.534   2.886   0.268  0.00  0.00     0.210 C 
ENDBRANCH   7  35
BRANCH   9  37
ATOM     37  O   UNL d   1      -3.659  -1.454   0.419  0.00  0.00    -0.353 OA
ATOM     38  C   UNL d   1      -4.924  -0.837   0.588  0.00  0.00     0.210 C 
ENDBRANCH   9  37
TORSDOF 9
