REMARK  5 active torsions:
REMARK  status: ('A' for Active; 'I' for Inactive)
REMARK    1  A    between atoms: C_2  and  C_1 
REMARK       I    between atoms: N_5  and  C_2 
REMARK    2  A    between atoms: N_6  and  C_3 
REMARK    3  A    between atoms: C_8  and  N_5 
REMARK    4  A    between atoms: C_11  and  C_8 
REMARK    5  A    between atoms: C_9  and  C_11 
ROOT
ATOM      1  C   UNL d   1       2.816  -0.496   0.126  0.00  0.00     0.253 C 
ATOM      2  O   UNL d   1       3.443   0.209  -0.664  0.00  0.00    -0.268 OA
ATOM      3  N   UNL d   1       3.389  -1.540   0.814  0.00  0.00    -0.356 N 
ATOM      4  H   UNL d   1       2.820  -2.140   1.399  0.00  0.00     0.162 HD
ENDROOT
BRANCH   1   5
ATOM      5  C   UNL d   1       1.359  -0.252   0.389  0.00  0.00     0.058 A 
ATOM      6  C   UNL d   1       0.518   0.259  -0.632  0.00  0.00     0.043 A 
ATOM      7  C   UNL d   1      -0.829   0.475  -0.303  0.00  0.00     0.030 A 
ATOM      8  C   UNL d   1      -1.334   0.190   0.971  0.00  0.00     0.002 A 
ATOM      9  C   UNL d   1      -0.497  -0.317   1.957  0.00  0.00     0.001 A 
ATOM     10  C   UNL d   1       0.851  -0.520   1.675  0.00  0.00     0.019 A 
BRANCH   6  11
ATOM     11  N   UNL d   1       0.989   0.372  -1.937  0.00  0.00    -0.393 N 
ATOM     12  C   UNL d   1       0.204   0.786  -3.077  0.00  0.00     0.146 C 
ATOM     13  H   UNL d   1       1.992   0.581  -1.984  0.00  0.00     0.159 HD
ENDBRANCH   6  11
ENDBRANCH   1   5
BRANCH   3  14
ATOM     14  C   UNL d   1       4.813  -1.812   0.741  0.00  0.00     0.127 C 
BRANCH  14  15
ATOM     15  C   UNL d   1       5.226  -3.055   1.537  0.00  0.00     0.058 C 
BRANCH  15  16
ATOM     16  C   UNL d   1       4.990  -2.959   3.029  0.00  0.00    -0.057 A 
ATOM     17  C   UNL d   1       4.166  -3.889   3.679  0.00  0.00     0.007 A 
ATOM     18  C   UNL d   1       3.979  -3.829   5.062  0.00  0.00     0.001 A 
ATOM     19  C   UNL d   1       4.614  -2.840   5.811  0.00  0.00     0.000 A 
ATOM     20  C   UNL d   1       5.436  -1.912   5.177  0.00  0.00     0.001 A 
ATOM     21  C   UNL d   1       5.626  -1.971   3.795  0.00  0.00     0.007 A 
ENDBRANCH  15  16
ENDBRANCH  14  15
ENDBRANCH   3  14
TORSDOF 5
