REMARK  7 active torsions:
REMARK  status: ('A' for Active; 'I' for Inactive)
REMARK    1  A    between atoms: C_8  and  N_1 
REMARK    2  A    between atoms: C_14  and  N_2 
REMARK    3  A    between atoms: C_11  and  C_7 
REMARK    4  A    between atoms: C_12  and  C_8 
REMARK    5  A    between atoms: C_24  and  N_9 
REMARK    6  A    between atoms: C_25  and  C_14 
REMARK    7  A    between atoms: C_26  and  C_24 
ROOT
ATOM      1  N   UNL d   1      -2.868   2.557  -0.212  0.00  0.00    -0.247 N 
ATOM      2  N   UNL d   1      -4.921   1.393  -0.079  0.00  0.00    -0.303 N 
ATOM      3  C   UNL d   1      -3.662   1.502  -0.672  0.00  0.00     0.190 C 
ATOM      4  N   UNL d   1      -4.948   3.708   0.055  0.00  0.00    -0.316 N 
ATOM      5  HN  UNL d   1      -5.472   4.582   0.020  1.00  0.00     0.170 HD
ATOM      6  C   UNL d   1      -3.575   3.743   0.060  0.00  0.00     0.188 C 
ATOM      7  C   UNL d   1      -5.583   2.586   0.093  0.00  0.00     0.146 C 
ATOM      8  S   UNL d   1      -3.255   0.606  -2.072  0.00  0.00    -0.040 SA
ATOM      9  S   UNL d   1      -2.923   5.257   0.474  0.00  0.00    -0.040 SA
ENDROOT
BRANCH   1  10
ATOM     10  C   UNL d   1      -1.434   2.459  -0.117  0.00  0.00     0.147 C 
ATOM     11  N   UNL d   1      -0.723   3.481  -0.450  0.00  0.00    -0.369 N 
ATOM     12  HN  UNL d   1      -1.214   4.311  -0.783  1.00  0.00     0.161 HD
BRANCH  11  13
ATOM     13  C   UNL d   1       0.730   3.536  -0.388  0.00  0.00     0.160 C 
BRANCH  13  14
ATOM     14  C   UNL d   1       1.297   4.623  -1.270  0.00  0.00    -0.041 A 
ATOM     15  C   UNL d   1       0.997   5.971  -1.028  0.00  0.00     0.009 A 
ATOM     16  C   UNL d   1       1.512   6.971  -1.855  0.00  0.00     0.001 A 
ATOM     17  C   UNL d   1       2.336   6.634  -2.927  0.00  0.00     0.000 A 
ATOM     18  C   UNL d   1       2.658   5.299  -3.165  0.00  0.00     0.001 A 
ATOM     19  C   UNL d   1       2.144   4.299  -2.339  0.00  0.00     0.009 A 
ENDBRANCH  13  14
ENDBRANCH  11  13
BRANCH  10  20
ATOM     20  C   UNL d   1      -0.842   1.223   0.426  0.00  0.00     0.119 C 
ATOM     21  O   UNL d   1      -1.422   0.008   0.176  0.00  0.00    -0.319 OA
ATOM     22  C   UNL d   1      -0.592  -0.967   0.618  0.00  0.00     0.142 C 
ATOM     23  C   UNL d   1       0.484  -0.416   1.261  0.00  0.00     0.027 C 
ATOM     24  C   UNL d   1       0.296   0.986   1.190  0.00  0.00     0.043 C 
ENDBRANCH  10  20
ENDBRANCH   1  10
BRANCH   2  25
ATOM     25  C   UNL d   1      -5.633   0.093  -0.020  0.00  0.00     0.171 C 
BRANCH  25  26
ATOM     26  C   UNL d   1      -5.818  -0.503   1.370  0.00  0.00    -0.040 A 
ATOM     27  C   UNL d   1      -5.337   0.082   2.549  0.00  0.00     0.009 A 
ATOM     28  C   UNL d   1      -5.484  -0.568   3.779  0.00  0.00     0.001 A 
ATOM     29  C   UNL d   1      -6.116  -1.809   3.853  0.00  0.00     0.000 A 
ATOM     30  C   UNL d   1      -6.628  -2.388   2.700  0.00  0.00     0.001 A 
ATOM     31  C   UNL d   1      -6.489  -1.738   1.470  0.00  0.00     0.009 A 
ENDBRANCH  25  26
ENDBRANCH   2  25
BRANCH   7  32
ATOM     32  C   UNL d   1      -7.027   2.667   0.228  0.00  0.00     0.119 A 
ATOM     33  O   UNL d   1      -7.716   1.718   0.929  0.00  0.00    -0.319 OA
ATOM     34  C   UNL d   1      -9.034   2.035   0.873  0.00  0.00     0.142 A 
ATOM     35  C   UNL d   1      -9.216   3.189   0.154  0.00  0.00     0.027 A 
ATOM     36  C   UNL d   1      -7.923   3.618  -0.232  0.00  0.00     0.043 A 
ENDBRANCH   7  32
TORSDOF 7
