REMARK  8 active torsions:
REMARK  status: ('A' for Active; 'I' for Inactive)
REMARK    1  A    between atoms: C_3  and  C_1 
REMARK       I    between atoms: N_4  and  C_1 
REMARK    2  A    between atoms: C_2  and  N_5 
REMARK    3  A    between atoms: N_6  and  C_2 
REMARK    4  A    between atoms: N_5  and  N_4 
REMARK    5  A    between atoms: C_13  and  N_6 
REMARK    6  A    between atoms: O_14  and  C_15 
REMARK    7  A    between atoms: C_16  and  O_14 
REMARK    8  A    between atoms: C_21  and  C_16 
ROOT
ATOM      1  N   UNL d   1      -1.227  -1.307  -3.458  0.00  0.00    -0.332 N 
ATOM      2  H   UNL d   1      -1.712  -1.032  -4.299  0.00  0.00     0.168 HD
ENDROOT
BRANCH   1   3
ATOM      3  C   UNL d   1      -1.901  -0.955  -2.300  0.00  0.00     0.191 C 
ATOM      4  S   UNL d   1      -1.274  -0.236  -0.922  0.00  0.00    -0.039 SA
BRANCH   3   5
ATOM      5  N   UNL d   1      -3.263  -1.146  -2.331  0.00  0.00    -0.273 N 
ATOM      6  H   UNL d   1      -3.715  -0.977  -1.426  0.00  0.00     0.189 HD
BRANCH   5   7
ATOM      7  N   UNL d   1      -3.835  -2.217  -3.040  0.00  0.00    -0.262 N 
ATOM      8  C   UNL d   1      -4.919  -2.859  -2.452  0.00  0.00     0.293 C 
ATOM      9  O   UNL d   1      -5.244  -2.635  -1.286  0.00  0.00    -0.264 OA
ATOM     10  H   UNL d   1      -3.665  -2.316  -4.034  0.00  0.00     0.190 HD
BRANCH   8  11
ATOM     11  C   UNL d   1      -5.639  -3.756  -3.327  0.00  0.00     0.144 A 
ATOM     12  O   UNL d   1      -5.215  -3.931  -4.620  0.00  0.00    -0.317 OA
ATOM     13  C   UNL d   1      -6.082  -4.798  -5.206  0.00  0.00     0.143 A 
ATOM     14  C   UNL d   1      -7.060  -5.182  -4.321  0.00  0.00     0.027 A 
ATOM     15  C   UNL d   1      -6.771  -4.516  -3.107  0.00  0.00     0.045 A 
ENDBRANCH   8  11
ENDBRANCH   5   7
ENDBRANCH   3   5
ENDBRANCH   1   3
BRANCH   1  16
ATOM     16  C   UNL d   1       0.175  -1.463  -3.567  0.00  0.00     0.034 A 
ATOM     17  C   UNL d   1       0.899  -2.119  -2.572  0.00  0.00     0.032 A 
ATOM     18  C   UNL d   1       2.292  -2.181  -2.626  0.00  0.00     0.039 A 
ATOM     19  C   UNL d   1       2.978  -1.596  -3.687  0.00  0.00     0.069 A 
ATOM     20  C   UNL d   1       2.252  -1.037  -4.741  0.00  0.00     0.039 A 
ATOM     21  C   UNL d   1       0.850  -0.977  -4.689  0.00  0.00     0.032 A 
BRANCH  19  22
ATOM     22  O   UNL d   1       4.343  -1.553  -3.794  0.00  0.00    -0.347 OA
BRANCH  22  23
ATOM     23  C   UNL d   1       5.037  -1.479  -2.541  0.00  0.00     0.214 C 
BRANCH  23  24
ATOM     24  C   UNL d   1       6.533  -1.384  -2.743  0.00  0.00    -0.034 A 
ATOM     25  C   UNL d   1       7.324  -0.713  -1.796  0.00  0.00     0.009 A 
ATOM     26  C   UNL d   1       8.715  -0.700  -1.915  0.00  0.00     0.001 A 
ATOM     27  C   UNL d   1       9.330  -1.363  -2.975  0.00  0.00     0.000 A 
ATOM     28  C   UNL d   1       8.556  -2.038  -3.917  0.00  0.00     0.001 A 
ATOM     29  C   UNL d   1       7.166  -2.053  -3.799  0.00  0.00     0.009 A 
ENDBRANCH  23  24
ENDBRANCH  22  23
ENDBRANCH  19  22
ENDBRANCH   1  16
TORSDOF 8
