REMARK  6 active torsions:
REMARK  status: ('A' for Active; 'I' for Inactive)
REMARK    1  A    between atoms: C_3  and  C_1 
REMARK    2  A    between atoms: C_12  and  N_2 
REMARK    3  A    between atoms: C_5  and  C_9 
REMARK    4  A    between atoms: C_10  and  C_11 
REMARK       I    between atoms: N_13  and  C_10 
REMARK    5  A    between atoms: C_11  and  C_12 
REMARK    6  A    between atoms: C_16  and  N_13 
ROOT
ATOM      1  C   UNL d   1      -4.960   1.003  -0.655  0.00  0.00     0.223 C 
ATOM      2  N   UNL d   1      -5.598  -0.080  -0.077  0.00  0.00    -0.327 N 
ATOM      3  O   UNL d   1      -5.498   1.865  -1.348  0.00  0.00    -0.273 OA
ATOM      4  H   UNL d   1      -5.038  -0.742   0.449  0.00  0.00     0.169 HD
ENDROOT
BRANCH   1   5
ATOM      5  C   UNL d   1      -3.505   1.194  -0.282  0.00  0.00     0.123 C 
BRANCH   5   6
ATOM      6  C   UNL d   1      -2.605  -0.028  -0.308  0.00  0.00     0.140 C 
BRANCH   6   7
ATOM      7  N   UNL d   1      -2.645  -0.836  -1.523  0.00  0.00    -0.323 N 
ATOM      8  C   UNL d   1      -2.308  -0.270  -2.749  0.00  0.00     0.110 A 
ATOM      9  C   UNL d   1      -2.222  -1.004  -3.874  0.00  0.00     0.063 A 
ATOM     10  C   UNL d   1      -2.427  -2.438  -3.784  0.00  0.00     0.023 A 
ATOM     11  C   UNL d   1      -2.766  -3.016  -2.623  0.00  0.00     0.075 A 
ATOM     12  C   UNL d   1      -2.937  -2.195  -1.401  0.00  0.00     0.247 A 
ATOM     13  O   UNL d   1      -3.308  -2.731  -0.357  0.00  0.00    -0.268 OA
BRANCH   9  14
ATOM     14  C   UNL d   1      -1.897  -0.385  -5.207  0.00  0.00     0.418 C 
ATOM     15  F   UNL d   1      -1.770  -1.301  -6.201  0.00  0.00    -0.166 F 
ATOM     16  F   UNL d   1      -2.856   0.490  -5.600  0.00  0.00    -0.166 F 
ATOM     17  F   UNL d   1      -0.729   0.306  -5.163  0.00  0.00    -0.166 F 
ENDBRANCH   9  14
ENDBRANCH   6   7
ENDBRANCH   5   6
ENDBRANCH   1   5
BRANCH   2  18
ATOM     18  C   UNL d   1      -6.989  -0.348  -0.106  0.00  0.00     0.035 A 
ATOM     19  C   UNL d   1      -7.912   0.409  -0.837  0.00  0.00     0.045 A 
ATOM     20  C   UNL d   1      -9.291   0.147  -0.772  0.00  0.00     0.050 A 
ATOM     21  C   UNL d   1      -9.745  -0.903   0.037  0.00  0.00     0.016 A 
ATOM     22  C   UNL d   1      -8.835  -1.683   0.748  0.00  0.00     0.003 A 
ATOM     23  C   UNL d   1      -7.465  -1.411   0.670  0.00  0.00     0.029 A 
BRANCH  20  24
ATOM     24  C   UNL d   1     -10.274   0.997  -1.539  0.00  0.00     0.417 C 
ATOM     25  F   UNL d   1      -9.693   1.910  -2.365  0.00  0.00    -0.166 F 
ATOM     26  F   UNL d   1     -11.098   0.254  -2.331  0.00  0.00    -0.166 F 
ATOM     27  F   UNL d   1     -11.094   1.709  -0.716  0.00  0.00    -0.166 F 
ENDBRANCH  20  24
ENDBRANCH   2  18
TORSDOF 6
