REMARK  4 active torsions:
REMARK  status: ('A' for Active; 'I' for Inactive)
REMARK    1  A    between atoms: S_2  and  C_1 
REMARK    2  A    between atoms: N_3  and  C_1 
REMARK    3  A    between atoms: C_5  and  S_2 
REMARK    4  A    between atoms: C_8  and  N_3 
ROOT
ATOM      1  C   UNL d   1       1.583   0.993   1.302  0.00  0.00     0.139 C 
ATOM      2  S   UNL d   1       3.107   0.429   0.902  0.00  0.00    -0.053 SA
ENDROOT
BRANCH   1   3
ATOM      3  S   UNL d   1       1.283   2.077   2.631  0.00  0.00    -0.061 SA
BRANCH   3   4
ATOM      4  C   UNL d   1       1.570   3.716   1.969  0.00  0.00     0.007 A 
ATOM      5  C   UNL d   1       1.920   3.993   0.641  0.00  0.00     0.021 A 
ATOM      6  C   UNL d   1       2.086   5.313   0.204  0.00  0.00     0.025 A 
ATOM      7  C   UNL d   1       1.897   6.368   1.092  0.00  0.00     0.034 A 
ATOM      8  C   UNL d   1       1.556   6.114   2.416  0.00  0.00     0.025 A 
ATOM      9 CL   UNL d   1       2.073   7.989   0.546  0.00  0.00    -0.084 Cl
ATOM     10  C   UNL d   1       1.397   4.793   2.851  0.00  0.00     0.021 A 
ENDBRANCH   3   4
ENDBRANCH   1   3
BRANCH   1  11
ATOM     11  N   UNL d   1       0.513   0.533   0.578  0.00  0.00    -0.371 N 
ATOM     12  H   UNL d   1       0.794  -0.102  -0.161  0.00  0.00     0.161 HD
BRANCH  11  13
ATOM     13  C   UNL d   1      -0.930   0.685   0.807  0.00  0.00     0.083 C 
ATOM     14  C   UNL d   1      -1.694  -0.436   0.079  0.00  0.00     0.025 C 
ATOM     15  C   UNL d   1      -1.667  -0.278  -1.444  0.00  0.00     0.002 C 
ATOM     16  C   UNL d   1      -2.138   1.104  -1.888  0.00  0.00     0.000 C 
ATOM     17  C   UNL d   1      -1.401   2.224  -1.162  0.00  0.00     0.002 C 
ATOM     18  C   UNL d   1      -1.470   2.049   0.353  0.00  0.00     0.025 C 
ENDBRANCH  11  13
ENDBRANCH   1  11
TORSDOF 4
