REMARK  5 active torsions:
REMARK  status: ('A' for Active; 'I' for Inactive)
REMARK    1  A    between atoms: C_11  and  C_2 
REMARK    2  A    between atoms: S_8  and  C_5 
REMARK    3  A    between atoms: C_12  and  S_8 
REMARK    4  A    between atoms: C_9  and  C_12 
REMARK    5  A    between atoms: C_10  and  C_9 
ROOT
ATOM      1  N   UNL d   1       0.803  -0.560  -0.349  0.00  0.00    -0.320 N 
ATOM      2  C   UNL d   1       0.794   0.670   0.263  0.00  0.00     0.132 A 
ATOM      3  N   UNL d   1      -0.390   0.830   0.832  0.00  0.00    -0.283 N 
ATOM      4  HN  UNL d   1      -0.689   1.648   1.362  1.00  0.00     0.188 HD
ATOM      5  C   UNL d   1      -0.413  -1.117  -0.105  0.00  0.00     0.161 A 
ATOM      6  N   UNL d   1      -1.155  -0.292   0.589  0.00  0.00    -0.278 N 
ATOM      7  HN  UNL d   1      -2.115  -0.449   0.892  1.00  0.00     0.189 HD
ATOM      8  H   UNL d   1       1.570  -0.996  -0.836  0.00  0.00     0.169 HD
ENDROOT
BRANCH   5   9
ATOM      9  S   UNL d   1      -0.793  -2.701  -0.653  0.00  0.00    -0.085 SA
BRANCH   9  10
ATOM     10  C   UNL d   1      -2.507  -2.864  -0.054  0.00  0.00     0.166 C 
BRANCH  10  11
ATOM     11  C   UNL d   1      -3.059  -4.265  -0.287  0.00  0.00     0.169 C 
ATOM     12  O   UNL d   1      -2.394  -5.198  -0.733  0.00  0.00    -0.291 OA
BRANCH  11  13
ATOM     13  C   UNL d   1      -4.500  -4.524   0.045  0.00  0.00     0.011 A 
ATOM     14  C   UNL d   1      -5.325  -3.560   0.640  0.00  0.00     0.017 A 
ATOM     15  C   UNL d   1      -6.673  -3.846   0.893  0.00  0.00     0.025 A 
ATOM     16  C   UNL d   1      -7.199  -5.093   0.559  0.00  0.00     0.034 A 
ATOM     17  C   UNL d   1      -6.386  -6.066  -0.013  0.00  0.00     0.025 A 
ATOM     18 CL   UNL d   1      -8.862  -5.426   0.847  0.00  0.00    -0.084 Cl
ATOM     19  C   UNL d   1      -5.040  -5.783  -0.266  0.00  0.00     0.017 A 
ENDBRANCH  11  13
ENDBRANCH  10  11
ENDBRANCH   9  10
ENDBRANCH   5   9
BRANCH   2  20
ATOM     20  C   UNL d   1       1.922   1.600   0.309  0.00  0.00     0.009 A 
ATOM     21  C   UNL d   1       2.896   1.652  -0.698  0.00  0.00     0.015 A 
ATOM     22  C   UNL d   1       3.953   2.567  -0.619  0.00  0.00     0.001 A 
ATOM     23  C   UNL d   1       4.051   3.437   0.467  0.00  0.00     0.000 A 
ATOM     24  C   UNL d   1       3.091   3.395   1.474  0.00  0.00     0.001 A 
ATOM     25  C   UNL d   1       2.033   2.486   1.392  0.00  0.00     0.015 A 
ENDBRANCH   2  20
TORSDOF 5
