REMARK  6 active torsions:
REMARK  status: ('A' for Active; 'I' for Inactive)
REMARK       I    between atoms: N_2  and  C_1 
REMARK    1  A    between atoms: C_4  and  C_1 
REMARK    2  A    between atoms: C_9  and  C_3 
REMARK    3  A    between atoms: C_5  and  N_11 
REMARK    4  A    between atoms: C_8  and  C_6 
REMARK    5  A    between atoms: C_10  and  C_8 
REMARK    6  A    between atoms: O_23  and  C_9 
REMARK       I    between atoms: N_11  and  C_10 
ROOT
ATOM      1  C   UNL d   1       0.897  -0.490  -0.322  0.00  0.00     0.259 C 
ATOM      2  N   UNL d   1       0.207   0.728  -0.248  0.00  0.00    -0.332 N 
ATOM      3  C   UNL d   1       0.515   1.901  -1.143  0.00  0.00     0.188 C 
ATOM      4  C   UNL d   1       0.655   3.171  -0.249  0.00  0.00     0.241 C 
ATOM      5  N   UNL d   1      -0.313   3.359   0.711  0.00  0.00    -0.358 N 
ATOM      6  O   UNL d   1       1.827  -0.697  -1.096  0.00  0.00    -0.267 OA
ATOM      7  O   UNL d   1       1.469   4.071  -0.437  0.00  0.00    -0.271 OA
ATOM      8  C   UNL d   1      -0.945   0.966   0.641  0.00  0.00     0.147 C 
ATOM      9  C   UNL d   1      -0.757   2.225   1.479  0.00  0.00     0.142 C 
ATOM     10  H   UNL d   1      -0.182   4.228   1.210  0.00  0.00     0.162 HD
ENDROOT
BRANCH   3  11
ATOM     11  C   UNL d   1       1.712   1.840  -2.105  0.00  0.00     0.138 C 
BRANCH  11  12
ATOM     12  C   UNL d   1       1.593   2.893  -3.204  0.00  0.00     0.224 C 
ATOM     13  N   UNL d   1       2.222   4.100  -2.945  0.00  0.00    -0.326 N 
ATOM     14  H   UNL d   1       2.669   4.226  -2.035  0.00  0.00     0.169 HD
ATOM     15  O   UNL d   1       0.972   2.623  -4.232  0.00  0.00    -0.273 OA
BRANCH  13  16
ATOM     16  C   UNL d   1       2.180   5.229  -3.769  0.00  0.00     0.058 A 
ATOM     17  C   UNL d   1       2.990   6.353  -3.602  0.00  0.00     0.106 A 
ATOM     18  S   UNL d   1       2.685   7.542  -4.812  0.00  0.00    -0.094 SA
ATOM     19  C   UNL d   1       1.464   6.610  -5.533  0.00  0.00     0.053 A 
ATOM     20  C   UNL d   1       1.304   5.404  -4.893  0.00  0.00     0.038 A 
BRANCH  17  21
ATOM     21  C   UNL d   1       4.037   6.675  -2.641  0.00  0.00     0.302 C 
ATOM     22  O   UNL d   1       4.898   7.532  -2.783  0.00  0.00    -0.259 OA
BRANCH  21  23
ATOM     23  O   UNL d   1       3.916   5.908  -1.519  0.00  0.00    -0.322 OA
ATOM     24  C   UNL d   1       4.833   6.272  -0.481  0.00  0.00     0.213 C 
ENDBRANCH  21  23
ENDBRANCH  17  21
ENDBRANCH  13  16
ENDBRANCH  11  12
ENDBRANCH   3  11
BRANCH   1  25
ATOM     25  C   UNL d   1       0.555  -1.619   0.582  0.00  0.00     0.092 A 
ATOM     26  C   UNL d   1       1.531  -2.228   1.386  0.00  0.00     0.052 A 
ATOM     27 CL   UNL d   1       3.183  -1.716   1.423  0.00  0.00    -0.083 Cl
ATOM     28  C   UNL d   1       1.183  -3.282   2.245  0.00  0.00     0.025 A 
ATOM     29  C   UNL d   1      -0.136  -3.729   2.320  0.00  0.00     0.005 A 
ATOM     30  C   UNL d   1      -1.100  -3.157   1.497  0.00  0.00     0.043 A 
ATOM     31  C   UNL d   1      -0.742  -2.140   0.610  0.00  0.00     0.133 A 
ATOM     32  F   UNL d   1      -1.700  -1.638  -0.183  0.00  0.00    -0.205 F 
ENDBRANCH   1  25
TORSDOF 6
