REMARK  3 active torsions:
REMARK  status: ('A' for Active; 'I' for Inactive)
REMARK    1  A    between atoms: N_6  and  C_1 
REMARK    2  A    between atoms: C_2  and  C_3 
REMARK    3  A    between atoms: N_7  and  C_11 
ROOT
ATOM      1  C   UNL d   1      -0.342   1.144  -0.090  0.00  0.00     0.104 A 
ATOM      2  C   UNL d   1      -1.103  -1.536   0.071  0.00  0.00     0.065 A 
ATOM      3  N   UNL d   1      -0.090   0.431   1.040  0.00  0.00    -0.354 N 
ATOM      4  HN  UNL d   1       0.383   0.868   1.831  1.00  0.00     0.166 HD
ATOM      5  C   UNL d   1      -0.970   0.525  -1.188  0.00  0.00     0.073 A 
ATOM      6  C   UNL d   1      -1.339  -0.822  -1.104  0.00  0.00     0.044 A 
ATOM      7  C   UNL d   1      -0.473  -0.866   1.102  0.00  0.00     0.105 A 
ATOM      8 CL   UNL d   1      -1.431   1.373  -2.625  0.00  0.00    -0.081 Cl
ENDROOT
BRANCH   1   9
ATOM      9  N   UNL d   1      -0.044   2.523  -0.081  0.00  0.00    -0.268 NA
ATOM     10  C   UNL d   1       0.104   3.067   1.278  0.00  0.00     0.099 C 
ATOM     11  C   UNL d   1       0.046   4.588   1.208  0.00  0.00     0.040 C 
ATOM     12  C   UNL d   1       1.040   5.177   0.199  0.00  0.00     0.091 C 
ATOM     13  C   UNL d   1       1.057   4.420  -1.138  0.00  0.00     0.040 C 
ATOM     14  C   UNL d   1       1.057   2.900  -0.977  0.00  0.00     0.099 C 
BRANCH  12  15
ATOM     15  N   UNL d   1       2.371   5.397   0.771  0.00  0.00    -0.362 N 
ATOM     16  C   UNL d   1       3.287   4.452   1.147  0.00  0.00     0.091 A 
ATOM     17  C   UNL d   1       4.405   5.098   1.631  0.00  0.00     0.019 A 
ATOM     18  C   UNL d   1       4.153   6.484   1.556  0.00  0.00     0.019 A 
ATOM     19  C   UNL d   1       2.893   6.643   1.028  0.00  0.00     0.091 A 
ENDBRANCH  12  15
ENDBRANCH   1   9
BRANCH   2  20
ATOM     20  C   UNL d   1      -1.538  -2.956   0.259  0.00  0.00     0.418 C 
ATOM     21  F   UNL d   1      -2.144  -3.486  -0.837  0.00  0.00    -0.166 F 
ATOM     22  F   UNL d   1      -0.499  -3.784   0.551  0.00  0.00    -0.166 F 
ATOM     23  F   UNL d   1      -2.428  -3.094   1.281  0.00  0.00    -0.166 F 
ENDBRANCH   2  20
TORSDOF 3
