REMARK  6 active torsions:
REMARK  status: ('A' for Active; 'I' for Inactive)
REMARK    1  A    between atoms: CA_3  and  C_1 
REMARK    2  A    between atoms: OXT_5  and  C_1 
REMARK    3  A    between atoms: N_2  and  CA_3 
REMARK       I    between atoms: C2_12  and  N_2 
REMARK    4  A    between atoms: CB_6  and  CA_3 
REMARK    5  A    between atoms: CG_8  and  CB_6 
REMARK    6  A    between atoms: SD_7  and  CG_8 
ROOT
ATOM      1  CA  MET d   1       0.206  -1.266   0.382  0.00  0.00     0.183 C 
ENDROOT
BRANCH   1   2
ATOM      2  N   MET d   1      -0.580  -1.062   1.608  0.00  0.00    -0.347 N 
ATOM      3  C2  <1> d   1      -0.014  -1.162   2.851  0.00  0.00     0.214 C 
ATOM      4  O2  <1> d   1       1.187  -1.387   2.986  0.00  0.00    -0.274 OA
ATOM      5  C5  <1> d   1      -0.932  -0.893   4.010  0.00  0.00     0.117 C 
ATOM      6  H   MET d   1      -1.469  -0.581   1.522  0.00  0.00     0.163 HD
ENDBRANCH   1   2
BRANCH   1   7
ATOM      7  C   MET d   1       1.007   0.006   0.031  0.00  0.00     0.163 C 
ATOM      8  O   MET d   1       1.004   0.555  -1.061  0.00  0.00    -0.648 OA
BRANCH   7   9
ATOM      9  OXT MET d   1       1.798   0.444   1.044  0.00  0.00    -0.775 OA
ATOM     10  HXT MET d   1       1.798  -0.167   1.820  0.00  0.00     0.167 HD
ENDBRANCH   7   9
ENDBRANCH   1   7
BRANCH   1  11
ATOM     11  CB  MET d   1      -0.693  -1.682  -0.790  0.00  0.00     0.046 C 
BRANCH  11  12
ATOM     12  CG  MET d   1      -1.428  -2.993  -0.511  0.00  0.00     0.076 C 
BRANCH  12  13
ATOM     13  SD  MET d   1      -2.440  -3.445  -1.954  0.00  0.00    -0.173 SA
ATOM     14  CE  MET d   1      -3.174  -4.966  -1.308  0.00  0.00     0.089 C 
ENDBRANCH  12  13
ENDBRANCH  11  12
ENDBRANCH   1  11
TORSDOF 6
