REMARK  9 active torsions:
REMARK  status: ('A' for Active; 'I' for Inactive)
REMARK    1  A    between atoms: C_3  and  C_1 
REMARK       I    between atoms: C_2  and  N_7 
REMARK    2  A    between atoms: C_4  and  C_2 
REMARK       I    between atoms: N_8  and  C_3 
REMARK    3  A    between atoms: C_5  and  C_18 
REMARK    4  A    between atoms: C_6  and  C_19 
REMARK    5  A    between atoms: N_7  and  N_8 
REMARK    6  A    between atoms: O_12  and  C_10 
REMARK    7  A    between atoms: C_18  and  O_12 
REMARK    8  A    between atoms: C_19  and  O_28 
REMARK    9  A    between atoms: O_28  and  C_27 
ROOT
ATOM      1  C   UNL d   1       1.508  -0.129   0.044  0.00  0.00     0.069 A 
ATOM      2  C   UNL d   1       0.737  -1.301   0.099  0.00  0.00     0.085 A 
ATOM      3  C   UNL d   1       0.867   1.120  -0.036  0.00  0.00     0.056 A 
ATOM      4  C   UNL d   1      -0.661  -1.197   0.067  0.00  0.00     0.040 A 
ATOM      5  C   UNL d   1      -0.526   1.209  -0.032  0.00  0.00     0.070 A 
ATOM      6  C   UNL d   1      -1.293   0.050  -0.009  0.00  0.00     0.039 A 
ENDROOT
BRANCH   1   7
ATOM      7  C   UNL d   1       2.981  -0.123   0.217  0.00  0.00     0.273 C 
ATOM      8  N   UNL d   1       3.686   0.754  -0.582  0.00  0.00    -0.263 N 
ATOM      9  H   UNL d   1       3.282   1.343  -1.307  0.00  0.00     0.190 HD
ATOM     10  O   UNL d   1       3.529  -0.857   1.036  0.00  0.00    -0.266 OA
BRANCH   8  11
ATOM     11  N   UNL d   1       5.063   0.865  -0.372  0.00  0.00    -0.263 N 
ATOM     12  C   UNL d   1       5.842   1.584  -1.261  0.00  0.00     0.277 C 
ATOM     13  O   UNL d   1       5.345   2.119  -2.256  0.00  0.00    -0.265 OA
ATOM     14  H   UNL d   1       5.452   0.376   0.432  0.00  0.00     0.190 HD
BRANCH  12  15
ATOM     15  C   UNL d   1       7.263   1.648  -0.943  0.00  0.00     0.074 A 
ATOM     16  S   UNL d   1       7.897   1.099   0.552  0.00  0.00    -0.097 SA
ATOM     17  C   UNL d   1       9.490   1.543   0.124  0.00  0.00     0.050 A 
ATOM     18  C   UNL d   1       9.553   2.089  -1.136  0.00  0.00     0.009 A 
ATOM     19  C   UNL d   1       8.271   2.155  -1.753  0.00  0.00     0.025 A 
ENDBRANCH  12  15
ENDBRANCH   8  11
ENDBRANCH   1   7
BRANCH   2  20
ATOM     20  O   UNL d   1       1.196  -2.580   0.267  0.00  0.00    -0.341 OA
BRANCH  20  21
ATOM     21  C   UNL d   1       2.216  -3.006  -0.651  0.00  0.00     0.293 C 
BRANCH  21  22
ATOM     22  C   UNL d   1       1.993  -4.449  -1.099  0.00  0.00     0.408 C 
ATOM     23  F   UNL d   1       0.693  -4.814  -1.042  0.00  0.00    -0.169 F 
ATOM     24  F   UNL d   1       2.394  -4.609  -2.384  0.00  0.00    -0.169 F 
ATOM     25  F   UNL d   1       2.701  -5.322  -0.348  0.00  0.00    -0.169 F 
ENDBRANCH  21  22
ENDBRANCH  20  21
ENDBRANCH   2  20
BRANCH   5  26
ATOM     26  O   UNL d   1      -1.036   2.477  -0.059  0.00  0.00    -0.342 OA
BRANCH  26  27
ATOM     27  C   UNL d   1      -2.206   2.681   0.751  0.00  0.00     0.293 C 
BRANCH  27  28
ATOM     28  C   UNL d   1      -2.254   4.102   1.313  0.00  0.00     0.408 C 
ATOM     29  F   UNL d   1      -1.146   4.819   1.028  0.00  0.00    -0.169 F 
ATOM     30  F   UNL d   1      -3.318   4.781   0.824  0.00  0.00    -0.169 F 
ATOM     31  F   UNL d   1      -2.381   4.077   2.662  0.00  0.00    -0.169 F 
ENDBRANCH  27  28
ENDBRANCH  26  27
ENDBRANCH   5  26
TORSDOF 9
