REMARK  6 active torsions:
REMARK  status: ('A' for Active; 'I' for Inactive)
REMARK    1  A    between atoms: C_4  and  C_1 
REMARK    2  A    between atoms: C_8  and  C_2 
REMARK    3  A    between atoms: C_9  and  C_6 
REMARK    4  A    between atoms: O_17  and  C_8 
REMARK    5  A    between atoms: C_12  and  C_9 
REMARK    6  A    between atoms: O_23  and  C_19 
ROOT
ATOM      1  C   UNL d   1       1.810  -2.579   0.125  0.00  0.00     0.041 C 
ATOM      2  C   UNL d   1       1.169  -3.766   0.060  0.00  0.00     0.096 C 
ATOM      3  C   UNL d   1       1.903  -4.979  -0.066  0.00  0.00     0.103 C 
ATOM      4  N   UNL d   1       2.487  -5.981  -0.140  0.00  0.00    -0.191 NA
ENDROOT
BRANCH   2   5
ATOM      5  C   UNL d   1      -0.331  -3.788   0.057  0.00  0.00     0.202 C 
ATOM      6  O   UNL d   1      -0.986  -2.806  -0.285  0.00  0.00    -0.286 OA
BRANCH   5   7
ATOM      7  C   UNL d   1      -1.048  -5.048   0.423  0.00  0.00     0.016 A 
ATOM      8  C   UNL d   1      -0.556  -5.908   1.412  0.00  0.00     0.018 A 
ATOM      9  C   UNL d   1      -1.199  -7.119   1.690  0.00  0.00     0.037 A 
ATOM     10  C   UNL d   1      -2.367  -7.464   1.015  0.00  0.00     0.068 A 
ATOM     11  C   UNL d   1      -2.911  -6.571   0.088  0.00  0.00     0.037 A 
ATOM     12  C   UNL d   1      -2.254  -5.370  -0.215  0.00  0.00     0.018 A 
BRANCH  10  13
ATOM     13  O   UNL d   1      -3.076  -8.616   1.222  0.00  0.00    -0.356 OA
ATOM     14  C   UNL d   1      -2.310  -9.742   1.642  0.00  0.00     0.210 C 
ENDBRANCH  10  13
ENDBRANCH   5   7
ENDBRANCH   2   5
BRANCH   1  15
ATOM     15  C   UNL d   1       3.232  -2.425   0.033  0.00  0.00     0.006 A 
ATOM     16  C   UNL d   1       4.186  -2.216   1.083  0.00  0.00     0.073 A 
ATOM     17  C   UNL d   1       5.430  -2.135   0.461  0.00  0.00     0.022 A 
ATOM     18  C   UNL d   1       6.803  -1.975   1.011  0.00  0.00     0.069 C 
ATOM     19  N   UNL d   1       5.248  -2.311  -0.885  0.00  0.00    -0.362 N 
ATOM     20  C   UNL d   1       3.922  -2.511  -1.165  0.00  0.00     0.017 A 
ATOM     21  H   UNL d   1       5.995  -2.333  -1.569  0.00  0.00     0.165 HD
ATOM     22  C   UNL d   1       3.480  -2.786  -2.560  0.00  0.00     0.069 C 
BRANCH  16  23
ATOM     23  C   UNL d   1       4.008  -2.152   2.533  0.00  0.00     0.295 C 
ATOM     24  O   UNL d   1       4.616  -1.362   3.247  0.00  0.00    -0.259 OA
BRANCH  23  25
ATOM     25  O   UNL d   1       3.198  -3.146   3.004  0.00  0.00    -0.322 OA
ATOM     26  C   UNL d   1       3.272  -3.370   4.417  0.00  0.00     0.213 C 
ENDBRANCH  23  25
ENDBRANCH  16  23
ENDBRANCH   1  15
TORSDOF 6
