REMARK  6 active torsions:
REMARK  status: ('A' for Active; 'I' for Inactive)
REMARK    1  A    between atoms: C_10  and  C_1 
REMARK    2  A    between atoms: N_3  and  C_10 
REMARK    3  A    between atoms: S_17  and  C_4 
REMARK    4  A    between atoms: C_11  and  C_15 
REMARK    5  A    between atoms: C_26  and  S_17 
REMARK    6  A    between atoms: C_28  and  C_26 
ROOT
ATOM      1  C   UNL d   1      -0.023   0.986  -0.209  0.00  0.00     0.118 A 
ATOM      2  N   UNL d   1       0.792  -0.102   0.040  0.00  0.00    -0.318 N 
ATOM      3  C   UNL d   1      -0.012  -1.204  -0.102  0.00  0.00     0.162 A 
ATOM      4  N   UNL d   1      -1.248   0.539  -0.421  0.00  0.00    -0.285 N 
ATOM      5  HN  UNL d   1      -2.066   1.119  -0.606  1.00  0.00     0.188 HD
ATOM      6  N   UNL d   1      -1.241  -0.826  -0.354  0.00  0.00    -0.278 N 
ATOM      7  HN  UNL d   1      -2.047  -1.439  -0.476  1.00  0.00     0.189 HD
ATOM      8  C   UNL d   1       2.190  -0.101   0.384  0.00  0.00     0.160 C 
ENDROOT
BRANCH   1   9
ATOM      9  C   UNL d   1       0.374   2.430  -0.145  0.00  0.00     0.210 C 
BRANCH   9  10
ATOM     10  N   UNL d   1       0.067   3.162  -1.383  0.00  0.00    -0.309 N 
ATOM     11  C   UNL d   1      -1.172   3.881  -1.508  0.00  0.00     0.055 A 
ATOM     12  C   UNL d   1      -2.308   3.500  -0.772  0.00  0.00     0.047 A 
ATOM     13  C   UNL d   1      -1.290   5.004  -2.350  0.00  0.00     0.028 A 
ATOM     14  C   UNL d   1      -3.533   4.181  -0.878  0.00  0.00     0.050 A 
ATOM     15  C   UNL d   1      -3.606   5.317  -1.687  0.00  0.00     0.017 A 
ATOM     16  C   UNL d   1      -2.489   5.730  -2.410  0.00  0.00     0.021 A 
ATOM     17  S   UNL d   1       0.080   5.600  -3.315  0.00  0.00    -0.118 SA
ATOM     18  C   UNL d   1       0.828   3.991  -3.617  0.00  0.00     0.182 C 
ATOM     19  C   UNL d   1       1.097   3.248  -2.324  0.00  0.00     0.234 C 
ATOM     20  O   UNL d   1       2.173   2.659  -2.164  0.00  0.00    -0.272 OA
BRANCH  14  21
ATOM     21  C   UNL d   1      -4.759   3.687  -0.146  0.00  0.00     0.417 C 
ATOM     22  F   UNL d   1      -4.560   2.534   0.548  0.00  0.00    -0.166 F 
ATOM     23  F   UNL d   1      -5.217   4.593   0.762  0.00  0.00    -0.166 F 
ATOM     24  F   UNL d   1      -5.801   3.443  -0.989  0.00  0.00    -0.166 F 
ENDBRANCH  14  21
ENDBRANCH   9  10
ENDBRANCH   1   9
BRANCH   3  25
ATOM     25  S   UNL d   1       0.528  -2.847   0.015  0.00  0.00    -0.088 SA
BRANCH  25  26
ATOM     26  C   UNL d   1      -0.773  -3.666  -0.960  0.00  0.00     0.121 C 
BRANCH  26  27
ATOM     27  C   UNL d   1      -0.627  -5.171  -0.992  0.00  0.00    -0.048 A 
ATOM     28  C   UNL d   1      -1.288  -5.968  -0.043  0.00  0.00     0.009 A 
ATOM     29  C   UNL d   1      -1.202  -7.363  -0.102  0.00  0.00     0.024 A 
ATOM     30  C   UNL d   1      -0.448  -7.969  -1.103  0.00  0.00     0.034 A 
ATOM     31  C   UNL d   1       0.230  -7.194  -2.041  0.00  0.00     0.024 A 
ATOM     32 CL   UNL d   1      -0.359  -9.686  -1.189  0.00  0.00    -0.084 Cl
ATOM     33  C   UNL d   1       0.143  -5.797  -1.982  0.00  0.00     0.009 A 
ENDBRANCH  26  27
ENDBRANCH  25  26
ENDBRANCH   3  25
TORSDOF 6
