REMARK  5 active torsions:
REMARK  status: ('A' for Active; 'I' for Inactive)
REMARK    1  A    between atoms: C_3  and  C_1 
REMARK       I    between atoms: C_4  and  N_5 
REMARK    2  A    between atoms: C_14  and  C_4 
REMARK    3  A    between atoms: N_5  and  C_9 
REMARK    4  A    between atoms: O_20  and  C_11 
REMARK    5  A    between atoms: O_21  and  C_13 
ROOT
ATOM      1  C   UNL d   1       1.550   3.104  -0.684  0.00  0.00     0.018 A 
ATOM      2  C   UNL d   1       2.461   3.757  -1.532  0.00  0.00     0.047 A 
ATOM      3  C   UNL d   1       0.659   3.865   0.102  0.00  0.00     0.016 A 
ATOM      4  C   UNL d   1       2.465   5.154  -1.533  0.00  0.00     0.030 A 
ATOM      5  C   UNL d   1       0.589   5.248  -0.027  0.00  0.00     0.001 A 
ATOM      6  C   UNL d   1       1.502   5.894  -0.844  0.00  0.00     0.002 A 
ENDROOT
BRANCH   1   7
ATOM      7  C   UNL d   1       1.526   1.610  -0.503  0.00  0.00     0.051 C 
ATOM      8  C   UNL d   1       0.221   0.877  -0.498  0.00  0.00     0.000 C 
ATOM      9  C   UNL d   1      -0.990   1.496  -0.833  0.00  0.00     0.054 C 
ATOM     10  C   UNL d   1       0.210  -0.463  -0.131  0.00  0.00    -0.041 C 
ATOM     11  C   UNL d   1      -2.221   0.859  -0.625  0.00  0.00     0.102 C 
ATOM     12  C   UNL d   1      -2.238  -0.490  -0.266  0.00  0.00     0.102 C 
ATOM     13  C   UNL d   1      -1.017  -1.146  -0.054  0.00  0.00     0.047 C 
ATOM     14  C   UNL d   1       1.488  -1.201   0.108  0.00  0.00     0.059 C 
ATOM     15  C   UNL d   1       2.748  -0.345   0.186  0.00  0.00     0.124 C 
ATOM     16  N   UNL d   1       2.660   1.042  -0.270  0.00  0.00    -0.388 N 
ATOM     17  HN  UNL d   1       3.519   1.575  -0.407  1.00  0.00     0.159 HD
BRANCH  11  18
ATOM     18  O   UNL d   1      -3.390   1.548  -0.815  0.00  0.00    -0.353 OA
ATOM     19  C   UNL d   1      -3.379   2.861  -0.247  0.00  0.00     0.210 C 
ENDBRANCH  11  18
BRANCH  12  20
ATOM     20  O   UNL d   1      -3.329  -1.306  -0.139  0.00  0.00    -0.353 OA
ATOM     21  C   UNL d   1      -4.530  -0.711   0.336  0.00  0.00     0.210 C 
ENDBRANCH  12  20
ENDBRANCH   1   7
BRANCH   2  22
ATOM     22  N   UNL d   1       3.445   3.028  -2.229  0.00  0.00    -0.322 N 
ATOM     23  C   UNL d   1       4.224   3.342  -3.326  0.00  0.00     0.256 C 
ATOM     24  O   UNL d   1       5.356   2.864  -3.442  0.00  0.00    -0.267 OA
ATOM     25  H   UNL d   1       3.729   2.170  -1.753  0.00  0.00     0.169 HD
BRANCH  23  26
ATOM     26  C   UNL d   1       3.614   3.947  -4.549  0.00  0.00     0.032 A 
ATOM     27  C   UNL d   1       3.158   5.263  -4.665  0.00  0.00     0.020 A 
ATOM     28  C   UNL d   1       2.571   5.716  -5.851  0.00  0.00     0.043 A 
ATOM     29  C   UNL d   1       2.503   4.872  -6.950  0.00  0.00     0.116 A 
ATOM     30  C   UNL d   1       3.028   3.589  -6.891  0.00  0.00     0.043 A 
ATOM     31  F   UNL d   1       1.946   5.312  -8.085  0.00  0.00    -0.206 F 
ATOM     32  C   UNL d   1       3.581   3.127  -5.693  0.00  0.00     0.020 A 
ENDBRANCH  23  26
ENDBRANCH   2  22
TORSDOF 5
