REMARK  7 active torsions:
REMARK  status: ('A' for Active; 'I' for Inactive)
REMARK    1  A    between atoms: C_8  and  N_1 
REMARK    2  A    between atoms: C_5  and  C_3 
REMARK    3  A    between atoms: C_4  and  C_9 
REMARK       I    between atoms: N_10  and  C_5 
REMARK    4  A    between atoms: C_17  and  N_10 
REMARK    5  A    between atoms: C_14  and  C_17 
REMARK    6  A    between atoms: O_18  and  C_14 
REMARK    7  A    between atoms: C_22  and  O_18 
ROOT
ATOM      1  O   UNL d   1       1.209  -5.880  -0.601  0.00  0.00    -0.304 OA
ATOM      2  C   UNL d   1       1.457  -6.915   0.265  0.00  0.00     0.143 A 
ATOM      3  C   UNL d   1       0.707  -4.839   0.136  0.00  0.00     0.086 A 
ATOM      4  C   UNL d   1       1.100  -6.541   1.545  0.00  0.00     0.046 A 
ATOM      5  C   UNL d   1       0.616  -5.217   1.462  0.00  0.00     0.041 A 
ENDROOT
BRANCH   2   6
ATOM      6  C   UNL d   1       2.026  -8.156  -0.211  0.00  0.00     0.275 C 
ATOM      7  N   UNL d   1       2.212  -8.234  -1.570  0.00  0.00    -0.346 N 
ATOM      8  H   UNL d   1       1.943  -7.449  -2.157  0.00  0.00     0.163 HD
ATOM      9  O   UNL d   1       2.327  -9.088   0.534  0.00  0.00    -0.265 OA
BRANCH   7  10
ATOM     10  C   UNL d   1       2.779  -9.421  -2.179  0.00  0.00     0.234 C 
BRANCH  10  11
ATOM     11  C   UNL d   1       2.591  -9.420  -3.684  0.00  0.00     0.276 C 
ATOM     12  O   UNL d   1       2.078  -8.507  -4.320  0.00  0.00    -0.263 OA
BRANCH  11  13
ATOM     13  O   UNL d   1       3.046 -10.595  -4.202  0.00  0.00    -0.321 OA
BRANCH  13  14
ATOM     14  C   UNL d   1       2.752 -10.823  -5.588  0.00  0.00     0.174 C 
ATOM     15  C   UNL d   1       1.404 -11.512  -5.696  0.00  0.00     0.034 C 
ENDBRANCH  13  14
ENDBRANCH  11  13
ENDBRANCH  10  11
ENDBRANCH   7  10
ENDBRANCH   2   6
BRANCH   3  16
ATOM     16  C   UNL d   1       0.412  -3.598  -0.581  0.00  0.00     0.000 A 
ATOM     17  C   UNL d   1       0.508  -3.510  -1.978  0.00  0.00     0.050 A 
ATOM     18  C   UNL d   1       0.248  -2.291  -2.625  0.00  0.00     0.103 A 
ATOM     19  C   UNL d   1      -0.113  -1.151  -1.896  0.00  0.00     0.036 A 
ATOM     20  C   UNL d   1      -0.220  -1.235  -0.511  0.00  0.00     0.003 A 
ATOM     21  C   UNL d   1       0.040  -2.447   0.137  0.00  0.00     0.014 A 
BRANCH  18  22
ATOM     22  N   UNL d   1       0.362  -2.202  -4.087  0.00  0.00    -0.116 N 
ATOM     23  O   UNL d   1       0.639  -3.237  -4.707  0.00  0.00    -0.532 OA
ATOM     24  O   UNL d   1       0.175  -1.095  -4.612  0.00  0.00    -0.532 OA
ENDBRANCH  18  22
ENDBRANCH   3  16
TORSDOF 7
