REMARK  3 active torsions:
REMARK  status: ('A' for Active; 'I' for Inactive)
REMARK    1  A    between atoms: N_7  and  C_1 
REMARK       I    between atoms: C_2  and  N_6 
REMARK       I    between atoms: N_9  and  C_2 
REMARK    2  A    between atoms: C_5  and  C_8 
REMARK    3  A    between atoms: C_19  and  N_9 
ROOT
ATOM      1  C   UNL d   1      -1.149   6.481   0.243  0.00  0.00     0.322 C 
ATOM      2  N   UNL d   1      -0.013   5.673   0.288  0.00  0.00    -0.333 N 
ATOM      3  N   UNL d   1      -0.019   2.705   0.135  0.00  0.00    -0.253 NA
ATOM      4  N   UNL d   1      -1.449   7.139   1.414  0.00  0.00    -0.309 N 
ATOM      5  O   UNL d   1      -1.798   6.582  -0.797  0.00  0.00    -0.247 OA
ATOM      6  C   UNL d   1       0.340   4.940  -0.935  0.00  0.00     0.142 C 
ATOM      7  C   UNL d   1      -0.311   3.550  -1.046  0.00  0.00     0.118 C 
ATOM      8  C   UNL d   1       0.098   4.074   2.212  0.00  0.00     0.035 C 
ATOM      9  C   UNL d   1       0.725   5.254   1.476  0.00  0.00     0.129 C 
ATOM     10  C   UNL d   1      -0.725   3.108   1.361  0.00  0.00     0.100 C 
ATOM     11  H   UNL d   1      -0.924   6.881   2.231  0.00  0.00     0.170 HD
ENDROOT
BRANCH   3  12
ATOM     12  C   UNL d   1      -0.218   1.337  -0.106  0.00  0.00     0.160 A 
ATOM     13  N   UNL d   1       0.163   0.480   0.855  0.00  0.00    -0.329 N 
ATOM     14  C   UNL d   1      -0.041  -0.850   0.664  0.00  0.00     0.120 A 
ATOM     15  HN  UNL d   1       0.597   0.820   1.713  1.00  0.00     0.168 HD
ATOM     16  C   UNL d   1      -0.640  -1.334  -0.481  0.00  0.00     0.051 A 
ATOM     17  C   UNL d   1      -0.985  -0.394  -1.416  0.00  0.00     0.093 A 
ATOM     18  N   UNL d   1      -0.776   0.924  -1.253  0.00  0.00    -0.343 N 
ATOM     19  HN  UNL d   1      -1.034   1.590  -1.982  1.00  0.00     0.167 HD
BRANCH  14  20
ATOM     20  C   UNL d   1       0.369  -1.826   1.751  0.00  0.00     0.432 C 
ATOM     21  F   UNL d   1       1.103  -1.276   2.760  0.00  0.00    -0.165 F 
ATOM     22  F   UNL d   1      -0.708  -2.412   2.352  0.00  0.00    -0.165 F 
ATOM     23  F   UNL d   1       1.120  -2.860   1.268  0.00  0.00    -0.165 F 
ENDBRANCH  14  20
ENDBRANCH   3  12
BRANCH   4  24
ATOM     24  C   UNL d   1      -2.406   8.161   1.609  0.00  0.00     0.036 A 
ATOM     25  C   UNL d   1      -3.210   8.689   0.597  0.00  0.00     0.029 A 
ATOM     26  C   UNL d   1      -4.098   9.737   0.865  0.00  0.00     0.002 A 
ATOM     27  C   UNL d   1      -4.192  10.268   2.147  0.00  0.00     0.000 A 
ATOM     28  C   UNL d   1      -3.402   9.746   3.167  0.00  0.00     0.002 A 
ATOM     29  C   UNL d   1      -2.516   8.698   2.900  0.00  0.00     0.029 A 
ENDBRANCH   4  24
TORSDOF 3
