REMARK  4 active torsions:
REMARK  status: ('A' for Active; 'I' for Inactive)
REMARK    1  A    between atoms: C_9  and  N_1 
REMARK       I    between atoms: C_7  and  N_13 
REMARK       I    between atoms: N_12  and  C_7 
REMARK    2  A    between atoms: C_8  and  C_9 
REMARK       I    between atoms: N_14  and  C_8 
REMARK    3  A    between atoms: C_15  and  N_12 
REMARK    4  A    between atoms: N_13  and  N_14 
ROOT
ATOM      1  C   UNL d   1       1.373  -2.465   2.305  0.00  0.00     0.254 C 
ATOM      2  N   UNL d   1       2.279  -3.281   1.628  0.00  0.00    -0.265 N 
ATOM      3  O   UNL d   1       1.625  -2.008   3.424  0.00  0.00    -0.270 OA
ATOM      4  H   UNL d   1       2.176  -3.393   0.624  0.00  0.00     0.190 HD
ENDROOT
BRANCH   1   5
ATOM      5  C   UNL d   1       0.041  -2.175   1.586  0.00  0.00     0.234 C 
BRANCH   5   6
ATOM      6  N   UNL d   1       0.207  -1.344   0.380  0.00  0.00    -0.336 N 
ATOM      7  C   UNL d   1       1.131  -0.275   0.374  0.00  0.00     0.052 A 
ATOM      8  C   UNL d   1       1.823   0.025  -0.827  0.00  0.00     0.032 A 
ATOM      9  C   UNL d   1       1.306   0.573   1.470  0.00  0.00     0.031 A 
ATOM     10  C   UNL d   1       2.704   1.107  -0.885  0.00  0.00     0.021 A 
ATOM     11  S   UNL d   1       1.565  -0.972  -2.299  0.00  0.00    -0.086 SA
ATOM     12  C   UNL d   1       2.875   1.929   0.226  0.00  0.00     0.002 A 
ATOM     13  C   UNL d   1       2.168   1.673   1.397  0.00  0.00     0.002 A 
ATOM     14  C   UNL d   1      -0.165  -1.380  -2.031  0.00  0.00     0.032 A 
ATOM     15  C   UNL d   1      -0.664  -1.534  -0.717  0.00  0.00     0.052 A 
ATOM     16  C   UNL d   1      -1.009  -1.499  -3.142  0.00  0.00     0.021 A 
ATOM     17  C   UNL d   1      -2.043  -1.738  -0.556  0.00  0.00     0.031 A 
ATOM     18  C   UNL d   1      -2.893  -1.808  -1.670  0.00  0.00     0.002 A 
ATOM     19  C   UNL d   1      -2.373  -1.708  -2.959  0.00  0.00     0.002 A 
ENDBRANCH   5   6
ENDBRANCH   1   5
BRANCH   2  20
ATOM     20  N   UNL d   1       3.604  -3.293   2.167  0.00  0.00    -0.249 N 
ATOM     21  C   UNL d   1       4.411  -4.415   2.144  0.00  0.00     0.339 C 
ATOM     22  N   UNL d   1       4.286  -5.187   1.013  0.00  0.00    -0.308 N 
ATOM     23  O   UNL d   1       5.219  -4.610   3.048  0.00  0.00    -0.245 OA
ATOM     24  H   UNL d   1       3.999  -4.656   0.203  0.00  0.00     0.170 HD
ATOM     25  H   UNL d   1       3.692  -2.761   3.036  0.00  0.00     0.192 HD
BRANCH  22  26
ATOM     26  C   UNL d   1       4.986  -6.389   0.779  0.00  0.00     0.038 A 
ATOM     27  C   UNL d   1       5.373  -6.683  -0.531  0.00  0.00     0.055 A 
ATOM     28  C   UNL d   1       6.041  -7.877  -0.829  0.00  0.00     0.058 A 
ATOM     29 CL   UNL d   1       6.537  -8.129  -2.466  0.00  0.00    -0.082 Cl
ATOM     30  C   UNL d   1       6.289  -8.811   0.181  0.00  0.00     0.055 A 
ATOM     31  C   UNL d   1       5.905  -8.523   1.494  0.00  0.00     0.028 A 
ATOM     32 CL   UNL d   1       7.043 -10.334  -0.129  0.00  0.00    -0.083 Cl
ATOM     33  C   UNL d   1       5.271  -7.311   1.795  0.00  0.00     0.031 A 
ENDBRANCH  22  26
ENDBRANCH   2  20
TORSDOF 4
