REMARK  4 active torsions:
REMARK  status: ('A' for Active; 'I' for Inactive)
REMARK    1  A    between atoms: C_12  and  C_1 
REMARK    2  A    between atoms: C_6  and  N_15 
REMARK    3  A    between atoms: C_16  and  C_7 
REMARK    4  A    between atoms: N_15  and  N_13 
ROOT
ATOM      1  N   UNL d   1       5.551   1.524   0.083  0.00  0.00    -0.280 N 
ATOM      2  H   UNL d   1       5.977   0.915  -0.610  0.00  0.00     0.189 HD
ENDROOT
BRANCH   1   3
ATOM      3  C   UNL d   1       6.191   2.713   0.281  0.00  0.00     0.163 A 
ATOM      4  N   UNL d   1       5.787   3.671   1.087  0.00  0.00    -0.334 N 
ATOM      5  C   UNL d   1       6.617   4.775   1.005  0.00  0.00     0.051 A 
ATOM      6  HN  UNL d   1       4.969   3.608   1.694  1.00  0.00     0.168 HD
ATOM      7  C   UNL d   1       7.665   4.639   0.117  0.00  0.00     0.083 A 
ATOM      8  S   UNL d   1       7.633   3.077  -0.591  0.00  0.00    -0.062 SA
BRANCH   5   9
ATOM      9  C   UNL d   1       6.401   5.942   1.851  0.00  0.00    -0.009 A 
ATOM     10  C   UNL d   1       5.823   5.770   3.118  0.00  0.00     0.014 A 
ATOM     11  C   UNL d   1       5.654   6.856   3.980  0.00  0.00     0.001 A 
ATOM     12  C   UNL d   1       6.049   8.130   3.579  0.00  0.00     0.000 A 
ATOM     13  C   UNL d   1       6.597   8.321   2.311  0.00  0.00     0.001 A 
ATOM     14  C   UNL d   1       6.771   7.233   1.450  0.00  0.00     0.014 A 
ENDBRANCH   5   9
ENDBRANCH   1   3
BRANCH   1  15
ATOM     15  N   UNL d   1       4.199   1.469   0.239  0.00  0.00    -0.309 N 
ATOM     16  C   UNL d   1       3.603   0.346   0.009  0.00  0.00     0.126 C 
ATOM     17  HN  UNL d   1       3.671   2.293   0.529  1.00  0.00     0.186 HD
BRANCH  16  18
ATOM     18  C   UNL d   1       2.157   0.275   0.048  0.00  0.00     0.029 A 
ATOM     19  S   UNL d   1       1.443  -1.266  -0.136  0.00  0.00    -0.088 SA
ATOM     20  C   UNL d   1      -0.151  -0.641  -0.049  0.00  0.00     0.016 A 
ATOM     21  C   UNL d   1      -1.356  -1.366  -0.140  0.00  0.00     0.019 A 
ATOM     22  C   UNL d   1      -0.143   0.743   0.127  0.00  0.00    -0.012 A 
ATOM     23  C   UNL d   1      -2.571  -0.680  -0.060  0.00  0.00     0.001 A 
ATOM     24  C   UNL d   1      -2.592   0.696   0.110  0.00  0.00     0.001 A 
ATOM     25  C   UNL d   1      -1.394   1.408   0.205  0.00  0.00     0.013 A 
ATOM     26  C   UNL d   1       1.206   1.277   0.191  0.00  0.00    -0.032 A 
ATOM     27  C   UNL d   1       1.457   2.747   0.373  0.00  0.00     0.050 C 
ENDBRANCH  16  18
ENDBRANCH   1  15
TORSDOF 4
