REMARK  3 active torsions:
REMARK  status: ('A' for Active; 'I' for Inactive)
REMARK    1  A    between atoms: C_4  and  C_1 
REMARK    2  A    between atoms: C_6  and  C_4 
REMARK    3  A    between atoms: N_8  and  C_6 
ROOT
ATOM      1  C   UNL d   1       2.325  -0.068  -0.572  0.00  0.00    -0.004 C 
ATOM      2  S   UNL d   1       1.979  -0.833  -2.069  0.00  0.00    -0.093 SA
ATOM      3  C   UNL d   1       1.146   0.264   0.087  0.00  0.00    -0.037 C 
ATOM      4  C   UNL d   1       0.010   0.230  -0.817  0.00  0.00    -0.011 A 
ATOM      5  C   UNL d   1       0.352  -0.311  -2.057  0.00  0.00     0.016 A 
ATOM      6  C   UNL d   1      -1.329   0.662  -0.635  0.00  0.00     0.037 A 
ATOM      7  C   UNL d   1      -0.570  -0.405  -3.115  0.00  0.00     0.021 A 
ATOM      8  C   UNL d   1      -2.242   0.594  -1.692  0.00  0.00     0.035 A 
ATOM      9  C   UNL d   1      -1.867   0.072  -2.923  0.00  0.00     0.025 A 
ATOM     10  C   UNL d   1       1.034   0.695   1.516  0.00  0.00     0.050 C 
ATOM     11 CL   UNL d   1      -3.843   1.184  -1.471  0.00  0.00    -0.084 Cl
ENDROOT
BRANCH   1  12
ATOM     12  C   UNL d   1       3.765   0.057  -0.128  0.00  0.00     0.116 C 
BRANCH  12  13
ATOM     13  C   UNL d   1       4.204   1.540  -0.054  0.00  0.00     0.080 C 
ATOM     14  S   UNL d   1       4.511   2.170   1.490  0.00  0.00    -0.065 SA
BRANCH  13  15
ATOM     15  N   UNL d   1       4.362   2.279  -1.228  0.00  0.00    -0.371 N 
ATOM     16  C   UNL d   1       4.679   3.725  -1.264  0.00  0.00     0.149 C 
ATOM     17  C   UNL d   1       3.791   4.465  -2.278  0.00  0.00     0.187 C 
ATOM     18  O   UNL d   1       3.824   3.851  -3.576  0.00  0.00    -0.388 OA
ATOM     19  C   UNL d   1       3.422   2.474  -3.494  0.00  0.00     0.187 C 
ATOM     20  C   UNL d   1       4.382   1.705  -2.583  0.00  0.00     0.149 C 
ENDBRANCH  13  15
ENDBRANCH  12  13
ENDBRANCH   1  12
TORSDOF 3
