REMARK  4 active torsions:
REMARK  status: ('A' for Active; 'I' for Inactive)
REMARK       I    between atoms: N_2  and  C_1 
REMARK    1  A    between atoms: C_7  and  C_1 
REMARK    2  A    between atoms: C_4  and  N_2 
REMARK    3  A    between atoms: C_3  and  C_4 
REMARK       I    between atoms: N_5  and  C_3 
REMARK    4  A    between atoms: C_9  and  N_5 
ROOT
ATOM      1  C   UNL d   1      -1.114  -1.053   0.030  0.00  0.00     0.228 C 
ENDROOT
BRANCH   1   2
ATOM      2  C   UNL d   1      -1.561   0.324  -0.493  0.00  0.00     0.240 C 
ATOM      3  N   UNL d   1      -1.509   1.312   0.475  0.00  0.00    -0.326 N 
ATOM      4  H   UNL d   1      -0.958   1.072   1.303  0.00  0.00     0.169 HD
ATOM      5  O   UNL d   1      -1.890   0.474  -1.669  0.00  0.00    -0.271 OA
BRANCH   3   6
ATOM      6  C   UNL d   1      -1.914   2.654   0.359  0.00  0.00     0.034 A 
ATOM      7  C   UNL d   1      -2.696   3.137  -0.691  0.00  0.00     0.029 A 
ATOM      8  C   UNL d   1      -3.043   4.491  -0.750  0.00  0.00     0.002 A 
ATOM      9  C   UNL d   1      -2.613   5.370   0.242  0.00  0.00     0.000 A 
ATOM     10  C   UNL d   1      -1.852   4.893   1.306  0.00  0.00     0.002 A 
ATOM     11  C   UNL d   1      -1.512   3.538   1.369  0.00  0.00     0.029 A 
ENDBRANCH   3   6
ENDBRANCH   1   2
BRANCH   1  12
ATOM     12  N   UNL d   1       0.344  -1.233   0.053  0.00  0.00    -0.344 N 
ATOM     13  C   UNL d   1       1.035  -0.527   1.047  0.00  0.00     0.253 C 
ATOM     14  O   UNL d   1       0.432   0.153   1.881  0.00  0.00    -0.267 OA
ATOM     15  C   UNL d   1       0.813  -2.519  -0.452  0.00  0.00     0.153 C 
BRANCH  13  16
ATOM     16  C   UNL d   1       2.522  -0.515   1.099  0.00  0.00     0.032 A 
ATOM     17  C   UNL d   1       3.321  -0.525  -0.049  0.00  0.00     0.017 A 
ATOM     18  C   UNL d   1       4.712  -0.412   0.065  0.00  0.00     0.001 A 
ATOM     19  C   UNL d   1       5.303  -0.253   1.319  0.00  0.00     0.000 A 
ATOM     20  C   UNL d   1       4.510  -0.215   2.464  0.00  0.00     0.001 A 
ATOM     21  C   UNL d   1       3.124  -0.346   2.356  0.00  0.00     0.017 A 
ENDBRANCH  13  16
ENDBRANCH   1  12
TORSDOF 4
