REMARK  5 active torsions:
REMARK  status: ('A' for Active; 'I' for Inactive)
REMARK    1  A    between atoms: C_8  and  C_2 
REMARK    2  A    between atoms: S_14  and  C_5 
REMARK    3  A    between atoms: C_9  and  C_17 
REMARK    4  A    between atoms: O_16  and  C_12 
REMARK    5  A    between atoms: C_17  and  O_16 
ROOT
ATOM      1  C   UNL d   1       2.295  -1.349  -0.054  0.00  0.00     0.025 A 
ATOM      2  N   UNL d   1       4.430  -1.788   1.034  0.00  0.00    -0.346 N 
ATOM      3  HN  UNL d   1       5.054  -1.649   1.829  1.00  0.00     0.167 HD
ATOM      4  C   UNL d   1       4.785  -2.566  -0.003  0.00  0.00     0.142 A 
ATOM      5  C   UNL d   1       3.209  -1.192   0.984  0.00  0.00     0.105 A 
ATOM      6  C   UNL d   1       2.712  -2.135  -1.129  0.00  0.00     0.021 A 
ATOM      7  C   UNL d   1       3.962  -2.760  -1.102  0.00  0.00     0.057 A 
ENDROOT
BRANCH   1   8
ATOM      8  C   UNL d   1       1.006  -0.660  -0.009  0.00  0.00     0.135 A 
ATOM      9  N   UNL d   1      -0.219  -1.108  -0.464  0.00  0.00    -0.315 N 
ATOM     10  C   UNL d   1      -1.105  -0.088  -0.222  0.00  0.00     0.159 A 
ATOM     11  C   UNL d   1      -0.542  -2.400  -1.015  0.00  0.00     0.160 C 
ATOM     12  N   UNL d   1      -0.490   0.896   0.383  0.00  0.00    -0.278 N 
ATOM     13  N   UNL d   1       0.827   0.535   0.533  0.00  0.00    -0.283 N 
ATOM     14  HN  UNL d   1      -0.912   1.773   0.688  1.00  0.00     0.189 HD
ATOM     15  HN  UNL d   1       1.549   1.096   0.987  1.00  0.00     0.188 HD
BRANCH  10  16
ATOM     16  S   UNL d   1      -2.781  -0.086  -0.642  0.00  0.00    -0.105 SA
ATOM     17  H   UNL d   1      -2.893  -1.278  -1.236  0.00  0.00     0.110 HD
ENDBRANCH  10  16
ENDBRANCH   1   8
BRANCH   4  18
ATOM     18  O   UNL d   1       6.056  -3.057   0.090  0.00  0.00    -0.327 OA
BRANCH  18  19
ATOM     19  C   UNL d   1       6.239  -4.386  -0.405  0.00  0.00     0.294 C 
BRANCH  19  20
ATOM     20  C   UNL d   1       7.660  -4.886  -0.157  0.00  0.00     0.408 C 
ATOM     21  F   UNL d   1       8.411  -4.034   0.570  0.00  0.00    -0.169 F 
ATOM     22  F   UNL d   1       7.644  -6.074   0.492  0.00  0.00    -0.169 F 
ATOM     23  F   UNL d   1       8.301  -5.088  -1.335  0.00  0.00    -0.169 F 
ENDBRANCH  19  20
ENDBRANCH  18  19
ENDBRANCH   4  18
TORSDOF 5
