REMARK  4 active torsions:
REMARK  status: ('A' for Active; 'I' for Inactive)
REMARK    1  A    between atoms: C_2  and  C_3 
REMARK       I    between atoms: C_3  and  N_12 
REMARK    2  A    between atoms: N_12  and  C_20 
REMARK    3  A    between atoms: C_19  and  N_13 
REMARK    4  A    between atoms: C_21  and  C_19 
ROOT
ATOM      1  C   UNL d   1      -4.309  -3.612   3.080  0.00  0.00     0.035 A 
ATOM      2  C   UNL d   1      -3.138  -1.182   2.202  0.00  0.00    -0.030 A 
ATOM      3  C   UNL d   1      -3.305  -3.603   2.110  0.00  0.00     0.030 A 
ATOM      4  C   UNL d   1      -4.767  -2.379   3.566  0.00  0.00     0.030 A 
ATOM      5  C   UNL d   1      -4.188  -1.174   3.128  0.00  0.00     0.011 A 
ATOM      6  C   UNL d   1      -2.722  -2.410   1.684  0.00  0.00     0.011 A 
ENDROOT
BRANCH   1   7
ATOM      7  N   UNL d   1      -4.864  -4.803   3.614  0.00  0.00    -0.322 N 
ATOM      8  C   UNL d   1      -4.457  -6.107   3.322  0.00  0.00     0.266 C 
ATOM      9  O   UNL d   1      -3.575  -6.364   2.513  0.00  0.00    -0.267 OA
ATOM     10  H   UNL d   1      -5.579  -4.691   4.316  0.00  0.00     0.169 HD
BRANCH   8  11
ATOM     11  C   UNL d   1      -5.114  -7.181   4.037  0.00  0.00     0.114 A 
ATOM     12  C   UNL d   1      -4.886  -8.555   3.971  0.00  0.00     0.046 A 
ATOM     13  N   UNL d   1      -5.713  -9.314   4.798  0.00  0.00    -0.298 N 
ATOM     14  C   UNL d   1      -3.893  -9.306   3.153  0.00  0.00     0.071 C 
ATOM     15  N   UNL d   1      -6.551  -8.566   5.485  0.00  0.00    -0.269 N 
ATOM     16  HN  UNL d   1      -5.673 -10.331   4.863  1.00  0.00     0.187 HD
ATOM     17  S   UNL d   1      -6.373  -6.938   5.168  0.00  0.00     0.009 SA
ATOM     18  HN  UNL d   1      -7.235  -8.941   6.141  1.00  0.00     0.195 HD
ENDBRANCH   8  11
ENDBRANCH   1   7
BRANCH   2  19
ATOM     19  C   UNL d   1      -2.452   0.083   1.736  0.00  0.00     0.311 C 
BRANCH  19  20
ATOM     20  N   UNL d   1      -1.772   0.847   2.797  0.00  0.00     0.094 N 
ATOM     21  C   UNL d   1      -0.754   0.097   3.554  0.00  0.00     0.287 C 
ATOM     22  C   UNL d   1       0.465  -0.339   2.762  0.00  0.00     0.170 C 
ATOM     23  S   UNL d   1       1.268   1.050   2.008  0.00  0.00     0.147 S 
ATOM     24  C   UNL d   1      -0.077   1.969   1.296  0.00  0.00     0.170 C 
ATOM     25  O   UNL d   1       2.082   0.553   0.917  0.00  0.00    -0.228 OA
ATOM     26  O   UNL d   1       1.857   1.864   3.056  0.00  0.00    -0.228 OA
ATOM     27  C   UNL d   1      -1.214   2.116   2.294  0.00  0.00     0.287 C 
ENDBRANCH  19  20
ENDBRANCH   2  19
TORSDOF 4
