REMARK  1 active torsions:
REMARK  status: ('A' for Active; 'I' for Inactive)
REMARK    1  A    between atoms: O_10  and  C_2 
ROOT
ATOM      1  C   UNL d   1       2.399  -0.714   0.025  0.00  0.00     0.120 A 
ATOM      2  C   UNL d   1       1.273  -1.434   0.038  0.00  0.00     0.084 A 
ATOM      3  C   UNL d   1      -0.023  -0.762   0.036  0.00  0.00     0.033 A 
ATOM      4  C   UNL d   1       2.384   0.756   0.021  0.00  0.00     0.290 A 
ATOM      5  C   UNL d   1      -0.047   0.632   0.022  0.00  0.00     0.092 A 
ATOM      6  O   UNL d   1       1.146   1.380   0.029  0.00  0.00    -0.275 OA
ATOM      7  C   UNL d   1      -1.243  -1.450   0.027  0.00  0.00     0.041 A 
ATOM      8  O   UNL d   1       3.435   1.387   0.010  0.00  0.00    -0.260 OA
ATOM      9  C   UNL d   1      -1.242   1.351  -0.012  0.00  0.00     0.040 A 
ATOM     10  C   UNL d   1      -2.445  -0.740  -0.014  0.00  0.00     0.035 A 
ATOM     11  C   UNL d   1      -2.450   0.656  -0.036  0.00  0.00     0.026 A 
ATOM     12 CL   UNL d   1      -3.938  -1.595  -0.051  0.00  0.00    -0.084 Cl
ENDROOT
BRANCH   2  13
ATOM     13  O   UNL d   1       1.254  -2.809   0.036  0.00  0.00    -0.360 OA
ATOM     14  H   UNL d   1       2.168  -3.144   0.009  0.00  0.00     0.217 HD
ENDBRANCH   2  13
TORSDOF 1
