REMARK  2 active torsions:
REMARK  status: ('A' for Active; 'I' for Inactive)
REMARK    1  A    between atoms: C_7  and  C_3 
REMARK    2  A    between atoms: N_11  and  C_4 
ROOT
ATOM      1  C   UNL d   1      -1.987  -2.464  -0.042  0.00  0.00    -0.008 A 
ATOM      2  C   UNL d   1      -2.927  -2.680  -1.060  0.00  0.00     0.026 A 
ATOM      3  C   UNL d   1      -3.775  -3.803  -1.045  0.00  0.00    -0.025 A 
ATOM      4  C   UNL d   1      -1.880  -3.407   0.986  0.00  0.00     0.014 A 
ATOM      5  C   UNL d   1      -3.673  -4.734   0.012  0.00  0.00    -0.026 A 
ATOM      6  C   UNL d   1      -2.716  -4.528   1.016  0.00  0.00     0.013 A 
ATOM      7  C   UNL d   1      -4.726  -4.015  -2.057  0.00  0.00     0.012 A 
ATOM      8  C   UNL d   1      -4.531  -5.846   0.033  0.00  0.00     0.012 A 
ATOM      9  C   UNL d   1      -5.570  -5.125  -2.023  0.00  0.00     0.001 A 
ATOM     10  C   UNL d   1      -5.475  -6.039  -0.977  0.00  0.00     0.001 A 
ENDROOT
BRANCH   1  11
ATOM     11  C   UNL d   1      -1.130  -1.282  -0.026  0.00  0.00     0.051 A 
ATOM     12  N   UNL d   1       0.121  -1.303   0.575  0.00  0.00    -0.336 N 
ATOM     13  C   UNL d   1       0.682  -0.123   0.495  0.00  0.00     0.142 A 
ATOM     14  HN  UNL d   1       0.542  -2.121   1.015  1.00  0.00     0.168 HD
ATOM     15  S   UNL d   1      -0.238   1.081  -0.311  0.00  0.00    -0.064 SA
ATOM     16  C   UNL d   1      -1.496  -0.058  -0.551  0.00  0.00     0.083 A 
BRANCH  13  17
ATOM     17  N   UNL d   1       1.898   0.151   0.993  0.00  0.00    -0.380 N 
ATOM     18  H   UNL d   1       2.482  -0.653   1.195  0.00  0.00     0.158 HD
ATOM     19  H   UNL d   1       2.394   0.953   0.628  0.00  0.00     0.158 HD
ENDBRANCH  13  17
ENDBRANCH   1  11
TORSDOF 2
