REMARK  8 active torsions:
REMARK  status: ('A' for Active; 'I' for Inactive)
REMARK    1  A    between atoms: C_2  and  N_1 
REMARK    2  A    between atoms: O_20  and  C_4 
REMARK    3  A    between atoms: C_5  and  C_14 
REMARK       I    between atoms: N_13  and  C_5 
REMARK    4  A    between atoms: O_21  and  C_7 
REMARK    5  A    between atoms: C_22  and  N_13 
REMARK    6  A    between atoms: C_14  and  C_15 
REMARK    7  A    between atoms: C_16  and  C_23 
REMARK    8  A    between atoms: C_23  and  C_22 
ROOT
ATOM      1  C   UNL d   1      -1.082  -2.171  -5.679  0.00  0.00     0.221 C 
ATOM      2  O   UNL d   1      -0.127  -2.809  -5.245  0.00  0.00    -0.273 OA
ATOM      3  N   UNL d   1      -1.670  -2.445  -6.898  0.00  0.00    -0.361 N 
ATOM      4  H   UNL d   1      -2.438  -1.877  -7.230  0.00  0.00     0.162 HD
ENDROOT
BRANCH   3   5
ATOM      5  C   UNL d   1      -1.093  -3.455  -7.769  0.00  0.00     0.127 C 
BRANCH   5   6
ATOM      6  C   UNL d   1      -1.802  -3.597  -9.119  0.00  0.00     0.058 C 
BRANCH   6   7
ATOM      7  C   UNL d   1      -1.760  -2.345  -9.966  0.00  0.00    -0.054 A 
ATOM      8  C   UNL d   1      -2.954  -1.717 -10.355  0.00  0.00     0.046 A 
ATOM      9  C   UNL d   1      -2.949  -0.545 -11.128  0.00  0.00     0.102 A 
ATOM     10  C   UNL d   1      -1.715   0.014 -11.501  0.00  0.00     0.101 A 
ATOM     11  C   UNL d   1      -0.526  -0.637 -11.152  0.00  0.00     0.040 A 
ATOM     12  C   UNL d   1      -0.544  -1.806 -10.392  0.00  0.00     0.010 A 
BRANCH   9  13
ATOM     13  O   UNL d   1      -4.091   0.074 -11.562  0.00  0.00    -0.353 OA
ATOM     14  C   UNL d   1      -5.340  -0.521 -11.238  0.00  0.00     0.210 C 
ENDBRANCH   9  13
BRANCH  10  15
ATOM     15  O   UNL d   1      -1.512   1.147 -12.248  0.00  0.00    -0.353 OA
ATOM     16  C   UNL d   1      -2.454   2.199 -12.072  0.00  0.00     0.210 C 
ENDBRANCH  10  15
ENDBRANCH   6   7
ENDBRANCH   5   6
ENDBRANCH   3   5
BRANCH   1  17
ATOM     17  C   UNL d   1      -1.705  -1.026  -4.901  0.00  0.00     0.141 C 
BRANCH  17  18
ATOM     18  C   UNL d   1      -2.791  -1.472  -3.947  0.00  0.00    -0.049 A 
ATOM     19  C   UNL d   1      -2.519  -2.425  -2.952  0.00  0.00     0.010 A 
ATOM     20  C   UNL d   1      -3.517  -2.833  -2.063  0.00  0.00     0.036 A 
ATOM     21  C   UNL d   1      -4.796  -2.276  -2.162  0.00  0.00     0.102 A 
ATOM     22  C   UNL d   1      -5.076  -1.307  -3.134  0.00  0.00     0.036 A 
ATOM     23  C   UNL d   1      -4.072  -0.907  -4.020  0.00  0.00     0.010 A 
BRANCH  21  24
ATOM     24  N   UNL d   1      -5.855  -2.712  -1.244  0.00  0.00    -0.116 N 
ATOM     25  O   UNL d   1      -6.973  -2.190  -1.365  0.00  0.00    -0.532 OA
ATOM     26  O   UNL d   1      -5.573  -3.579  -0.405  0.00  0.00    -0.532 OA
ENDBRANCH  21  24
ENDBRANCH  17  18
ENDBRANCH   1  17
TORSDOF 8
