REMARK  4 active torsions:
REMARK  status: ('A' for Active; 'I' for Inactive)
REMARK    1  A    between atoms: C_7  and  N_1 
REMARK    2  A    between atoms: C_15  and  N_2 
REMARK    3  A    between atoms: S_14  and  C_12 
REMARK    4  A    between atoms: C_22  and  C_15 
ROOT
ATOM      1  N   UNL d   1       0.851  -1.430   0.101  0.00  0.00    -0.246 N 
ATOM      2  N   UNL d   1       2.087   0.627   0.090  0.00  0.00    -0.260 N 
ATOM      3  C   UNL d   1       2.093  -0.786   0.224  0.00  0.00     0.338 A 
ATOM      4  C   UNL d   1      -0.302  -0.688  -0.024  0.00  0.00     0.150 A 
ATOM      5  C   UNL d   1      -0.254   0.673  -0.052  0.00  0.00     0.147 A 
ATOM      6  C   UNL d   1       0.945   1.426  -0.022  0.00  0.00     0.282 A 
ATOM      7  N   UNL d   1      -1.594  -1.136  -0.062  0.00  0.00    -0.336 N 
ATOM      8  HN  UNL d   1      -1.917  -2.103  -0.074  1.00  0.00     0.168 HD
ATOM      9  N   UNL d   1      -1.555   1.086  -0.091  0.00  0.00    -0.345 N 
ATOM     10  C   UNL d   1      -2.328  -0.043  -0.079  0.00  0.00     0.182 A 
ATOM     11  O   UNL d   1       3.146  -1.403   0.422  0.00  0.00    -0.246 OA
ATOM     12  O   UNL d   1       0.945   2.652  -0.079  0.00  0.00    -0.265 OA
ATOM     13  H   UNL d   1      -1.878   2.046  -0.096  0.00  0.00     0.167 HD
ENDROOT
BRANCH   1  14
ATOM     14  C   UNL d   1       0.700  -2.842   0.116  0.00  0.00     0.053 A 
ATOM     15  C   UNL d   1       0.222  -3.469  -1.054  0.00  0.00     0.051 A 
ATOM     16  C   UNL d   1       0.051  -4.856  -1.115  0.00  0.00     0.033 A 
ATOM     17  C   UNL d   1       0.358  -5.625   0.007  0.00  0.00     0.021 A 
ATOM     18  C   UNL d   1       0.825  -5.016   1.174  0.00  0.00     0.010 A 
ATOM     19  C   UNL d   1       0.999  -3.622   1.248  0.00  0.00    -0.035 A 
ATOM     20  C   UNL d   1       1.454  -3.052   2.563  0.00  0.00     0.050 C 
BRANCH  16  21
ATOM     21  S   UNL d   1      -0.465  -5.646  -2.659  0.00  0.00     0.045 S 
ATOM     22  O   UNL d   1      -0.565  -7.115  -2.365  0.00  0.00    -0.253 OA
ATOM     23  C   UNL d   1      -2.151  -4.997  -2.742  0.00  0.00     0.133 C 
ENDBRANCH  16  21
ENDBRANCH   1  14
BRANCH   2  24
ATOM     24  C   UNL d   1       3.374   1.314   0.074  0.00  0.00     0.175 C 
BRANCH  24  25
ATOM     25  C   UNL d   1       3.973   1.367  -1.318  0.00  0.00    -0.040 A 
ATOM     26  C   UNL d   1       3.674   2.420  -2.195  0.00  0.00     0.009 A 
ATOM     27  C   UNL d   1       4.199   2.436  -3.490  0.00  0.00     0.001 A 
ATOM     28  C   UNL d   1       5.027   1.401  -3.922  0.00  0.00     0.000 A 
ATOM     29  C   UNL d   1       5.336   0.353  -3.059  0.00  0.00     0.001 A 
ATOM     30  C   UNL d   1       4.813   0.336  -1.765  0.00  0.00     0.009 A 
ENDBRANCH  24  25
ENDBRANCH   2  24
TORSDOF 4
