REMARK  6 active torsions:
REMARK  status: ('A' for Active; 'I' for Inactive)
REMARK    1  A    between atoms: C_7  and  C_1 
REMARK    2  A    between atoms: C_12  and  N_2 
REMARK    3  A    between atoms: C_13  and  C_6 
REMARK       I    between atoms: N_11  and  C_7 
REMARK       I    between atoms: C_8  and  N_14 
REMARK       I    between atoms: N_9  and  C_8 
REMARK    4  A    between atoms: C_10  and  N_9 
REMARK    5  A    between atoms: N_14  and  N_11 
REMARK    6  A    between atoms: C_19  and  C_12 
ROOT
ATOM      1  C   UNL d   1      -0.697  -2.724   0.130  0.00  0.00     0.288 C 
ATOM      2  N   UNL d   1      -0.197  -3.446   1.199  0.00  0.00    -0.261 N 
ATOM      3  O   UNL d   1      -1.341  -3.264  -0.768  0.00  0.00    -0.264 OA
ATOM      4  H   UNL d   1       0.210  -2.969   1.998  0.00  0.00     0.190 HD
ENDROOT
BRANCH   1   5
ATOM      5  C   UNL d   1      -0.449  -1.301   0.185  0.00  0.00     0.122 A 
ATOM      6  N   UNL d   1       0.760  -0.664   0.351  0.00  0.00    -0.282 N 
ATOM      7  N   UNL d   1       0.677   0.674   0.207  0.00  0.00    -0.301 N 
ATOM      8  C   UNL d   1      -0.625   0.936   0.075  0.00  0.00     0.036 A 
ATOM      9  HN  UNL d   1       1.446   1.344   0.200  1.00  0.00     0.187 HD
ATOM     10  C   UNL d   1      -1.361  -0.271   0.004  0.00  0.00     0.064 A 
BRANCH   6  11
ATOM     11  C   UNL d   1       2.089  -1.222   0.600  0.00  0.00     0.188 C 
BRANCH  11  12
ATOM     12  C   UNL d   1       2.519  -1.009   2.040  0.00  0.00    -0.038 A 
ATOM     13  C   UNL d   1       2.803  -2.097   2.880  0.00  0.00     0.012 A 
ATOM     14  C   UNL d   1       3.156  -1.883   4.215  0.00  0.00     0.043 A 
ATOM     15  C   UNL d   1       3.238  -0.587   4.714  0.00  0.00     0.116 A 
ATOM     16  C   UNL d   1       2.995   0.506   3.898  0.00  0.00     0.043 A 
ATOM     17  F   UNL d   1       3.562  -0.393   5.999  0.00  0.00    -0.206 F 
ATOM     18  C   UNL d   1       2.650   0.294   2.563  0.00  0.00     0.012 A 
ENDBRANCH  11  12
ENDBRANCH   6  11
BRANCH   8  19
ATOM     19  C   UNL d   1      -1.080   2.385   0.009  0.00  0.00    -0.007 C 
ATOM     20  C   UNL d   1      -2.614   2.507  -0.016  0.00  0.00     0.021 C 
ATOM     21  C   UNL d   1      -0.565   3.157   1.248  0.00  0.00     0.021 C 
ATOM     22  C   UNL d   1      -0.516   3.063  -1.257  0.00  0.00     0.021 C 
ENDBRANCH   8  19
ENDBRANCH   1   5
BRANCH   2  23
ATOM     23  N   UNL d   1       0.147  -4.809   1.035  0.00  0.00    -0.248 N 
ATOM     24  C   UNL d   1      -0.736  -5.827   1.329  0.00  0.00     0.339 C 
ATOM     25  N   UNL d   1      -2.021  -5.640   0.880  0.00  0.00    -0.307 N 
ATOM     26  O   UNL d   1      -0.286  -6.820   1.893  0.00  0.00    -0.245 OA
ATOM     27  H   UNL d   1      -2.088  -4.931   0.158  0.00  0.00     0.170 HD
ATOM     28  H   UNL d   1       1.081  -5.057   1.345  0.00  0.00     0.192 HD
BRANCH  25  29
ATOM     29  C   UNL d   1      -3.085  -6.579   1.011  0.00  0.00     0.047 A 
ATOM     30  C   UNL d   1      -4.160  -6.599   0.068  0.00  0.00     0.001 A 
ATOM     31  C   UNL d   1      -5.194  -7.567   0.236  0.00  0.00    -0.024 A 
ATOM     32  C   UNL d   1      -4.264  -5.748  -1.060  0.00  0.00     0.014 A 
ATOM     33  C   UNL d   1      -6.255  -7.647  -0.683  0.00  0.00     0.012 A 
ATOM     34  C   UNL d   1      -5.155  -8.462   1.312  0.00  0.00     0.012 A 
ATOM     35  C   UNL d   1      -6.319  -6.795  -1.779  0.00  0.00     0.001 A 
ATOM     36  C   UNL d   1      -5.324  -5.846  -1.969  0.00  0.00     0.001 A 
ATOM     37  C   UNL d   1      -4.112  -8.426   2.227  0.00  0.00     0.003 A 
ATOM     38  C   UNL d   1      -3.090  -7.492   2.078  0.00  0.00     0.030 A 
ENDBRANCH  25  29
ENDBRANCH   2  23
TORSDOF 6
