REMARK  8 active torsions:
REMARK  status: ('A' for Active; 'I' for Inactive)
REMARK    1  A    between atoms: N_3  and  C_1 
REMARK    2  A    between atoms: N_5  and  C_2 
REMARK    3  A    between atoms: C_6  and  C_7 
REMARK    4  A    between atoms: O_18  and  C_6 
REMARK    5  A    between atoms: C_11  and  C_8 
REMARK    6  A    between atoms: O_17  and  C_9 
REMARK    7  A    between atoms: O_19  and  C_15 
REMARK    8  A    between atoms: C_27  and  O_18 
ROOT
ATOM      1  C   UNL d   1       1.410  -0.219   0.139  0.00  0.00     0.059 A 
ATOM      2  C   UNL d   1       0.557  -1.357   0.028  0.00  0.00     0.057 A 
ATOM      3  C   UNL d   1      -0.530   1.260   0.075  0.00  0.00     0.041 A 
ATOM      4  C   UNL d   1       0.847   1.067   0.189  0.00  0.00     0.049 A 
ATOM      5  C   UNL d   1      -0.824  -1.134  -0.106  0.00  0.00     0.033 A 
ATOM      6  C   UNL d   1      -1.367   0.160  -0.092  0.00  0.00     0.020 A 
ENDROOT
BRANCH   1   7
ATOM      7  N   UNL d   1       2.803  -0.398   0.316  0.00  0.00    -0.363 N 
ATOM      8  C   UNL d   1       3.627   0.428  -0.250  0.00  0.00     0.102 C 
ATOM      9  HN  UNL d   1       3.155  -1.169   0.883  1.00  0.00     0.165 HD
BRANCH   8  10
ATOM     10  C   UNL d   1       5.088   0.215  -0.171  0.00  0.00     0.015 A 
ATOM     11  C   UNL d   1       5.643  -0.932   0.429  0.00  0.00     0.110 A 
ATOM     12  C   UNL d   1       7.027  -1.136   0.379  0.00  0.00     0.102 A 
ATOM     13  C   UNL d   1       7.831  -0.173  -0.251  0.00  0.00     0.040 A 
ATOM     14  C   UNL d   1       7.281   0.977  -0.818  0.00  0.00     0.004 A 
ATOM     15  C   UNL d   1       5.905   1.172  -0.782  0.00  0.00     0.016 A 
BRANCH  11  16
ATOM     16  O   UNL d   1       4.830  -1.845   1.051  0.00  0.00    -0.357 OA
ATOM     17  H   UNL d   1       3.900  -1.522   0.993  0.00  0.00     0.217 HD
ENDBRANCH  11  16
BRANCH  12  18
ATOM     18  O   UNL d   1       7.755  -2.190   0.862  0.00  0.00    -0.353 OA
ATOM     19  C   UNL d   1       7.063  -3.251   1.506  0.00  0.00     0.210 C 
ENDBRANCH  12  18
ENDBRANCH   8  10
ENDBRANCH   1   7
BRANCH   2  20
ATOM     20  N   UNL d   1       1.074  -2.655   0.127  0.00  0.00    -0.375 N 
ATOM     21  C   UNL d   1       0.228  -3.756   0.617  0.00  0.00     0.149 C 
ATOM     22  C   UNL d   1       1.134  -4.905   1.092  0.00  0.00     0.187 C 
ATOM     23  O   UNL d   1       2.008  -5.354   0.041  0.00  0.00    -0.388 OA
ATOM     24  C   UNL d   1       2.841  -4.266  -0.406  0.00  0.00     0.187 C 
ATOM     25  C   UNL d   1       1.996  -3.095  -0.940  0.00  0.00     0.149 C 
ENDBRANCH   2  20
BRANCH   3  26
ATOM     26  C   UNL d   1      -1.035   2.646   0.247  0.00  0.00     0.293 C 
ATOM     27  O   UNL d   1      -0.308   3.616   0.379  0.00  0.00    -0.259 OA
BRANCH  26  28
ATOM     28  O   UNL d   1      -2.384   2.628   0.367  0.00  0.00    -0.318 OA
BRANCH  28  29
ATOM     29  C   UNL d   1      -2.946   3.756   1.050  0.00  0.00     0.174 C 
ATOM     30  C   UNL d   1      -2.986   3.421   2.531  0.00  0.00     0.034 C 
ENDBRANCH  28  29
ENDBRANCH  26  28
ENDBRANCH   3  26
TORSDOF 8
