REMARK  6 active torsions:
REMARK  status: ('A' for Active; 'I' for Inactive)
REMARK    1  A    between atoms: C_5  and  C_1 
REMARK    2  A    between atoms: C_2  and  C_3 
REMARK       I    between atoms: N_21  and  C_5 
REMARK    3  A    between atoms: C_9  and  N_23 
REMARK    4  A    between atoms: C_28  and  N_21 
REMARK    5  A    between atoms: N_23  and  C_29 
REMARK    6  A    between atoms: C_29  and  C_28 
ROOT
ATOM      1  C   UNL d   1       6.208  -1.476  -0.038  0.00  0.00     0.137 C 
ENDROOT
BRANCH   1   2
ATOM      2  N   UNL d   1       4.917  -0.791  -0.100  0.00  0.00    -0.356 N 
ATOM      3  C   UNL d   1       3.828  -1.393  -0.687  0.00  0.00     0.249 C 
ATOM      4  O   UNL d   1       3.902  -2.495  -1.219  0.00  0.00    -0.268 OA
ATOM      5  H   UNL d   1       4.806   0.033   0.471  0.00  0.00     0.162 HD
BRANCH   3   6
ATOM      6  C   UNL d   1       2.538  -0.630  -0.660  0.00  0.00     0.034 A 
ATOM      7  C   UNL d   1       1.482  -1.209  -1.250  0.00  0.00     0.029 A 
ATOM      8  C   UNL d   1       0.220  -0.484  -1.286  0.00  0.00    -0.000 A 
ATOM      9  C   UNL d   1      -0.903  -1.035  -1.916  0.00  0.00     0.038 A 
ATOM     10  C   UNL d   1       0.127   0.776  -0.692  0.00  0.00     0.079 A 
ATOM     11  C   UNL d   1      -2.104  -0.325  -1.944  0.00  0.00     0.035 A 
ATOM     12 CL   UNL d   1      -3.481  -1.004  -2.722  0.00  0.00    -0.084 Cl
ATOM     13  C   UNL d   1      -2.198   0.931  -1.348  0.00  0.00     0.026 A 
ATOM     14  C   UNL d   1      -1.079   1.481  -0.721  0.00  0.00     0.039 A 
ATOM     15  O   UNL d   1       1.168   1.392  -0.058  0.00  0.00    -0.346 OA
ATOM     16  C   UNL d   1       2.444   0.729  -0.037  0.00  0.00     0.220 A 
ENDBRANCH   3   6
ENDBRANCH   1   2
BRANCH   1  17
ATOM     17  C   UNL d   1       7.390  -0.496  -0.024  0.00  0.00     0.113 C 
BRANCH  17  18
ATOM     18  N   UNL d   1       8.678  -1.198   0.012  0.00  0.00    -0.276 NA
ATOM     19  H   UNL d   1       8.783  -1.876  -0.742  0.00  0.00     0.129 HD
BRANCH  18  20
ATOM     20  C   UNL d   1       9.796  -0.336  -0.009  0.00  0.00     0.102 A 
ATOM     21  N   UNL d   1       9.582   1.001   0.013  0.00  0.00    -0.355 N 
ATOM     22  C   UNL d   1      10.648   1.833  -0.024  0.00  0.00     0.105 A 
ATOM     23  HN  UNL d   1       8.633   1.374   0.056  1.00  0.00     0.166 HD
ATOM     24  C   UNL d   1      11.964   1.406  -0.055  0.00  0.00     0.065 A 
ATOM     25  C   UNL d   1      12.191   0.029  -0.042  0.00  0.00     0.044 A 
ATOM     26  C   UNL d   1      11.104  -0.851  -0.026  0.00  0.00     0.073 A 
ATOM     27 CL   UNL d   1      11.425  -2.547  -0.061  0.00  0.00    -0.081 Cl
BRANCH  24  28
ATOM     28  C   UNL d   1      13.066   2.416  -0.122  0.00  0.00     0.418 C 
ATOM     29  F   UNL d   1      14.309   1.862  -0.155  0.00  0.00    -0.166 F 
ATOM     30  F   UNL d   1      12.977   3.203  -1.229  0.00  0.00    -0.166 F 
ATOM     31  F   UNL d   1      13.061   3.265   0.941  0.00  0.00    -0.166 F 
ENDBRANCH  24  28
ENDBRANCH  18  20
ENDBRANCH  17  18
ENDBRANCH   1  17
TORSDOF 6
