REMARK  4 active torsions:
REMARK  status: ('A' for Active; 'I' for Inactive)
REMARK       I    between atoms: N_2  and  C_1 
REMARK       I    between atoms: N_14  and  C_1 
REMARK    1  A    between atoms: N_3  and  C_4 
REMARK    2  A    between atoms: C_15  and  N_14 
REMARK    3  A    between atoms: C_16  and  C_15 
REMARK    4  A    between atoms: C_17  and  C_16 
ROOT
ATOM      1  C   UNL d   1       1.019  -0.055   0.127  0.00  0.00     0.318 C 
ATOM      2  N   UNL d   1       0.162   0.844   0.754  0.00  0.00    -0.334 N 
ATOM      3  C   UNL d   1      -1.889   2.604   1.859  0.00  0.00     0.091 C 
ATOM      4  C   UNL d   1      -2.184   1.145   1.501  0.00  0.00     0.045 C 
ATOM      5  C   UNL d   1      -0.672   3.146   1.099  0.00  0.00     0.045 C 
ATOM      6  C   UNL d   1      -0.947   0.259   1.510  0.00  0.00     0.129 C 
ATOM      7  C   UNL d   1       0.530   2.210   1.131  0.00  0.00     0.129 C 
ATOM      8  O   UNL d   1       0.806  -1.265   0.098  0.00  0.00    -0.247 OA
ATOM      9  N   UNL d   1       2.130   0.500  -0.457  0.00  0.00    -0.343 N 
ATOM     10  H   UNL d   1       1.991   1.423  -0.833  0.00  0.00     0.164 HD
ENDROOT
BRANCH   9  11
ATOM     11  C   UNL d   1       3.036  -0.334  -1.224  0.00  0.00     0.124 C 
BRANCH  11  12
ATOM     12  C   UNL d   1       4.463   0.201  -1.180  0.00  0.00     0.019 C 
BRANCH  12  13
ATOM     13  C   UNL d   1       5.380  -0.646  -2.062  0.00  0.00    -0.003 C 
ATOM     14  C   UNL d   1       6.823  -0.173  -1.996  0.00  0.00     0.005 C 
ENDBRANCH  12  13
ENDBRANCH  11  12
ENDBRANCH   9  11
BRANCH   3  15
ATOM     15  N   UNL d   1      -1.842   2.866   3.298  0.00  0.00    -0.362 N 
ATOM     16  C   UNL d   1      -0.925   2.406   4.205  0.00  0.00     0.091 A 
ATOM     17  C   UNL d   1      -1.225   2.943   5.437  0.00  0.00     0.019 A 
ATOM     18  C   UNL d   1      -2.379   3.738   5.281  0.00  0.00     0.019 A 
ATOM     19  C   UNL d   1      -2.745   3.670   3.955  0.00  0.00     0.091 A 
ENDBRANCH   3  15
TORSDOF 4
