REMARK  9 active torsions:
REMARK  status: ('A' for Active; 'I' for Inactive)
REMARK    1  A    between atoms: N_2  and  S_1 
REMARK    2  A    between atoms: C_4  and  S_1 
REMARK    3  A    between atoms: C_3  and  N_10 
REMARK    4  A    between atoms: N_13  and  C_3 
REMARK    5  A    between atoms: C_5  and  C_15 
REMARK    6  A    between atoms: N_8  and  N_13 
REMARK    7  A    between atoms: N_10  and  C_19 
REMARK    8  A    between atoms: O_24  and  C_12 
REMARK    9  A    between atoms: O_27  and  C_20 
ROOT
ATOM      1  C   UNL d   1      -1.154  -0.018  -6.601  0.00  0.00     0.191 C 
ATOM      2  S   UNL d   1      -0.288  -1.428  -6.840  0.00  0.00    -0.039 SA
ENDROOT
BRANCH   1   3
ATOM      3  N   UNL d   1      -1.016   0.887  -5.570  0.00  0.00    -0.332 N 
ATOM      4  H   UNL d   1      -1.141   1.845  -5.881  0.00  0.00     0.168 HD
BRANCH   3   5
ATOM      5  C   UNL d   1      -0.561   0.682  -4.259  0.00  0.00     0.034 A 
ATOM      6  C   UNL d   1       0.029   1.765  -3.590  0.00  0.00     0.031 A 
ATOM      7  C   UNL d   1       0.500   1.613  -2.287  0.00  0.00     0.027 A 
ATOM      8  C   UNL d   1       0.353   0.382  -1.637  0.00  0.00     0.079 A 
ATOM      9  C   UNL d   1      -0.322  -0.670  -2.261  0.00  0.00     0.027 A 
ATOM     10  C   UNL d   1      -0.759  -0.526  -3.576  0.00  0.00     0.031 A 
BRANCH   8  11
ATOM     11  S   UNL d   1       1.006   0.163   0.007  0.00  0.00     0.260 S 
ATOM     12  O   UNL d   1       1.144   1.477   0.597  0.00  0.00    -0.200 OA
ATOM     13  O   UNL d   1       0.210  -0.865   0.650  0.00  0.00    -0.200 OA
BRANCH  11  14
ATOM     14  N   UNL d   1       2.571  -0.468  -0.287  0.00  0.00    -0.307 N 
ATOM     15  C   UNL d   1       2.616  -1.834  -0.873  0.00  0.00     0.135 C 
ATOM     16  C   UNL d   1       4.024  -2.405  -0.751  0.00  0.00     0.021 C 
ATOM     17  C   UNL d   1       5.041  -1.489  -1.421  0.00  0.00     0.003 C 
ATOM     18  C   UNL d   1       4.954  -0.087  -0.827  0.00  0.00     0.021 C 
ATOM     19  C   UNL d   1       3.535   0.470  -0.919  0.00  0.00     0.135 C 
ENDBRANCH  11  14
ENDBRANCH   8  11
ENDBRANCH   3   5
ENDBRANCH   1   3
BRANCH   1  20
ATOM     20  N   UNL d   1      -2.066   0.377  -7.563  0.00  0.00    -0.276 N 
ATOM     21  H   UNL d   1      -2.070  -0.143  -8.439  0.00  0.00     0.189 HD
BRANCH  20  22
ATOM     22  N   UNL d   1      -3.216   1.106  -7.340  0.00  0.00    -0.309 N 
ATOM     23  C   UNL d   1      -3.825   0.910  -6.206  0.00  0.00     0.121 C 
ATOM     24  HN  UNL d   1      -3.572   1.767  -8.031  1.00  0.00     0.186 HD
BRANCH  23  25
ATOM     25  C   UNL d   1      -5.120   1.531  -5.859  0.00  0.00     0.017 A 
ATOM     26  C   UNL d   1      -5.971   1.064  -4.844  0.00  0.00     0.080 A 
ATOM     27  C   UNL d   1      -7.242   1.652  -4.723  0.00  0.00     0.040 A 
ATOM     28  C   UNL d   1      -7.651   2.704  -5.545  0.00  0.00     0.039 A 
ATOM     29  C   UNL d   1      -6.780   3.205  -6.503  0.00  0.00     0.069 A 
ATOM     30  C   UNL d   1      -5.534   2.602  -6.675  0.00  0.00     0.052 A 
BRANCH  26  31
ATOM     31  O   UNL d   1      -5.837   0.036  -3.954  0.00  0.00    -0.355 OA
ATOM     32  C   UNL d   1      -4.567  -0.424  -3.535  0.00  0.00     0.210 C 
ENDBRANCH  26  31
BRANCH  29  33
ATOM     33  O   UNL d   1      -7.059   4.244  -7.347  0.00  0.00    -0.356 OA
ATOM     34  C   UNL d   1      -7.976   5.207  -6.834  0.00  0.00     0.210 C 
ENDBRANCH  29  33
ENDBRANCH  23  25
ENDBRANCH  20  22
ENDBRANCH   1  20
TORSDOF 9
