REMARK  4 active torsions:
REMARK  status: ('A' for Active; 'I' for Inactive)
REMARK    1  A    between atoms: C_2  and  S_1 
REMARK    2  A    between atoms: N_3  and  S_1 
REMARK    3  A    between atoms: O_24  and  C_15 
REMARK    4  A    between atoms: O_25  and  C_17 
ROOT
ATOM      1  N   UNL d   1       0.938  -2.071  -0.623  0.00  0.00    -0.297 N 
ATOM      2  C   UNL d   1      -0.015  -4.088  -1.716  0.00  0.00    -0.026 C 
ATOM      3  C   UNL d   1      -0.281  -2.656  -1.238  0.00  0.00     0.125 C 
ATOM      4  C   UNL d   1       0.683  -4.948  -0.845  0.00  0.00    -0.045 C 
ATOM      5  C   UNL d   1      -0.304  -4.535  -3.019  0.00  0.00     0.049 C 
ATOM      6  C   UNL d   1       2.008  -3.007  -0.218  0.00  0.00     0.141 C 
ATOM      7  C   UNL d   1       0.043  -5.839  -3.407  0.00  0.00     0.102 C 
ATOM      8  C   UNL d   1       0.891  -6.286  -1.173  0.00  0.00     0.047 C 
ATOM      9  C   UNL d   1       0.556  -6.734  -2.449  0.00  0.00     0.102 C 
ATOM     10  C   UNL d   1       1.398  -4.313   0.321  0.00  0.00     0.060 C 
ATOM     11  C   UNL d   1      -1.422  -2.615  -0.206  0.00  0.00     0.038 C 
ENDROOT
BRANCH   1  12
ATOM     12  S   UNL d   1       1.080  -0.424  -0.369  0.00  0.00     0.268 S 
ATOM     13  O   UNL d   1       2.448  -0.036  -0.613  0.00  0.00    -0.200 OA
ATOM     14  O   UNL d   1      -0.023   0.225  -1.048  0.00  0.00    -0.200 OA
BRANCH  12  15
ATOM     15  C   UNL d   1       0.818  -0.053   1.384  0.00  0.00     0.127 A 
ATOM     16  S   UNL d   1       1.853  -0.897   2.450  0.00  0.00    -0.075 SA
ATOM     17  C   UNL d   1       1.254  -0.113   3.839  0.00  0.00     0.017 A 
ATOM     18  C   UNL d   1       1.691  -0.308   5.164  0.00  0.00     0.021 A 
ATOM     19  C   UNL d   1       0.241   0.789   3.512  0.00  0.00    -0.009 A 
ATOM     20  C   UNL d   1       1.095   0.429   6.186  0.00  0.00     0.025 A 
ATOM     21  C   UNL d   1       0.078   1.327   5.892  0.00  0.00     0.035 A 
ATOM     22  C   UNL d   1      -0.356   1.512   4.577  0.00  0.00     0.037 A 
ATOM     23 CL   UNL d   1      -0.651   2.229   7.163  0.00  0.00    -0.084 Cl
ATOM     24  C   UNL d   1       0.002   0.836   2.077  0.00  0.00    -0.020 A 
ATOM     25  C   UNL d   1      -0.993   1.770   1.461  0.00  0.00     0.051 C 
ENDBRANCH  12  15
ENDBRANCH   1  12
BRANCH   7  26
ATOM     26  O   UNL d   1      -0.080  -6.355  -4.670  0.00  0.00    -0.353 OA
ATOM     27  C   UNL d   1      -0.208  -5.466  -5.769  0.00  0.00     0.210 C 
ENDBRANCH   7  26
BRANCH   9  28
ATOM     28  O   UNL d   1       0.847  -8.014  -2.853  0.00  0.00    -0.353 OA
ATOM     29  C   UNL d   1       0.382  -9.007  -1.943  0.00  0.00     0.210 C 
ENDBRANCH   9  28
TORSDOF 4
