REMARK  2 active torsions:
REMARK  status: ('A' for Active; 'I' for Inactive)
REMARK    1  A    between atoms: C_4  and  C_3 
REMARK    2  A    between atoms: N_17  and  C_9 
ROOT
ATOM      1  C   UNL d   1       0.473  -0.033  -0.068  0.00  0.00     0.053 A 
ATOM      2  C   UNL d   1       0.920   1.277  -0.202  0.00  0.00     0.002 A 
ATOM      3  C   UNL d   1       2.292   1.434  -0.345  0.00  0.00     0.127 A 
ATOM      4  N   UNL d   1       1.310  -1.089   0.016  0.00  0.00    -0.332 N 
ATOM      5  HN  UNL d   1       0.958  -2.039   0.137  1.00  0.00     0.168 HD
ATOM      6  N   UNL d   1       3.137   0.369  -0.239  0.00  0.00    -0.328 N 
ATOM      7  HN  UNL d   1       4.147   0.497  -0.291  1.00  0.00     0.168 HD
ATOM      8  C   UNL d   1       2.610  -0.838  -0.068  0.00  0.00     0.155 A 
ATOM      9  C   UNL d   1      -0.973  -0.338  -0.024  0.00  0.00    -0.003 A 
ATOM     10  C   UNL d   1      -0.092   2.391  -0.271  0.00  0.00     0.048 C 
ATOM     11  C   UNL d   1      -1.895   0.701   0.229  0.00  0.00    -0.045 A 
ATOM     12  C   UNL d   1      -1.370   2.083   0.520  0.00  0.00     0.044 C 
ATOM     13  C   UNL d   1      -1.477  -1.629  -0.249  0.00  0.00     0.014 A 
ATOM     14  C   UNL d   1      -3.271   0.437   0.279  0.00  0.00     0.008 A 
ATOM     15  C   UNL d   1      -2.850  -1.885  -0.220  0.00  0.00     0.001 A 
ATOM     16  C   UNL d   1      -3.745  -0.852   0.047  0.00  0.00     0.001 A 
ENDROOT
BRANCH   3  17
ATOM     17  C   UNL d   1       2.958   2.775  -0.623  0.00  0.00     0.433 C 
ATOM     18  F   UNL d   1       2.108   3.763  -1.033  0.00  0.00    -0.165 F 
ATOM     19  F   UNL d   1       3.595   3.277   0.474  0.00  0.00    -0.165 F 
ATOM     20  F   UNL d   1       3.905   2.706  -1.605  0.00  0.00    -0.165 F 
ENDBRANCH   3  17
BRANCH   8  21
ATOM     21  N   UNL d   1       3.478  -1.897   0.078  0.00  0.00    -0.274 NA
ATOM     22  H   UNL d   1       4.371  -1.565   0.419  0.00  0.00     0.127 HD
ATOM     23  H   UNL d   1       3.032  -2.636   0.604  0.00  0.00     0.127 HD
ENDBRANCH   8  21
TORSDOF 2
