REMARK  5 active torsions:
REMARK  status: ('A' for Active; 'I' for Inactive)
REMARK    1  A    between atoms: C_5  and  C_1 
REMARK    2  A    between atoms: N_3  and  C_2 
REMARK       I    between atoms: C_4  and  N_3 
REMARK    3  A    between atoms: C_7  and  C_4 
REMARK    4  A    between atoms: C_11  and  C_5 
REMARK    5  A    between atoms: C_23  and  C_20 
ROOT
ATOM      1  C   UNL d   1       1.485  -0.487   0.891  0.00  0.00     0.043 A 
ATOM      2  C   UNL d   1       2.435   0.111   0.036  0.00  0.00     0.051 A 
ATOM      3  C   UNL d   1       1.974   0.921  -1.020  0.00  0.00     0.032 A 
ATOM      4  C   UNL d   1       0.112  -0.355   0.610  0.00  0.00     0.041 A 
ATOM      5  C   UNL d   1      -0.315   0.399  -0.478  0.00  0.00     0.035 A 
ATOM      6  C   UNL d   1       0.610   1.055  -1.283  0.00  0.00     0.026 A 
ATOM      7 CL   UNL d   1      -1.992   0.518  -0.837  0.00  0.00    -0.084 Cl
ENDROOT
BRANCH   2   8
ATOM      8  N   UNL d   1       3.842  -0.108   0.112  0.00  0.00    -0.317 N 
ATOM      9  C   UNL d   1       4.498  -1.358   0.056  0.00  0.00     0.258 C 
ATOM     10  O   UNL d   1       5.723  -1.435   0.159  0.00  0.00    -0.267 OA
ATOM     11  C   UNL d   1       4.696   1.075   0.092  0.00  0.00     0.159 C 
BRANCH   9  12
ATOM     12  C   UNL d   1       3.766  -2.639  -0.163  0.00  0.00     0.032 A 
ATOM     13  C   UNL d   1       2.637  -2.765  -0.976  0.00  0.00     0.017 A 
ATOM     14  C   UNL d   1       1.944  -3.975  -1.040  0.00  0.00     0.008 A 
ATOM     15  C   UNL d   1       2.418  -5.104  -0.360  0.00  0.00    -0.059 A 
ATOM     16  C   UNL d   1       3.613  -5.006   0.361  0.00  0.00     0.008 A 
ATOM     17  C   UNL d   1       4.279  -3.784   0.462  0.00  0.00     0.017 A 
BRANCH  15  18
ATOM     18  C   UNL d   1       1.630  -6.387  -0.368  0.00  0.00     0.034 C 
ATOM     19  C   UNL d   1       0.793  -6.537   0.895  0.00  0.00     0.010 C 
ENDBRANCH  15  18
ENDBRANCH   9  12
ENDBRANCH   2   8
BRANCH   1  20
ATOM     20  C   UNL d   1       1.814  -1.267   2.113  0.00  0.00     0.194 C 
ATOM     21  O   UNL d   1       1.151  -2.273   2.358  0.00  0.00    -0.287 OA
BRANCH  20  22
ATOM     22  C   UNL d   1       2.865  -0.843   3.070  0.00  0.00     0.015 A 
ATOM     23  C   UNL d   1       3.486  -1.827   3.848  0.00  0.00     0.015 A 
ATOM     24  C   UNL d   1       4.487  -1.476   4.755  0.00  0.00     0.001 A 
ATOM     25  C   UNL d   1       4.865  -0.142   4.893  0.00  0.00     0.000 A 
ATOM     26  C   UNL d   1       4.228   0.847   4.143  0.00  0.00     0.001 A 
ATOM     27  C   UNL d   1       3.217   0.502   3.243  0.00  0.00     0.015 A 
ENDBRANCH  20  22
ENDBRANCH   1  20
TORSDOF 5
