REMARK  3 active torsions:
REMARK  status: ('A' for Active; 'I' for Inactive)
REMARK    1  A    between atoms: C_5  and  C_1 
REMARK    2  A    between atoms: C_8  and  CA_3 
REMARK    3  A    between atoms: OXT_15  and  C_8 
ROOT
ATOM      1  C   UNL d   1      -1.691  -0.201   0.151  0.00  0.00     0.318 C 
ATOM      2  N   UNL d   1      -1.323   1.236   0.057  0.00  0.00     0.118 N 
ATOM      3  CA  UNL d   1      -0.004   1.296  -0.683  0.00  0.00     0.336 C 
ATOM      4  S   UNL d   1      -0.166  -1.180   0.260  0.00  0.00    -0.117 SA
ATOM      5  C   UNL d   1       0.941   0.222  -0.104  0.00  0.00     0.044 C 
ATOM      6  C   UNL d   1       1.546   0.698   1.232  0.00  0.00     0.029 C 
ATOM      7  C   UNL d   1       2.087  -0.236  -1.006  0.00  0.00     0.029 C 
ATOM      8  H   UNL d   1      -1.144   1.558   1.009  0.00  0.00     0.319 HD
ENDROOT
BRANCH   1   9
ATOM      9  C   UNL d   1      -2.635  -0.489   1.309  0.00  0.00     0.006 A 
ATOM     10  C   UNL d   1      -3.920  -1.039   1.123  0.00  0.00     0.044 A 
ATOM     11  C   UNL d   1      -4.753  -1.320   2.214  0.00  0.00     0.048 A 
ATOM     12 CL   UNL d   1      -4.553  -1.408  -0.443  0.00  0.00    -0.084 Cl
ATOM     13  C   UNL d   1      -4.318  -1.058   3.508  0.00  0.00     0.035 A 
ATOM     14  C   UNL d   1      -3.058  -0.516   3.727  0.00  0.00     0.024 A 
ATOM     15 CL   UNL d   1      -5.340  -1.411   4.846  0.00  0.00    -0.084 Cl
ATOM     16  C   UNL d   1      -2.226  -0.236   2.639  0.00  0.00     0.013 A 
ENDBRANCH   1   9
BRANCH   3  17
ATOM     17  C   UNL d   1      -0.286   1.270  -2.203  0.00  0.00     0.175 C 
ATOM     18  O   UNL d   1       0.514   1.021  -3.087  0.00  0.00    -0.648 OA
BRANCH  17  19
ATOM     19  OXT UNL d   1      -1.552   1.705  -2.469  0.00  0.00    -0.775 OA
ATOM     20  HXT UNL d   1      -2.003   1.874  -1.608  0.00  0.00     0.167 HD
ENDBRANCH  17  19
ENDBRANCH   3  17
TORSDOF 3
