REMARK  6 active torsions:
REMARK  status: ('A' for Active; 'I' for Inactive)
REMARK    1  A    between atoms: C_2  and  S_1 
REMARK    2  A    between atoms: N_3  and  S_1 
REMARK    3  A    between atoms: C_10  and  N_3 
REMARK    4  A    between atoms: C_14  and  N_3 
REMARK    5  A    between atoms: C_11  and  C_5 
REMARK    6  A    between atoms: C_15  and  C_10 
ROOT
ATOM      1  S   UNL d   1       1.189   0.169   0.210  0.00  0.00     0.268 S 
ATOM      2  O   UNL d   1       2.486   0.795   0.102  0.00  0.00    -0.200 OA
ATOM      3  O   UNL d   1       0.230   0.657   1.176  0.00  0.00    -0.200 OA
ENDROOT
BRANCH   1   4
ATOM      4  C   UNL d   1       1.504  -1.504   0.799  0.00  0.00     0.121 A 
ATOM      5  S   UNL d   1       3.132  -1.882   1.155  0.00  0.00    -0.074 SA
ATOM      6  C   UNL d   1       2.746  -3.446   1.745  0.00  0.00     0.033 A 
ATOM      7  C   UNL d   1       1.388  -3.685   1.628  0.00  0.00     0.023 A 
ATOM      8  C   UNL d   1       0.674  -2.565   1.099  0.00  0.00     0.034 A 
BRANCH   6   9
ATOM      9  C   UNL d   1       3.805  -4.342   2.236  0.00  0.00     0.049 A 
ATOM     10  N   UNL d   1       3.528  -5.662   2.099  0.00  0.00    -0.365 N 
ATOM     11  C   UNL d   1       4.492  -6.537   2.463  0.00  0.00     0.088 A 
ATOM     12  HN  UNL d   1       2.629  -5.982   1.737  1.00  0.00     0.165 HD
ATOM     13  C   UNL d   1       5.726  -6.163   2.971  0.00  0.00     0.017 A 
ATOM     14  C   UNL d   1       5.982  -4.810   3.137  0.00  0.00     0.004 A 
ATOM     15  C   UNL d   1       5.009  -3.884   2.772  0.00  0.00     0.031 A 
ENDBRANCH   6   9
ENDBRANCH   1   4
BRANCH   1  16
ATOM     16  N   UNL d   1       0.454   0.037  -1.342  0.00  0.00    -0.298 N 
BRANCH  16  17
ATOM     17  C   UNL d   1      -1.008  -0.274  -1.321  0.00  0.00     0.174 C 
BRANCH  17  18
ATOM     18  C   UNL d   1      -1.963   0.822  -0.884  0.00  0.00    -0.040 A 
ATOM     19  C   UNL d   1      -2.328   1.883  -1.725  0.00  0.00     0.009 A 
ATOM     20  C   UNL d   1      -3.225   2.866  -1.295  0.00  0.00     0.001 A 
ATOM     21  C   UNL d   1      -3.764   2.812  -0.013  0.00  0.00     0.000 A 
ATOM     22  C   UNL d   1      -3.415   1.770   0.837  0.00  0.00     0.001 A 
ATOM     23  C   UNL d   1      -2.537   0.777   0.398  0.00  0.00     0.009 A 
ENDBRANCH  17  18
ENDBRANCH  16  17
BRANCH  16  24
ATOM     24  C   UNL d   1       0.960   0.892  -2.481  0.00  0.00     0.088 C 
ATOM     25  C   UNL d   1       2.470   0.737  -2.724  0.00  0.00     0.032 C 
ATOM     26  C   UNL d   1       0.318   0.505  -3.828  0.00  0.00     0.032 C 
ENDBRANCH  16  24
ENDBRANCH   1  16
TORSDOF 6
