REMARK  5 active torsions:
REMARK  status: ('A' for Active; 'I' for Inactive)
REMARK    1  A    between atoms: C_3  and  C_7 
REMARK    2  A    between atoms: N_4  and  C_5 
REMARK    3  A    between atoms: C_8  and  N_6 
REMARK    4  A    between atoms: C_16  and  C_8 
REMARK    5  A    between atoms: C_17  and  C_8 
ROOT
ATOM      1  N   UNL d   1      -1.293   2.350   0.237  0.00  0.00    -0.364 N 
ATOM      2  N   UNL d   1      -2.656   4.894   0.852  0.00  0.00     0.105 N 
ATOM      3  C   UNL d   1      -1.341   3.402  -0.782  0.00  0.00     0.154 C 
ATOM      4  C   UNL d   1      -2.448   2.337   1.142  0.00  0.00     0.154 C 
ATOM      5  C   UNL d   1      -1.500   4.769  -0.077  0.00  0.00     0.293 C 
ATOM      6  C   UNL d   1      -2.585   3.737   1.797  0.00  0.00     0.293 C 
ENDROOT
BRANCH   2   7
ATOM      7  C   UNL d   1      -3.974   4.949   0.155  0.00  0.00     0.289 C 
BRANCH   7   8
ATOM      8  C   UNL d   1      -5.136   5.104   1.148  0.00  0.00    -0.021 A 
ATOM      9  C   UNL d   1      -5.196   6.191   2.036  0.00  0.00     0.010 A 
ATOM     10  C   UNL d   1      -6.258   6.326   2.933  0.00  0.00     0.001 A 
ATOM     11  C   UNL d   1      -7.271   5.370   2.958  0.00  0.00     0.000 A 
ATOM     12  C   UNL d   1      -7.223   4.283   2.087  0.00  0.00     0.001 A 
ATOM     13  C   UNL d   1      -6.167   4.151   1.185  0.00  0.00     0.010 A 
ENDBRANCH   7   8
BRANCH   7  14
ATOM     14  C   UNL d   1      -4.086   6.032  -0.929  0.00  0.00    -0.021 A 
ATOM     15  C   UNL d   1      -4.865   5.781  -2.073  0.00  0.00     0.010 A 
ATOM     16  C   UNL d   1      -5.010   6.750  -3.067  0.00  0.00     0.001 A 
ATOM     17  C   UNL d   1      -4.380   7.985  -2.935  0.00  0.00     0.000 A 
ATOM     18  C   UNL d   1      -3.618   8.259  -1.802  0.00  0.00     0.001 A 
ATOM     19  C   UNL d   1      -3.483   7.296  -0.800  0.00  0.00     0.010 A 
ENDBRANCH   7  14
ENDBRANCH   2   7
BRANCH   1  20
ATOM     20  C   UNL d   1      -0.607   1.172   0.025  0.00  0.00     0.103 A 
ATOM     21  N   UNL d   1      -1.138   0.016   0.479  0.00  0.00    -0.339 N 
ATOM     22  C   UNL d   1      -0.420  -1.142   0.389  0.00  0.00     0.118 A 
ATOM     23  HN  UNL d   1      -2.072   0.009   0.889  1.00  0.00     0.167 HD
ATOM     24  C   UNL d   1       0.861  -1.176  -0.154  0.00  0.00     0.034 A 
ATOM     25  C   UNL d   1       1.409   0.004  -0.629  0.00  0.00     0.006 A 
ATOM     26  C   UNL d   1       0.667   1.179  -0.541  0.00  0.00     0.048 A 
BRANCH  22  27
ATOM     27  C   UNL d   1      -1.019  -2.436   0.920  0.00  0.00     0.432 C 
ATOM     28  F   UNL d   1      -2.298  -2.322   1.380  0.00  0.00    -0.165 F 
ATOM     29  F   UNL d   1      -1.054  -3.420  -0.027  0.00  0.00    -0.165 F 
ATOM     30  F   UNL d   1      -0.298  -2.958   1.956  0.00  0.00    -0.165 F 
ENDBRANCH  22  27
ENDBRANCH   1  20
TORSDOF 5
