REMARK  1 active torsions:
REMARK  status: ('A' for Active; 'I' for Inactive)
REMARK    1  A    between atoms: O_14  and  C_6 
ROOT
ATOM      1  C   UNL d   1       1.134  -1.042  -0.001  0.00  0.00     0.085 A 
ATOM      2  S   UNL d   1      -0.191  -2.129  -0.001  0.00  0.00    -0.065 SA
ATOM      3  C   UNL d   1      -1.318  -0.860   0.000  0.00  0.00     0.087 A 
ATOM      4  C   UNL d   1       0.708   0.283   0.000  0.00  0.00     0.067 A 
ATOM      5  C   UNL d   1      -0.725   0.396   0.001  0.00  0.00     0.026 A 
ATOM      6  C   UNL d   1       2.499  -1.304  -0.001  0.00  0.00     0.162 A 
ATOM      7  N   UNL d   1       3.372  -0.277  -0.001  0.00  0.00    -0.332 N 
ATOM      8  HN  UNL d   1       4.379  -0.439  -0.002  1.00  0.00     0.168 HD
ATOM      9  N   UNL d   1       1.581   1.326   0.000  0.00  0.00    -0.350 N 
ATOM     10  HN  UNL d   1       1.278   2.300   0.001  1.00  0.00     0.166 HD
ATOM     11  N   UNL d   1      -2.641  -1.127   0.000  0.00  0.00    -0.360 N 
ATOM     12  HN  UNL d   1      -3.015  -2.076  -0.000  1.00  0.00     0.166 HD
ATOM     13  C   UNL d   1       2.870   0.967  -0.001  0.00  0.00     0.183 A 
ATOM     14  C   UNL d   1      -1.597   1.507   0.002  0.00  0.00     0.018 A 
ATOM     15  C   UNL d   1      -3.424  -0.031   0.001  0.00  0.00     0.089 A 
ATOM     16  C   UNL d   1      -2.972   1.277   0.001  0.00  0.00     0.018 A 
ENDROOT
BRANCH   6  17
ATOM     17  O   UNL d   1       2.949  -2.609  -0.002  0.00  0.00    -0.340 OA
ATOM     18  C   UNL d   1       4.365  -2.727  -0.003  0.00  0.00     0.211 C 
ENDBRANCH   6  17
TORSDOF 1
