REMARK  3 active torsions:
REMARK  status: ('A' for Active; 'I' for Inactive)
REMARK    1  A    between atoms: C_8  and  N_1 
REMARK    2  A    between atoms: C_5  and  C_3 
REMARK    3  A    between atoms: C_9  and  C_8 
ROOT
ATOM      1  N   UNL d   1       1.038   0.086   0.135  0.00  0.00    -0.394 N 
ATOM      2  HN  UNL d   1       0.580  -0.031   1.039  1.00  0.00     0.159 HD
ATOM      3  C   UNL d   1       0.369   0.251  -0.948  0.00  0.00     0.094 C 
ENDROOT
BRANCH   1   4
ATOM      4  C   UNL d   1       2.494   0.075  -0.001  0.00  0.00     0.157 C 
BRANCH   4   5
ATOM      5  C   UNL d   1       3.084  -1.220   0.501  0.00  0.00    -0.041 A 
ATOM      6  C   UNL d   1       3.812  -2.061  -0.352  0.00  0.00     0.009 A 
ATOM      7  C   UNL d   1       4.405  -3.226   0.140  0.00  0.00     0.001 A 
ATOM      8  C   UNL d   1       4.272  -3.564   1.486  0.00  0.00     0.000 A 
ATOM      9  C   UNL d   1       3.525  -2.752   2.337  0.00  0.00     0.001 A 
ATOM     10  C   UNL d   1       2.930  -1.589   1.846  0.00  0.00     0.009 A 
ENDBRANCH   4   5
ENDBRANCH   1   4
BRANCH   3  11
ATOM     11  C   UNL d   1      -1.107   0.226  -0.934  0.00  0.00    -0.020 A 
ATOM     12  C   UNL d   1      -1.786   0.017   0.269  0.00  0.00     0.031 A 
ATOM     13  C   UNL d   1      -3.177  -0.040   0.267  0.00  0.00     0.011 A 
ATOM     14 BR   UNL d   1      -4.103  -0.329   1.889  0.00  0.00    -0.051 Br
ATOM     15  C   UNL d   1      -3.889   0.110  -0.922  0.00  0.00     0.019 A 
ATOM     16  C   UNL d   1      -3.206   0.324  -2.121  0.00  0.00     0.002 A 
ATOM     17  C   UNL d   1      -1.811   0.385  -2.132  0.00  0.00     0.013 A 
ENDBRANCH   3  11
TORSDOF 3
