REMARK  4 active torsions:
REMARK  status: ('A' for Active; 'I' for Inactive)
REMARK    1  A    between atoms: C_2  and  C_1 
REMARK       I    between atoms: N_3  and  C_1 
REMARK    2  A    between atoms: C_5  and  N_3 
REMARK    3  A    between atoms: C_4  and  C_6 
REMARK    4  A    between atoms: C_10  and  C_5 
ROOT
ATOM      1  C   UNL d   1       0.769  -0.390  -0.159  0.00  0.00     0.259 C 
ATOM      2  N   UNL d   1       0.062   0.368  -1.078  0.00  0.00    -0.308 N 
ATOM      3  O   UNL d   1       0.323  -0.800   0.906  0.00  0.00    -0.267 OA
ATOM      4  H   UNL d   1       0.596   0.709  -1.861  0.00  0.00     0.170 HD
ENDROOT
BRANCH   1   5
ATOM      5  C   UNL d   1       2.203  -0.587  -0.478  0.00  0.00     0.062 A 
ATOM      6  C   UNL d   1       2.708  -1.025  -1.712  0.00  0.00     0.066 A 
ATOM      7  C   UNL d   1       4.105  -1.029  -1.891  0.00  0.00     0.034 A 
ATOM      8  C   UNL d   1       4.926  -0.647  -0.846  0.00  0.00     0.088 A 
ATOM      9  N   UNL d   1       4.458  -0.272   0.359  0.00  0.00    -0.374 N 
ATOM     10  C   UNL d   1       3.112  -0.257   0.523  0.00  0.00     0.105 A 
ATOM     11  HN  UNL d   1       5.088  -0.009   1.117  1.00  0.00     0.164 HD
BRANCH   6  12
ATOM     12  C   UNL d   1       1.863  -1.494  -2.862  0.00  0.00     0.418 C 
ATOM     13  F   UNL d   1       0.555  -1.691  -2.574  0.00  0.00    -0.166 F 
ATOM     14  F   UNL d   1       1.883  -0.586  -3.878  0.00  0.00    -0.166 F 
ATOM     15  F   UNL d   1       2.307  -2.664  -3.393  0.00  0.00    -0.166 F 
ENDBRANCH   6  12
ENDBRANCH   1   5
BRANCH   2  16
ATOM     16  C   UNL d   1      -1.293   0.657  -1.092  0.00  0.00     0.112 C 
ATOM     17  N   UNL d   1      -2.092   0.163  -0.205  0.00  0.00    -0.385 N 
ATOM     18  H   UNL d   1      -1.555  -0.428   0.442  0.00  0.00     0.157 HD
ATOM     19  HN  UNL d   1      -3.097   0.332  -0.155  1.00  0.00     0.157 HD
BRANCH  16  20
ATOM     20  C   UNL d   1      -1.784   1.581  -2.166  0.00  0.00     0.007 A 
ATOM     21  C   UNL d   1      -0.926   2.233  -3.071  0.00  0.00     0.015 A 
ATOM     22  C   UNL d   1      -1.436   3.109  -4.033  0.00  0.00     0.001 A 
ATOM     23  C   UNL d   1      -2.804   3.355  -4.099  0.00  0.00     0.000 A 
ATOM     24  C   UNL d   1      -3.665   2.716  -3.210  0.00  0.00     0.001 A 
ATOM     25  C   UNL d   1      -3.158   1.836  -2.249  0.00  0.00     0.015 A 
ENDBRANCH  16  20
ENDBRANCH   2  16
TORSDOF 4
