REMARK  5 active torsions:
REMARK  status: ('A' for Active; 'I' for Inactive)
REMARK    1  A    between atoms: N_2  and  C_1 
REMARK    2  A    between atoms: N_7  and  C_1 
REMARK    3  A    between atoms: C_4  and  N_2 
REMARK    4  A    between atoms: C_10  and  N_7 
REMARK    5  A    between atoms: C_12  and  C_10 
ROOT
ATOM      1  N   UNL d   1       6.015   3.706  -5.884  0.00  0.00    -0.191 NA
ATOM      2  C   UNL d   1       5.527   3.271  -4.922  0.00  0.00     0.099 C 
ATOM      3  C   UNL d   1       4.928   2.738  -3.733  0.00  0.00     0.044 A 
ATOM      4  C   UNL d   1       3.751   1.687  -1.401  0.00  0.00    -0.040 A 
ATOM      5  C   UNL d   1       4.788   3.540  -2.600  0.00  0.00     0.023 A 
ATOM      6  C   UNL d   1       4.495   1.411  -3.701  0.00  0.00     0.023 A 
ATOM      7  C   UNL d   1       4.205   3.017  -1.443  0.00  0.00     0.010 A 
ATOM      8  C   UNL d   1       3.914   0.887  -2.538  0.00  0.00     0.010 A 
ENDROOT
BRANCH   4   9
ATOM      9  C   UNL d   1       3.197   1.155  -0.103  0.00  0.00     0.160 C 
BRANCH   9  10
ATOM     10  N   UNL d   1       2.355  -0.026  -0.223  0.00  0.00    -0.363 N 
ATOM     11  H   UNL d   1       2.718  -0.848   0.246  0.00  0.00     0.162 HD
BRANCH  10  12
ATOM     12  C   UNL d   1       0.987   0.031  -0.161  0.00  0.00     0.172 C 
ATOM     13  S   UNL d   1       0.187  -1.211   0.617  0.00  0.00    -0.041 SA
BRANCH  12  14
ATOM     14  N   UNL d   1       0.420   1.093  -0.813  0.00  0.00    -0.332 N 
ATOM     15  H   UNL d   1       0.750   1.220  -1.766  0.00  0.00     0.168 HD
BRANCH  14  16
ATOM     16  C   UNL d   1      -0.774   1.776  -0.482  0.00  0.00     0.056 A 
ATOM     17  C   UNL d   1      -1.551   2.373  -1.488  0.00  0.00     0.060 A 
ATOM     18 CL   UNL d   1      -1.192   2.121  -3.161  0.00  0.00    -0.082 Cl
ATOM     19  C   UNL d   1      -2.655   3.164  -1.158  0.00  0.00     0.026 A 
ATOM     20  C   UNL d   1      -2.980   3.385   0.181  0.00  0.00     0.002 A 
ATOM     21  C   UNL d   1      -2.219   2.791   1.186  0.00  0.00     0.002 A 
ATOM     22  C   UNL d   1      -1.126   1.986   0.857  0.00  0.00     0.031 A 
ENDBRANCH  14  16
ENDBRANCH  12  14
ENDBRANCH  10  12
ENDBRANCH   9  10
ENDBRANCH   4   9
TORSDOF 5
