REMARK  6 active torsions:
REMARK  status: ('A' for Active; 'I' for Inactive)
REMARK    1  A    between atoms: C_2  and  C_1 
REMARK    2  A    between atoms: C_3  and  C_2 
REMARK    3  A    between atoms: C_4  and  C_3 
REMARK    4  A    between atoms: C_12  and  C_4 
REMARK    5  A    between atoms: O_16  and  C_5 
REMARK       I    between atoms: C_6  and  N_8 
REMARK    6  A    between atoms: N_8  and  C_9 
ROOT
ATOM      1  C   UNL d   1       0.249   1.226  -0.092  0.00  0.00     0.045 A 
ATOM      2  C   UNL d   1       0.874  -0.017   0.066  0.00  0.00     0.079 A 
ATOM      3  C   UNL d   1      -1.140   1.273  -0.253  0.00  0.00     0.047 A 
ATOM      4  C   UNL d   1      -1.916   0.114  -0.169  0.00  0.00     0.035 A 
ATOM      5  C   UNL d   1       0.115  -1.184   0.125  0.00  0.00     0.040 A 
ATOM      6  C   UNL d   1      -1.278  -1.117   0.021  0.00  0.00     0.032 A 
ENDROOT
BRANCH   1   7
ATOM      7  C   UNL d   1       1.049   2.485  -0.063  0.00  0.00     0.169 C 
ATOM      8  O   UNL d   1       2.247   2.413  -0.350  0.00  0.00    -0.292 OA
BRANCH   7   9
ATOM      9  C   UNL d   1       0.401   3.810   0.303  0.00  0.00     0.167 C 
BRANCH   9  10
ATOM     10  C   UNL d   1      -0.178   3.860   1.701  0.00  0.00     0.166 C 
ATOM     11  O   UNL d   1      -0.223   2.868   2.423  0.00  0.00    -0.292 OA
BRANCH  10  12
ATOM     12  C   UNL d   1      -0.706   5.161   2.235  0.00  0.00     0.010 A 
ATOM     13  C   UNL d   1      -0.715   6.346   1.489  0.00  0.00     0.015 A 
ATOM     14  C   UNL d   1      -1.196   7.532   2.059  0.00  0.00     0.001 A 
ATOM     15  C   UNL d   1      -1.674   7.543   3.369  0.00  0.00     0.000 A 
ATOM     16  C   UNL d   1      -1.677   6.368   4.115  0.00  0.00     0.001 A 
ATOM     17  C   UNL d   1      -1.196   5.184   3.550  0.00  0.00     0.015 A 
ENDBRANCH  10  12
ENDBRANCH   9  10
ENDBRANCH   7   9
ENDBRANCH   1   7
BRANCH   2  18
ATOM     18  O   UNL d   1       2.230  -0.165   0.178  0.00  0.00    -0.360 OA
ATOM     19  H   UNL d   1       2.639   0.715   0.016  0.00  0.00     0.217 HD
ENDBRANCH   2  18
BRANCH   4  20
ATOM     20  N   UNL d   1      -3.327   0.130  -0.234  0.00  0.00    -0.327 N 
ATOM     21  C   UNL d   1      -4.136   1.244  -0.385  0.00  0.00     0.218 C 
ATOM     22  O   UNL d   1      -3.766   2.404  -0.552  0.00  0.00    -0.274 OA
ATOM     23  C   UNL d   1      -5.609   0.937  -0.310  0.00  0.00     0.117 C 
ATOM     24  H   UNL d   1      -3.786  -0.765  -0.110  0.00  0.00     0.169 HD
ENDBRANCH   4  20
TORSDOF 6
