REMARK  3 active torsions:
REMARK  status: ('A' for Active; 'I' for Inactive)
REMARK    1  A    between atoms: C_2  and  S_1 
REMARK    2  A    between atoms: N_4  and  S_1 
REMARK    3  A    between atoms: C_12  and  N_7 
ROOT
ATOM      1  S   UNL d   1       1.128  -0.055   0.323  0.00  0.00     0.250 S 
ATOM      2  O   UNL d   1       1.535   0.933   1.298  0.00  0.00    -0.205 OA
ATOM      3  O   UNL d   1       0.315  -1.192   0.694  0.00  0.00    -0.205 OA
ENDROOT
BRANCH   1   4
ATOM      4  C   UNL d   1       2.664  -0.810  -0.189  0.00  0.00     0.116 A 
ATOM      5  S   UNL d   1       3.233  -0.489  -1.765  0.00  0.00    -0.074 SA
ATOM      6  C   UNL d   1       4.669  -1.392  -1.520  0.00  0.00     0.042 A 
ATOM      7  C   UNL d   1       5.717  -1.470  -2.501  0.00  0.00     0.117 A 
ATOM      8  C   UNL d   1       4.674  -1.987  -0.273  0.00  0.00     0.024 A 
ATOM      9  O   UNL d   1       6.945  -2.013  -2.211  0.00  0.00    -0.237 OA
ATOM     10  C   UNL d   1       5.752  -1.046  -3.815  0.00  0.00     0.059 A 
ATOM     11  N   UNL d   1       7.780  -1.928  -3.311  0.00  0.00    -0.272 N 
ATOM     12  C   UNL d   1       7.050  -1.347  -4.261  0.00  0.00     0.117 A 
ATOM     13  HN  UNL d   1       8.747  -2.244  -3.379  1.00  0.00     0.194 HD
ATOM     14  C   UNL d   1       3.519  -1.656   0.491  0.00  0.00     0.034 A 
ENDBRANCH   1   4
BRANCH   1  15
ATOM     15  N   UNL d   1       0.399   0.736  -0.987  0.00  0.00    -0.204 NA
ATOM     16  C   UNL d   1       0.840   2.153  -1.232  0.00  0.00     0.122 C 
ATOM     17  C   UNL d   1       0.078   3.177  -0.357  0.00  0.00     0.112 C 
ATOM     18  N   UNL d   1      -1.375   2.972  -0.524  0.00  0.00    -0.267 NA
ATOM     19  C   UNL d   1      -1.800   1.617  -0.127  0.00  0.00     0.112 C 
ATOM     20  C   UNL d   1      -1.096   0.614  -1.062  0.00  0.00     0.122 C 
BRANCH  18  21
ATOM     21  C   UNL d   1      -2.183   4.012  -0.057  0.00  0.00     0.082 A 
ATOM     22  N   UNL d   1      -3.095   3.782   0.911  0.00  0.00    -0.357 N 
ATOM     23  C   UNL d   1      -3.915   4.800   1.267  0.00  0.00     0.089 A 
ATOM     24  HN  UNL d   1      -3.165   2.870   1.362  1.00  0.00     0.166 HD
ATOM     25  C   UNL d   1      -3.893   6.053   0.689  0.00  0.00     0.017 A 
ATOM     26  C   UNL d   1      -2.964   6.287  -0.311  0.00  0.00     0.005 A 
ATOM     27  C   UNL d   1      -2.101   5.259  -0.680  0.00  0.00     0.042 A 
ENDBRANCH  18  21
ENDBRANCH   1  15
TORSDOF 3
