REMARK  6 active torsions:
REMARK  status: ('A' for Active; 'I' for Inactive)
REMARK    1  A    between atoms: C_3  and  N_1 
REMARK    2  A    between atoms: N_4  and  C_2 
REMARK       I    between atoms: C_5  and  N_4 
REMARK    3  A    between atoms: C_10  and  C_5 
REMARK    4  A    between atoms: C_6  and  C_11 
REMARK    5  A    between atoms: O_12  and  C_6 
REMARK    6  A    between atoms: C_11  and  C_10 
ROOT
ATOM      1  C   UNL d   1      -2.546   0.906  -2.068  0.00  0.00     0.061 A 
ATOM      2  C   UNL d   1      -2.508   0.074  -0.925  0.00  0.00     0.057 A 
ATOM      3  C   UNL d   1      -3.716   1.037  -2.840  0.00  0.00     0.032 A 
ATOM      4  C   UNL d   1      -3.707  -0.609  -0.623  0.00  0.00     0.031 A 
ATOM      5  C   UNL d   1      -4.869   0.331  -2.512  0.00  0.00     0.002 A 
ATOM      6  C   UNL d   1      -4.866  -0.493  -1.398  0.00  0.00     0.002 A 
ENDROOT
BRANCH   1   7
ATOM      7  N   UNL d   1      -1.427   1.626  -2.535  0.00  0.00    -0.325 N 
ATOM      8  C   UNL d   1      -1.273   2.957  -2.193  0.00  0.00     0.222 C 
ATOM      9  O   UNL d   1      -2.074   3.642  -1.560  0.00  0.00    -0.273 OA
ATOM     10  H   UNL d   1      -0.561   1.113  -2.517  0.00  0.00     0.169 HD
BRANCH   8  11
ATOM     11  C   UNL d   1       0.054   3.526  -2.658  0.00  0.00     0.113 C 
BRANCH  11  12
ATOM     12  C   UNL d   1       0.417   4.774  -1.867  0.00  0.00     0.119 C 
BRANCH  12  13
ATOM     13  C   UNL d   1       0.810   4.401  -0.464  0.00  0.00     0.139 C 
ATOM     14  O   UNL d   1       1.974   4.277  -0.101  0.00  0.00    -0.650 OA
BRANCH  13  15
ATOM     15  O   UNL d   1      -0.234   4.157   0.357  0.00  0.00    -0.776 OA
ATOM     16  H   UNL d   1      -1.119   4.216  -0.085  0.00  0.00     0.167 HD
ENDBRANCH  13  15
ENDBRANCH  12  13
ENDBRANCH  11  12
ENDBRANCH   8  11
ENDBRANCH   1   7
BRANCH   2  17
ATOM     17  N   UNL d   1      -1.427  -0.119  -0.081  0.00  0.00    -0.375 N 
ATOM     18  C   UNL d   1      -0.014  -0.113  -0.466  0.00  0.00     0.149 C 
ATOM     19  C   UNL d   1       0.750  -1.167   0.358  0.00  0.00     0.187 C 
ATOM     20  O   UNL d   1       0.556  -1.016   1.772  0.00  0.00    -0.388 OA
ATOM     21  C   UNL d   1      -0.843  -1.077   2.096  0.00  0.00     0.187 C 
ATOM     22  C   UNL d   1      -1.619   0.038   1.378  0.00  0.00     0.149 C 
ENDBRANCH   2  17
TORSDOF 6
