REMARK  7 active torsions:
REMARK  status: ('A' for Active; 'I' for Inactive)
REMARK    1  A    between atoms: C_2  and  C_1 
REMARK       I    between atoms: N_9  and  C_2 
REMARK       I    between atoms: C_3  and  N_10 
REMARK    2  A    between atoms: C_5  and  C_3 
REMARK    3  A    between atoms: C_8  and  C_6 
REMARK    4  A    between atoms: N_10  and  N_9 
REMARK    5  A    between atoms: C_19  and  C_12 
REMARK    6  A    between atoms: C_20  and  C_19 
REMARK    7  A    between atoms: C_21  and  C_20 
ROOT
ATOM      1  C   UNL d   1      -0.688  -2.514   0.012  0.00  0.00     0.293 C 
ATOM      2  N   UNL d   1       0.346  -3.430   0.047  0.00  0.00    -0.261 N 
ATOM      3  O   UNL d   1      -1.861  -2.896  -0.026  0.00  0.00    -0.264 OA
ATOM      4  H   UNL d   1       1.328  -3.167   0.119  0.00  0.00     0.190 HD
ENDROOT
BRANCH   1   5
ATOM      5  C   UNL d   1      -0.321  -1.113   0.020  0.00  0.00     0.146 A 
ATOM      6  O   UNL d   1       0.996  -0.711   0.034  0.00  0.00    -0.296 OA
ATOM      7  C   UNL d   1       0.982   0.652   0.021  0.00  0.00     0.129 A 
ATOM      8  C   UNL d   1      -0.302   1.136   0.002  0.00  0.00     0.050 A 
ATOM      9  C   UNL d   1      -1.143   0.002   0.003  0.00  0.00     0.046 A 
BRANCH   7  10
ATOM     10  C   UNL d   1       2.214   1.355   0.023  0.00  0.00    -0.041 C 
ATOM     11  C   UNL d   1       3.193   2.054   0.018  0.00  0.00    -0.099 C 
BRANCH  11  12
ATOM     12  C   UNL d   1       4.352   2.960   0.011  0.00  0.00     0.094 C 
BRANCH  12  13
ATOM     13  C   UNL d   1       5.647   2.192  -0.237  0.00  0.00     0.012 C 
BRANCH  13  14
ATOM     14  C   UNL d   1       6.868   3.112  -0.243  0.00  0.00    -0.004 C 
ATOM     15  C   UNL d   1       8.143   2.320  -0.488  0.00  0.00     0.005 C 
ENDBRANCH  13  14
ENDBRANCH  12  13
ENDBRANCH  11  12
ENDBRANCH   7  10
ENDBRANCH   1   5
BRANCH   2  16
ATOM     16  N   UNL d   1       0.010  -4.796   0.044  0.00  0.00    -0.262 N 
ATOM     17  C   UNL d   1       0.977  -5.773   0.183  0.00  0.00     0.277 C 
ATOM     18  O   UNL d   1       2.170  -5.474   0.266  0.00  0.00    -0.265 OA
ATOM     19  H   UNL d   1      -0.982  -5.024  -0.021  0.00  0.00     0.190 HD
BRANCH  17  20
ATOM     20  C   UNL d   1       0.490  -7.150   0.223  0.00  0.00     0.074 A 
ATOM     21  S   UNL d   1      -1.185  -7.532   0.201  0.00  0.00    -0.097 SA
ATOM     22  C   UNL d   1      -0.881  -9.213   0.290  0.00  0.00     0.050 A 
ATOM     23  C   UNL d   1       0.466  -9.490   0.330  0.00  0.00     0.009 A 
ATOM     24  C   UNL d   1       1.254  -8.303   0.293  0.00  0.00     0.025 A 
ENDBRANCH  17  20
ENDBRANCH   2  16
TORSDOF 7
