REMARK  2 active torsions:
REMARK  status: ('A' for Active; 'I' for Inactive)
REMARK       I    between atoms: N_2  and  C_1 
REMARK       I    between atoms: N_4  and  C_1 
REMARK    1  A    between atoms: C_5  and  N_3 
REMARK    2  A    between atoms: C_13  and  N_4 
ROOT
ATOM      1  C   UNL d   1       1.013  -0.208  -0.036  0.00  0.00     0.323 C 
ATOM      2  N   UNL d   1       0.377  -1.278  -0.647  0.00  0.00    -0.331 N 
ATOM      3  N   UNL d   1      -0.126  -3.503  -2.366  0.00  0.00    -0.378 N 
ATOM      4  N   UNL d   1       0.574   1.043  -0.402  0.00  0.00    -0.309 N 
ATOM      5  O   UNL d   1       1.916  -0.407   0.776  0.00  0.00    -0.247 OA
ATOM      6  C   UNL d   1       0.781  -2.637  -0.245  0.00  0.00     0.147 C 
ATOM      7  C   UNL d   1      -0.769  -1.259  -1.573  0.00  0.00     0.147 C 
ATOM      8  C   UNL d   1       1.038  -3.535  -1.465  0.00  0.00     0.143 C 
ATOM      9  C   UNL d   1      -0.527  -2.159  -2.805  0.00  0.00     0.143 C 
ATOM     10  H   UNL d   1      -0.170   1.100  -1.069  0.00  0.00     0.170 HD
ENDROOT
BRANCH   4  11
ATOM     11  C   UNL d   1       1.018   2.291   0.093  0.00  0.00     0.036 A 
ATOM     12  C   UNL d   1       2.053   2.446   1.017  0.00  0.00     0.029 A 
ATOM     13  C   UNL d   1       2.405   3.715   1.487  0.00  0.00     0.002 A 
ATOM     14  C   UNL d   1       1.729   4.843   1.033  0.00  0.00     0.000 A 
ATOM     15  C   UNL d   1       0.707   4.705   0.098  0.00  0.00     0.002 A 
ATOM     16  C   UNL d   1       0.357   3.436  -0.373  0.00  0.00     0.029 A 
ENDBRANCH   4  11
BRANCH   3  17
ATOM     17  C   UNL d   1      -0.723  -4.647  -2.846  0.00  0.00     0.030 A 
ATOM     18  C   UNL d   1      -1.256  -4.715  -4.145  0.00  0.00     0.032 A 
ATOM     19  C   UNL d   1      -1.894  -5.865  -4.620  0.00  0.00     0.044 A 
ATOM     20  C   UNL d   1      -2.009  -6.971  -3.794  0.00  0.00     0.116 A 
ATOM     21  C   UNL d   1      -1.494  -6.949  -2.509  0.00  0.00     0.044 A 
ATOM     22  F   UNL d   1      -2.628  -8.072  -4.241  0.00  0.00    -0.206 F 
ATOM     23  C   UNL d   1      -0.855  -5.794  -2.045  0.00  0.00     0.032 A 
ENDBRANCH   3  17
TORSDOF 2
