REMARK  4 active torsions:
REMARK  status: ('A' for Active; 'I' for Inactive)
REMARK    1  A    between atoms: C_5  and  S_1 
REMARK    2  A    between atoms: N_15  and  S_1 
REMARK    3  A    between atoms: C_2  and  C_4 
REMARK       I    between atoms: C_4  and  N_6 
REMARK    4  A    between atoms: N_6  and  C_14 
ROOT
ATOM      1  C   UNL d   1      -0.542  -1.084   4.970  0.00  0.00     0.254 C 
ATOM      2  N   UNL d   1      -0.208   0.202   4.580  0.00  0.00    -0.325 N 
ATOM      3  O   UNL d   1      -0.806  -1.444   6.116  0.00  0.00    -0.270 OA
ATOM      4  H   UNL d   1      -0.073   0.341   3.583  0.00  0.00     0.169 HD
ENDROOT
BRANCH   2   5
ATOM      5  C   UNL d   1       0.073   1.298   5.423  0.00  0.00     0.036 A 
ATOM      6  C   UNL d   1       0.029   1.230   6.814  0.00  0.00     0.054 A 
ATOM      7  C   UNL d   1       0.406   2.333   7.586  0.00  0.00     0.076 A 
ATOM      8  C   UNL d   1       0.798   3.531   6.990  0.00  0.00     0.025 A 
ATOM      9  C   UNL d   1       0.817   3.615   5.599  0.00  0.00     0.004 A 
ATOM     10  C   UNL d   1       0.463   2.504   4.821  0.00  0.00     0.029 A 
BRANCH   7  11
ATOM     11  S   UNL d   1       0.431   2.159   9.344  0.00  0.00     0.239 S 
ATOM     12  O   UNL d   1      -0.889   1.779   9.792  0.00  0.00    -0.206 OA
ATOM     13  O   UNL d   1       1.163   3.258   9.923  0.00  0.00    -0.206 OA
BRANCH  11  14
ATOM     14  N   UNL d   1       1.414   0.812   9.550  0.00  0.00    -0.225 NA
ATOM     15  H   UNL d   1       0.878   0.031   9.929  0.00  0.00     0.136 HD
ATOM     16  H   UNL d   1       2.246   1.058  10.088  0.00  0.00     0.136 HD
ENDBRANCH  11  14
ENDBRANCH   7  11
ENDBRANCH   2   5
BRANCH   1  17
ATOM     17  C   UNL d   1      -0.592  -2.102   3.811  0.00  0.00     0.245 C 
ATOM     18  O   UNL d   1      -0.232  -1.610   2.519  0.00  0.00    -0.331 OA
ATOM     19  C   UNL d   1       1.109  -1.714   2.253  0.00  0.00     0.103 A 
ATOM     20  C   UNL d   1       1.556  -1.151   1.060  0.00  0.00     0.040 A 
ATOM     21  C   UNL d   1       2.019  -2.318   3.124  0.00  0.00     0.102 A 
ATOM     22  C   UNL d   1       2.922  -1.131   0.772  0.00  0.00     0.003 A 
ATOM     23  C   UNL d   1       3.837  -1.658   1.685  0.00  0.00     0.003 A 
ATOM     24  C   UNL d   1       3.385  -2.256   2.862  0.00  0.00     0.039 A 
ATOM     25  O   UNL d   1       1.633  -2.988   4.254  0.00  0.00    -0.345 OA
ATOM     26  C   UNL d   1       0.239  -3.324   4.195  0.00  0.00     0.218 C 
ENDBRANCH   1  17
TORSDOF 4
