REMARK  2 active torsions:
REMARK  status: ('A' for Active; 'I' for Inactive)
REMARK    1  A    between atoms: C_2  and  S_1 
REMARK    2  A    between atoms: N_7  and  S_1 
ROOT
ATOM      1  C   UNL d   1       0.352   1.646   0.364  0.00  0.00     0.076 A 
ATOM      2  C   UNL d   1      -0.936   1.859   0.864  0.00  0.00     0.050 A 
ATOM      3  C   UNL d   1      -1.375   3.164   1.103  0.00  0.00     0.057 A 
ATOM      4  C   UNL d   1      -0.529   4.250   0.837  0.00  0.00     0.055 A 
ATOM      5  C   UNL d   1       1.200   2.724   0.094  0.00  0.00     0.026 A 
ATOM      6  C   UNL d   1       0.758   4.026   0.336  0.00  0.00     0.027 A 
ATOM      7 CL   UNL d   1      -2.977   3.372   1.717  0.00  0.00    -0.083 Cl
ATOM      8 CL   UNL d   1      -1.015   5.888   1.092  0.00  0.00    -0.083 Cl
ENDROOT
BRANCH   1   9
ATOM      9  S   UNL d   1       0.882   0.003  -0.022  0.00  0.00     0.239 S 
ATOM     10  O   UNL d   1       1.962   0.070  -0.977  0.00  0.00    -0.206 OA
ATOM     11  O   UNL d   1      -0.281  -0.830  -0.222  0.00  0.00    -0.206 OA
BRANCH   9  12
ATOM     12  N   UNL d   1       1.571  -0.494   1.423  0.00  0.00    -0.225 NA
ATOM     13  H   UNL d   1       2.573  -0.646   1.296  0.00  0.00     0.136 HD
ATOM     14  H   UNL d   1       1.081  -1.320   1.772  0.00  0.00     0.136 HD
ENDBRANCH   9  12
ENDBRANCH   1   9
TORSDOF 2
