REMARK  3 active torsions:
REMARK  status: ('A' for Active; 'I' for Inactive)
REMARK    1  A    between atoms: N_13  and  C_2 
REMARK    2  A    between atoms: C_14  and  C_8 
REMARK    3  A    between atoms: C_12  and  C_9 
REMARK       I    between atoms: C_15  and  N_13 
ROOT
ATOM      1  C   UNL d   1       0.306  -0.869   0.062  0.00  0.00     0.157 A 
ATOM      2  C   UNL d   1       1.628  -1.278   0.033  0.00  0.00     0.106 A 
ATOM      3  N   UNL d   1       0.321   0.526   0.049  0.00  0.00    -0.242 N 
ATOM      4  N   UNL d   1       1.579   1.004   0.082  0.00  0.00    -0.293 N 
ATOM      5  HN  UNL d   1       1.860   1.985   0.095  1.00  0.00     0.187 HD
ATOM      6  N   UNL d   1      -0.876  -1.563   0.111  0.00  0.00    -0.335 N 
ATOM      7  HN  UNL d   1      -0.882  -2.579   0.198  1.00  0.00     0.167 HD
ATOM      8  C   UNL d   1       2.390  -0.065   0.093  0.00  0.00     0.064 A 
ATOM      9  C   UNL d   1      -1.990  -0.892   0.043  0.00  0.00     0.120 A 
ATOM     10  C   UNL d   1      -0.872   1.263   0.007  0.00  0.00     0.034 A 
ATOM     11  C   UNL d   1      -2.049   0.610  -0.014  0.00  0.00     0.061 A 
ATOM     12  C   UNL d   1      -0.817   2.761  -0.011  0.00  0.00     0.070 C 
ENDROOT
BRANCH   2  13
ATOM     13  N   UNL d   1       2.106  -2.588  -0.006  0.00  0.00    -0.323 N 
ATOM     14  C   UNL d   1       1.404  -3.705  -0.425  0.00  0.00     0.218 C 
ATOM     15  O   UNL d   1       0.301  -3.747  -0.959  0.00  0.00    -0.274 OA
ATOM     16  C   UNL d   1       2.181  -4.986  -0.233  0.00  0.00     0.117 C 
ATOM     17  H   UNL d   1       3.084  -2.715   0.182  0.00  0.00     0.169 HD
ENDBRANCH   2  13
BRANCH   8  18
ATOM     18  C   UNL d   1       3.897   0.220   0.049  0.00  0.00    -0.005 C 
ATOM     19  C   UNL d   1       4.327   0.444  -1.418  0.00  0.00     0.021 C 
ATOM     20  C   UNL d   1       4.233   1.496   0.869  0.00  0.00     0.021 C 
ATOM     21  C   UNL d   1       4.775  -0.900   0.636  0.00  0.00     0.021 C 
ENDBRANCH   8  18
BRANCH   9  22
ATOM     22  C   UNL d   1      -3.329  -1.635   0.033  0.00  0.00     0.432 C 
ATOM     23  F   UNL d   1      -4.397  -0.783   0.030  0.00  0.00    -0.165 F 
ATOM     24  F   UNL d   1      -3.484  -2.425  -1.064  0.00  0.00    -0.165 F 
ATOM     25  F   UNL d   1      -3.493  -2.432   1.124  0.00  0.00    -0.165 F 
ENDBRANCH   9  22
TORSDOF 3
