REMARK  4 active torsions:
REMARK  status: ('A' for Active; 'I' for Inactive)
REMARK    1  A    between atoms: O_2  and  S_1 
REMARK    2  A    between atoms: C_6  and  S_1 
REMARK    3  A    between atoms: C_3  and  O_2 
REMARK    4  A    between atoms: C_5  and  C_4 
ROOT
ATOM      1  C   UNL d   1       1.017  -1.065  -2.246  0.00  0.00     0.176 A 
ATOM      2  C   UNL d   1       0.908  -2.207  -3.030  0.00  0.00     0.100 A 
ATOM      3  N   UNL d   1       1.309   0.147  -2.763  0.00  0.00    -0.345 N 
ATOM      4  HN  UNL d   1       1.398   0.962  -2.158  1.00  0.00     0.167 HD
ATOM      5  C   UNL d   1       1.101  -2.059  -4.416  0.00  0.00     0.022 A 
ATOM      6  C   UNL d   1       1.479   0.258  -4.094  0.00  0.00     0.090 A 
ATOM      7  C   UNL d   1       1.386  -0.811  -4.958  0.00  0.00     0.018 A 
ENDROOT
BRANCH   1   8
ATOM      8  O   UNL d   1       0.798  -1.144  -0.892  0.00  0.00    -0.210 OA
BRANCH   8   9
ATOM      9  S   UNL d   1       1.009   0.193   0.024  0.00  0.00     0.304 S 
ATOM     10  O   UNL d   1       0.054   1.212  -0.378  0.00  0.00    -0.193 OA
ATOM     11  O   UNL d   1       2.423   0.465   0.173  0.00  0.00    -0.193 OA
BRANCH   9  12
ATOM     12  C   UNL d   1       0.467  -0.318   1.647  0.00  0.00     0.089 A 
ATOM     13  C   UNL d   1       0.717  -1.617   2.088  0.00  0.00     0.068 A 
ATOM     14  C   UNL d   1       0.233  -1.997   3.334  0.00  0.00     0.117 A 
ATOM     15  F   UNL d   1       0.454  -3.243   3.772  0.00  0.00    -0.206 F 
ATOM     16  C   UNL d   1      -0.486  -1.111   4.134  0.00  0.00     0.042 A 
ATOM     17  C   UNL d   1      -0.719   0.191   3.692  0.00  0.00     0.005 A 
ATOM     18  C   UNL d   1      -0.241   0.592   2.445  0.00  0.00     0.026 A 
ENDBRANCH   9  12
ENDBRANCH   8   9
ENDBRANCH   1   8
BRANCH   2  19
ATOM     19  C   UNL d   1       0.601  -3.563  -2.480  0.00  0.00     0.421 C 
ATOM     20  F   UNL d   1       0.417  -3.621  -1.133  0.00  0.00    -0.166 F 
ATOM     21  F   UNL d   1      -0.529  -4.094  -3.029  0.00  0.00    -0.166 F 
ATOM     22  F   UNL d   1       1.591  -4.460  -2.754  0.00  0.00    -0.166 F 
ENDBRANCH   2  19
TORSDOF 4
