REMARK  5 active torsions:
REMARK  status: ('A' for Active; 'I' for Inactive)
REMARK    1  A    between atoms: C_8  and  C_1 
REMARK    2  A    between atoms: C_13  and  C_2 
REMARK    3  A    between atoms: C_12  and  C_6 
REMARK    4  A    between atoms: O_18  and  C_6 
REMARK    5  A    between atoms: N_7  and  C_8 
ROOT
ATOM      1  C   UNL d   1       5.249  -1.388   0.331  0.00  0.00     0.088 C 
ATOM      2  N   UNL d   1       3.445   0.934   0.139  0.00  0.00     0.092 N 
ATOM      3  C   UNL d   1       5.084  -0.580  -0.968  0.00  0.00     0.073 C 
ATOM      4  C   UNL d   1       4.854  -0.526   1.538  0.00  0.00     0.073 C 
ATOM      5  C   UNL d   1       3.463   0.089   1.347  0.00  0.00     0.276 C 
ATOM      6  C   UNL d   1       3.714   0.091  -1.044  0.00  0.00     0.276 C 
ENDROOT
BRANCH   2   7
ATOM      7  C   UNL d   1       2.134   1.587  -0.063  0.00  0.00     0.315 C 
BRANCH   7   8
ATOM      8  C   UNL d   1       1.823   2.697   0.894  0.00  0.00     0.016 A 
ATOM      9  C   UNL d   1       0.599   3.461   0.957  0.00  0.00     0.067 A 
ATOM     10  N   UNL d   1       0.637   4.329   1.985  0.00  0.00    -0.300 N 
ATOM     11  N   UNL d   1       1.849   4.171   2.523  0.00  0.00    -0.311 N 
ATOM     12  HN  UNL d   1      -0.099   4.968   2.286  1.00  0.00     0.187 HD
ATOM     13  C   UNL d   1       2.607   3.238   1.895  0.00  0.00     0.118 A 
ATOM     14  H   UNL d   1       2.094   4.739   3.327  0.00  0.00     0.186 HD
BRANCH   9  15
ATOM     15  C   UNL d   1      -0.599   3.394   0.102  0.00  0.00    -0.007 A 
ATOM     16  C   UNL d   1      -1.862   3.690   0.639  0.00  0.00     0.014 A 
ATOM     17  C   UNL d   1      -3.012   3.647  -0.155  0.00  0.00     0.001 A 
ATOM     18  C   UNL d   1      -2.919   3.300  -1.500  0.00  0.00     0.000 A 
ATOM     19  C   UNL d   1      -1.675   3.018  -2.055  0.00  0.00     0.001 A 
ATOM     20  C   UNL d   1      -0.524   3.079  -1.263  0.00  0.00     0.014 A 
ENDBRANCH   9  15
ENDBRANCH   7   8
ENDBRANCH   2   7
BRANCH   1  21
ATOM     21  C   UNL d   1       6.676  -1.929   0.469  0.00  0.00    -0.024 A 
ATOM     22  C   UNL d   1       7.777  -1.051   0.456  0.00  0.00     0.012 A 
ATOM     23  C   UNL d   1       9.088  -1.530   0.543  0.00  0.00     0.024 A 
ATOM     24  C   UNL d   1       9.319  -2.896   0.652  0.00  0.00     0.034 A 
ATOM     25  C   UNL d   1       8.250  -3.786   0.690  0.00  0.00     0.024 A 
ATOM     26 CL   UNL d   1      10.931  -3.488   0.743  0.00  0.00    -0.084 Cl
ATOM     27  C   UNL d   1       6.939  -3.305   0.608  0.00  0.00     0.012 A 
ENDBRANCH   1  21
BRANCH   1  28
ATOM     28  O   UNL d   1       4.320  -2.486   0.276  0.00  0.00    -0.385 OA
ATOM     29  H   UNL d   1       4.510  -2.981  -0.537  0.00  0.00     0.211 HD
ENDBRANCH   1  28
TORSDOF 5
