REMARK  4 active torsions:
REMARK  status: ('A' for Active; 'I' for Inactive)
REMARK       I    between atoms: C_2  and  N_1 
REMARK       I    between atoms: C_5  and  N_1 
REMARK       I    between atoms: N_10  and  C_2 
REMARK    1  A    between atoms: C_3  and  C_6 
REMARK    2  A    between atoms: C_4  and  C_7 
REMARK    3  A    between atoms: C_11  and  C_5 
REMARK    4  A    between atoms: C_9  and  N_10 
ROOT
ATOM      1  C   UNL d   1       0.659  -4.702   3.926  0.00  0.00     0.050 A 
ATOM      2  C   UNL d   1      -1.356  -4.450   2.579  0.00  0.00     0.050 A 
ATOM      3  C   UNL d   1      -0.594  -5.175   3.504  0.00  0.00     0.032 A 
ATOM      4  C   UNL d   1       0.391  -2.747   2.479  0.00  0.00     0.037 A 
ATOM      5  C   UNL d   1      -0.862  -3.230   2.094  0.00  0.00     0.045 A 
ATOM      6  C   UNL d   1       1.139  -3.482   3.408  0.00  0.00     0.045 A 
ENDROOT
BRANCH   4   7
ATOM      7  N   UNL d   1       0.974  -1.595   1.913  0.00  0.00    -0.309 N 
ATOM      8  C   UNL d   1       0.415  -0.750   0.987  0.00  0.00     0.327 C 
ATOM      9  N   UNL d   1       1.272   0.145   0.389  0.00  0.00    -0.278 N 
ATOM     10  O   UNL d   1      -0.758  -0.730   0.623  0.00  0.00    -0.247 OA
ATOM     11  C   UNL d   1       2.638   0.280   0.541  0.00  0.00     0.233 C 
ATOM     12  H   UNL d   1       0.801   0.683  -0.323  0.00  0.00     0.173 HD
ATOM     13  O   UNL d   1       3.269  -0.349   1.395  0.00  0.00    -0.272 OA
ATOM     14  H   UNL d   1       1.939  -1.381   2.164  0.00  0.00     0.170 HD
BRANCH  11  15
ATOM     15  C   UNL d   1       3.302   1.314  -0.395  0.00  0.00     0.030 C 
ATOM     16  C   UNL d   1       2.773   2.719  -0.070  0.00  0.00     0.025 C 
ATOM     17  C   UNL d   1       4.825   1.290  -0.168  0.00  0.00     0.025 C 
ATOM     18  C   UNL d   1       3.021   0.985  -1.869  0.00  0.00     0.025 C 
ENDBRANCH  11  15
ENDBRANCH   4   7
BRANCH   2  19
ATOM     19  C   UNL d   1      -2.671  -4.972   2.054  0.00  0.00     0.417 C 
ATOM     20  F   UNL d   1      -2.966  -6.229   2.488  0.00  0.00    -0.166 F 
ATOM     21  F   UNL d   1      -3.728  -4.193   2.410  0.00  0.00    -0.166 F 
ATOM     22  F   UNL d   1      -2.694  -5.040   0.692  0.00  0.00    -0.166 F 
ENDBRANCH   2  19
BRANCH   1  23
ATOM     23  C   UNL d   1       1.500  -5.509   4.888  0.00  0.00     0.417 C 
ATOM     24  F   UNL d   1       0.946  -6.710   5.215  0.00  0.00    -0.166 F 
ATOM     25  F   UNL d   1       2.732  -5.796   4.383  0.00  0.00    -0.166 F 
ATOM     26  F   UNL d   1       1.716  -4.864   6.066  0.00  0.00    -0.166 F 
ENDBRANCH   1  23
TORSDOF 4
