REMARK  6 active torsions:
REMARK  status: ('A' for Active; 'I' for Inactive)
REMARK       I    between atoms: N_2  and  C_1 
REMARK    1  A    between atoms: C_4  and  C_1 
REMARK    2  A    between atoms: C_3  and  N_2 
REMARK       I    between atoms: C_5  and  N_6 
REMARK    3  A    between atoms: C_15  and  C_5 
REMARK    4  A    between atoms: N_6  and  C_7 
REMARK    5  A    between atoms: C_12  and  C_8 
REMARK    6  A    between atoms: N_10  and  C_15 
ROOT
ATOM      1  C   UNL d   1       1.902   2.201  -0.169  0.00  0.00     0.062 C 
ATOM      2  C   UNL d   1       2.652   1.877  -1.312  0.00  0.00     0.061 C 
ATOM      3  C   UNL d   1       1.791   4.544  -0.915  0.00  0.00    -0.048 C 
ATOM      4  C   UNL d   1       1.451   3.524  -0.004  0.00  0.00     0.039 C 
ATOM      5  C   UNL d   1       3.145   2.902  -2.123  0.00  0.00     0.032 C 
ATOM      6  C   UNL d   1       2.711   4.217  -1.928  0.00  0.00     0.010 C 
ENDROOT
BRANCH   2   7
ATOM      7  N   UNL d   1       2.707   0.566  -1.869  0.00  0.00    -0.324 N 
ATOM      8  C   UNL d   1       1.507  -0.024  -2.281  0.00  0.00     0.250 C 
ATOM      9  O   UNL d   1       0.386   0.391  -1.977  0.00  0.00    -0.271 OA
ATOM     10  H   UNL d   1       3.491   0.393  -2.484  0.00  0.00     0.169 HD
BRANCH   8  11
ATOM     11  C   UNL d   1       1.661  -1.194  -3.264  0.00  0.00     0.375 C 
BRANCH  11  12
ATOM     12  N   UNL d   1       1.335  -2.545  -2.772  0.00  0.00     0.101 N 
ATOM     13  C   UNL d   1       0.114  -2.648  -1.949  0.00  0.00     0.299 C 
ATOM     14  C   UNL d   1       0.321  -2.327  -0.459  0.00  0.00     0.198 C 
ATOM     15  O   UNL d   1       1.416  -3.071   0.094  0.00  0.00    -0.388 OA
ATOM     16  C   UNL d   1       2.623  -2.844  -0.643  0.00  0.00     0.198 C 
ATOM     17  C   UNL d   1       2.441  -3.244  -2.106  0.00  0.00     0.299 C 
ENDBRANCH  11  12
ENDBRANCH   8  11
ENDBRANCH   2   7
BRANCH   1  18
ATOM     18  N   UNL d   1       1.535   1.265   0.827  0.00  0.00    -0.319 N 
ATOM     19  C   UNL d   1       2.331   0.227   1.287  0.00  0.00     0.280 C 
ATOM     20  O   UNL d   1       3.502   0.055   0.959  0.00  0.00    -0.265 OA
ATOM     21  H   UNL d   1       0.712   1.459   1.383  0.00  0.00     0.169 HD
BRANCH  19  22
ATOM     22  C   UNL d   1       1.656  -0.637   2.254  0.00  0.00     0.142 A 
ATOM     23  O   UNL d   1       0.347  -0.394   2.592  0.00  0.00    -0.317 OA
ATOM     24  C   UNL d   1      -0.063  -1.411   3.402  0.00  0.00     0.143 A 
ATOM     25  C   UNL d   1       0.969  -2.298   3.613  0.00  0.00     0.027 A 
ATOM     26  C   UNL d   1       2.081  -1.790   2.897  0.00  0.00     0.045 A 
ENDBRANCH  19  22
ENDBRANCH   1  18
BRANCH   3  27
ATOM     27  C   UNL d   1       1.113   5.929  -0.912  0.00  0.00    -0.024 C 
ATOM     28  C   UNL d   1       0.140   6.149   0.268  0.00  0.00     0.019 C 
ATOM     29  C   UNL d   1       2.144   7.077  -0.872  0.00  0.00     0.019 C 
ATOM     30  C   UNL d   1       0.281   6.062  -2.211  0.00  0.00     0.019 C 
ENDBRANCH   3  27
TORSDOF 6
