REMARK  3 active torsions:
REMARK  status: ('A' for Active; 'I' for Inactive)
REMARK    1  A    between atoms: C_2  and  C_1 
REMARK    2  A    between atoms: O_8  and  C_2 
REMARK    3  A    between atoms: C_7  and  C_3 
ROOT
ATOM      1  C   UNL d   1       0.978  -0.020  -0.572  0.00  0.00     0.118 C 
ATOM      2  C   UNL d   1       0.154   0.953  -0.128  0.00  0.00     0.041 C 
ATOM      3  C   UNL d   1       0.529  -1.227  -1.164  0.00  0.00     0.106 C 
ATOM      4  N   UNL d   1       0.262  -2.257  -1.628  0.00  0.00    -0.191 NA
ENDROOT
BRANCH   1   5
ATOM      5  C   UNL d   1       2.441   0.210  -0.434  0.00  0.00     0.187 C 
ATOM      6  O   UNL d   1       2.916   1.243   0.019  0.00  0.00    -0.645 OA
BRANCH   5   7
ATOM      7  O   UNL d   1       3.241  -0.803  -0.839  0.00  0.00    -0.772 OA
ATOM      8  H   UNL d   1       2.837  -1.621  -1.192  0.00  0.00     0.167 HD
ENDBRANCH   5   7
ENDBRANCH   1   5
BRANCH   2   9
ATOM      9  C   UNL d   1      -1.322   0.999  -0.137  0.00  0.00    -0.035 A 
ATOM     10  C   UNL d   1      -2.132  -0.124   0.065  0.00  0.00     0.012 A 
ATOM     11  C   UNL d   1      -3.526  -0.011   0.074  0.00  0.00     0.007 A 
ATOM     12  C   UNL d   1      -4.142   1.233  -0.083  0.00  0.00    -0.062 A 
ATOM     13  C   UNL d   1      -3.341   2.365  -0.253  0.00  0.00     0.007 A 
ATOM     14  C   UNL d   1      -5.638   1.331  -0.058  0.00  0.00     0.048 C 
ATOM     15  C   UNL d   1      -1.946   2.248  -0.278  0.00  0.00     0.012 A 
ENDBRANCH   2   9
TORSDOF 3
