REMARK  3 active torsions:
REMARK  status: ('A' for Active; 'I' for Inactive)
REMARK    1  A    between atoms: N_2  and  C_1 
REMARK    2  A    between atoms: N_3  and  C_1 
REMARK    3  A    between atoms: C_4  and  N_2 
ROOT
ATOM      1  N   UNL d   1       0.474   1.185   0.350  0.00  0.00    -0.332 N 
ATOM      2  H   UNL d   1      -0.518   1.279   0.222  0.00  0.00     0.168 HD
ENDROOT
BRANCH   1   3
ATOM      3  C   UNL d   1       0.966  -0.108   0.253  0.00  0.00     0.174 C 
ATOM      4  S   UNL d   1       2.431  -0.526  -0.460  0.00  0.00    -0.041 SA
BRANCH   3   5
ATOM      5  N   UNL d   1       0.112  -1.042   0.849  0.00  0.00    -0.354 N 
ATOM      6  C   UNL d   1      -1.328  -1.112   0.564  0.00  0.00     0.151 C 
ATOM      7  C   UNL d   1      -2.115  -1.454   1.830  0.00  0.00     0.187 C 
ATOM      8  O   UNL d   1      -1.640  -2.678   2.408  0.00  0.00    -0.388 OA
ATOM      9  C   UNL d   1      -0.249  -2.567   2.754  0.00  0.00     0.187 C 
ATOM     10  C   UNL d   1       0.617  -2.248   1.526  0.00  0.00     0.151 C 
ENDBRANCH   3   5
ENDBRANCH   1   3
BRANCH   1  11
ATOM     11  C   UNL d   1       1.170   2.417   0.394  0.00  0.00     0.046 A 
ATOM     12  C   UNL d   1       0.616   3.508  -0.324  0.00  0.00    -0.035 A 
ATOM     13  C   UNL d   1       1.187   4.788  -0.185  0.00  0.00     0.009 A 
ATOM     14  C   UNL d   1      -0.540   3.391  -1.280  0.00  0.00     0.050 C 
ATOM     15  C   UNL d   1       2.286   4.996   0.630  0.00  0.00     0.001 A 
ATOM     16  C   UNL d   1       2.833   3.926   1.333  0.00  0.00     0.009 A 
ATOM     17  C   UNL d   1       2.276   2.634   1.248  0.00  0.00    -0.035 A 
ATOM     18  C   UNL d   1       2.875   1.618   2.183  0.00  0.00     0.050 C 
ENDBRANCH   1  11
TORSDOF 3
