REMARK  3 active torsions:
REMARK  status: ('A' for Active; 'I' for Inactive)
REMARK       I    between atoms: N_2  and  C_1 
REMARK       I    between atoms: N_4  and  C_1 
REMARK    1  A    between atoms: C_3  and  N_2 
REMARK    2  A    between atoms: C_7  and  N_4 
REMARK    3  A    between atoms: C_9  and  C_7 
ROOT
ATOM      1  C   UNL d   1       0.999  -0.055  -0.065  0.00  0.00     0.321 C 
ATOM      2  N   UNL d   1       0.356   1.005   0.545  0.00  0.00    -0.308 N 
ATOM      3  N   UNL d   1       0.089  -1.027  -0.422  0.00  0.00    -0.339 N 
ATOM      4  O   UNL d   1       2.208  -0.184  -0.197  0.00  0.00    -0.247 OA
ATOM      5  H   UNL d   1      -0.481   0.725   1.032  0.00  0.00     0.170 HD
ATOM      6  H   UNL d   1      -0.788  -0.691  -0.785  0.00  0.00     0.164 HD
ENDROOT
BRANCH   2   7
ATOM      7  C   UNL d   1       1.038   2.140   1.034  0.00  0.00     0.042 A 
ATOM      8  C   UNL d   1       0.721   2.683   2.294  0.00  0.00    -0.035 A 
ATOM      9  C   UNL d   1      -0.259   2.064   3.252  0.00  0.00     0.050 C 
ATOM     10  C   UNL d   1       1.385   3.850   2.714  0.00  0.00     0.009 A 
ATOM     11  C   UNL d   1       2.348   4.460   1.911  0.00  0.00     0.001 A 
ATOM     12  C   UNL d   1       2.663   3.913   0.673  0.00  0.00     0.002 A 
ATOM     13  C   UNL d   1       2.013   2.757   0.238  0.00  0.00     0.030 A 
ENDBRANCH   2   7
BRANCH   3  14
ATOM     14  C   UNL d   1       0.530  -2.337  -0.842  0.00  0.00     0.162 C 
BRANCH  14  15
ATOM     15  C   UNL d   1       0.786  -2.439  -2.323  0.00  0.00    -0.040 A 
ATOM     16  C   UNL d   1       2.073  -2.209  -2.834  0.00  0.00     0.010 A 
ATOM     17  C   UNL d   1       2.336  -2.368  -4.197  0.00  0.00     0.024 A 
ATOM     18  C   UNL d   1       1.309  -2.745  -5.058  0.00  0.00     0.034 A 
ATOM     19  C   UNL d   1       0.019  -2.949  -4.571  0.00  0.00     0.024 A 
ATOM     20 CL   UNL d   1       1.636  -2.971  -6.732  0.00  0.00    -0.084 Cl
ATOM     21  C   UNL d   1      -0.243  -2.792  -3.207  0.00  0.00     0.010 A 
ENDBRANCH  14  15
ENDBRANCH   3  14
TORSDOF 3
