REMARK  6 active torsions:
REMARK  status: ('A' for Active; 'I' for Inactive)
REMARK    1  A    between atoms: C_7  and  C_1 
REMARK    2  A    between atoms: C_10  and  N_2 
REMARK    3  A    between atoms: C_11  and  C_6 
REMARK       I    between atoms: N_9  and  C_7 
REMARK       I    between atoms: C_8  and  N_12 
REMARK       I    between atoms: N_13  and  C_8 
REMARK    4  A    between atoms: N_12  and  N_9 
REMARK    5  A    between atoms: C_16  and  C_10 
REMARK    6  A    between atoms: C_18  and  N_13 
ROOT
ATOM      1  C   UNL d   1       0.173  -0.951   0.309  0.00  0.00     0.116 C 
ATOM      2  N   UNL d   1       1.310  -0.192   0.175  0.00  0.00    -0.283 N 
ATOM      3  N   UNL d   1       1.065   1.135   0.212  0.00  0.00    -0.301 N 
ATOM      4  HN  UNL d   1       1.749   1.890   0.264  1.00  0.00     0.187 HD
ATOM      5  C   UNL d   1      -0.866  -0.031   0.217  0.00  0.00     0.063 C 
ATOM      6  C   UNL d   1      -0.267   1.248   0.164  0.00  0.00     0.036 C 
ENDROOT
BRANCH   1   7
ATOM      7  C   UNL d   1       0.041  -2.381   0.410  0.00  0.00     0.267 C 
ATOM      8  N   UNL d   1       0.440  -2.972   1.605  0.00  0.00    -0.164 NA
ATOM      9  H   UNL d   1      -0.049  -3.866   1.675  0.00  0.00     0.156 HD
ATOM     10  O   UNL d   1      -0.623  -3.056  -0.377  0.00  0.00    -0.271 OA
BRANCH   8  11
ATOM     11  N   UNL d   1       1.828  -3.201   1.815  0.00  0.00    -0.266 N 
ATOM     12  C   UNL d   1       2.513  -2.639   2.879  0.00  0.00     0.335 C 
ATOM     13  N   UNL d   1       1.932  -1.494   3.355  0.00  0.00    -0.308 N 
ATOM     14  O   UNL d   1       3.573  -3.143   3.230  0.00  0.00    -0.246 OA
ATOM     15  H   UNL d   1       1.059  -1.252   2.906  0.00  0.00     0.170 HD
ATOM     16  H   UNL d   1       2.212  -4.087   1.492  0.00  0.00     0.186 HD
BRANCH  13  17
ATOM     17  C   UNL d   1       2.443  -0.586   4.298  0.00  0.00     0.036 A 
ATOM     18  C   UNL d   1       3.600  -0.805   5.047  0.00  0.00     0.029 A 
ATOM     19  C   UNL d   1       4.047   0.161   5.956  0.00  0.00     0.002 A 
ATOM     20  C   UNL d   1       3.345   1.353   6.116  0.00  0.00     0.000 A 
ATOM     21  C   UNL d   1       2.192   1.581   5.368  0.00  0.00     0.002 A 
ATOM     22  C   UNL d   1       1.742   0.615   4.466  0.00  0.00     0.029 A 
ENDBRANCH  13  17
ENDBRANCH   8  11
ENDBRANCH   1   7
BRANCH   2  23
ATOM     23  C   UNL d   1       2.688  -0.607  -0.024  0.00  0.00     0.188 C 
BRANCH  23  24
ATOM     24  C   UNL d   1       3.026  -0.792  -1.481  0.00  0.00    -0.038 A 
ATOM     25  C   UNL d   1       3.353   0.319  -2.275  0.00  0.00     0.012 A 
ATOM     26  C   UNL d   1       3.724   0.146  -3.608  0.00  0.00     0.043 A 
ATOM     27  C   UNL d   1       3.758  -1.133  -4.149  0.00  0.00     0.116 A 
ATOM     28  C   UNL d   1       3.411  -2.243  -3.388  0.00  0.00     0.043 A 
ATOM     29  F   UNL d   1       4.133  -1.301  -5.423  0.00  0.00    -0.206 F 
ATOM     30  C   UNL d   1       3.039  -2.074  -2.054  0.00  0.00     0.012 A 
ENDBRANCH  23  24
ENDBRANCH   2  23
BRANCH   6  31
ATOM     31  C   UNL d   1      -0.891   2.634   0.084  0.00  0.00    -0.007 C 
ATOM     32  C   UNL d   1      -2.431   2.591   0.017  0.00  0.00     0.021 C 
ATOM     33  C   UNL d   1      -0.493   3.454   1.330  0.00  0.00     0.021 C 
ATOM     34  C   UNL d   1      -0.388   3.369  -1.178  0.00  0.00     0.021 C 
ENDBRANCH   6  31
TORSDOF 6
