REMARK  2 active torsions:
REMARK  status: ('A' for Active; 'I' for Inactive)
REMARK    1  A    between atoms: C_6  and  C_1 
REMARK    2  A    between atoms: C_10  and  C_6 
ROOT
ATOM      1  N   UNL d   1      -0.216   5.120   1.161  0.00  0.00    -0.197 NA
ATOM      2  C   UNL d   1       0.390   4.518   0.375  0.00  0.00     0.067 C 
ATOM      3  C   UNL d   1       1.109   3.765  -0.647  0.00  0.00     0.207 C 
ENDROOT
BRANCH   3   4
ATOM      4  C   UNL d   1       1.624   2.463  -0.089  0.00  0.00     0.174 C 
ATOM      5  O   UNL d   1       2.796   2.376   0.280  0.00  0.00    -0.291 OA
BRANCH   4   6
ATOM      6  C   UNL d   1       0.718   1.318  -0.033  0.00  0.00     0.042 A 
ATOM      7  C   UNL d   1       1.099  -0.014   0.039  0.00  0.00     0.063 A 
ATOM      8  O   UNL d   1       0.001  -0.821   0.056  0.00  0.00    -0.319 OA
ATOM      9  C   UNL d   1       2.396  -0.727   0.070  0.00  0.00     0.077 C 
ATOM     10  C   UNL d   1      -1.095  -0.021   0.005  0.00  0.00     0.050 A 
ATOM     11  C   UNL d   1      -0.711   1.299  -0.054  0.00  0.00     0.050 A 
ATOM     12  C   UNL d   1      -2.403  -0.705   0.020  0.00  0.00     0.076 C 
ENDBRANCH   4   6
ENDBRANCH   3   4
TORSDOF 2
