REMARK  5 active torsions:
REMARK  status: ('A' for Active; 'I' for Inactive)
REMARK    1  A    between atoms: C_2  and  S_1 
REMARK    2  A    between atoms: N_3  and  S_1 
REMARK    3  A    between atoms: C_13  and  N_3 
REMARK    4  A    between atoms: C_18  and  N_3 
REMARK    5  A    between atoms: C_17  and  C_18 
ROOT
ATOM      1  N   UNL d   1       3.159  -1.189   5.079  0.00  0.00    -0.197 NA
ATOM      2  C   UNL d   1       2.876  -0.710   4.065  0.00  0.00     0.060 C 
ATOM      3  C   UNL d   1       2.482  -0.096   2.781  0.00  0.00     0.144 C 
ENDROOT
BRANCH   3   4
ATOM      4  C   UNL d   1       1.027  -0.462   2.470  0.00  0.00     0.150 C 
BRANCH   4   5
ATOM      5  N   UNL d   1       0.430   0.211   1.269  0.00  0.00    -0.301 N 
BRANCH   5   6
ATOM      6  S   UNL d   1       1.115  -0.242  -0.261  0.00  0.00     0.263 S 
ATOM      7  O   UNL d   1       2.292  -1.033   0.017  0.00  0.00    -0.200 OA
ATOM      8  O   UNL d   1       0.065  -0.712  -1.137  0.00  0.00    -0.200 OA
BRANCH   6   9
ATOM      9  C   UNL d   1       1.684   1.259  -1.019  0.00  0.00     0.103 A 
ATOM     10  C   UNL d   1       1.333   2.508  -0.494  0.00  0.00     0.052 A 
ATOM     11  C   UNL d   1       1.705   3.677  -1.171  0.00  0.00     0.057 A 
ATOM     12 CL   UNL d   1       1.200   5.186  -0.499  0.00  0.00    -0.083 Cl
ATOM     13  C   UNL d   1       2.443   3.600  -2.358  0.00  0.00     0.057 A 
ATOM     14  C   UNL d   1       2.807   2.353  -2.868  0.00  0.00     0.051 A 
ATOM     15 CL   UNL d   1       2.924   4.999  -3.248  0.00  0.00    -0.082 Cl
ATOM     16  C   UNL d   1       2.424   1.181  -2.208  0.00  0.00     0.059 A 
ATOM     17 CL   UNL d   1       2.888  -0.303  -2.963  0.00  0.00    -0.083 Cl
ENDBRANCH   6   9
ENDBRANCH   5   6
BRANCH   5  18
ATOM     18  C   UNL d   1      -1.073   0.488   1.295  0.00  0.00     0.096 C 
ATOM     19  C   UNL d   1      -1.563   1.212   2.572  0.00  0.00     0.026 C 
ATOM     20  C   UNL d   1      -2.005   0.326   3.752  0.00  0.00     0.002 C 
ATOM     21  C   UNL d   1      -2.800  -0.911   3.355  0.00  0.00     0.000 C 
ATOM     22  C   UNL d   1      -2.192  -1.651   2.176  0.00  0.00     0.002 C 
ATOM     23  C   UNL d   1      -1.976  -0.719   0.996  0.00  0.00     0.026 C 
ENDBRANCH   5  18
ENDBRANCH   4   5
ENDBRANCH   3   4
TORSDOF 5
