REMARK  4 active torsions:
REMARK  status: ('A' for Active; 'I' for Inactive)
REMARK    1  A    between atoms: C_5  and  C_1 
REMARK       I    between atoms: C_2  and  N_3 
REMARK    2  A    between atoms: C_6  and  C_2 
REMARK    3  A    between atoms: N_3  and  C_4 
REMARK    4  A    between atoms: O_13  and  C_5 
ROOT
ATOM      1  C   UNL d   1       2.738  -1.422   2.125  0.00  0.00     0.079 A 
ATOM      2  C   UNL d   1       2.995  -0.886   0.855  0.00  0.00     0.054 A 
ATOM      3  N   UNL d   1       3.122  -3.655   1.298  0.00  0.00    -0.374 N 
ATOM      4  HN  UNL d   1       3.153  -4.663   1.451  1.00  0.00     0.164 HD
ATOM      5  C   UNL d   1       2.798  -2.798   2.293  0.00  0.00     0.108 A 
ATOM      6  C   UNL d   1       3.361  -1.753  -0.174  0.00  0.00     0.047 A 
ATOM      7  C   UNL d   1       3.404  -3.114   0.093  0.00  0.00     0.090 A 
ENDROOT
BRANCH   2   8
ATOM      8  N   UNL d   1       2.804   0.500   0.616  0.00  0.00    -0.325 N 
ATOM      9  C   UNL d   1       3.571   1.278  -0.236  0.00  0.00     0.229 C 
ATOM     10  O   UNL d   1       4.579   0.848  -0.796  0.00  0.00    -0.272 OA
ATOM     11  H   UNL d   1       2.176   0.976   1.255  0.00  0.00     0.169 HD
BRANCH   9  12
ATOM     12  C   UNL d   1       3.051   2.714  -0.482  0.00  0.00     0.030 C 
ATOM     13  C   UNL d   1       2.588   3.439   0.794  0.00  0.00     0.025 C 
ATOM     14  C   UNL d   1       4.178   3.560  -1.109  0.00  0.00     0.025 C 
ATOM     15  C   UNL d   1       1.890   2.620  -1.483  0.00  0.00     0.025 C 
ENDBRANCH   9  12
ENDBRANCH   2   8
BRANCH   1  16
ATOM     16  C   UNL d   1       2.499  -0.602   3.325  0.00  0.00     0.179 C 
ATOM     17  O   UNL d   1       1.741  -0.926   4.216  0.00  0.00    -0.646 OA
BRANCH  16  18
ATOM     18  O   UNL d   1       3.239   0.538   3.348  0.00  0.00    -0.773 OA
ATOM     19  H   UNL d   1       3.943   0.573   2.669  0.00  0.00     0.167 HD
ENDBRANCH  16  18
ENDBRANCH   1  16
TORSDOF 4
