REMARK  5 active torsions:
REMARK  status: ('A' for Active; 'I' for Inactive)
REMARK    1  A    between atoms: S_3  and  C_1 
REMARK    2  A    between atoms: C_8  and  S_3 
REMARK    3  A    between atoms: C_4  and  C_8 
REMARK       I    between atoms: N_7  and  C_4 
REMARK    4  A    between atoms: C_10  and  N_7 
REMARK    5  A    between atoms: C_17  and  C_8 
ROOT
ATOM      1  C   UNL d   1      -0.056   1.289   0.617  0.00  0.00     0.092 A 
ATOM      2  C   UNL d   1       0.513   0.294   1.422  0.00  0.00     0.084 A 
ATOM      3  N   UNL d   1      -1.334   1.242   0.159  0.00  0.00    -0.353 N 
ATOM      4  HN  UNL d   1      -1.713   1.984  -0.430  1.00  0.00     0.166 HD
ATOM      5  C   UNL d   1      -0.278  -0.813   1.776  0.00  0.00    -0.037 A 
ATOM      6  C   UNL d   1       1.874   0.389   1.859  0.00  0.00     0.103 C 
ATOM      7  N   UNL d   1       2.980   0.415   2.224  0.00  0.00    -0.191 NA
ATOM      8  C   UNL d   1      -2.083   0.174   0.513  0.00  0.00     0.006 A 
ATOM      9  C   UNL d   1      -1.596  -0.861   1.308  0.00  0.00     0.033 A 
ATOM     10  C   UNL d   1       0.220  -1.946   2.633  0.00  0.00     0.050 C 
ATOM     11  C   UNL d   1      -3.495   0.120   0.009  0.00  0.00     0.068 C 
ENDROOT
BRANCH   1  12
ATOM     12  S   UNL d   1       0.928   2.641   0.009  0.00  0.00    -0.091 SA
BRANCH  12  13
ATOM     13  C   UNL d   1      -0.255   4.067   0.089  0.00  0.00     0.179 C 
BRANCH  13  14
ATOM     14  C   UNL d   1      -0.958   4.163   1.462  0.00  0.00     0.240 C 
ATOM     15  N   UNL d   1      -2.188   4.819   1.411  0.00  0.00    -0.325 N 
ATOM     16  H   UNL d   1      -2.603   4.954   0.499  0.00  0.00     0.169 HD
ATOM     17  O   UNL d   1      -0.464   3.711   2.497  0.00  0.00    -0.272 OA
BRANCH  15  18
ATOM     18  C   UNL d   1      -2.997   5.135   2.532  0.00  0.00     0.041 A 
ATOM     19  C   UNL d   1      -4.407   5.200   2.393  0.00  0.00    -0.029 A 
ATOM     20  C   UNL d   1      -5.193   5.621   3.496  0.00  0.00    -0.054 A 
ATOM     21  C   UNL d   1      -5.069   4.791   1.100  0.00  0.00     0.051 C 
ATOM     22  C   UNL d   1      -6.695   5.747   3.459  0.00  0.00     0.049 C 
ATOM     23  C   UNL d   1      -4.570   5.904   4.723  0.00  0.00     0.007 A 
ATOM     24  C   UNL d   1      -3.192   5.803   4.861  0.00  0.00     0.003 A 
ATOM     25  C   UNL d   1      -2.411   5.429   3.771  0.00  0.00     0.030 A 
ENDBRANCH  15  18
ENDBRANCH  13  14
BRANCH  13  26
ATOM     26  C   UNL d   1       0.581   5.305  -0.240  0.00  0.00    -0.035 A 
ATOM     27  C   UNL d   1       1.172   6.086   0.769  0.00  0.00     0.009 A 
ATOM     28  C   UNL d   1       2.127   7.053   0.455  0.00  0.00     0.001 A 
ATOM     29  C   UNL d   1       2.508   7.254  -0.869  0.00  0.00     0.000 A 
ATOM     30  C   UNL d   1       1.908   6.516  -1.885  0.00  0.00     0.001 A 
ATOM     31  C   UNL d   1       0.943   5.556  -1.577  0.00  0.00     0.009 A 
ENDBRANCH  13  26
ENDBRANCH  12  13
ENDBRANCH   1  12
TORSDOF 5
