REMARK  3 active torsions:
REMARK  status: ('A' for Active; 'I' for Inactive)
REMARK    1  A    between atoms: C_9  and  C_4 
REMARK    2  A    between atoms: C_11  and  C_9 
REMARK    3  A    between atoms: O_17  and  C_12 
ROOT
ATOM      1  N   UNL d   1      -1.457  -0.235   2.025  0.00  0.00    -0.344 N 
ATOM      2  HN  UNL d   1      -2.294  -0.410   2.581  1.00  0.00     0.167 HD
ATOM      3  C   UNL d   1      -0.296   0.212  -0.100  0.00  0.00     0.282 A 
ATOM      4  C   UNL d   1      -1.529  -0.030   0.741  0.00  0.00     0.085 A 
ATOM      5  N   UNL d   1       0.859   0.213   0.630  0.00  0.00    -0.264 N 
ATOM      6  N   UNL d   1       0.904   0.004   1.972  0.00  0.00    -0.286 N 
ATOM      7  HN  UNL d   1       1.793   0.011   2.472  1.00  0.00     0.188 HD
ATOM      8  C   UNL d   1      -0.213  -0.205   2.600  0.00  0.00     0.092 A 
ATOM      9  O   UNL d   1      -0.360   0.369  -1.308  0.00  0.00    -0.265 OA
ATOM     10  C   UNL d   1      -0.186  -0.428   4.087  0.00  0.00     0.090 C 
ATOM     11  H   UNL d   1       1.740   0.370   0.153  0.00  0.00     0.190 HD
ENDROOT
BRANCH   4  12
ATOM     12  C   UNL d   1      -2.859   0.017   0.031  0.00  0.00     0.101 C 
BRANCH  12  13
ATOM     13  C   UNL d   1      -3.418   1.418   0.004  0.00  0.00    -0.052 A 
ATOM     14  C   UNL d   1      -3.087   2.299  -1.034  0.00  0.00     0.010 A 
ATOM     15  C   UNL d   1      -3.548   3.619  -1.024  0.00  0.00     0.037 A 
ATOM     16  C   UNL d   1      -4.346   4.073   0.025  0.00  0.00     0.068 A 
ATOM     17  C   UNL d   1      -4.702   3.192   1.047  0.00  0.00     0.037 A 
ATOM     18  C   UNL d   1      -4.231   1.877   1.046  0.00  0.00     0.010 A 
BRANCH  16  19
ATOM     19  O   UNL d   1      -4.867   5.334   0.129  0.00  0.00    -0.356 OA
ATOM     20  C   UNL d   1      -4.083   6.370  -0.454  0.00  0.00     0.210 C 
ENDBRANCH  16  19
ENDBRANCH  12  13
ENDBRANCH   4  12
TORSDOF 3
