REMARK  4 active torsions:
REMARK  status: ('A' for Active; 'I' for Inactive)
REMARK    1  A    between atoms: C_3  and  C_1 
REMARK    2  A    between atoms: C_4  and  C_2 
REMARK    3  A    between atoms: O_14  and  C_3 
REMARK    4  A    between atoms: O_13  and  C_4 
ROOT
ATOM      1  C   UNL d   1       0.779   1.447  -0.291  0.00  0.00     0.102 C 
ATOM      2  C   UNL d   1      -0.781   1.441  -0.323  0.00  0.00     0.102 C 
ATOM      3  C   UNL d   1      -1.303   0.010  -0.031  0.00  0.00     0.001 C 
ATOM      4  C   UNL d   1       1.301   0.022   0.025  0.00  0.00     0.001 C 
ATOM      5  C   UNL d   1       0.799  -0.926  -1.077  0.00  0.00     0.006 C 
ATOM      6  C   UNL d   1      -0.733  -1.000  -1.050  0.00  0.00     0.006 C 
ATOM      7  C   UNL d   1      -0.801  -0.403   1.364  0.00  0.00     0.006 C 
ATOM      8  C   UNL d   1       0.732  -0.481   1.369  0.00  0.00     0.006 C 
ENDROOT
BRANCH   1   9
ATOM      9  C   UNL d   1       1.323   2.427   0.737  0.00  0.00     0.145 C 
ATOM     10  O   UNL d   1       0.728   2.762   1.752  0.00  0.00    -0.650 OA
BRANCH   9  11
ATOM     11  O   UNL d   1       2.563   2.882   0.459  0.00  0.00    -0.776 OA
ATOM     12  H   UNL d   1       2.948   2.568  -0.382  0.00  0.00     0.167 HD
ENDBRANCH   9  11
ENDBRANCH   1   9
BRANCH   2  13
ATOM     13  C   UNL d   1      -1.324   1.920  -1.659  0.00  0.00     0.145 C 
ATOM     14  O   UNL d   1      -0.725   1.819  -2.723  0.00  0.00    -0.650 OA
BRANCH  13  15
ATOM     15  O   UNL d   1      -2.567   2.443  -1.593  0.00  0.00    -0.776 OA
ATOM     16  H   UNL d   1      -2.954   2.490  -0.697  0.00  0.00     0.167 HD
ENDBRANCH  13  15
ENDBRANCH   2  13
TORSDOF 4
