REMARK  5 active torsions:
REMARK  status: ('A' for Active; 'I' for Inactive)
REMARK    1  A    between atoms: C_3  and  N_1 
REMARK    2  A    between atoms: C_2  and  C_10 
REMARK       I    between atoms: N_5  and  C_2 
REMARK    3  A    between atoms: C_11  and  N_5 
REMARK    4  A    between atoms: C_10  and  C_12 
REMARK    5  A    between atoms: O_20  and  C_13 
ROOT
ATOM      1  C   UNL d   1      -1.328   5.845   0.708  0.00  0.00     0.226 C 
ATOM      2  N   UNL d   1      -0.427   5.712  -0.338  0.00  0.00    -0.327 N 
ATOM      3  O   UNL d   1      -1.689   6.902   1.222  0.00  0.00    -0.273 OA
ATOM      4  H   UNL d   1      -0.333   4.792  -0.752  0.00  0.00     0.169 HD
ENDROOT
BRANCH   1   5
ATOM      5  C   UNL d   1      -1.905   4.521   1.182  0.00  0.00     0.141 C 
BRANCH   5   6
ATOM      6  C   UNL d   1      -3.341   4.232   0.790  0.00  0.00    -0.049 A 
ATOM      7  C   UNL d   1      -4.092   5.048  -0.071  0.00  0.00     0.010 A 
ATOM      8  C   UNL d   1      -5.401   4.699  -0.427  0.00  0.00     0.036 A 
ATOM      9  C   UNL d   1      -5.966   3.523   0.079  0.00  0.00     0.102 A 
ATOM     10  C   UNL d   1      -5.242   2.708   0.953  0.00  0.00     0.036 A 
ATOM     11  C   UNL d   1      -3.938   3.066   1.303  0.00  0.00     0.010 A 
BRANCH   9  12
ATOM     12  N   UNL d   1      -7.325   3.132  -0.321  0.00  0.00    -0.116 N 
ATOM     13  O   UNL d   1      -7.768   2.061   0.116  0.00  0.00    -0.532 OA
ATOM     14  O   UNL d   1      -7.944   3.891  -1.081  0.00  0.00    -0.532 OA
ENDBRANCH   9  12
ENDBRANCH   5   6
ENDBRANCH   1   5
BRANCH   2  15
ATOM     15  C   UNL d   1       0.270   6.751  -0.990  0.00  0.00     0.034 A 
ATOM     16  C   UNL d   1       0.314   8.066  -0.523  0.00  0.00     0.032 A 
ATOM     17  C   UNL d   1       0.960   9.067  -1.259  0.00  0.00     0.039 A 
ATOM     18  C   UNL d   1       1.563   8.766  -2.477  0.00  0.00     0.068 A 
ATOM     19  C   UNL d   1       1.578   7.442  -2.916  0.00  0.00     0.039 A 
ATOM     20  C   UNL d   1       0.941   6.439  -2.176  0.00  0.00     0.032 A 
BRANCH  18  21
ATOM     21  O   UNL d   1       2.162   9.665  -3.315  0.00  0.00    -0.356 OA
ATOM     22  C   UNL d   1       1.915  11.041  -3.047  0.00  0.00     0.210 C 
ENDBRANCH  18  21
ENDBRANCH   2  15
TORSDOF 5
