REMARK  8 active torsions:
REMARK  status: ('A' for Active; 'I' for Inactive)
REMARK    1  A    between atoms: N_2  and  S_1 
REMARK    2  A    between atoms: C_11  and  S_1 
REMARK    3  A    between atoms: C_3  and  N_2 
REMARK    4  A    between atoms: O_26  and  C_4 
REMARK    5  A    between atoms: O_27  and  C_9 
REMARK    6  A    between atoms: O_28  and  C_10 
REMARK    7  A    between atoms: N_14  and  C_25 
REMARK    8  A    between atoms: C_20  and  C_21 
ROOT
ATOM      1  C   UNL d   1       0.409   0.819  -1.373  0.00  0.00     0.075 A 
ATOM      2  C   UNL d   1      -0.345   0.096  -2.303  0.00  0.00     0.027 A 
ATOM      3  C   UNL d   1       0.679   2.170  -1.582  0.00  0.00     0.027 A 
ATOM      4  C   UNL d   1      -0.406   2.034  -3.764  0.00  0.00     0.032 A 
ATOM      5  C   UNL d   1      -0.756   0.703  -3.492  0.00  0.00     0.031 A 
ATOM      6  C   UNL d   1       0.271   2.768  -2.778  0.00  0.00     0.031 A 
ENDROOT
BRANCH   1   7
ATOM      7  S   UNL d   1       0.969   0.008   0.102  0.00  0.00     0.248 S 
ATOM      8  O   UNL d   1       1.158   1.044   1.105  0.00  0.00    -0.205 OA
ATOM      9  O   UNL d   1       0.102  -1.113   0.369  0.00  0.00    -0.205 OA
BRANCH   7  10
ATOM     10  N   UNL d   1       2.507  -0.510  -0.305  0.00  0.00    -0.151 NA
ATOM     11  H   UNL d   1       3.116  -0.467   0.505  0.00  0.00     0.149 HD
BRANCH  10  12
ATOM     12  C   UNL d   1       2.549  -1.754  -0.923  0.00  0.00     0.171 A 
ATOM     13  N   UNL d   1       2.275  -1.810  -2.228  0.00  0.00    -0.336 N 
ATOM     14  C   UNL d   1       2.355  -3.035  -2.788  0.00  0.00     0.009 A 
ATOM     15  HN  UNL d   1       2.023  -0.981  -2.767  1.00  0.00     0.168 HD
ATOM     16  C   UNL d   1       2.123  -3.141  -4.265  0.00  0.00     0.068 C 
ATOM     17  C   UNL d   1       2.653  -4.167  -2.050  0.00  0.00     0.049 A 
ATOM     18  C   UNL d   1       2.901  -3.985  -0.701  0.00  0.00     0.009 A 
ATOM     19  N   UNL d   1       2.879  -2.768  -0.122  0.00  0.00    -0.336 N 
ATOM     20  C   UNL d   1       3.207  -5.164   0.172  0.00  0.00     0.068 C 
ATOM     21  HN  UNL d   1       3.101  -2.632   0.864  1.00  0.00     0.168 HD
ENDBRANCH  10  12
ENDBRANCH   7  10
ENDBRANCH   1   7
BRANCH   4  22
ATOM     22  N   UNL d   1      -0.715   2.694  -4.960  0.00  0.00    -0.365 N 
ATOM     23  C   UNL d   1      -0.755   2.047  -6.082  0.00  0.00     0.100 C 
ATOM     24  HN  UNL d   1      -0.912   3.695  -4.948  1.00  0.00     0.165 HD
BRANCH  23  25
ATOM     25  C   UNL d   1      -1.021   2.757  -7.349  0.00  0.00    -0.015 A 
ATOM     26  C   UNL d   1      -1.085   4.142  -7.347  0.00  0.00     0.052 A 
ATOM     27  C   UNL d   1      -1.359   4.857  -8.520  0.00  0.00     0.105 A 
ATOM     28  C   UNL d   1      -1.589   4.167  -9.738  0.00  0.00     0.135 A 
ATOM     29  C   UNL d   1      -1.524   2.749  -9.727  0.00  0.00     0.105 A 
ATOM     30  C   UNL d   1      -1.224   2.063  -8.533  0.00  0.00     0.052 A 
BRANCH  27  31
ATOM     31  O   UNL d   1      -1.493   6.226  -8.447  0.00  0.00    -0.353 OA
ATOM     32  C   UNL d   1      -0.616   6.877  -7.522  0.00  0.00     0.210 C 
ENDBRANCH  27  31
BRANCH  28  33
ATOM     33  O   UNL d   1      -1.879   4.750 -10.941  0.00  0.00    -0.351 OA
ATOM     34  C   UNL d   1      -1.736   6.147 -11.154  0.00  0.00     0.210 C 
ENDBRANCH  28  33
BRANCH  29  35
ATOM     35  O   UNL d   1      -1.736   1.843 -10.733  0.00  0.00    -0.353 OA
ATOM     36  C   UNL d   1      -2.039   2.212 -12.065  0.00  0.00     0.210 C 
ENDBRANCH  29  35
ENDBRANCH  23  25
ENDBRANCH   4  22
TORSDOF 8
