REMARK  4 active torsions:
REMARK  status: ('A' for Active; 'I' for Inactive)
REMARK    1  A    between atoms: C_7  and  N_1 
REMARK    2  A    between atoms: C_9  and  C_2 
REMARK    3  A    between atoms: C_10  and  C_5 
REMARK    4  A    between atoms: O_12  and  C_6 
ROOT
ATOM      1  N   UNL d   1      -0.654   1.229   0.013  0.00  0.00    -0.276 N 
ATOM      2  C   UNL d   1      -0.671  -1.248   0.015  0.00  0.00     0.078 A 
ATOM      3  C   UNL d   1      -1.427   0.051   0.026  0.00  0.00     0.266 A 
ATOM      4  C   UNL d   1       1.409   0.027   0.028  0.00  0.00     0.096 A 
ATOM      5  C   UNL d   1       0.749   1.203   0.026  0.00  0.00     0.077 A 
ATOM      6  C   UNL d   1       0.672  -1.223   0.008  0.00  0.00     0.106 A 
ATOM      7  O   UNL d   1      -2.658   0.034   0.043  0.00  0.00    -0.267 OA
ATOM      8 CL   UNL d   1       3.148  -0.085   0.056  0.00  0.00    -0.079 Cl
ENDROOT
BRANCH   1   9
ATOM      9  C   UNL d   1      -1.387   2.452  -0.003  0.00  0.00     0.043 A 
ATOM     10  C   UNL d   1      -1.742   3.069   1.201  0.00  0.00     0.030 A 
ATOM     11  C   UNL d   1      -2.493   4.246   1.183  0.00  0.00     0.002 A 
ATOM     12  C   UNL d   1      -2.892   4.802  -0.033  0.00  0.00     0.000 A 
ATOM     13  C   UNL d   1      -2.544   4.183  -1.234  0.00  0.00     0.002 A 
ATOM     14  C   UNL d   1      -1.794   3.005  -1.221  0.00  0.00     0.030 A 
ENDBRANCH   1   9
BRANCH   5  15
ATOM     15  C   UNL d   1       1.509   2.475   0.047  0.00  0.00    -0.007 A 
ATOM     16  C   UNL d   1       1.935   3.071  -1.149  0.00  0.00     0.014 A 
ATOM     17  C   UNL d   1       2.733   4.216  -1.119  0.00  0.00     0.001 A 
ATOM     18  C   UNL d   1       3.110   4.774   0.102  0.00  0.00     0.000 A 
ATOM     19  C   UNL d   1       2.683   4.194   1.295  0.00  0.00     0.001 A 
ATOM     20  C   UNL d   1       1.887   3.048   1.270  0.00  0.00     0.014 A 
ENDBRANCH   5  15
BRANCH   2  21
ATOM     21  C   UNL d   1      -1.396  -2.532   0.007  0.00  0.00    -0.018 A 
ATOM     22  C   UNL d   1      -1.728  -3.166   1.212  0.00  0.00     0.012 A 
ATOM     23  C   UNL d   1      -2.377  -4.403   1.201  0.00  0.00     0.001 A 
ATOM     24  C   UNL d   1      -2.700  -5.013  -0.011  0.00  0.00     0.000 A 
ATOM     25  C   UNL d   1      -2.377  -4.386  -1.213  0.00  0.00     0.001 A 
ATOM     26  C   UNL d   1      -1.727  -3.150  -1.206  0.00  0.00     0.012 A 
ENDBRANCH   2  21
BRANCH   6  27
ATOM     27  O   UNL d   1       1.416  -2.394  -0.020  0.00  0.00    -0.358 OA
ATOM     28  H   UNL d   1       2.361  -2.156  -0.040  0.00  0.00     0.217 HD
ENDBRANCH   6  27
TORSDOF 4
