REMARK  5 active torsions:
REMARK  status: ('A' for Active; 'I' for Inactive)
REMARK    1  A    between atoms: C_9  and  C_1 
REMARK       I    between atoms: C_8  and  N_2 
REMARK    2  A    between atoms: C_7  and  C_3 
REMARK    3  A    between atoms: O_13  and  C_7 
REMARK    4  A    between atoms: O_12  and  C_9 
REMARK    5  A    between atoms: C_15  and  O_12 
ROOT
ATOM      1  C   UNL d   1      -0.351  -1.244   0.075  0.00  0.00     0.080 A 
ATOM      2  N   UNL d   1       0.918  -0.666   0.095  0.00  0.00    -0.225 N 
ATOM      3  C   UNL d   1      -1.265  -0.183   0.090  0.00  0.00     0.089 A 
ATOM      4  N   UNL d   1       0.843   0.689   0.064  0.00  0.00    -0.295 N 
ATOM      5  HN  UNL d   1       1.622   1.346   0.039  1.00  0.00     0.187 HD
ATOM      6  C   UNL d   1      -0.454   0.984   0.074  0.00  0.00     0.041 A 
ATOM      7  C   UNL d   1       2.201  -1.257   0.102  0.00  0.00     0.238 C 
ATOM      8  O   UNL d   1       2.330  -2.477   0.074  0.00  0.00    -0.272 OA
ATOM      9  C   UNL d   1      -0.829   2.425   0.041  0.00  0.00     0.071 C 
ATOM     10  C   UNL d   1       3.349  -0.282   0.062  0.00  0.00     0.119 C 
ENDROOT
BRANCH   1  11
ATOM     11  C   UNL d   1      -0.569  -2.727   0.006  0.00  0.00     0.236 C 
BRANCH  11  12
ATOM     12  O   UNL d   1      -0.674  -3.209   1.345  0.00  0.00    -0.345 OA
BRANCH  12  13
ATOM     13  C   UNL d   1      -0.969  -4.542   1.503  0.00  0.00     0.069 A 
ATOM     14  C   UNL d   1      -1.249  -5.452   0.481  0.00  0.00     0.037 A 
ATOM     15  C   UNL d   1      -1.557  -6.787   0.782  0.00  0.00     0.003 A 
ATOM     16  C   UNL d   1      -1.579  -7.223   2.105  0.00  0.00     0.000 A 
ATOM     17  C   UNL d   1      -1.292  -6.324   3.131  0.00  0.00     0.003 A 
ATOM     18  C   UNL d   1      -0.992  -4.992   2.828  0.00  0.00     0.037 A 
ENDBRANCH  12  13
ENDBRANCH  11  12
ENDBRANCH   1  11
BRANCH   3  19
ATOM     19  C   UNL d   1      -2.725  -0.210   0.086  0.00  0.00     0.297 C 
ATOM     20  O   UNL d   1      -3.409   0.807   0.072  0.00  0.00    -0.259 OA
BRANCH  19  21
ATOM     21  O   UNL d   1      -3.260  -1.464   0.075  0.00  0.00    -0.322 OA
ATOM     22  C   UNL d   1      -4.688  -1.471   0.034  0.00  0.00     0.213 C 
ENDBRANCH  19  21
ENDBRANCH   3  19
TORSDOF 5
