REMARK  5 active torsions:
REMARK  status: ('A' for Active; 'I' for Inactive)
REMARK    1  A    between atoms: N_2  and  C_1 
REMARK    2  A    between atoms: N_3  and  C_1 
REMARK    3  A    between atoms: C_4  and  N_2 
REMARK    4  A    between atoms: C_5  and  N_3 
REMARK    5  A    between atoms: N_11  and  C_9 
ROOT
ATOM      1  C   UNL d   1       1.047   0.177   0.072  0.00  0.00     0.176 C 
ATOM      2  S   UNL d   1       2.412  -0.302  -0.763  0.00  0.00    -0.041 SA
ENDROOT
BRANCH   1   3
ATOM      3  N   UNL d   1       0.611  -0.298   1.286  0.00  0.00    -0.333 N 
ATOM      4  H   UNL d   1      -0.378  -0.522   1.255  0.00  0.00     0.168 HD
BRANCH   3   5
ATOM      5  C   UNL d   1       1.314  -0.817   2.386  0.00  0.00     0.040 A 
ATOM      6  C   UNL d   1       2.503  -0.285   2.907  0.00  0.00    -0.035 A 
ATOM      7  C   UNL d   1       3.075  -0.901   4.039  0.00  0.00     0.015 A 
ATOM      8  C   UNL d   1       3.177   0.968   2.420  0.00  0.00     0.050 C 
ATOM      9  C   UNL d   1       2.455  -1.979   4.686  0.00  0.00    -0.061 A 
ATOM     10  C   UNL d   1       1.236  -2.444   4.201  0.00  0.00     0.009 A 
ATOM     11  C   UNL d   1       3.103  -2.608   5.882  0.00  0.00     0.048 C 
ATOM     12  C   UNL d   1       0.669  -1.862   3.068  0.00  0.00     0.030 A 
ENDBRANCH   3   5
ENDBRANCH   1   3
BRANCH   1  13
ATOM     13  N   UNL d   1       0.133   1.000  -0.554  0.00  0.00    -0.332 N 
ATOM     14  H   UNL d   1       0.223   1.079  -1.556  0.00  0.00     0.168 HD
BRANCH  13  15
ATOM     15  C   UNL d   1      -0.801   1.861   0.082  0.00  0.00     0.055 A 
ATOM     16  C   UNL d   1      -1.962   2.262  -0.602  0.00  0.00     0.033 A 
ATOM     17  C   UNL d   1      -2.881   3.079   0.074  0.00  0.00     0.025 A 
ATOM     18  C   UNL d   1      -2.614   3.572   1.354  0.00  0.00     0.002 A 
ATOM     19  C   UNL d   1      -1.436   3.224   1.998  0.00  0.00     0.002 A 
ATOM     20  C   UNL d   1      -0.539   2.367   1.365  0.00  0.00     0.031 A 
BRANCH  16  21
ATOM     21  N   UNL d   1      -2.368   1.654  -1.804  0.00  0.00    -0.301 NA
ATOM     22  H   UNL d   1      -1.620   1.284  -2.376  0.00  0.00     0.124 HD
ATOM     23  H   UNL d   1      -3.035   2.201  -2.337  0.00  0.00     0.124 HD
ENDBRANCH  16  21
ENDBRANCH  13  15
ENDBRANCH   1  13
TORSDOF 5
