REMARK  3 active torsions:
REMARK  status: ('A' for Active; 'I' for Inactive)
REMARK    1  A    between atoms: N_2  and  C_1 
REMARK    2  A    between atoms: N_5  and  C_3 
REMARK       I    between atoms: C_8  and  N_5 
REMARK    3  A    between atoms: C_10  and  C_6 
ROOT
ATOM      1  C   UNL d   1       1.485  -0.217   0.089  0.00  0.00     0.130 A 
ATOM      2  C   UNL d   1       0.684  -1.365   0.022  0.00  0.00     0.068 A 
ATOM      3  C   UNL d   1       0.915   1.070   0.151  0.00  0.00     0.046 A 
ATOM      4  C   UNL d   1      -0.481   1.245   0.163  0.00  0.00    -0.048 A 
ATOM      5  C   UNL d   1      -0.701  -1.194   0.040  0.00  0.00     0.032 A 
ATOM      6  C   UNL d   1      -1.271   0.085   0.091  0.00  0.00     0.010 A 
ENDROOT
BRANCH   2   7
ATOM      7  N   UNL d   1       1.143  -2.698  -0.055  0.00  0.00    -0.325 N 
ATOM      8  C   UNL d   1       2.164  -3.099  -0.900  0.00  0.00     0.218 C 
ATOM      9  O   UNL d   1       2.748  -2.359  -1.685  0.00  0.00    -0.274 OA
ATOM     10  C   UNL d   1       2.487  -4.566  -0.805  0.00  0.00     0.117 C 
ATOM     11  H   UNL d   1       0.499  -3.426   0.231  0.00  0.00     0.169 HD
ENDBRANCH   2   7
BRANCH   1  12
ATOM     12  N   UNL d   1       2.912  -0.305   0.354  0.00  0.00    -0.113 N 
ATOM     13  O   UNL d   1       3.257  -0.945   1.357  0.00  0.00    -0.532 OA
ATOM     14  O   UNL d   1       3.667   0.360  -0.370  0.00  0.00    -0.532 OA
ENDBRANCH   1  12
BRANCH   4  15
ATOM     15  C   UNL d   1      -1.087   2.647   0.331  0.00  0.00    -0.024 C 
ATOM     16  C   UNL d   1      -0.611   3.587  -0.794  0.00  0.00     0.019 C 
ATOM     17  C   UNL d   1      -2.634   2.663   0.314  0.00  0.00     0.019 C 
ATOM     18  C   UNL d   1      -0.645   3.223   1.694  0.00  0.00     0.019 C 
ENDBRANCH   4  15
TORSDOF 3
