REMARK  5 active torsions:
REMARK  status: ('A' for Active; 'I' for Inactive)
REMARK    1  A    between atoms: C_6  and  C_1 
REMARK    2  A    between atoms: C_11  and  C_5 
REMARK       I    between atoms: N_8  and  C_6 
REMARK    3  A    between atoms: C_9  and  C_14 
REMARK    4  A    between atoms: O_18  and  C_9 
REMARK    5  A    between atoms: C_22  and  O_18 
ROOT
ATOM      1  C   UNL d   1      -0.423  -1.399   0.725  0.00  0.00     0.097 C 
ATOM      2  S   UNL d   1       0.824  -0.366   1.287  0.00  0.00    -0.064 SA
ATOM      3  N   UNL d   1      -1.568   0.209   1.980  0.00  0.00    -0.352 N 
ATOM      4  HN  UNL d   1      -2.374   0.653   2.421  1.00  0.00     0.166 HD
ATOM      5  C   UNL d   1      -0.313   0.546   2.198  0.00  0.00     0.085 C 
ATOM      6  C   UNL d   1      -1.644  -0.833   1.065  0.00  0.00     0.029 C 
ATOM      7  C   UNL d   1      -2.988  -1.227   0.563  0.00  0.00     0.070 C 
ENDROOT
BRANCH   1   8
ATOM      8  C   UNL d   1      -0.173  -2.534  -0.152  0.00  0.00     0.262 C 
ATOM      9  N   UNL d   1       0.866  -3.444   0.132  0.00  0.00    -0.347 N 
ATOM     10  C   UNL d   1       1.236  -4.415  -0.900  0.00  0.00     0.127 C 
ATOM     11  C   UNL d   1       1.718  -3.434   1.324  0.00  0.00     0.127 C 
ATOM     12  C   UNL d   1       1.404  -5.819  -0.323  0.00  0.00     0.034 C 
ATOM     13  C   UNL d   1       2.365  -5.838   0.871  0.00  0.00     0.088 C 
ATOM     14  C   UNL d   1       1.880  -4.832   1.917  0.00  0.00     0.034 C 
ATOM     15  O   UNL d   1      -0.897  -2.725  -1.132  0.00  0.00    -0.267 OA
BRANCH  13  16
ATOM     16  C   UNL d   1       3.817  -5.548   0.510  0.00  0.00     0.263 C 
ATOM     17  O   UNL d   1       4.598  -4.966   1.246  0.00  0.00    -0.265 OA
BRANCH  16  18
ATOM     18  O   UNL d   1       4.143  -6.076  -0.701  0.00  0.00    -0.322 OA
BRANCH  18  19
ATOM     19  C   UNL d   1       5.510  -5.897  -1.101  0.00  0.00     0.174 C 
ATOM     20  C   UNL d   1       6.374  -6.987  -0.493  0.00  0.00     0.034 C 
ENDBRANCH  18  19
ENDBRANCH  16  18
ENDBRANCH  13  16
ENDBRANCH   1   8
BRANCH   5  21
ATOM     21  C   UNL d   1       0.116   1.625   3.109  0.00  0.00    -0.002 A 
ATOM     22  C   UNL d   1       1.381   2.230   3.026  0.00  0.00     0.014 A 
ATOM     23  C   UNL d   1       1.732   3.289   3.868  0.00  0.00     0.001 A 
ATOM     24  C   UNL d   1       0.826   3.756   4.814  0.00  0.00     0.000 A 
ATOM     25  C   UNL d   1      -0.426   3.158   4.929  0.00  0.00     0.001 A 
ATOM     26  C   UNL d   1      -0.777   2.100   4.084  0.00  0.00     0.014 A 
ENDBRANCH   5  21
TORSDOF 5
