REMARK  5 active torsions:
REMARK  status: ('A' for Active; 'I' for Inactive)
REMARK    1  A    between atoms: N_2  and  C_1 
REMARK    2  A    between atoms: N_6  and  C_1 
REMARK    3  A    between atoms: C_5  and  N_2 
REMARK    4  A    between atoms: C_3  and  C_5 
REMARK    5  A    between atoms: C_10  and  N_6 
ROOT
ATOM      1  N   UNL d   1       0.604   0.910  -0.752  0.00  0.00    -0.359 N 
ATOM      2  H   UNL d   1       0.242  -0.024  -0.912  0.00  0.00     0.162 HD
ENDROOT
BRANCH   1   3
ATOM      3  C   UNL d   1       0.458   1.300   0.546  0.00  0.00     0.172 C 
ATOM      4  S   UNL d   1      -0.213   0.151   1.561  0.00  0.00    -0.041 SA
BRANCH   3   5
ATOM      5  N   UNL d   1       0.924   2.549   0.863  0.00  0.00    -0.333 N 
ATOM      6  H   UNL d   1       1.676   2.869   0.271  0.00  0.00     0.168 HD
BRANCH   5   7
ATOM      7  C   UNL d   1       0.717   3.342   2.016  0.00  0.00     0.034 A 
ATOM      8  C   UNL d   1       1.655   4.351   2.276  0.00  0.00     0.031 A 
ATOM      9  C   UNL d   1       1.511   5.197   3.383  0.00  0.00     0.026 A 
ATOM     10  C   UNL d   1       0.415   5.046   4.227  0.00  0.00     0.034 A 
ATOM     11  C   UNL d   1      -0.533   4.066   3.970  0.00  0.00     0.026 A 
ATOM     12 CL   UNL d   1       0.226   6.091   5.581  0.00  0.00    -0.084 Cl
ATOM     13  C   UNL d   1      -0.387   3.221   2.862  0.00  0.00     0.031 A 
ENDBRANCH   5   7
ENDBRANCH   3   5
ENDBRANCH   1   3
BRANCH   1  14
ATOM     14  C   UNL d   1       1.099   1.607  -1.939  0.00  0.00     0.113 C 
ATOM     15  C   UNL d   1      -0.027   2.336  -2.679  0.00  0.00     0.037 C 
BRANCH  14  16
ATOM     16  C   UNL d   1       1.820   0.608  -2.835  0.00  0.00    -0.030 A 
ATOM     17  C   UNL d   1       3.217   0.641  -3.040  0.00  0.00    -0.053 A 
ATOM     18  C   UNL d   1       3.809  -0.302  -3.903  0.00  0.00     0.014 A 
ATOM     19  C   UNL d   1       4.117   1.676  -2.422  0.00  0.00     0.049 C 
ATOM     20  C   UNL d   1       3.058  -1.308  -4.522  0.00  0.00    -0.061 A 
ATOM     21  C   UNL d   1       1.688  -1.369  -4.280  0.00  0.00     0.007 A 
ATOM     22  C   UNL d   1       3.728  -2.288  -5.437  0.00  0.00     0.048 C 
ATOM     23  C   UNL d   1       1.079  -0.424  -3.452  0.00  0.00     0.010 A 
ENDBRANCH  14  16
ENDBRANCH   1  14
TORSDOF 5
