REMARK  2 active torsions:
REMARK  status: ('A' for Active; 'I' for Inactive)
REMARK    1  A    between atoms: C_2  and  C_1 
REMARK       I    between atoms: N_5  and  C_2 
REMARK    2  A    between atoms: C_10  and  N_5 
ROOT
ATOM      1  C   UNL d   1      -0.705   2.346  -0.128  0.00  0.00     0.290 C 
ATOM      2  N   UNL d   1       0.263   3.308   0.080  0.00  0.00    -0.320 N 
ATOM      3  O   UNL d   1      -0.510   1.176  -0.447  0.00  0.00    -0.264 OA
ATOM      4  H   UNL d   1      -0.099   4.192   0.430  0.00  0.00     0.169 HD
ENDROOT
BRANCH   1   5
ATOM      5  C   UNL d   1      -2.048   2.844   0.110  0.00  0.00     0.174 A 
ATOM      6  N   UNL d   1      -2.364   4.102   0.368  0.00  0.00    -0.346 N 
ATOM      7  C   UNL d   1      -3.733   4.114   0.487  0.00  0.00     0.107 A 
ATOM      8  HN  UNL d   1      -1.727   4.894   0.459  1.00  0.00     0.167 HD
ATOM      9  C   UNL d   1      -4.250   2.850   0.331  0.00  0.00     0.107 A 
ATOM     10  N   UNL d   1      -3.168   2.051   0.094  0.00  0.00    -0.346 N 
ATOM     11  H   UNL d   1      -3.158   1.052  -0.070  0.00  0.00     0.167 HD
ENDBRANCH   1   5
BRANCH   2  12
ATOM     12  C   UNL d   1       1.655   3.172  -0.066  0.00  0.00     0.035 A 
ATOM     13  C   UNL d   1       2.264   2.072  -0.674  0.00  0.00     0.029 A 
ATOM     14  C   UNL d   1       3.656   1.996  -0.778  0.00  0.00     0.002 A 
ATOM     15  C   UNL d   1       4.452   3.017  -0.268  0.00  0.00     0.000 A 
ATOM     16  C   UNL d   1       3.856   4.124   0.331  0.00  0.00     0.002 A 
ATOM     17  C   UNL d   1       2.463   4.206   0.422  0.00  0.00     0.029 A 
ENDBRANCH   2  12
TORSDOF 2
