REMARK  4 active torsions:
REMARK  status: ('A' for Active; 'I' for Inactive)
REMARK    1  A    between atoms: C_8  and  N_1 
REMARK    2  A    between atoms: O_7  and  C_4 
REMARK    3  A    between atoms: C_10  and  O_7 
REMARK    4  A    between atoms: C_14  and  C_8 
ROOT
ATOM      1  N   UNL d   1       0.663   1.328  -0.306  0.00  0.00    -0.340 N 
ATOM      2  C   UNL d   1      -0.727   1.318  -0.399  0.00  0.00     0.224 C 
ATOM      3  C   UNL d   1       1.293   0.054   0.050  0.00  0.00     0.117 C 
ATOM      4  C   UNL d   1       0.870  -0.997  -1.014  0.00  0.00     0.155 C 
ATOM      5  C   UNL d   1      -1.275  -0.066  -0.051  0.00  0.00     0.080 C 
ATOM      6  C   UNL d   1      -0.676  -1.061  -1.061  0.00  0.00     0.048 C 
ATOM      7  C   UNL d   1       0.745  -0.371   1.425  0.00  0.00     0.029 C 
ATOM      8  O   UNL d   1      -1.426   2.258  -0.751  0.00  0.00    -0.273 OA
ATOM      9  C   UNL d   1      -0.791  -0.423   1.365  0.00  0.00     0.016 C 
ENDROOT
BRANCH   1  10
ATOM     10  C   UNL d   1       1.454   2.500  -0.641  0.00  0.00     0.165 C 
BRANCH  10  11
ATOM     11  C   UNL d   1       1.652   3.427   0.533  0.00  0.00    -0.040 A 
ATOM     12  C   UNL d   1       2.720   3.251   1.424  0.00  0.00     0.009 A 
ATOM     13  C   UNL d   1       2.907   4.132   2.493  0.00  0.00     0.001 A 
ATOM     14  C   UNL d   1       2.027   5.197   2.683  0.00  0.00     0.000 A 
ATOM     15  C   UNL d   1       0.955   5.376   1.811  0.00  0.00     0.001 A 
ATOM     16  C   UNL d   1       0.765   4.494   0.747  0.00  0.00     0.009 A 
ENDBRANCH  10  11
ENDBRANCH   1  10
BRANCH   4  17
ATOM     17  O   UNL d   1       1.358  -2.313  -0.699  0.00  0.00    -0.314 OA
BRANCH  17  18
ATOM     18  C   UNL d   1       2.668  -2.537  -0.987  0.00  0.00     0.255 C 
ATOM     19  O   UNL d   1       3.435  -1.713  -1.464  0.00  0.00    -0.266 OA
ATOM     20  C   UNL d   1       3.063  -3.930  -0.602  0.00  0.00     0.126 C 
ENDBRANCH  17  18
ENDBRANCH   4  17
TORSDOF 4
