REMARK  4 active torsions:
REMARK  status: ('A' for Active; 'I' for Inactive)
REMARK       I    between atoms: N_6  and  C_1 
REMARK       I    between atoms: N_7  and  C_1 
REMARK    1  A    between atoms: N_2  and  N_7 
REMARK    2  A    between atoms: N_4  and  N_6 
REMARK    3  A    between atoms: C_15  and  C_13 
REMARK    4  A    between atoms: C_16  and  C_14 
ROOT
ATOM      1  C   UNL d   1       1.051  -0.005  -0.038  0.00  0.00     0.353 C 
ATOM      2  N   UNL d   1       0.381  -0.926   0.771  0.00  0.00    -0.251 N 
ATOM      3  N   UNL d   1       0.146   0.776  -0.760  0.00  0.00    -0.251 N 
ATOM      4  O   UNL d   1       2.272   0.104  -0.104  0.00  0.00    -0.244 OA
ATOM      5  H   UNL d   1      -0.626  -0.965   0.771  0.00  0.00     0.191 HD
ATOM      6  H   UNL d   1      -0.847   0.634  -0.651  0.00  0.00     0.191 HD
ENDROOT
BRANCH   2   7
ATOM      7  N   UNL d   1       1.085  -1.793   1.556  0.00  0.00    -0.307 N 
ATOM      8  C   UNL d   1       0.379  -2.610   2.269  0.00  0.00     0.120 C 
ATOM      9  HN  UNL d   1       2.104  -1.796   1.579  1.00  0.00     0.186 HD
BRANCH   8  10
ATOM     10  C   UNL d   1       1.011  -3.599   3.157  0.00  0.00    -0.004 A 
ATOM     11  C   UNL d   1       0.214  -4.454   3.905  0.00  0.00     0.100 A 
ATOM     12  N   UNL d   1       0.706  -5.394   4.747  0.00  0.00    -0.374 N 
ATOM     13  C   UNL d   1       2.053  -5.478   4.841  0.00  0.00     0.087 A 
ATOM     14  HN  UNL d   1       0.092  -6.007   5.284  1.00  0.00     0.164 HD
ATOM     15  C   UNL d   1       2.928  -4.668   4.132  0.00  0.00     0.018 A 
ATOM     16  C   UNL d   1       2.395  -3.709   3.274  0.00  0.00     0.015 A 
ENDBRANCH   8  10
ENDBRANCH   2   7
BRANCH   3  17
ATOM     17  N   UNL d   1       0.594   1.741  -1.616  0.00  0.00    -0.307 N 
ATOM     18  C   UNL d   1      -0.323   2.415  -2.232  0.00  0.00     0.120 C 
ATOM     19  HN  UNL d   1       1.588   1.918  -1.761  1.00  0.00     0.186 HD
BRANCH  18  20
ATOM     20  C   UNL d   1       0.013   3.487  -3.183  0.00  0.00    -0.004 A 
ATOM     21  C   UNL d   1      -1.009   4.185  -3.811  0.00  0.00     0.100 A 
ATOM     22  N   UNL d   1      -0.801   5.189  -4.695  0.00  0.00    -0.374 N 
ATOM     23  C   UNL d   1       0.487   5.504  -4.960  0.00  0.00     0.087 A 
ATOM     24  HN  UNL d   1      -1.576   5.682  -5.139  1.00  0.00     0.164 HD
ATOM     25  C   UNL d   1       1.573   4.862  -4.384  0.00  0.00     0.018 A 
ATOM     26  C   UNL d   1       1.330   3.832  -3.478  0.00  0.00     0.015 A 
ENDBRANCH  18  20
ENDBRANCH   3  17
TORSDOF 4
