REMARK  0 active torsions:
REMARK  status: ('A' for Active; 'I' for Inactive)
ROOT
ATOM      1  N   UNL d   1       1.010   0.602   0.375  0.00  0.00    -0.306 N 
ATOM      2  HN  UNL d   1       1.836   1.199   0.403  1.00  0.00     0.186 HD
ATOM      3  C   UNL d   1       0.970  -0.669   0.101  0.00  0.00     0.044 C 
ATOM      4  C   UNL d   1       2.173  -1.442  -0.110  0.00  0.00     0.030 A 
ATOM      5  S   UNL d   1       2.110  -3.124  -0.434  0.00  0.00    -0.076 SA
ATOM      6  C   UNL d   1       3.796  -3.235  -0.488  0.00  0.00     0.075 A 
ATOM      7  N   UNL d   1      -0.273   0.971   0.615  0.00  0.00    -0.332 N 
ATOM      8  C   UNL d   1       3.483  -0.994  -0.062  0.00  0.00     0.023 A 
ATOM      9  C   UNL d   1       4.429  -2.039  -0.278  0.00  0.00     0.033 A 
ATOM     10  C   UNL d   1      -0.416  -1.250   0.068  0.00  0.00     0.081 C 
ATOM     11  C   UNL d   1      -1.231   0.029   0.048  0.00  0.00     0.148 C 
ATOM     12 CL   UNL d   1       4.542  -4.754  -0.779  0.00  0.00    -0.076 Cl
ATOM     13  C   UNL d   1      -0.647   2.365   0.429  0.00  0.00     0.170 C 
ENDROOT
TORSDOF 0
