REMARK  3 active torsions:
REMARK  status: ('A' for Active; 'I' for Inactive)
REMARK    1  A    between atoms: N_2  and  C_1 
REMARK       I    between atoms: C_3  and  N_2 
REMARK    2  A    between atoms: C_7  and  C_3 
REMARK    3  A    between atoms: C_11  and  C_7 
ROOT
ATOM      1  N   UNL d   1       0.142  -2.455   0.261  0.00  0.00    -0.307 N 
ATOM      2  C   UNL d   1       1.046  -3.442  -0.028  0.00  0.00     0.230 C 
ATOM      3  O   UNL d   1       0.782  -4.624  -0.245  0.00  0.00    -0.273 OA
ATOM      4  H   UNL d   1       0.457  -1.501   0.422  0.00  0.00     0.171 HD
ENDROOT
BRANCH   1   5
ATOM      5  C   UNL d   1      -1.201  -2.682   0.358  0.00  0.00     0.150 A 
ATOM      6  N   UNL d   1      -1.873  -3.791   0.184  0.00  0.00    -0.346 N 
ATOM      7  C   UNL d   1      -3.214  -3.554   0.408  0.00  0.00     0.097 A 
ATOM      8  HN  UNL d   1      -1.469  -4.691  -0.077  1.00  0.00     0.167 HD
ATOM      9  C   UNL d   1      -3.538  -2.259   0.754  0.00  0.00     0.070 A 
ATOM     10  S   UNL d   1      -2.114  -1.301   0.782  0.00  0.00    -0.064 SA
ENDBRANCH   1   5
BRANCH   2  11
ATOM     11  C   UNL d   1       2.503  -3.031  -0.052  0.00  0.00     0.180 C 
BRANCH  11  12
ATOM     12  C   UNL d   1       2.868  -1.580   0.129  0.00  0.00     0.131 C 
ATOM     13  O   UNL d   1       2.031  -0.702   0.345  0.00  0.00    -0.298 OA
ATOM     14  C   UNL d   1       4.336  -1.248   0.039  0.00  0.00     0.091 C 
ENDBRANCH  11  12
ENDBRANCH   2  11
TORSDOF 3
