REMARK  5 active torsions:
REMARK  status: ('A' for Active; 'I' for Inactive)
REMARK    1  A    between atoms: S_2  and  C_1 
REMARK    2  A    between atoms: C_3  and  C_1 
REMARK    3  A    between atoms: C_4  and  S_2 
REMARK    4  A    between atoms: C_5  and  C_15 
REMARK    5  A    between atoms: C_17  and  C_6 
ROOT
ATOM      1  C   UNL d   1       0.294  -0.525   1.012  0.00  0.00     0.038 A 
ATOM      2  N   UNL d   1      -1.419  -2.068   1.752  0.00  0.00    -0.373 N 
ATOM      3  HN  UNL d   1      -2.190  -2.703   1.541  1.00  0.00     0.164 HD
ATOM      4  C   UNL d   1       0.710  -0.337   2.338  0.00  0.00     0.039 A 
ATOM      5  C   UNL d   1       0.043  -1.005   3.366  0.00  0.00     0.034 A 
ATOM      6  C   UNL d   1      -0.757  -1.404   0.774  0.00  0.00     0.103 A 
ATOM      7  C   UNL d   1      -1.008  -1.847   3.023  0.00  0.00     0.108 A 
ENDROOT
BRANCH   1   8
ATOM      8  C   UNL d   1       0.994   0.190  -0.078  0.00  0.00     0.225 C 
ATOM      9  O   UNL d   1       2.173   0.503   0.035  0.00  0.00    -0.279 OA
BRANCH   8  10
ATOM     10  S   UNL d   1       0.069   0.626  -1.513  0.00  0.00    -0.040 SA
BRANCH  10  11
ATOM     11  C   UNL d   1      -0.444   2.218  -0.973  0.00  0.00     0.049 A 
ATOM     12  S   UNL d   1      -2.098   2.639  -0.859  0.00  0.00    -0.095 SA
ATOM     13  C   UNL d   1      -1.725   4.203  -0.271  0.00  0.00     0.051 A 
ATOM     14  C   UNL d   1      -0.366   4.412  -0.191  0.00  0.00     0.009 A 
ATOM     15  C   UNL d   1       0.375   3.268  -0.612  0.00  0.00     0.027 A 
ENDBRANCH  10  11
ENDBRANCH   8  10
ENDBRANCH   1   8
BRANCH   5  16
ATOM     16  C   UNL d   1       0.412  -0.841   4.737  0.00  0.00    -0.060 C 
ATOM     17  C   UNL d   1       0.667  -0.755   5.910  0.00  0.00    -0.061 C 
BRANCH  17  18
ATOM     18  C   UNL d   1       0.920  -0.705   7.318  0.00  0.00     0.018 A 
ATOM     19  C   UNL d   1       0.917  -1.886   8.067  0.00  0.00     0.020 A 
ATOM     20  C   UNL d   1       1.141  -1.844   9.445  0.00  0.00     0.001 A 
ATOM     21  C   UNL d   1       1.370  -0.623  10.076  0.00  0.00     0.000 A 
ATOM     22  C   UNL d   1       1.375   0.557   9.333  0.00  0.00     0.001 A 
ATOM     23  C   UNL d   1       1.151   0.517   7.953  0.00  0.00     0.020 A 
ENDBRANCH  17  18
ENDBRANCH   5  16
TORSDOF 5
