REMARK  4 active torsions:
REMARK  status: ('A' for Active; 'I' for Inactive)
REMARK    1  A    between atoms: C_6  and  C_1 
REMARK    2  A    between atoms: C_17  and  N_4 
REMARK    3  A    between atoms: C_8  and  C_10 
REMARK       I    between atoms: N_9  and  C_8 
REMARK    4  A    between atoms: O_24  and  C_23 
ROOT
ATOM      1  C   UNL d   1       2.384   0.053  -0.030  0.00  0.00     0.194 A 
ATOM      2  N   UNL d   1       1.656  -1.037  -0.202  0.00  0.00    -0.337 N 
ATOM      3  HN  UNL d   1       1.997  -1.993  -0.306  1.00  0.00     0.167 HD
ATOM      4  N   UNL d   1       1.570   1.180  -0.020  0.00  0.00    -0.323 N 
ATOM      5  C   UNL d   1       0.357  -0.626  -0.213  0.00  0.00     0.061 A 
ATOM      6  C   UNL d   1       0.256   0.748  -0.040  0.00  0.00     0.063 A 
ATOM      7  C   UNL d   1      -2.042  -0.820  -0.180  0.00  0.00     0.034 C 
ATOM      8  C   UNL d   1      -0.791  -1.410  -0.364  0.00  0.00     0.049 C 
ATOM      9  C   UNL d   1      -0.992   1.387   0.032  0.00  0.00     0.033 C 
ATOM     10  C   UNL d   1      -2.135   0.571  -0.020  0.00  0.00     0.019 C 
ENDROOT
BRANCH   7  11
ATOM     11  C   UNL d   1      -3.288  -1.630  -0.227  0.00  0.00     0.253 C 
ATOM     12  N   UNL d   1      -3.357  -2.890   0.390  0.00  0.00    -0.348 N 
ATOM     13  C   UNL d   1      -4.487  -3.753   0.046  0.00  0.00     0.128 C 
ATOM     14  C   UNL d   1      -2.290  -3.521   1.176  0.00  0.00     0.128 C 
ATOM     15  C   UNL d   1      -5.044  -4.494   1.258  0.00  0.00     0.051 C 
ATOM     16  C   UNL d   1      -3.956  -5.208   2.053  0.00  0.00     0.121 C 
ATOM     17  C   UNL d   1      -2.817  -4.260   2.398  0.00  0.00     0.051 C 
ATOM     18  O   UNL d   1      -4.248  -1.132  -0.820  0.00  0.00    -0.267 OA
BRANCH  16  19
ATOM     19  O   UNL d   1      -3.467  -6.347   1.349  0.00  0.00    -0.395 OA
ATOM     20  H   UNL d   1      -3.124  -6.071   0.483  0.00  0.00     0.210 HD
ENDBRANCH  16  19
ENDBRANCH   7  11
BRANCH   1  21
ATOM     21  C   UNL d   1       3.872   0.104   0.109  0.00  0.00     0.449 C 
ATOM     22  F   UNL d   1       4.441  -1.125   0.183  0.00  0.00    -0.163 F 
ATOM     23  F   UNL d   1       4.454   0.744  -0.939  0.00  0.00    -0.163 F 
ATOM     24  F   UNL d   1       4.248   0.776   1.230  0.00  0.00    -0.163 F 
ENDBRANCH   1  21
BRANCH   4  25
ATOM     25  C   UNL d   1       2.041   2.564  -0.086  0.00  0.00     0.084 C 
ATOM     26  C   UNL d   1       1.611   3.247  -1.387  0.00  0.00     0.032 C 
ATOM     27  C   UNL d   1       1.672   3.392   1.144  0.00  0.00     0.032 C 
ENDBRANCH   4  25
TORSDOF 4
