REMARK  3 active torsions:
REMARK  status: ('A' for Active; 'I' for Inactive)
REMARK    1  A    between atoms: C_3  and  C_1 
REMARK    2  A    between atoms: N_14  and  C_2 
REMARK    3  A    between atoms: C_10  and  C_8 
ROOT
ATOM      1  C   UNL d   1      -0.828  -2.837  -1.345  0.00  0.00     0.155 A 
ATOM      2  C   UNL d   1       0.561  -1.362  -0.274  0.00  0.00     0.121 A 
ATOM      3  N   UNL d   1      -0.520  -1.572  -1.062  0.00  0.00    -0.329 N 
ATOM      4  HN  UNL d   1      -1.075  -0.796  -1.422  1.00  0.00     0.168 HD
ATOM      5  N   UNL d   1      -0.179  -3.902  -0.876  0.00  0.00    -0.332 N 
ATOM      6  HN  UNL d   1      -0.480  -4.848  -1.112  1.00  0.00     0.168 HD
ATOM      7  C   UNL d   1       0.890  -3.689  -0.078  0.00  0.00     0.046 A 
ATOM      8  C   UNL d   1       1.304  -2.410   0.239  0.00  0.00     0.064 A 
ENDROOT
BRANCH   7   9
ATOM      9  C   UNL d   1       1.584  -4.897   0.417  0.00  0.00    -0.009 A 
ATOM     10  C   UNL d   1       1.596  -6.085  -0.338  0.00  0.00     0.013 A 
ATOM     11  C   UNL d   1       2.272  -7.226   0.107  0.00  0.00     0.001 A 
ATOM     12  C   UNL d   1       2.947  -7.207   1.324  0.00  0.00     0.000 A 
ATOM     13  C   UNL d   1       2.939  -6.052   2.099  0.00  0.00     0.001 A 
ATOM     14  C   UNL d   1       2.261  -4.913   1.652  0.00  0.00     0.013 A 
ENDBRANCH   7   9
BRANCH   1  15
ATOM     15  N   UNL d   1      -1.922  -3.058  -2.151  0.00  0.00    -0.274 NA
ATOM     16  H   UNL d   1      -2.559  -2.275  -2.100  0.00  0.00     0.127 HD
ATOM     17  H   UNL d   1      -2.301  -3.978  -1.977  0.00  0.00     0.127 HD
ENDBRANCH   1  15
BRANCH   2  18
ATOM     18  C   UNL d   1       0.982   0.057   0.063  0.00  0.00     0.432 C 
ATOM     19  F   UNL d   1       0.195   1.026  -0.478  0.00  0.00    -0.165 F 
ATOM     20  F   UNL d   1       2.254   0.333  -0.349  0.00  0.00    -0.165 F 
ATOM     21  F   UNL d   1       0.982   0.287   1.409  0.00  0.00    -0.165 F 
ENDBRANCH   2  18
TORSDOF 3
