REMARK  3 active torsions:
REMARK  status: ('A' for Active; 'I' for Inactive)
REMARK    1  A    between atoms: C_6  and  C_1 
REMARK    2  A    between atoms: C_2  and  C_5 
REMARK       I    between atoms: N_11  and  C_6 
REMARK    3  A    between atoms: O_16  and  N_11 
ROOT
ATOM      1  C   UNL d   1      -0.203   1.112   0.002  0.00  0.00     0.124 A 
ATOM      2  N   UNL d   1      -1.575   1.179   0.009  0.00  0.00    -0.359 N 
ATOM      3  HN  UNL d   1      -2.062   2.076   0.018  1.00  0.00     0.165 HD
ATOM      4  C   UNL d   1      -1.654  -1.239  -0.009  0.00  0.00     0.065 A 
ATOM      5  C   UNL d   1       0.491  -0.096  -0.005  0.00  0.00     0.067 A 
ATOM      6  C   UNL d   1      -0.255  -1.279  -0.011  0.00  0.00     0.044 A 
ATOM      7  C   UNL d   1      -2.259   0.010   0.004  0.00  0.00     0.105 A 
ATOM      8 CL   UNL d   1       2.205  -0.261  -0.009  0.00  0.00    -0.082 Cl
ENDROOT
BRANCH   1   9
ATOM      9  C   UNL d   1       0.480   2.451  -0.002  0.00  0.00     0.293 C 
ATOM     10  O   UNL d   1       1.694   2.616  -0.015  0.00  0.00    -0.264 OA
ATOM     11  N   UNL d   1      -0.376   3.529   0.009  0.00  0.00    -0.232 N 
ATOM     12  H   UNL d   1      -1.389   3.443   0.023  0.00  0.00     0.197 HD
BRANCH  11  13
ATOM     13  O   UNL d   1       0.207   4.814   0.005  0.00  0.00    -0.287 OA
ATOM     14  H   UNL d   1       1.166   4.603  -0.007  0.00  0.00     0.244 HD
ENDBRANCH  11  13
ENDBRANCH   1   9
BRANCH   4  15
ATOM     15  C   UNL d   1      -2.494  -2.481  -0.021  0.00  0.00     0.418 C 
ATOM     16  F   UNL d   1      -1.761  -3.627  -0.036  0.00  0.00    -0.166 F 
ATOM     17  F   UNL d   1      -3.306  -2.568   1.066  0.00  0.00    -0.166 F 
ATOM     18  F   UNL d   1      -3.309  -2.542  -1.108  0.00  0.00    -0.166 F 
ENDBRANCH   4  15
TORSDOF 3
