REMARK  3 active torsions:
REMARK  status: ('A' for Active; 'I' for Inactive)
REMARK       I    between atoms: C_3  and  N_1 
REMARK    1  A    between atoms: C_4  and  C_3 
REMARK    2  A    between atoms: C_12  and  N_6 
REMARK    3  A    between atoms: O_20  and  C_15 
ROOT
ATOM      1  N   UNL d   1      -0.343   1.059   0.181  0.00  0.00    -0.261 N 
ATOM      2  C   UNL d   1       0.973   0.562   0.159  0.00  0.00     0.158 C 
ATOM      3  C   UNL d   1      -0.671   2.414   0.040  0.00  0.00     0.266 C 
ATOM      4  S   UNL d   1       0.917  -1.174   0.502  0.00  0.00    -0.063 SA
ATOM      5  N   UNL d   1       2.011   1.291  -0.103  0.00  0.00    -0.336 N 
ATOM      6  HN  UNL d   1       1.878   2.285  -0.287  1.00  0.00     0.168 HD
ATOM      7  C   UNL d   1      -1.309   0.038   0.185  0.00  0.00     0.025 C 
ATOM      8  C   UNL d   1      -0.799  -1.189   0.354  0.00  0.00     0.078 C 
ATOM      9  O   UNL d   1      -1.630   2.808  -0.622  0.00  0.00    -0.267 OA
ATOM     10  C   UNL d   1      -2.779   0.275   0.059  0.00  0.00     0.069 C 
ENDROOT
BRANCH   5  11
ATOM     11  C   UNL d   1       3.313   0.765  -0.144  0.00  0.00     0.034 A 
ATOM     12  C   UNL d   1       3.677  -0.312  -0.960  0.00  0.00     0.032 A 
ATOM     13  C   UNL d   1       4.982  -0.819  -0.949  0.00  0.00     0.039 A 
ATOM     14  C   UNL d   1       5.958  -0.212  -0.163  0.00  0.00     0.068 A 
ATOM     15  C   UNL d   1       5.629   0.924   0.577  0.00  0.00     0.039 A 
ATOM     16  C   UNL d   1       4.313   1.401   0.594  0.00  0.00     0.032 A 
BRANCH  14  17
ATOM     17  O   UNL d   1       7.264  -0.610  -0.090  0.00  0.00    -0.356 OA
ATOM     18  C   UNL d   1       7.481  -2.009  -0.251  0.00  0.00     0.210 C 
ENDBRANCH  14  17
ENDBRANCH   5  11
BRANCH   3  19
ATOM     19  C   UNL d   1       0.144   3.413   0.806  0.00  0.00     0.054 A 
ATOM     20  C   UNL d   1       0.367   4.721   0.347  0.00  0.00     0.049 A 
ATOM     21 CL   UNL d   1      -0.161   5.299  -1.194  0.00  0.00    -0.083 Cl
ATOM     22  C   UNL d   1       1.070   5.635   1.145  0.00  0.00     0.025 A 
ATOM     23  C   UNL d   1       1.564   5.260   2.395  0.00  0.00     0.002 A 
ATOM     24  C   UNL d   1       1.342   3.972   2.866  0.00  0.00     0.001 A 
ATOM     25  C   UNL d   1       0.621   3.059   2.090  0.00  0.00     0.019 A 
ENDBRANCH   3  19
TORSDOF 3
