REMARK  3 active torsions:
REMARK  status: ('A' for Active; 'I' for Inactive)
REMARK    1  A    between atoms: C_2  and  S_1 
REMARK    2  A    between atoms: N_4  and  S_1 
REMARK    3  A    between atoms: C_15  and  N_6 
ROOT
ATOM      1  N   UNL d   1       0.505   1.213  -0.409  0.00  0.00    -0.203 NA
ATOM      2  N   UNL d   1      -1.057   2.776   1.511  0.00  0.00    -0.379 N 
ATOM      3  C   UNL d   1       0.905   2.609  -0.049  0.00  0.00     0.127 C 
ATOM      4  C   UNL d   1      -0.975   1.069  -0.290  0.00  0.00     0.127 C 
ATOM      5  C   UNL d   1      -1.466   1.406   1.127  0.00  0.00     0.138 C 
ATOM      6  C   UNL d   1       0.394   3.049   1.344  0.00  0.00     0.138 C 
ENDROOT
BRANCH   1   7
ATOM      7  S   UNL d   1       1.406  -0.045   0.293  0.00  0.00     0.250 S 
ATOM      8  O   UNL d   1       1.631   0.261   1.687  0.00  0.00    -0.205 OA
ATOM      9  O   UNL d   1       0.821  -1.309  -0.108  0.00  0.00    -0.205 OA
BRANCH   7  10
ATOM     10  C   UNL d   1       3.028  -0.038  -0.430  0.00  0.00     0.116 A 
ATOM     11  S   UNL d   1       3.095  -0.062  -2.139  0.00  0.00    -0.070 SA
ATOM     12  C   UNL d   1       4.788  -0.029  -2.122  0.00  0.00     0.052 A 
ATOM     13 BR   UNL d   1       5.826  -0.013  -3.682  0.00  0.00    -0.043 Br
ATOM     14  C   UNL d   1       5.322  -0.011  -0.858  0.00  0.00     0.028 A 
ATOM     15  C   UNL d   1       4.293  -0.018   0.131  0.00  0.00     0.034 A 
ENDBRANCH   7  10
ENDBRANCH   1   7
BRANCH   2  16
ATOM     16  C   UNL d   1      -1.681   3.360   2.626  0.00  0.00     0.030 A 
ATOM     17  C   UNL d   1      -2.591   2.668   3.446  0.00  0.00     0.029 A 
ATOM     18  C   UNL d   1      -3.278   3.299   4.492  0.00  0.00     0.002 A 
ATOM     19  C   UNL d   1      -3.067   4.646   4.755  0.00  0.00     0.000 A 
ATOM     20  C   UNL d   1      -2.161   5.355   3.977  0.00  0.00     0.002 A 
ATOM     21  C   UNL d   1      -1.485   4.719   2.929  0.00  0.00     0.029 A 
ENDBRANCH   2  16
TORSDOF 3
