REMARK  6 active torsions:
REMARK  status: ('A' for Active; 'I' for Inactive)
REMARK    1  A    between atoms: C_6  and  C_3 
REMARK    2  A    between atoms: N_10  and  C_4 
REMARK    3  A    between atoms: C_9  and  C_5 
REMARK    4  A    between atoms: O_13  and  C_9 
REMARK    5  A    between atoms: C_12  and  C_20 
REMARK    6  A    between atoms: C_20  and  O_13 
ROOT
ATOM      1  N   UNL d   1       1.250   0.515  -0.021  0.00  0.00    -0.185 N 
ATOM      2  HN  UNL d   1       2.170   0.954  -0.029  1.00  0.00     0.184 HD
ATOM      3  C   UNL d   1       1.152  -0.851   0.035  0.00  0.00     0.150 A 
ATOM      4  C   UNL d   1       0.152   1.278  -0.066  0.00  0.00     0.680 A 
ATOM      5  C   UNL d   1      -0.076  -1.492   0.053  0.00  0.00     0.087 A 
ATOM      6  N   UNL d   1      -1.067   0.721  -0.069  0.00  0.00    -0.201 N 
ATOM      7  HN  UNL d   1      -1.906   1.298  -0.116  1.00  0.00     0.183 HD
ATOM      8  C   UNL d   1      -1.157  -0.637  -0.006  0.00  0.00     0.126 A 
ENDROOT
BRANCH   5   9
ATOM      9  C   UNL d   1      -0.211  -2.969   0.058  0.00  0.00     0.297 C 
ATOM     10  O   UNL d   1       0.753  -3.707   0.041  0.00  0.00    -0.259 OA
BRANCH   9  11
ATOM     11  O   UNL d   1      -1.506  -3.389  -0.026  0.00  0.00    -0.317 OA
BRANCH  11  12
ATOM     12  C   UNL d   1      -1.660  -4.713  -0.577  0.00  0.00     0.183 C 
BRANCH  12  13
ATOM     13  C   UNL d   1      -2.229  -5.708   0.395  0.00  0.00     0.010 A 
ATOM     14  C   UNL d   1      -1.560  -6.173   1.667  0.00  0.00     0.007 A 
ATOM     15  C   UNL d   1      -1.555  -7.064   0.461  0.00  0.00     0.007 A 
ENDBRANCH  12  13
ENDBRANCH  11  12
ENDBRANCH   9  11
ENDBRANCH   5   9
BRANCH   3  16
ATOM     16  C   UNL d   1       2.471  -1.599   0.067  0.00  0.00     0.434 C 
ATOM     17  F   UNL d   1       3.553  -0.758   0.072  0.00  0.00    -0.165 F 
ATOM     18  F   UNL d   1       2.632  -2.369   1.178  0.00  0.00    -0.165 F 
ATOM     19  F   UNL d   1       2.668  -2.397  -1.020  0.00  0.00    -0.165 F 
ENDBRANCH   3  16
BRANCH   4  20
ATOM     20  N   UNL d   1       0.309   2.659  -0.035  0.00  0.00    -0.218 N 
ATOM     21  C   UNL d   1      -0.790   3.453  -0.583  0.00  0.00     0.141 C 
ATOM     22  C   UNL d   1      -0.675   4.899  -0.086  0.00  0.00     0.020 C 
ATOM     23  C   UNL d   1       0.701   5.499  -0.368  0.00  0.00     0.003 C 
ATOM     24  C   UNL d   1       1.809   4.593   0.158  0.00  0.00     0.020 C 
ATOM     25  C   UNL d   1       1.655   3.156  -0.344  0.00  0.00     0.141 C 
ENDBRANCH   4  20
TORSDOF 6
