REMARK  10 active torsions:
REMARK  status: ('A' for Active; 'I' for Inactive)
REMARK    1  A    between atoms: C_13  and  N_1 
REMARK    2  A    between atoms: C_8  and  C_2 
REMARK    3  A    between atoms: S_21  and  C_5 
REMARK    4  A    between atoms: C_11  and  C_26 
REMARK    5  A    between atoms: C_12  and  C_27 
REMARK    6  A    between atoms: C_16  and  C_13 
REMARK    7  A    between atoms: O_25  and  C_14 
REMARK    8  A    between atoms: O_24  and  C_15 
REMARK    9  A    between atoms: C_26  and  O_24 
REMARK   10  A    between atoms: C_27  and  O_25 
ROOT
ATOM      1  C   UNL d   1       2.391  -1.156  -0.175  0.00  0.00     0.018 A 
ATOM      2  N   UNL d   1       4.912  -2.354  -0.171  0.00  0.00    -0.318 N 
ATOM      3  HN  UNL d   1       5.819  -2.821  -0.154  1.00  0.00     0.170 HD
ATOM      4  C   UNL d   1       4.092  -2.486  -1.224  0.00  0.00     0.145 A 
ATOM      5  C   UNL d   1       4.513  -1.591   0.863  0.00  0.00     0.145 A 
ATOM      6  C   UNL d   1       2.845  -1.887  -1.273  0.00  0.00     0.071 A 
ATOM      7  C   UNL d   1       3.267  -0.989   0.907  0.00  0.00     0.071 A 
ENDROOT
BRANCH   1   8
ATOM      8  C   UNL d   1       1.058  -0.539  -0.115  0.00  0.00     0.135 A 
ATOM      9  N   UNL d   1      -0.136  -0.981  -0.678  0.00  0.00    -0.305 N 
ATOM     10  C   UNL d   1      -1.082  -0.059  -0.295  0.00  0.00     0.163 A 
ATOM     11  N   UNL d   1      -0.531   0.863   0.453  0.00  0.00    -0.278 N 
ATOM     12  N   UNL d   1       0.797   0.560   0.575  0.00  0.00    -0.283 N 
ATOM     13  HN  UNL d   1      -1.006   1.664   0.869  1.00  0.00     0.189 HD
ATOM     14  HN  UNL d   1       1.479   1.096   1.112  1.00  0.00     0.188 HD
BRANCH   9  15
ATOM     15  C   UNL d   1      -0.388  -2.232  -1.368  0.00  0.00     0.198 C 
BRANCH  15  16
ATOM     16  C   UNL d   1      -0.288  -2.118  -2.852  0.00  0.00     0.070 A 
ATOM     17  O   UNL d   1      -0.484  -3.289  -3.533  0.00  0.00    -0.325 OA
ATOM     18  C   UNL d   1      -0.378  -3.011  -4.854  0.00  0.00     0.142 A 
ATOM     19  C   UNL d   1      -0.091  -1.680  -5.044  0.00  0.00     0.027 A 
ATOM     20  C   UNL d   1      -0.021  -1.106  -3.751  0.00  0.00     0.036 A 
ENDBRANCH  15  16
ENDBRANCH   9  15
BRANCH  10  21
ATOM     21  S   UNL d   1      -2.751  -0.129  -0.747  0.00  0.00    -0.097 SA
ATOM     22  C   UNL d   1      -3.411   1.327   0.105  0.00  0.00     0.099 C 
ENDBRANCH  10  21
ENDBRANCH   1   8
BRANCH   4  23
ATOM     23  O   UNL d   1       4.579  -3.329  -2.181  0.00  0.00    -0.327 OA
BRANCH  23  24
ATOM     24  C   UNL d   1       4.156  -3.094  -3.527  0.00  0.00     0.294 C 
BRANCH  24  25
ATOM     25  C   UNL d   1       4.750  -4.121  -4.488  0.00  0.00     0.408 C 
ATOM     26  F   UNL d   1       5.465  -5.082  -3.869  0.00  0.00    -0.169 F 
ATOM     27  F   UNL d   1       3.760  -4.740  -5.179  0.00  0.00    -0.169 F 
ATOM     28  F   UNL d   1       5.555  -3.526  -5.398  0.00  0.00    -0.169 F 
ENDBRANCH  24  25
ENDBRANCH  23  24
ENDBRANCH   4  23
BRANCH   5  29
ATOM     29  O   UNL d   1       5.431  -1.544   1.871  0.00  0.00    -0.327 OA
BRANCH  29  30
ATOM     30  C   UNL d   1       5.475  -0.338   2.639  0.00  0.00     0.294 C 
BRANCH  30  31
ATOM     31  C   UNL d   1       6.861  -0.124   3.248  0.00  0.00     0.408 C 
ATOM     32  F   UNL d   1       7.755  -1.066   2.884  0.00  0.00    -0.169 F 
ATOM     33  F   UNL d   1       7.365   1.077   2.876  0.00  0.00    -0.169 F 
ATOM     34  F   UNL d   1       6.798  -0.126   4.601  0.00  0.00    -0.169 F 
ENDBRANCH  30  31
ENDBRANCH  29  30
ENDBRANCH   5  29
TORSDOF 10
