REMARK  2 active torsions:
REMARK  status: ('A' for Active; 'I' for Inactive)
REMARK    1  A    between atoms: C_5  and  C_2 
REMARK    2  A    between atoms: C_6  and  C_3 
ROOT
ATOM      1  C   UNL d   1       0.919   0.032  -0.007  0.00  0.00     0.143 C 
ATOM      2  C   UNL d   1       0.183  -1.299  -0.211  0.00  0.00     0.089 C 
ATOM      3  C   UNL d   1       0.157   1.304  -0.392  0.00  0.00     0.089 C 
ATOM      4  O   UNL d   1       2.098   0.103   0.359  0.00  0.00    -0.296 OA
ATOM      5  C   UNL d   1      -1.229  -1.246   0.396  0.00  0.00     0.017 C 
ATOM      6  C   UNL d   1      -1.191   1.263   0.349  0.00  0.00     0.017 C 
ATOM      7  C   UNL d   1      -1.999   0.012   0.013  0.00  0.00     0.002 C 
ENDROOT
BRANCH   2   8
ATOM      8  C   UNL d   1       0.920  -2.513   0.342  0.00  0.00    -0.047 A 
ATOM      9  C   UNL d   1       1.267  -2.600   1.702  0.00  0.00     0.008 A 
ATOM     10  C   UNL d   1       1.866  -3.752   2.215  0.00  0.00     0.001 A 
ATOM     11  C   UNL d   1       2.134  -4.830   1.377  0.00  0.00     0.000 A 
ATOM     12  C   UNL d   1       1.813  -4.753   0.023  0.00  0.00     0.001 A 
ATOM     13  C   UNL d   1       1.210  -3.603  -0.492  0.00  0.00     0.008 A 
ENDBRANCH   2   8
BRANCH   3  14
ATOM     14  C   UNL d   1       0.104   1.550  -1.899  0.00  0.00    -0.047 A 
ATOM     15  C   UNL d   1      -0.964   2.231  -2.506  0.00  0.00     0.008 A 
ATOM     16  C   UNL d   1      -0.966   2.508  -3.877  0.00  0.00     0.001 A 
ATOM     17  C   UNL d   1       0.111   2.123  -4.668  0.00  0.00     0.000 A 
ATOM     18  C   UNL d   1       1.190   1.467  -4.088  0.00  0.00     0.001 A 
ATOM     19  C   UNL d   1       1.193   1.193  -2.716  0.00  0.00     0.008 A 
ENDBRANCH   3  14
TORSDOF 2
