REMARK  2 active torsions:
REMARK  status: ('A' for Active; 'I' for Inactive)
REMARK    1  A    between atoms: C_14  and  N_1 
REMARK    2  A    between atoms: C_16  and  C_14 
ROOT
ATOM      1  N   UNL d   1       3.027   0.687   0.292  0.00  0.00    -0.250 N 
ATOM      2  N   UNL d   1       1.829   1.426  -0.086  0.00  0.00    -0.289 N 
ATOM      3  C   UNL d   1      -0.613   0.496  -0.068  0.00  0.00     0.062 A 
ATOM      4  C   UNL d   1       0.799   0.491  -0.011  0.00  0.00     0.083 A 
ATOM      5  C   UNL d   1       1.333  -0.802   0.190  0.00  0.00     0.078 A 
ATOM      6  C   UNL d   1       2.757  -0.700   0.359  0.00  0.00     0.276 C 
ATOM      7  C   UNL d   1      -1.252  -0.720  -0.025  0.00  0.00     0.136 A 
ATOM      8  N   UNL d   1      -2.790   0.966  -0.138  0.00  0.00    -0.301 N 
ATOM      9  HN  UNL d   1      -3.687   1.449  -0.186  1.00  0.00     0.187 HD
ATOM     10  N   UNL d   1      -2.573  -0.376  -0.091  0.00  0.00    -0.280 N 
ATOM     11  C   UNL d   1      -1.557   1.519  -0.107  0.00  0.00     0.038 A 
ATOM     12  N   UNL d   1      -0.734  -1.956   0.080  0.00  0.00    -0.349 N 
ATOM     13  HN  UNL d   1      -1.305  -2.801   0.064  1.00  0.00     0.167 HD
ATOM     14  C   UNL d   1       0.605  -1.979   0.209  0.00  0.00     0.109 A 
ATOM     15  O   UNL d   1       3.601  -1.577   0.515  0.00  0.00    -0.266 OA
ATOM     16  C   UNL d   1       1.795   2.857   0.091  0.00  0.00     0.178 C 
ATOM     17  C   UNL d   1      -3.690  -1.287  -0.056  0.00  0.00     0.179 C 
ATOM     18  C   UNL d   1      -1.476   2.996  -0.069  0.00  0.00     0.071 C 
ENDROOT
BRANCH   1  19
ATOM     19  C   UNL d   1       4.364   1.155  -0.037  0.00  0.00     0.193 C 
BRANCH  19  20
ATOM     20  C   UNL d   1       5.101   1.808   1.117  0.00  0.00    -0.017 A 
ATOM     21  C   UNL d   1       6.124   2.747   0.892  0.00  0.00     0.042 A 
ATOM     22 CL   UNL d   1       6.533   3.292  -0.698  0.00  0.00    -0.084 Cl
ATOM     23  C   UNL d   1       6.871   3.268   1.955  0.00  0.00     0.024 A 
ATOM     24  C   UNL d   1       6.617   2.856   3.262  0.00  0.00     0.002 A 
ATOM     25  C   UNL d   1       5.616   1.922   3.506  0.00  0.00     0.001 A 
ATOM     26  C   UNL d   1       4.872   1.398   2.446  0.00  0.00     0.010 A 
ENDBRANCH  19  20
ENDBRANCH   1  19
TORSDOF 2
