REMARK  2 active torsions:
REMARK  status: ('A' for Active; 'I' for Inactive)
REMARK    1  A    between atoms: C_2  and  C_1 
REMARK       I    between atoms: N_3  and  C_1 
REMARK    2  A    between atoms: C_6  and  N_5 
ROOT
ATOM      1  C   UNL d   1       0.707  -0.352   0.087  0.00  0.00     0.257 C 
ATOM      2  N   UNL d   1       0.425   0.190  -1.177  0.00  0.00    -0.345 N 
ATOM      3  N   UNL d   1      -0.311   1.005  -3.835  0.00  0.00    -0.377 N 
ATOM      4  O   UNL d   1       1.305  -1.411   0.253  0.00  0.00    -0.267 OA
ATOM      5  C   UNL d   1       0.776  -0.635  -2.345  0.00  0.00     0.146 C 
ATOM      6  C   UNL d   1      -0.654   1.163  -1.413  0.00  0.00     0.146 C 
ATOM      7  C   UNL d   1       0.893   0.173  -3.655  0.00  0.00     0.143 C 
ATOM      8  C   UNL d   1      -0.544   1.940  -2.735  0.00  0.00     0.143 C 
ENDROOT
BRANCH   1   9
ATOM      9  C   UNL d   1       0.344   0.422   1.294  0.00  0.00     0.075 A 
ATOM     10  C   UNL d   1      -0.979   0.486   1.752  0.00  0.00     0.051 A 
ATOM     11 CL   UNL d   1      -2.262  -0.439   1.059  0.00  0.00    -0.083 Cl
ATOM     12  C   UNL d   1      -1.306   1.306   2.840  0.00  0.00     0.025 A 
ATOM     13  C   UNL d   1      -0.309   1.996   3.526  0.00  0.00     0.003 A 
ATOM     14  C   UNL d   1       1.020   1.860   3.132  0.00  0.00     0.025 A 
ATOM     15  C   UNL d   1       1.349   1.085   2.011  0.00  0.00     0.051 A 
ATOM     16 CL   UNL d   1       3.022   1.002   1.581  0.00  0.00    -0.083 Cl
ENDBRANCH   1   9
BRANCH   3  17
ATOM     17  C   UNL d   1      -0.894   1.181  -5.086  0.00  0.00     0.043 A 
ATOM     18  C   UNL d   1      -1.397   2.414  -5.609  0.00  0.00     0.018 A 
ATOM     19  C   UNL d   1      -2.084   2.428  -6.830  0.00  0.00     0.044 A 
ATOM     20  C   UNL d   1      -1.367   3.781  -5.176  0.00  0.00     0.033 A 
ATOM     21  N   UNL d   1      -2.498   3.719  -7.071  0.00  0.00    -0.365 N 
ATOM     22  C   UNL d   1      -2.287   1.283  -7.607  0.00  0.00     0.030 A 
ATOM     23  C   UNL d   1      -2.068   4.549  -6.077  0.00  0.00     0.089 A 
ATOM     24  H   UNL d   1      -3.036   4.003  -7.877  0.00  0.00     0.165 HD
ATOM     25  C   UNL d   1      -1.772   0.089  -7.129  0.00  0.00     0.005 A 
ATOM     26  C   UNL d   1      -1.106   0.042  -5.905  0.00  0.00     0.030 A 
ENDBRANCH   3  17
TORSDOF 2
