REMARK  4 active torsions:
REMARK  status: ('A' for Active; 'I' for Inactive)
REMARK       I    between atoms: N_2  and  C_1 
REMARK       I    between atoms: N_3  and  C_1 
REMARK    1  A    between atoms: C_7  and  N_3 
REMARK    2  A    between atoms: C_4  and  C_11 
REMARK    3  A    between atoms: O_19  and  C_4 
REMARK    4  A    between atoms: C_21  and  O_19 
ROOT
ATOM      1  C   UNL d   1       0.829  -0.298  -0.174  0.00  0.00     0.322 C 
ATOM      2  N   UNL d   1       0.183   0.036  -1.363  0.00  0.00    -0.334 N 
ATOM      3  N   UNL d   1       0.528   0.495   0.909  0.00  0.00    -0.309 N 
ATOM      4  O   UNL d   1       1.638  -1.225  -0.143  0.00  0.00    -0.247 OA
ATOM      5  C   UNL d   1       0.594  -0.650  -2.586  0.00  0.00     0.128 C 
ATOM      6  C   UNL d   1      -0.938   0.956  -1.549  0.00  0.00     0.128 C 
ATOM      7  C   UNL d   1      -1.830  -0.659  -3.323  0.00  0.00     0.088 C 
ATOM      8  C   UNL d   1      -2.154   0.208  -2.096  0.00  0.00     0.034 C 
ATOM      9  C   UNL d   1      -0.555  -1.484  -3.142  0.00  0.00     0.034 C 
ATOM     10  H   UNL d   1      -0.008   1.323   0.724  0.00  0.00     0.170 HD
ENDROOT
BRANCH   3  11
ATOM     11  C   UNL d   1       1.145   0.465   2.183  0.00  0.00     0.038 A 
ATOM     12  C   UNL d   1       2.015  -0.538   2.611  0.00  0.00     0.054 A 
ATOM     13  C   UNL d   1       2.696  -0.417   3.828  0.00  0.00     0.042 A 
ATOM     14 CL   UNL d   1       3.789  -1.681   4.273  0.00  0.00    -0.084 Cl
ATOM     15  C   UNL d   1       2.511   0.707   4.647  0.00  0.00    -0.040 A 
ATOM     16  C   UNL d   1       1.574   1.670   4.252  0.00  0.00     0.011 A 
ATOM     17  C   UNL d   1       3.299   0.908   5.910  0.00  0.00     0.050 C 
ATOM     18  C   UNL d   1       0.895   1.546   3.036  0.00  0.00     0.030 A 
ENDBRANCH   3  11
BRANCH   7  19
ATOM     19  C   UNL d   1      -1.771   0.187  -4.582  0.00  0.00     0.263 C 
ATOM     20  O   UNL d   1      -1.483   1.375  -4.616  0.00  0.00    -0.265 OA
BRANCH  19  21
ATOM     21  O   UNL d   1      -2.160  -0.559  -5.652  0.00  0.00    -0.322 OA
BRANCH  21  22
ATOM     22  C   UNL d   1      -2.469   0.178  -6.844  0.00  0.00     0.174 C 
ATOM     23  C   UNL d   1      -3.921   0.617  -6.778  0.00  0.00     0.034 C 
ENDBRANCH  21  22
ENDBRANCH  19  21
ENDBRANCH   7  19
TORSDOF 4
