REMARK  3 active torsions:
REMARK  status: ('A' for Active; 'I' for Inactive)
REMARK    1  A    between atoms: C_2  and  N_1 
REMARK    2  A    between atoms: C_6  and  C_3 
REMARK    3  A    between atoms: C_14  and  C_6 
ROOT
ATOM      1  C   UNL d   1      -0.046   2.319   0.019  0.00  0.00     0.060 A 
ATOM      2  C   UNL d   1       0.674   2.989  -0.998  0.00  0.00     0.044 A 
ATOM      3  C   UNL d   1      -0.797   3.079   0.933  0.00  0.00     0.033 A 
ATOM      4  C   UNL d   1       0.614   4.391  -1.083  0.00  0.00     0.041 A 
ATOM      5  C   UNL d   1      -0.103   5.123  -0.138  0.00  0.00     0.035 A 
ATOM      6  C   UNL d   1      -0.806   4.474   0.869  0.00  0.00     0.026 A 
ATOM      7 CL   UNL d   1      -0.138   6.839  -0.235  0.00  0.00    -0.084 Cl
ENDROOT
BRANCH   2   8
ATOM      8  C   UNL d   1       1.322   2.240  -2.112  0.00  0.00     0.194 C 
ATOM      9  O   UNL d   1       0.792   1.210  -2.527  0.00  0.00    -0.287 OA
BRANCH   8  10
ATOM     10  C   UNL d   1       2.548   2.747  -2.790  0.00  0.00     0.015 A 
ATOM     11  C   UNL d   1       2.716   2.468  -4.153  0.00  0.00     0.015 A 
ATOM     12  C   UNL d   1       3.820   2.972  -4.841  0.00  0.00     0.001 A 
ATOM     13  C   UNL d   1       4.764   3.749  -4.171  0.00  0.00     0.000 A 
ATOM     14  C   UNL d   1       4.617   4.004  -2.807  0.00  0.00     0.001 A 
ATOM     15  C   UNL d   1       3.518   3.495  -2.112  0.00  0.00     0.015 A 
ENDBRANCH   8  10
ENDBRANCH   2   8
BRANCH   1  16
ATOM     16  N   UNL d   1      -0.017   0.919   0.169  0.00  0.00    -0.244 N 
ATOM     17  C   UNL d   1      -1.103   0.135   0.432  0.00  0.00     0.255 A 
ATOM     18  C   UNL d   1      -0.614  -1.246   0.545  0.00  0.00     0.080 A 
ATOM     19  O   UNL d   1      -2.278   0.428   0.567  0.00  0.00    -0.268 OA
ATOM     20  C   UNL d   1       0.714  -1.224   0.427  0.00  0.00     0.080 A 
ATOM     21  C   UNL d   1       1.121   0.173   0.225  0.00  0.00     0.255 A 
ATOM     22  O   UNL d   1       2.288   0.533   0.247  0.00  0.00    -0.268 OA
ENDBRANCH   1  16
TORSDOF 3
