REMARK  6 active torsions:
REMARK  status: ('A' for Active; 'I' for Inactive)
REMARK    1  A    between atoms: C_5  and  C_1 
REMARK    2  A    between atoms: N_8  and  C_2 
REMARK       I    between atoms: C_9  and  N_8 
REMARK       I    between atoms: N_12  and  C_9 
REMARK    3  A    between atoms: C_10  and  N_13 
REMARK    4  A    between atoms: N_11  and  C_10 
REMARK    5  A    between atoms: C_18  and  N_11 
REMARK    6  A    between atoms: N_13  and  N_12 
ROOT
ATOM      1  N   UNL d   1       0.372  -2.260  -0.226  0.00  0.00    -0.303 N 
ATOM      2  C   UNL d   1       1.623  -2.708   0.014  0.00  0.00     0.339 C 
ATOM      3  N   UNL d   1       2.646  -1.804   0.135  0.00  0.00    -0.249 N 
ATOM      4  O   UNL d   1       1.835  -3.922  -0.009  0.00  0.00    -0.245 OA
ATOM      5  H   UNL d   1      -0.223  -3.010  -0.577  0.00  0.00     0.171 HD
ATOM      6  H   UNL d   1       2.502  -0.867  -0.230  0.00  0.00     0.192 HD
ENDROOT
BRANCH   1   7
ATOM      7  C   UNL d   1      -0.214  -1.010  -0.168  0.00  0.00     0.097 A 
ATOM      8  C   UNL d   1      -1.340  -0.575  -0.950  0.00  0.00     0.097 A 
ATOM      9  N   UNL d   1      -1.689   0.675  -0.610  0.00  0.00    -0.258 N 
ATOM     10  O   UNL d   1      -0.838   1.054   0.402  0.00  0.00    -0.240 OA
ATOM     11  HN  UNL d   1      -2.437   1.234  -1.020  1.00  0.00     0.195 HD
ATOM     12  C   UNL d   1       0.014   0.036   0.702  0.00  0.00     0.101 A 
ATOM     13  C   UNL d   1       0.815   0.254   1.922  0.00  0.00     0.081 C 
BRANCH   8  14
ATOM     14  C   UNL d   1      -2.066  -1.294  -2.005  0.00  0.00     0.038 A 
ATOM     15  C   UNL d   1      -2.664  -2.547  -1.762  0.00  0.00     0.048 A 
ATOM     16 CL   UNL d   1      -2.632  -3.327  -0.214  0.00  0.00    -0.083 Cl
ATOM     17  C   UNL d   1      -3.349  -3.233  -2.775  0.00  0.00     0.025 A 
ATOM     18  C   UNL d   1      -3.485  -2.669  -4.038  0.00  0.00     0.003 A 
ATOM     19  C   UNL d   1      -2.917  -1.426  -4.297  0.00  0.00     0.025 A 
ATOM     20  C   UNL d   1      -2.201  -0.748  -3.299  0.00  0.00     0.048 A 
ATOM     21 CL   UNL d   1      -1.474   0.752  -3.774  0.00  0.00    -0.083 Cl
ENDBRANCH   8  14
ENDBRANCH   1   7
BRANCH   3  22
ATOM     22  N   UNL d   1       3.933  -2.361  -0.169  0.00  0.00    -0.272 N 
ATOM     23  H   UNL d   1       3.908  -3.372  -0.262  0.00  0.00     0.189 HD
BRANCH  22  24
ATOM     24  C   UNL d   1       4.859  -1.634  -0.856  0.00  0.00     0.187 C 
ATOM     25  S   UNL d   1       4.920   0.039  -0.859  0.00  0.00    -0.040 SA
BRANCH  24  26
ATOM     26  N   UNL d   1       5.797  -2.300  -1.584  0.00  0.00    -0.358 N 
ATOM     27  H   UNL d   1       6.440  -1.649  -2.026  0.00  0.00     0.162 HD
BRANCH  26  28
ATOM     28  C   UNL d   1       5.912  -3.703  -2.053  0.00  0.00     0.021 C 
ATOM     29  C   UNL d   1       4.656  -4.127  -2.832  0.00  0.00     0.037 C 
ATOM     30  C   UNL d   1       7.111  -3.774  -3.026  0.00  0.00     0.037 C 
ATOM     31  C   UNL d   1       6.197  -4.678  -0.901  0.00  0.00     0.037 C 
ENDBRANCH  26  28
ENDBRANCH  24  26
ENDBRANCH  22  24
ENDBRANCH   3  22
TORSDOF 6
