REMARK  4 active torsions:
REMARK  status: ('A' for Active; 'I' for Inactive)
REMARK    1  A    between atoms: C_6  and  C_3 
REMARK    2  A    between atoms: C_10  and  C_4 
REMARK    3  A    between atoms: O_14  and  C_11 
REMARK    4  A    between atoms: C_15  and  O_14 
ROOT
ATOM      1  C   UNL d   1       0.028  -2.615  -0.090  0.00  0.00     0.013 A 
ATOM      2  N   UNL d   1      -0.878  -4.598  -1.161  0.00  0.00    -0.346 N 
ATOM      3  HN  UNL d   1      -1.390  -5.027  -1.933  1.00  0.00     0.167 HD
ATOM      4  C   UNL d   1      -0.377  -5.337  -0.144  0.00  0.00     0.147 A 
ATOM      5  C   UNL d   1      -0.669  -3.263  -1.105  0.00  0.00     0.104 A 
ATOM      6  C   UNL d   1       0.587  -3.425   0.907  0.00  0.00     0.020 A 
ATOM      7  C   UNL d   1       0.384  -4.805   0.884  0.00  0.00     0.057 A 
ENDROOT
BRANCH   1   8
ATOM      8  C   UNL d   1       0.204  -1.162  -0.058  0.00  0.00     0.086 A 
ATOM      9  N   UNL d   1       1.261  -0.555   0.443  0.00  0.00    -0.352 N 
ATOM     10  C   UNL d   1       1.157   0.822   0.304  0.00  0.00     0.024 A 
ATOM     11  HN  UNL d   1       2.050  -1.034   0.876  1.00  0.00     0.166 HD
ATOM     12  C   UNL d   1      -0.034   1.241  -0.262  0.00  0.00     0.077 A 
ATOM     13  S   UNL d   1      -1.019  -0.101  -0.645  0.00  0.00    -0.081 SA
BRANCH  10  14
ATOM     14  C   UNL d   1       2.310   1.706   0.752  0.00  0.00    -0.008 C 
ATOM     15  C   UNL d   1       3.473   0.866   1.319  0.00  0.00     0.021 C 
ATOM     16  C   UNL d   1       2.847   2.515  -0.446  0.00  0.00     0.021 C 
ATOM     17  C   UNL d   1       1.840   2.678   1.851  0.00  0.00     0.021 C 
ENDBRANCH  10  14
ENDBRANCH   1   8
BRANCH   4  18
ATOM     18  O   UNL d   1      -0.623  -6.701  -0.117  0.00  0.00    -0.294 OA
BRANCH  18  19
ATOM     19  C   UNL d   1      -1.840  -7.137  -0.595  0.00  0.00     0.077 A 
ATOM     20  C   UNL d   1      -1.853  -8.378  -1.234  0.00  0.00     0.039 A 
ATOM     21  C   UNL d   1      -3.054  -8.905  -1.715  0.00  0.00     0.026 A 
ATOM     22  C   UNL d   1      -4.241  -8.191  -1.549  0.00  0.00     0.034 A 
ATOM     23  C   UNL d   1      -4.239  -6.960  -0.897  0.00  0.00     0.026 A 
ATOM     24 CL   UNL d   1      -5.721  -8.837  -2.141  0.00  0.00    -0.084 Cl
ATOM     25  C   UNL d   1      -3.040  -6.441  -0.405  0.00  0.00     0.039 A 
ENDBRANCH  18  19
ENDBRANCH   4  18
TORSDOF 4
