REMARK  5 active torsions:
REMARK  status: ('A' for Active; 'I' for Inactive)
REMARK       I    between atoms: N_2  and  C_1 
REMARK       I    between atoms: N_4  and  C_1 
REMARK    1  A    between atoms: C_5  and  N_2 
REMARK    2  A    between atoms: C_9  and  N_4 
REMARK    3  A    between atoms: O_15  and  C_8 
REMARK    4  A    between atoms: C_16  and  C_10 
REMARK    5  A    between atoms: C_19  and  O_15 
ROOT
ATOM      1  N   UNL d   1      -6.296   1.684   1.425  0.00  0.00    -0.197 NA
ATOM      2  C   UNL d   1      -6.016   0.672   0.934  0.00  0.00     0.063 C 
ATOM      3  C   UNL d   1      -5.671  -0.617   0.306  0.00  0.00     0.162 C 
ENDROOT
BRANCH   3   4
ATOM      4  C   UNL d   1      -4.182  -0.877   0.335  0.00  0.00    -0.045 A 
ATOM      5  C   UNL d   1      -3.593  -1.615   1.375  0.00  0.00     0.010 A 
ATOM      6  C   UNL d   1      -2.201  -1.748   1.459  0.00  0.00     0.030 A 
ATOM      7  C   UNL d   1      -1.391  -1.094   0.535  0.00  0.00     0.035 A 
ATOM      8  C   UNL d   1      -1.977  -0.430  -0.544  0.00  0.00     0.030 A 
ATOM      9  C   UNL d   1      -3.361  -0.319  -0.648  0.00  0.00     0.010 A 
BRANCH   7  10
ATOM     10  N   UNL d   1       0.003  -1.090   0.717  0.00  0.00    -0.313 N 
ATOM     11  C   UNL d   1       0.867  -0.029   0.502  0.00  0.00     0.303 C 
ATOM     12  N   UNL d   1       0.236   1.204   0.469  0.00  0.00    -0.208 NA
ATOM     13  O   UNL d   1       2.080  -0.212   0.499  0.00  0.00    -0.253 OA
ATOM     14  H   UNL d   1      -0.531   1.186   1.130  0.00  0.00     0.138 HD
ATOM     15  H   UNL d   1       0.442  -1.868   1.193  0.00  0.00     0.170 HD
BRANCH  12  16
ATOM     16  C   UNL d   1       0.981   2.404   0.507  0.00  0.00     0.050 A 
ATOM     17  C   UNL d   1       1.645   2.950  -0.603  0.00  0.00     0.090 A 
ATOM     18  C   UNL d   1       2.373   4.136  -0.436  0.00  0.00     0.038 A 
ATOM     19  C   UNL d   1       2.406   4.797   0.794  0.00  0.00     0.003 A 
ATOM     20  C   UNL d   1       1.707   4.278   1.878  0.00  0.00     0.002 A 
ATOM     21  C   UNL d   1       0.989   3.091   1.732  0.00  0.00     0.027 A 
BRANCH  17  22
ATOM     22  O   UNL d   1       1.655   2.490  -1.893  0.00  0.00    -0.350 OA
BRANCH  22  23
ATOM     23  C   UNL d   1       0.473   1.840  -2.348  0.00  0.00     0.171 C 
ATOM     24  C   UNL d   1       0.288   2.118  -3.829  0.00  0.00     0.034 C 
ENDBRANCH  22  23
ENDBRANCH  17  22
ENDBRANCH  12  16
ENDBRANCH   7  10
ENDBRANCH   3   4
TORSDOF 5
