REMARK  4 active torsions:
REMARK  status: ('A' for Active; 'I' for Inactive)
REMARK    1  A    between atoms: C_4  and  S_1 
REMARK    2  A    between atoms: N_13  and  S_1 
REMARK       I    between atoms: C_2  and  N_5 
REMARK    3  A    between atoms: C_3  and  C_2 
REMARK    4  A    between atoms: N_5  and  C_12 
ROOT
ATOM      1  C   UNL d   1       0.481  -0.750  -1.676  0.00  0.00     0.076 A 
ATOM      2  C   UNL d   1       1.004  -2.042  -1.553  0.00  0.00     0.054 A 
ATOM      3  C   UNL d   1       0.567  -3.063  -2.405  0.00  0.00     0.036 A 
ATOM      4  C   UNL d   1      -0.455  -0.451  -2.669  0.00  0.00     0.025 A 
ATOM      5  C   UNL d   1      -0.876  -1.456  -3.537  0.00  0.00     0.004 A 
ATOM      6  C   UNL d   1      -0.371  -2.755  -3.401  0.00  0.00     0.029 A 
ENDROOT
BRANCH   3   7
ATOM      7  N   UNL d   1       0.971  -4.417  -2.286  0.00  0.00    -0.323 N 
ATOM      8  C   UNL d   1       1.846  -4.933  -1.339  0.00  0.00     0.261 C 
ATOM      9  O   UNL d   1       2.482  -4.251  -0.545  0.00  0.00    -0.267 OA
ATOM     10  H   UNL d   1       0.495  -5.075  -2.895  0.00  0.00     0.169 HD
BRANCH   8  11
ATOM     11  C   UNL d   1       1.977  -6.419  -1.261  0.00  0.00     0.092 A 
ATOM     12  C   UNL d   1       0.911  -7.245  -1.641  0.00  0.00     0.133 A 
ATOM     13  F   UNL d   1      -0.185  -6.733  -2.221  0.00  0.00    -0.205 F 
ATOM     14  C   UNL d   1       0.939  -8.626  -1.428  0.00  0.00     0.043 A 
ATOM     15  C   UNL d   1       2.045  -9.212  -0.825  0.00  0.00     0.005 A 
ATOM     16  C   UNL d   1       3.134  -8.418  -0.474  0.00  0.00     0.025 A 
ATOM     17  C   UNL d   1       3.112  -7.032  -0.698  0.00  0.00     0.052 A 
ATOM     18 CL   UNL d   1       4.573  -6.192  -0.301  0.00  0.00    -0.083 Cl
ENDBRANCH   8  11
ENDBRANCH   3   7
BRANCH   1  19
ATOM     19  S   UNL d   1       0.905   0.488  -0.479  0.00  0.00     0.239 S 
ATOM     20  O   UNL d   1       0.703  -0.077   0.830  0.00  0.00    -0.206 OA
ATOM     21  O   UNL d   1       0.298   1.742  -0.873  0.00  0.00    -0.206 OA
BRANCH  19  22
ATOM     22  N   UNL d   1       2.571   0.676  -0.640  0.00  0.00    -0.225 NA
ATOM     23  H   UNL d   1       3.012  -0.110  -1.121  0.00  0.00     0.136 HD
ATOM     24  H   UNL d   1       2.968   0.775   0.297  0.00  0.00     0.136 HD
ENDBRANCH  19  22
ENDBRANCH   1  19
TORSDOF 4
