REMARK  6 active torsions:
REMARK  status: ('A' for Active; 'I' for Inactive)
REMARK    1  A    between atoms: C_3  and  C_1 
REMARK    2  A    between atoms: C_8  and  N_4 
REMARK    3  A    between atoms: C_5  and  C_7 
REMARK    4  A    between atoms: S_12  and  C_5 
REMARK    5  A    between atoms: C_7  and  C_8 
REMARK    6  A    between atoms: C_17  and  S_12 
ROOT
ATOM      1  C   UNL d   1       2.495   0.950  -0.092  0.00  0.00     0.140 C 
ENDROOT
BRANCH   1   2
ATOM      2  C   UNL d   1       3.892   0.317  -0.213  0.00  0.00     0.111 C 
BRANCH   2   3
ATOM      3  C   UNL d   1       4.806   1.420  -0.725  0.00  0.00     0.192 C 
ATOM      4  O   UNL d   1       4.361   2.528  -1.026  0.00  0.00    -0.285 OA
BRANCH   3   5
ATOM      5  S   UNL d   1       6.503   1.007  -0.905  0.00  0.00    -0.053 SA
BRANCH   5   6
ATOM      6  C   UNL d   1       7.423   2.525  -1.206  0.00  0.00     0.008 A 
ATOM      7  C   UNL d   1       6.880   3.785  -1.484  0.00  0.00     0.021 A 
ATOM      8  C   UNL d   1       7.691   4.912  -1.672  0.00  0.00     0.025 A 
ATOM      9  C   UNL d   1       9.072   4.791  -1.603  0.00  0.00     0.034 A 
ATOM     10  C   UNL d   1       9.645   3.548  -1.362  0.00  0.00     0.025 A 
ATOM     11 CL   UNL d   1      10.065   6.178  -1.816  0.00  0.00    -0.084 Cl
ATOM     12  C   UNL d   1       8.825   2.425  -1.166  0.00  0.00     0.021 A 
ENDBRANCH   5   6
ENDBRANCH   3   5
ENDBRANCH   2   3
ENDBRANCH   1   2
BRANCH   1  13
ATOM     13  N   UNL d   1       1.323   0.188   0.366  0.00  0.00    -0.324 N 
ATOM     14  C   UNL d   1       1.151  -1.171   0.061  0.00  0.00     0.262 A 
ATOM     15  C   UNL d   1      -0.207  -1.736   0.315  0.00  0.00     0.115 A 
ATOM     16  O   UNL d   1       2.043  -1.867  -0.410  0.00  0.00    -0.267 OA
ATOM     17  C   UNL d   1      -1.198  -0.925   0.730  0.00  0.00     0.023 A 
ATOM     18  C   UNL d   1      -0.966   0.468   0.977  0.00  0.00     0.018 A 
ATOM     19  C   UNL d   1       0.257   0.971   0.802  0.00  0.00     0.094 A 
BRANCH  15  20
ATOM     20  C   UNL d   1      -0.435  -3.181   0.069  0.00  0.00     0.422 C 
ATOM     21  F   UNL d   1       0.665  -3.949  -0.098  0.00  0.00    -0.166 F 
ATOM     22  F   UNL d   1      -1.122  -3.739   1.109  0.00  0.00    -0.166 F 
ATOM     23  F   UNL d   1      -1.220  -3.372  -1.028  0.00  0.00    -0.166 F 
ENDBRANCH  15  20
ENDBRANCH   1  13
TORSDOF 6
