REMARK  6 active torsions:
REMARK  status: ('A' for Active; 'I' for Inactive)
REMARK    1  A    between atoms: N_4  and  C_1 
REMARK    2  A    between atoms: S_2  and  N_4 
REMARK    3  A    between atoms: C_9  and  S_2 
REMARK    4  A    between atoms: C_8  and  C_3 
REMARK    5  A    between atoms: O_15  and  C_8 
REMARK    6  A    between atoms: C_22  and  O_15 
ROOT
ATOM      1  C   UNL d   1      -2.192  -0.832  -0.036  0.00  0.00     0.081 A 
ATOM      2  C   UNL d   1      -1.106  -1.695  -0.013  0.00  0.00     0.075 A 
ATOM      3  S   UNL d   1      -1.751   0.806  -0.203  0.00  0.00    -0.080 SA
ATOM      4  C   UNL d   1       0.130  -0.924   0.013  0.00  0.00    -0.026 A 
ATOM      5  C   UNL d   1      -0.105   0.437  -0.050  0.00  0.00    -0.008 A 
ATOM      6  C   UNL d   1       1.536  -1.467   0.019  0.00  0.00     0.041 C 
ATOM      7  C   UNL d   1       0.941   1.507  -0.007  0.00  0.00     0.046 C 
ATOM      8  C   UNL d   1       2.566  -0.399   0.422  0.00  0.00     0.005 C 
ATOM      9  C   UNL d   1       2.329   0.927  -0.311  0.00  0.00     0.005 C 
ENDROOT
BRANCH   1  10
ATOM     10  N   UNL d   1      -3.579  -1.185  -0.034  0.00  0.00    -0.174 NA
ATOM     11  H   UNL d   1      -4.167  -0.468  -0.456  0.00  0.00     0.146 HD
BRANCH  10  12
ATOM     12  S   UNL d   1      -4.229  -1.566   1.497  0.00  0.00     0.246 S 
ATOM     13  O   UNL d   1      -5.626  -1.879   1.287  0.00  0.00    -0.206 OA
ATOM     14  O   UNL d   1      -3.350  -2.475   2.200  0.00  0.00    -0.206 OA
BRANCH  12  15
ATOM     15  C   UNL d   1      -4.183   0.009   2.344  0.00  0.00     0.074 A 
ATOM     16  C   UNL d   1      -5.242   0.913   2.184  0.00  0.00     0.026 A 
ATOM     17  C   UNL d   1      -5.205   2.142   2.847  0.00  0.00     0.020 A 
ATOM     18  C   UNL d   1      -4.121   2.454   3.670  0.00  0.00     0.011 A 
ATOM     19  C   UNL d   1      -3.079   1.544   3.849  0.00  0.00     0.020 A 
ATOM     20 BR   UNL d   1      -4.069   4.124   4.555  0.00  0.00    -0.051 Br
ATOM     21  C   UNL d   1      -3.112   0.311   3.192  0.00  0.00     0.026 A 
ENDBRANCH  12  15
ENDBRANCH  10  12
ENDBRANCH   1  10
BRANCH   2  22
ATOM     22  C   UNL d   1      -1.166  -3.163  -0.054  0.00  0.00     0.296 C 
ATOM     23  O   UNL d   1      -0.228  -3.878   0.280  0.00  0.00    -0.259 OA
BRANCH  22  24
ATOM     24  O   UNL d   1      -2.329  -3.638  -0.587  0.00  0.00    -0.318 OA
BRANCH  24  25
ATOM     25  C   UNL d   1      -2.439  -5.062  -0.697  0.00  0.00     0.174 C 
ATOM     26  C   UNL d   1      -2.960  -5.646   0.602  0.00  0.00     0.034 C 
ENDBRANCH  24  25
ENDBRANCH  22  24
ENDBRANCH   2  22
TORSDOF 6
