REMARK  4 active torsions:
REMARK  status: ('A' for Active; 'I' for Inactive)
REMARK    1  A    between atoms: N_8  and  C_3 
REMARK    2  A    between atoms: C_10  and  C_4 
REMARK    3  A    between atoms: C_16  and  N_11 
REMARK    4  A    between atoms: C_19  and  C_16 
ROOT
ATOM      1  N   UNL d   1       0.144   0.645   0.705  0.00  0.00    -0.331 N 
ATOM      2  HN  UNL d   1       0.776   1.083   1.374  1.00  0.00     0.168 HD
ATOM      3  C   UNL d   1      -0.483   1.388  -0.231  0.00  0.00     0.108 A 
ATOM      4  C   UNL d   1      -0.076  -0.674   0.743  0.00  0.00     0.118 A 
ATOM      5  C   UNL d   1      -1.319   0.793  -1.178  0.00  0.00     0.094 A 
ATOM      6  N   UNL d   1      -0.870  -1.327  -0.118  0.00  0.00    -0.344 N 
ATOM      7  HN  UNL d   1      -1.005  -2.336  -0.058  1.00  0.00     0.167 HD
ATOM      8  C   UNL d   1      -1.485  -0.585  -1.072  0.00  0.00     0.032 A 
ATOM      9 CL   UNL d   1      -2.140   1.708  -2.392  0.00  0.00    -0.079 Cl
ATOM     10  C   UNL d   1      -2.373  -1.358  -2.003  0.00  0.00     0.070 C 
ENDROOT
BRANCH   3  11
ATOM     11  N   UNL d   1      -0.279   2.804  -0.178  0.00  0.00    -0.266 NA
ATOM     12  C   UNL d   1       0.107   3.173   1.213  0.00  0.00     0.127 C 
ATOM     13  C   UNL d   1      -0.040   4.668   1.509  0.00  0.00     0.287 C 
ATOM     14  N   UNL d   1       0.832   5.602   0.782  0.00  0.00     0.093 N 
ATOM     15  C   UNL d   1       0.374   5.756  -0.600  0.00  0.00     0.274 C 
ATOM     16  C   UNL d   1       0.593   4.644  -1.635  0.00  0.00     0.045 C 
ATOM     17  C   UNL d   1       0.725   3.191  -1.183  0.00  0.00     0.099 C 
BRANCH  14  18
ATOM     18  C   UNL d   1       2.274   5.371   0.909  0.00  0.00     0.311 C 
BRANCH  18  19
ATOM     19  C   UNL d   1       2.799   5.300   2.334  0.00  0.00    -0.030 A 
ATOM     20  C   UNL d   1       3.477   4.152   2.782  0.00  0.00     0.012 A 
ATOM     21  C   UNL d   1       3.986   4.088   4.081  0.00  0.00     0.043 A 
ATOM     22  C   UNL d   1       3.829   5.171   4.933  0.00  0.00     0.116 A 
ATOM     23  C   UNL d   1       3.167   6.319   4.512  0.00  0.00     0.043 A 
ATOM     24  F   UNL d   1       4.324   5.113   6.175  0.00  0.00    -0.206 F 
ATOM     25  C   UNL d   1       2.652   6.384   3.213  0.00  0.00     0.012 A 
ENDBRANCH  18  19
ENDBRANCH  14  18
ENDBRANCH   3  11
BRANCH   4  26
ATOM     26  C   UNL d   1       0.605  -1.424   1.801  0.00  0.00     0.023 A 
ATOM     27  C   UNL d   1       1.394  -0.781   2.758  0.00  0.00     0.102 A 
ATOM     28  N   UNL d   1       2.073  -1.396   3.758  0.00  0.00    -0.374 N 
ATOM     29  C   UNL d   1       1.962  -2.737   3.821  0.00  0.00     0.087 A 
ATOM     30  HN  UNL d   1       2.637  -0.871   4.427  1.00  0.00     0.164 HD
ATOM     31  C   UNL d   1       1.203  -3.485   2.935  0.00  0.00     0.018 A 
ATOM     32  C   UNL d   1       0.518  -2.817   1.920  0.00  0.00     0.018 A 
ENDBRANCH   4  26
TORSDOF 4
