REMARK  5 active torsions:
REMARK  status: ('A' for Active; 'I' for Inactive)
REMARK    1  A    between atoms: C_2  and  C_1 
REMARK       I    between atoms: N_3  and  C_1 
REMARK    2  A    between atoms: C_14  and  N_3 
REMARK    3  A    between atoms: C_4  and  C_8 
REMARK    4  A    between atoms: N_6  and  C_15 
REMARK    5  A    between atoms: O_16  and  C_9 
ROOT
ATOM      1  C   UNL d   1      -1.125   0.873  -0.851  0.00  0.00     0.035 A 
ATOM      2  C   UNL d   1      -3.957   0.997  -0.838  0.00  0.00     0.032 A 
ATOM      3  C   UNL d   1      -1.824   1.133   0.326  0.00  0.00     0.032 A 
ATOM      4  C   UNL d   1      -1.853   0.755  -2.043  0.00  0.00     0.032 A 
ATOM      5  C   UNL d   1      -3.222   1.206   0.332  0.00  0.00     0.031 A 
ATOM      6  C   UNL d   1      -3.255   0.816  -2.031  0.00  0.00     0.031 A 
ENDROOT
BRANCH   1   7
ATOM      7  N   UNL d   1       0.274   0.680  -0.912  0.00  0.00    -0.323 N 
ATOM      8  C   UNL d   1       1.140   0.610   0.167  0.00  0.00     0.259 C 
ATOM      9  O   UNL d   1       0.847   0.774   1.351  0.00  0.00    -0.267 OA
ATOM     10  H   UNL d   1       0.636   0.428  -1.822  0.00  0.00     0.169 HD
BRANCH   8  11
ATOM     11  C   UNL d   1       2.547   0.213  -0.123  0.00  0.00     0.065 A 
ATOM     12  C   UNL d   1       3.282  -0.467   0.865  0.00  0.00     0.081 A 
ATOM     13  C   UNL d   1       4.582  -0.900   0.616  0.00  0.00     0.037 A 
ATOM     14  C   UNL d   1       5.175  -0.637  -0.617  0.00  0.00     0.003 A 
ATOM     15  C   UNL d   1       4.472   0.069  -1.594  0.00  0.00     0.001 A 
ATOM     16  C   UNL d   1       3.162   0.497  -1.350  0.00  0.00     0.020 A 
BRANCH  12  17
ATOM     17  O   UNL d   1       2.785  -0.746   2.111  0.00  0.00    -0.360 OA
ATOM     18  H   UNL d   1       1.950  -0.236   2.219  0.00  0.00     0.217 HD
ENDBRANCH  12  17
ENDBRANCH   8  11
ENDBRANCH   1   7
BRANCH   2  19
ATOM     19  N   UNL d   1      -5.363   0.971  -0.880  0.00  0.00    -0.365 N 
ATOM     20  C   UNL d   1      -5.996   0.392   0.092  0.00  0.00     0.107 C 
ATOM     21  HN  UNL d   1      -5.872   1.397  -1.655  1.00  0.00     0.165 HD
BRANCH  20  22
ATOM     22  C   UNL d   1      -7.434   0.282   0.089  0.00  0.00     0.020 A 
ATOM     23  S   UNL d   1      -8.224  -0.336   1.476  0.00  0.00    -0.101 SA
ATOM     24  C   UNL d   1      -9.762  -0.191   0.743  0.00  0.00     0.050 A 
ATOM     25  C   UNL d   1      -9.678   0.315  -0.535  0.00  0.00     0.008 A 
ATOM     26  C   UNL d   1      -8.332   0.596  -0.911  0.00  0.00     0.021 A 
ENDBRANCH  20  22
ENDBRANCH   2  19
TORSDOF 5
