REMARK  3 active torsions:
REMARK  status: ('A' for Active; 'I' for Inactive)
REMARK    1  A    between atoms: C_9  and  C_1 
REMARK    2  A    between atoms: C_4  and  O_6 
REMARK       I    between atoms: N_12  and  C_4 
REMARK    3  A    between atoms: O_6  and  C_5 
ROOT
ATOM      1  C   UNL d   1       1.041   1.235  -0.086  0.00  0.00     0.124 A 
ATOM      2  N   UNL d   1       1.733   0.086  -0.138  0.00  0.00    -0.322 N 
ATOM      3  HN  UNL d   1       2.749   0.060  -0.047  1.00  0.00     0.169 HD
ATOM      4  C   UNL d   1       1.001  -1.030  -0.319  0.00  0.00     0.156 A 
ATOM      5  N   UNL d   1      -0.298   1.343  -0.169  0.00  0.00    -0.345 N 
ATOM      6  HN  UNL d   1      -0.765   2.248  -0.119  1.00  0.00     0.167 HD
ATOM      7  C   UNL d   1      -0.374  -1.028  -0.411  0.00  0.00     0.081 A 
ATOM      8  C   UNL d   1      -0.992   0.200  -0.320  0.00  0.00     0.011 A 
ATOM      9  C   UNL d   1      -2.482   0.326  -0.403  0.00  0.00     0.068 C 
ENDROOT
BRANCH   4  10
ATOM     10  O   UNL d   1       1.761  -2.224  -0.286  0.00  0.00    -0.244 OA
BRANCH  10  11
ATOM     11  C   UNL d   1       1.320  -3.454  -0.775  0.00  0.00     0.368 C 
ATOM     12  N   UNL d   1       2.173  -4.502  -0.450  0.00  0.00    -0.336 N 
ATOM     13  C   UNL d   1       1.737  -5.865  -0.696  0.00  0.00     0.154 C 
ATOM     14  C   UNL d   1       3.352  -4.332   0.382  0.00  0.00     0.154 C 
ATOM     15  O   UNL d   1       0.280  -3.610  -1.407  0.00  0.00    -0.238 OA
ENDBRANCH  10  11
ENDBRANCH   4  10
BRANCH   1  16
ATOM     16  C   UNL d   1       1.765   2.509   0.009  0.00  0.00     0.049 A 
ATOM     17  S   UNL d   1       3.432   2.577   0.413  0.00  0.00    -0.098 SA
ATOM     18  C   UNL d   1       3.472   4.283   0.279  0.00  0.00     0.050 A 
ATOM     19  C   UNL d   1       2.247   4.806  -0.052  0.00  0.00     0.009 A 
ATOM     20  C   UNL d   1       1.263   3.786  -0.194  0.00  0.00     0.023 A 
ENDBRANCH   1  16
TORSDOF 3
