REMARK  2 active torsions:
REMARK  status: ('A' for Active; 'I' for Inactive)
REMARK    1  A    between atoms: C_2  and  C_1 
REMARK    2  A    between atoms: C_12  and  C_7 
ROOT
ATOM      1  C   UNL d   1       3.963   0.122   0.104  0.00  0.00     0.057 A 
ATOM      2  N   UNL d   1       4.760  -0.511  -0.835  0.00  0.00    -0.348 N 
ATOM      3  HN  UNL d   1       4.405  -1.040  -1.632  1.00  0.00     0.166 HD
ATOM      4  C   UNL d   1       6.039  -0.339  -0.561  0.00  0.00     0.084 A 
ATOM      5  S   UNL d   1       6.353   0.643   0.818  0.00  0.00    -0.081 SA
ATOM      6  C   UNL d   1       4.672   0.802   1.077  0.00  0.00     0.082 A 
ENDROOT
BRANCH   1   7
ATOM      7  C   UNL d   1       2.450   0.081   0.065  0.00  0.00     0.039 A 
ATOM      8  S   UNL d   1       1.514   0.972   1.190  0.00  0.00    -0.087 SA
ATOM      9  C   UNL d   1       0.030   0.461   0.524  0.00  0.00     0.016 A 
ATOM     10  C   UNL d   1      -1.256   0.834   0.963  0.00  0.00     0.021 A 
ATOM     11  C   UNL d   1       0.229  -0.407  -0.548  0.00  0.00    -0.010 A 
ATOM     12  C   UNL d   1      -2.372   0.312   0.309  0.00  0.00     0.025 A 
ATOM     13  C   UNL d   1      -2.207  -0.560  -0.754  0.00  0.00     0.035 A 
ATOM     14  C   UNL d   1      -0.930  -0.925  -1.191  0.00  0.00     0.037 A 
ATOM     15 CL   UNL d   1      -3.593  -1.204  -1.548  0.00  0.00    -0.084 Cl
ATOM     16  C   UNL d   1       1.647  -0.631  -0.820  0.00  0.00    -0.031 A 
ATOM     17  C   UNL d   1       2.086  -1.538  -1.931  0.00  0.00     0.050 C 
ENDBRANCH   1   7
BRANCH   4  18
ATOM     18  C   UNL d   1       7.144  -0.888  -1.366  0.00  0.00    -0.002 A 
ATOM     19  C   UNL d   1       6.957  -1.088  -2.744  0.00  0.00     0.016 A 
ATOM     20  C   UNL d   1       7.976  -1.625  -3.537  0.00  0.00     0.024 A 
ATOM     21  C   UNL d   1       9.193  -1.976  -2.957  0.00  0.00     0.034 A 
ATOM     22  C   UNL d   1       9.400  -1.790  -1.593  0.00  0.00     0.024 A 
ATOM     23 CL   UNL d   1      10.441  -2.654  -3.925  0.00  0.00    -0.084 Cl
ATOM     24  C   UNL d   1       8.380  -1.249  -0.802  0.00  0.00     0.016 A 
ENDBRANCH   4  18
TORSDOF 2
