REMARK  6 active torsions:
REMARK  status: ('A' for Active; 'I' for Inactive)
REMARK    1  A    between atoms: C_13  and  C_3 
REMARK    2  A    between atoms: C_6  and  C_10 
REMARK    3  A    between atoms: N_14  and  C_6 
REMARK    4  A    between atoms: O_17  and  N_8 
REMARK    5  A    between atoms: O_15  and  C_13 
REMARK    6  A    between atoms: C_16  and  O_15 
ROOT
ATOM      1  C   UNL d   1       4.830  -9.045   0.885  0.00  0.00     0.004 A 
ATOM      2  C   UNL d   1       5.389 -10.326   0.896  0.00  0.00     0.017 A 
ATOM      3  C   UNL d   1       5.365  -8.048   1.709  0.00  0.00     0.017 A 
ATOM      4  C   UNL d   1       7.061  -9.599   2.486  0.00  0.00     0.069 A 
ATOM      5  C   UNL d   1       6.491 -10.607   1.706  0.00  0.00     0.037 A 
ATOM      6  C   UNL d   1       6.476  -8.330   2.509  0.00  0.00     0.037 A 
ENDROOT
BRANCH   4   7
ATOM      7  O   UNL d   1       8.186  -9.746   3.253  0.00  0.00    -0.345 OA
BRANCH   7   8
ATOM      8  C   UNL d   1       9.080 -10.780   2.818  0.00  0.00     0.233 C 
BRANCH   8   9
ATOM      9  C   UNL d   1      10.480 -10.583   3.314  0.00  0.00     0.041 A 
ATOM     10  N   UNL d   1      11.458 -11.461   2.860  0.00  0.00    -0.355 N 
ATOM     11  C   UNL d   1      12.630 -11.132   3.355  0.00  0.00     0.047 A 
ATOM     12  HN  UNL d   1      11.289 -12.247   2.232  1.00  0.00     0.166 HD
ATOM     13  S   UNL d   1      12.633  -9.773   4.405  0.00  0.00    -0.087 SA
ATOM     14  C   UNL d   1      13.897 -11.851   3.054  0.00  0.00     0.076 C 
ATOM     15  C   UNL d   1      10.945  -9.603   4.170  0.00  0.00     0.078 A 
ENDBRANCH   8   9
ENDBRANCH   7   8
ENDBRANCH   4   7
BRANCH   1  16
ATOM     16  C   UNL d   1       3.686  -8.750  -0.026  0.00  0.00     0.108 C 
ATOM     17  N   UNL d   1       3.554  -9.469  -1.106  0.00  0.00    -0.258 N 
ATOM     18  HN  UNL d   1       4.186 -10.221  -1.379  1.00  0.00     0.195 HD
BRANCH  17  19
ATOM     19  O   UNL d   1       2.426  -9.072  -1.843  0.00  0.00    -0.289 OA
ATOM     20  H   UNL d   1       2.525  -9.603  -2.656  0.00  0.00     0.244 HD
ENDBRANCH  17  19
BRANCH  16  21
ATOM     21  N   UNL d   1       2.809  -7.743   0.298  0.00  0.00    -0.287 NA
ATOM     22  H   UNL d   1       2.550  -7.706   1.277  0.00  0.00     0.125 HD
ATOM     23  H   UNL d   1       1.994  -7.804  -0.309  0.00  0.00     0.125 HD
ENDBRANCH  16  21
ENDBRANCH   1  16
TORSDOF 6
