REMARK  1 active torsions:
REMARK  status: ('A' for Active; 'I' for Inactive)
REMARK       I    between atoms: C_2  and  N_3 
REMARK    1  A    between atoms: C_5  and  C_2 
ROOT
ATOM      1  C   UNL d   1      -3.034   0.029   0.190  0.00  0.00     0.680 A 
ATOM      2  C   UNL d   1      -8.403  -0.880   0.101  0.00  0.00     0.260 C 
ATOM      3  N   UNL d   1      -7.025  -0.950  -0.137  0.00  0.00    -0.344 N 
ATOM      4  N   UNL d   1      -4.393   0.026   0.313  0.00  0.00    -0.214 N 
ATOM      5  N   UNL d   1      -2.484   0.674  -0.856  0.00  0.00    -0.201 N 
ATOM      6  HN  UNL d   1      -3.067   1.149  -1.545  1.00  0.00     0.183 HD
ATOM      7  N   UNL d   1      -2.290  -0.618   1.103  0.00  0.00    -0.201 N 
ATOM      8  HN  UNL d   1      -2.724  -1.110   1.883  1.00  0.00     0.183 HD
ATOM      9  C   UNL d   1      -6.285  -0.266  -1.212  0.00  0.00     0.146 C 
ATOM     10  C   UNL d   1      -6.156  -1.602   0.860  0.00  0.00     0.146 C 
ATOM     11  C   UNL d   1      -5.236   0.711  -0.658  0.00  0.00     0.161 C 
ATOM     12  C   UNL d   1      -5.085  -0.640   1.417  0.00  0.00     0.161 C 
ATOM     13  O   UNL d   1      -8.866  -1.317   1.155  0.00  0.00    -0.267 OA
ATOM     14  C   UNL d   1      -0.310   0.046  -0.076  0.00  0.00     0.042 A 
ATOM     15  C   UNL d   1      -1.136   0.673  -0.968  0.00  0.00     0.126 A 
ATOM     16  C   UNL d   1      -0.946  -0.595   0.954  0.00  0.00     0.126 A 
ATOM     17 BR   UNL d   1       1.558   0.066  -0.253  0.00  0.00    -0.048 Br
ENDROOT
BRANCH   2  18
ATOM     18  C   UNL d   1      -9.265  -0.273  -0.914  0.00  0.00     0.072 A 
ATOM     19  S   UNL d   1     -10.622   0.645  -0.392  0.00  0.00    -0.097 SA
ATOM     20  C   UNL d   1     -11.046   1.068  -1.992  0.00  0.00     0.050 A 
ATOM     21  C   UNL d   1     -10.205   0.493  -2.917  0.00  0.00     0.009 A 
ATOM     22  C   UNL d   1      -9.224  -0.336  -2.298  0.00  0.00     0.025 A 
ENDBRANCH   2  18
TORSDOF 1
