REMARK  10 active torsions:
REMARK  status: ('A' for Active; 'I' for Inactive)
REMARK       I    between atoms: N_6  and  C_1 
REMARK       I    between atoms: N_7  and  C_1 
REMARK    1  A    between atoms: C_2  and  N_11 
REMARK    2  A    between atoms: N_4  and  C_2 
REMARK    3  A    between atoms: C_3  and  N_10 
REMARK    4  A    between atoms: N_5  and  C_3 
REMARK    5  A    between atoms: C_8  and  N_4 
REMARK    6  A    between atoms: C_9  and  N_5 
REMARK    7  A    between atoms: N_11  and  N_6 
REMARK    8  A    between atoms: N_10  and  N_7 
REMARK    9  A    between atoms: O_17  and  C_15 
REMARK   10  A    between atoms: O_18  and  C_16 
ROOT
ATOM      1  C   UNL d   1       0.928  -0.115   0.747  0.00  0.00     0.353 C 
ATOM      2  N   UNL d   1       0.246  -1.261   1.120  0.00  0.00    -0.248 N 
ATOM      3  N   UNL d   1       0.247   1.042   1.086  0.00  0.00    -0.248 N 
ATOM      4  O   UNL d   1       1.994  -0.144   0.134  0.00  0.00    -0.244 OA
ATOM      5  H   UNL d   1       0.636  -2.154   0.833  0.00  0.00     0.192 HD
ATOM      6  H   UNL d   1      -0.169   0.995   2.012  0.00  0.00     0.192 HD
ENDROOT
BRANCH   2   7
ATOM      7  N   UNL d   1      -1.144  -1.206   1.437  0.00  0.00    -0.272 N 
ATOM      8  H   UNL d   1      -1.539  -0.269   1.397  0.00  0.00     0.189 HD
BRANCH   7   9
ATOM      9  C   UNL d   1      -2.008  -2.124   0.920  0.00  0.00     0.191 C 
ATOM     10  S   UNL d   1      -3.527  -1.616   0.443  0.00  0.00    -0.039 SA
BRANCH   9  11
ATOM     11  N   UNL d   1      -1.644  -3.415   0.727  0.00  0.00    -0.330 N 
ATOM     12  H   UNL d   1      -2.282  -3.940   0.139  0.00  0.00     0.168 HD
BRANCH  11  13
ATOM     13  C   UNL d   1      -0.773  -4.225   1.487  0.00  0.00     0.068 A 
ATOM     14  C   UNL d   1      -0.311  -5.454   0.985  0.00  0.00     0.095 A 
ATOM     15  C   UNL d   1       0.468  -6.282   1.807  0.00  0.00     0.039 A 
ATOM     16  C   UNL d   1       0.779  -5.910   3.114  0.00  0.00     0.003 A 
ATOM     17  C   UNL d   1       0.302  -4.710   3.620  0.00  0.00     0.002 A 
ATOM     18  C   UNL d   1      -0.464  -3.872   2.812  0.00  0.00     0.032 A 
BRANCH  14  19
ATOM     19  O   UNL d   1      -0.578  -6.010  -0.239  0.00  0.00    -0.354 OA
ATOM     20  C   UNL d   1      -0.643  -5.154  -1.372  0.00  0.00     0.210 C 
ENDBRANCH  14  19
ENDBRANCH  11  13
ENDBRANCH   9  11
ENDBRANCH   7   9
ENDBRANCH   2   7
BRANCH   3  21
ATOM     21  N   UNL d   1       0.804   2.297   0.803  0.00  0.00    -0.272 N 
ATOM     22  H   UNL d   1       1.409   2.369  -0.019  0.00  0.00     0.189 HD
BRANCH  21  23
ATOM     23  C   UNL d   1       0.698   3.316   1.718  0.00  0.00     0.191 C 
ATOM     24  S   UNL d   1       0.212   3.109   3.311  0.00  0.00    -0.039 SA
BRANCH  23  25
ATOM     25  N   UNL d   1       1.028   4.569   1.293  0.00  0.00    -0.330 N 
ATOM     26  H   UNL d   1       1.156   5.248   2.037  0.00  0.00     0.168 HD
BRANCH  25  27
ATOM     27  C   UNL d   1       0.816   5.151   0.022  0.00  0.00     0.068 A 
ATOM     28  C   UNL d   1       1.409   6.386  -0.294  0.00  0.00     0.095 A 
ATOM     29  C   UNL d   1       1.048   7.048  -1.474  0.00  0.00     0.039 A 
ATOM     30  C   UNL d   1       0.110   6.494  -2.346  0.00  0.00     0.003 A 
ATOM     31  C   UNL d   1      -0.476   5.272  -2.041  0.00  0.00     0.002 A 
ATOM     32  C   UNL d   1      -0.121   4.602  -0.869  0.00  0.00     0.032 A 
BRANCH  28  33
ATOM     33  O   UNL d   1       2.288   7.085   0.495  0.00  0.00    -0.354 OA
ATOM     34  C   UNL d   1       3.335   6.332   1.102  0.00  0.00     0.210 C 
ENDBRANCH  28  33
ENDBRANCH  25  27
ENDBRANCH  23  25
ENDBRANCH  21  23
ENDBRANCH   3  21
TORSDOF 10
