REMARK  4 active torsions:
REMARK  status: ('A' for Active; 'I' for Inactive)
REMARK    1  A    between atoms: C_2  and  C_1 
REMARK       I    between atoms: N_3  and  C_2 
REMARK    2  A    between atoms: C_4  and  N_3 
REMARK    3  A    between atoms: N_6  and  C_5 
REMARK       I    between atoms: C_9  and  N_6 
REMARK    4  A    between atoms: C_10  and  C_7 
ROOT
ATOM      1  C   UNL d   1      -0.646  -1.709  -1.340  0.00  0.00     0.062 C 
ATOM      2  C   UNL d   1      -1.223  -1.501  -0.073  0.00  0.00     0.061 C 
ATOM      3  C   UNL d   1      -1.635  -3.967  -1.469  0.00  0.00    -0.048 C 
ATOM      4  C   UNL d   1      -0.903  -2.906  -2.034  0.00  0.00     0.039 C 
ATOM      5  C   UNL d   1      -1.829  -2.596   0.549  0.00  0.00     0.032 C 
ATOM      6  C   UNL d   1      -2.022  -3.814  -0.132  0.00  0.00     0.010 C 
ENDROOT
BRANCH   1   7
ATOM      7  N   UNL d   1       0.237  -0.773  -1.923  0.00  0.00    -0.321 N 
ATOM      8  C   UNL d   1       1.504  -1.107  -2.382  0.00  0.00     0.277 C 
ATOM      9  O   UNL d   1       1.913  -2.283  -2.393  0.00  0.00    -0.268 OA
ATOM     10  H   UNL d   1       0.082   0.204  -1.664  0.00  0.00     0.169 HD
BRANCH   8  11
ATOM     11  C   UNL d   1       2.429   0.055  -2.822  0.00  0.00     0.269 C 
ATOM     12 CL   UNL d   1       1.617   1.640  -2.830  0.00  0.00    -0.073 Cl
ATOM     13 CL   UNL d   1       3.026  -0.295  -4.468  0.00  0.00    -0.073 Cl
ATOM     14 CL   UNL d   1       3.805   0.132  -1.679  0.00  0.00    -0.073 Cl
ENDBRANCH   8  11
ENDBRANCH   1   7
BRANCH   2  15
ATOM     15  N   UNL d   1      -1.191  -0.282   0.665  0.00  0.00    -0.326 N 
ATOM     16  C   UNL d   1      -1.070   0.986   0.135  0.00  0.00     0.218 C 
ATOM     17  O   UNL d   1      -1.002   1.256  -1.063  0.00  0.00    -0.274 OA
ATOM     18  C   UNL d   1      -0.944   2.094   1.138  0.00  0.00     0.117 C 
ATOM     19  H   UNL d   1      -1.519  -0.334   1.623  0.00  0.00     0.169 HD
ENDBRANCH   2  15
BRANCH   3  20
ATOM     20  C   UNL d   1      -1.963  -5.213  -2.314  0.00  0.00    -0.024 C 
ATOM     21  C   UNL d   1      -0.671  -5.823  -2.897  0.00  0.00     0.019 C 
ATOM     22  C   UNL d   1      -2.688  -6.323  -1.521  0.00  0.00     0.019 C 
ATOM     23  C   UNL d   1      -2.893  -4.828  -3.491  0.00  0.00     0.019 C 
ENDBRANCH   3  20
TORSDOF 4
