REMARK  9 active torsions:
REMARK  status: ('A' for Active; 'I' for Inactive)
REMARK    1  A    between atoms: C_5  and  N_1 
REMARK    2  A    between atoms: S_2  and  C_7 
REMARK    3  A    between atoms: N_18  and  S_2 
REMARK       I    between atoms: C_15  and  N_16 
REMARK    4  A    between atoms: N_16  and  C_20 
REMARK    5  A    between atoms: C_30  and  N_18 
REMARK    6  A    between atoms: C_24  and  O_28 
REMARK    7  A    between atoms: C_27  and  C_30 
REMARK    8  A    between atoms: C_33  and  C_27 
REMARK    9  A    between atoms: O_28  and  C_33 
ROOT
ATOM      1  S   UNL d   1       6.424  -4.456   0.413  0.00  0.00     0.258 S 
ATOM      2  O   UNL d   1       5.930  -5.814   0.499  0.00  0.00    -0.201 OA
ATOM      3  O   UNL d   1       7.356  -4.042  -0.612  0.00  0.00    -0.201 OA
ENDROOT
BRANCH   1   4
ATOM      4  C   UNL d   1       5.016  -3.373   0.345  0.00  0.00     0.081 A 
ATOM      5  C   UNL d   1       5.119  -2.121  -0.265  0.00  0.00     0.027 A 
ATOM      6  C   UNL d   1       3.998  -1.286  -0.310  0.00  0.00     0.033 A 
ATOM      7  C   UNL d   1       2.786  -1.683   0.281  0.00  0.00     0.067 A 
ATOM      8  C   UNL d   1       2.696  -2.958   0.868  0.00  0.00     0.062 A 
ATOM      9  C   UNL d   1       3.802  -3.808   0.881  0.00  0.00     0.051 A 
ATOM     10 CL   UNL d   1       1.207  -3.599   1.475  0.00  0.00    -0.082 Cl
BRANCH   7  11
ATOM     11  N   UNL d   1       1.684  -0.799   0.262  0.00  0.00    -0.250 N 
ATOM     12  C   UNL d   1       1.189  -0.227  -0.880  0.00  0.00     0.232 C 
ATOM     13  C   UNL d   1      -0.039   0.567  -0.530  0.00  0.00     0.123 C 
ATOM     14  O   UNL d   1       1.601  -0.357  -2.024  0.00  0.00    -0.273 OA
ATOM     15  C   UNL d   1      -0.053   0.591   0.999  0.00  0.00     0.050 C 
ATOM     16  C   UNL d   1       1.052  -0.362   1.400  0.00  0.00     0.240 C 
ATOM     17  C   UNL d   1      -1.393   0.194   1.615  0.00  0.00     0.020 C 
ATOM     18  C   UNL d   1       0.184   1.992   1.569  0.00  0.00     0.020 C 
ATOM     19  O   UNL d   1       1.366  -0.599   2.559  0.00  0.00    -0.272 OA
ATOM     20  C   UNL d   1      -2.206   1.481   1.666  0.00  0.00     0.001 C 
ATOM     21  C   UNL d   1      -1.200   2.629   1.646  0.00  0.00     0.001 C 
ENDBRANCH   7  11
ENDBRANCH   1   4
BRANCH   1  22
ATOM     22  N   UNL d   1       7.122  -4.050   1.892  0.00  0.00    -0.315 N 
ATOM     23  H   UNL d   1       7.772  -3.271   1.779  0.00  0.00     0.172 HD
BRANCH  22  24
ATOM     24  C   UNL d   1       6.315  -4.151   3.119  0.00  0.00     0.134 C 
BRANCH  24  25
ATOM     25  C   UNL d   1       7.157  -3.942   4.380  0.00  0.00     0.047 C 
BRANCH  25  26
ATOM     26  C   UNL d   1       7.790  -2.560   4.371  0.00  0.00     0.177 C 
BRANCH  26  27
ATOM     27  O   UNL d   1       8.424  -2.228   5.611  0.00  0.00    -0.351 OA
BRANCH  27  28
ATOM     28  C   UNL d   1       9.094  -1.023   5.572  0.00  0.00     0.070 A 
ATOM     29  C   UNL d   1       9.092  -0.164   4.468  0.00  0.00     0.066 A 
ATOM     30  C   UNL d   1       9.828   1.017   4.437  0.00  0.00     0.037 A 
ATOM     31  C   UNL d   1      10.549   1.374   5.578  0.00  0.00     0.029 A 
ATOM     32  C   UNL d   1      10.539   0.539   6.707  0.00  0.00     0.005 A 
ATOM     33  C   UNL d   1       9.821  -0.660   6.701  0.00  0.00     0.037 A 
BRANCH  30  34
ATOM     34  N   UNL d   1       9.876   1.843   3.288  0.00  0.00    -0.327 N 
ATOM     35  C   UNL d   1       9.276   1.587   2.064  0.00  0.00     0.218 C 
ATOM     36  O   UNL d   1       8.577   0.623   1.758  0.00  0.00    -0.274 OA
ATOM     37  C   UNL d   1       9.547   2.644   1.019  0.00  0.00     0.117 C 
ATOM     38  H   UNL d   1      10.442   2.678   3.368  0.00  0.00     0.169 HD
ENDBRANCH  30  34
ENDBRANCH  27  28
ENDBRANCH  26  27
ENDBRANCH  25  26
ENDBRANCH  24  25
ENDBRANCH  22  24
ENDBRANCH   1  22
TORSDOF 9
