REMARK  10 active torsions:
REMARK  status: ('A' for Active; 'I' for Inactive)
REMARK    1  A    between atoms: C_8  and  C_1 
REMARK    2  A    between atoms: C_3  and  C_2 
REMARK    3  A    between atoms: C_5  and  C_3 
REMARK    4  A    between atoms: N_13  and  C_4 
REMARK    5  A    between atoms: C_6  and  N_10 
REMARK    6  A    between atoms: O_23  and  C_8 
REMARK       I    between atoms: N_10  and  C_14 
REMARK    7  A    between atoms: O_26  and  C_11 
REMARK    8  A    between atoms: O_27  and  C_12 
REMARK    9  A    between atoms: C_21  and  N_13 
REMARK   10  A    between atoms: C_14  and  C_21 
ROOT
ATOM      1  N   UNL d   1       2.927  -5.149  -0.984  0.00  0.00    -0.325 N 
ATOM      2  C   UNL d   1       2.272  -4.635   0.122  0.00  0.00     0.235 C 
ATOM      3  O   UNL d   1       1.654  -5.419   0.851  0.00  0.00    -0.272 OA
ATOM      4  H   UNL d   1       2.573  -6.081  -1.168  0.00  0.00     0.169 HD
ENDROOT
BRANCH   2   5
ATOM      5  C   UNL d   1       2.261  -3.126   0.390  0.00  0.00     0.195 C 
BRANCH   5   6
ATOM      6  N   UNL d   1       0.887  -2.590   0.551  0.00  0.00    -0.283 NA
ATOM      7  H   UNL d   1       0.335  -3.188   1.177  0.00  0.00     0.128 HD
BRANCH   6   8
ATOM      8  C   UNL d   1       0.789  -1.225   0.921  0.00  0.00     0.028 A 
ATOM      9  C   UNL d   1      -0.275  -0.698   1.685  0.00  0.00     0.063 A 
ATOM     10  C   UNL d   1      -0.289   0.683   1.981  0.00  0.00     0.059 A 
ATOM     11  C   UNL d   1       0.692   1.562   1.512  0.00  0.00     0.102 A 
ATOM     12  C   UNL d   1       1.730   1.067   0.723  0.00  0.00     0.103 A 
ATOM     13  C   UNL d   1       1.730  -0.298   0.405  0.00  0.00     0.064 A 
BRANCH   9  14
ATOM     14  C   UNL d   1      -1.439  -1.454   2.246  0.00  0.00     0.294 C 
ATOM     15  O   UNL d   1      -2.362  -0.894   2.823  0.00  0.00    -0.259 OA
BRANCH  14  16
ATOM     16  O   UNL d   1      -1.355  -2.792   2.047  0.00  0.00    -0.322 OA
ATOM     17  C   UNL d   1      -2.477  -3.544   2.528  0.00  0.00     0.213 C 
ENDBRANCH  14  16
ENDBRANCH   9  14
BRANCH  11  18
ATOM     18  O   UNL d   1       0.517   2.853   1.938  0.00  0.00    -0.353 OA
ATOM     19  C   UNL d   1       0.983   3.882   1.073  0.00  0.00     0.210 C 
ENDBRANCH  11  18
BRANCH  12  20
ATOM     20  O   UNL d   1       2.708   1.936   0.325  0.00  0.00    -0.353 OA
ATOM     21  C   UNL d   1       3.824   1.444  -0.403  0.00  0.00     0.210 C 
ENDBRANCH  12  20
ENDBRANCH   6   8
ENDBRANCH   5   6
ENDBRANCH   2   5
BRANCH   1  22
ATOM     22  C   UNL d   1       3.421  -4.410  -2.082  0.00  0.00     0.049 A 
ATOM     23  C   UNL d   1       4.550  -3.549  -2.056  0.00  0.00     0.043 A 
ATOM     24  C   UNL d   1       4.840  -2.797  -3.207  0.00  0.00     0.041 A 
ATOM     25  C   UNL d   1       4.075  -2.952  -4.372  0.00  0.00     0.035 A 
ATOM     26  C   UNL d   1       3.020  -3.854  -4.414  0.00  0.00     0.026 A 
ATOM     27 CL   UNL d   1       4.441  -2.017  -5.770  0.00  0.00    -0.084 Cl
ATOM     28  C   UNL d   1       2.700  -4.590  -3.276  0.00  0.00     0.032 A 
BRANCH  23  29
ATOM     29  C   UNL d   1       5.424  -3.433  -0.839  0.00  0.00     0.196 C 
ATOM     30  O   UNL d   1       4.998  -3.808   0.257  0.00  0.00    -0.287 OA
BRANCH  29  31
ATOM     31  C   UNL d   1       6.771  -2.813  -0.794  0.00  0.00     0.037 A 
ATOM     32  C   UNL d   1       7.837  -3.151  -1.635  0.00  0.00     0.048 A 
ATOM     33 CL   UNL d   1       7.731  -4.381  -2.841  0.00  0.00    -0.083 Cl
ATOM     34  C   UNL d   1       9.089  -2.542  -1.452  0.00  0.00     0.025 A 
ATOM     35  C   UNL d   1       9.302  -1.652  -0.397  0.00  0.00     0.002 A 
ATOM     36  C   UNL d   1       8.266  -1.364   0.484  0.00  0.00     0.001 A 
ATOM     37  C   UNL d   1       7.008  -1.933   0.281  0.00  0.00     0.017 A 
ENDBRANCH  29  31
ENDBRANCH  23  29
ENDBRANCH   1  22
TORSDOF 10
