REMARK  4 active torsions:
REMARK  status: ('A' for Active; 'I' for Inactive)
REMARK       I    between atoms: N_2  and  C_1 
REMARK    1  A    between atoms: C_5  and  C_1 
REMARK    2  A    between atoms: C_6  and  N_2 
REMARK    3  A    between atoms: S_3  and  C_5 
REMARK    4  A    between atoms: C_7  and  S_3 
ROOT
ATOM      1  C   UNL d   1       1.104   0.058  -0.023  0.00  0.00     0.231 C 
ATOM      2  N   UNL d   1       0.405   1.054   0.648  0.00  0.00    -0.327 N 
ATOM      3  O   UNL d   1       0.590  -0.847  -0.684  0.00  0.00    -0.272 OA
ATOM      4  H   UNL d   1       0.964   1.794   1.060  0.00  0.00     0.169 HD
ENDROOT
BRANCH   1   5
ATOM      5  C   UNL d   1       2.624   0.192  -0.021  0.00  0.00     0.182 C 
BRANCH   5   6
ATOM      6  S   UNL d   1       3.286   0.711   1.590  0.00  0.00    -0.121 SA
BRANCH   6   7
ATOM      7  C   UNL d   1       5.048   0.585   1.290  0.00  0.00     0.001 A 
ATOM      8  C   UNL d   1       5.675   1.260   0.238  0.00  0.00     0.019 A 
ATOM      9  C   UNL d   1       7.072   1.277   0.138  0.00  0.00     0.008 A 
ATOM     10  C   UNL d   1       7.863   0.628   1.093  0.00  0.00    -0.062 A 
ATOM     11  C   UNL d   1       7.234  -0.099   2.108  0.00  0.00     0.008 A 
ATOM     12  C   UNL d   1       9.357   0.765   1.051  0.00  0.00     0.048 C 
ATOM     13  C   UNL d   1       5.838  -0.116   2.207  0.00  0.00     0.019 A 
ENDBRANCH   6   7
ENDBRANCH   5   6
ENDBRANCH   1   5
BRANCH   2  14
ATOM     14  C   UNL d   1      -0.994   1.108   0.855  0.00  0.00     0.034 A 
ATOM     15  C   UNL d   1      -1.861   0.066   0.526  0.00  0.00     0.031 A 
ATOM     16  C   UNL d   1      -3.231   0.144   0.798  0.00  0.00     0.020 A 
ATOM     17  C   UNL d   1      -3.753   1.287   1.403  0.00  0.00     0.006 A 
ATOM     18  C   UNL d   1      -2.911   2.346   1.722  0.00  0.00     0.020 A 
ATOM     19  I   UNL d   1      -5.778   1.384   1.846  0.00  0.00    -0.045 I 
ATOM     20  C   UNL d   1      -1.533   2.256   1.456  0.00  0.00     0.031 A 
ENDBRANCH   2  14
TORSDOF 4
