REMARK  6 active torsions:
REMARK  status: ('A' for Active; 'I' for Inactive)
REMARK    1  A    between atoms: N_2  and  S_1 
REMARK    2  A    between atoms: C_3  and  S_1 
REMARK    3  A    between atoms: C_8  and  N_2 
REMARK    4  A    between atoms: C_12  and  N_2 
REMARK    5  A    between atoms: C_16  and  C_12 
REMARK    6  A    between atoms: C_17  and  C_16 
ROOT
ATOM      1  S   UNL d   1       1.112  -0.113   0.009  0.00  0.00     0.244 S 
ATOM      2  O   UNL d   1       0.845  -1.502  -0.313  0.00  0.00    -0.206 OA
ATOM      3  O   UNL d   1       2.471   0.378   0.052  0.00  0.00    -0.206 OA
ENDROOT
BRANCH   1   4
ATOM      4  N   UNL d   1       0.360   0.204   1.539  0.00  0.00    -0.203 NA
BRANCH   4   5
ATOM      5  C   UNL d   1      -1.161   0.255   1.538  0.00  0.00     0.066 C 
ATOM      6  C   UNL d   1      -1.825  -1.065   1.150  0.00  0.00     0.027 C 
ATOM      7  C   UNL d   1      -1.714   0.762   2.875  0.00  0.00     0.027 C 
ENDBRANCH   4   5
BRANCH   4   8
ATOM      8  C   UNL d   1       0.912  -0.653   2.658  0.00  0.00     0.108 C 
BRANCH   8   9
ATOM      9  C   UNL d   1       2.430  -0.631   2.846  0.00  0.00     0.015 C 
BRANCH   9  10
ATOM     10  C   UNL d   1       2.977   0.735   3.256  0.00  0.00    -0.003 C 
ATOM     11  C   UNL d   1       4.493   0.693   3.388  0.00  0.00     0.005 C 
ENDBRANCH   9  10
ENDBRANCH   8   9
ENDBRANCH   4   8
ENDBRANCH   1   4
BRANCH   1  12
ATOM     12  C   UNL d   1       0.272   0.896  -1.188  0.00  0.00     0.074 A 
ATOM     13  C   UNL d   1       0.396   2.286  -1.131  0.00  0.00     0.025 A 
ATOM     14  C   UNL d   1      -0.162   3.067  -2.147  0.00  0.00     0.008 A 
ATOM     15  C   UNL d   1      -0.831   2.466  -3.225  0.00  0.00    -0.062 A 
ATOM     16  C   UNL d   1      -0.948   1.070  -3.267  0.00  0.00     0.008 A 
ATOM     17  C   UNL d   1      -1.384   3.313  -4.334  0.00  0.00     0.048 C 
ATOM     18  C   UNL d   1      -0.399   0.285  -2.253  0.00  0.00     0.025 A 
ENDBRANCH   1  12
TORSDOF 6
