REMARK  3 active torsions:
REMARK  status: ('A' for Active; 'I' for Inactive)
REMARK    1  A    between atoms: N_2  and  C_1 
REMARK    2  A    between atoms: N_3  and  C_1 
REMARK    3  A    between atoms: C_4  and  N_2 
ROOT
ATOM      1  N   UNL d   1       0.600  -0.509  -1.044  0.00  0.00    -0.333 N 
ATOM      2  H   UNL d   1      -0.350  -0.267  -1.285  0.00  0.00     0.168 HD
ENDROOT
BRANCH   1   3
ATOM      3  C   UNL d   1       1.189   0.393  -0.165  0.00  0.00     0.174 C 
ATOM      4  S   UNL d   1       2.728   1.044  -0.400  0.00  0.00    -0.041 SA
BRANCH   3   5
ATOM      5  N   UNL d   1       0.323   0.767   0.891  0.00  0.00    -0.358 N 
ATOM      6  C   UNL d   1       0.653   1.900   1.769  0.00  0.00     0.125 C 
ATOM      7  C   UNL d   1      -0.522   2.538   2.508  0.00  0.00     0.020 C 
ATOM      8  C   UNL d   1      -1.760   2.740   1.637  0.00  0.00     0.002 C 
ATOM      9  C   UNL d   1      -2.674   1.516   1.633  0.00  0.00     0.002 C 
ATOM     10  C   UNL d   1      -2.118   0.290   0.908  0.00  0.00     0.020 C 
ATOM     11  C   UNL d   1      -0.728  -0.145   1.364  0.00  0.00     0.125 C 
ENDBRANCH   3   5
ENDBRANCH   1   3
BRANCH   1  12
ATOM     12  C   UNL d   1       1.236  -1.486  -1.846  0.00  0.00     0.040 A 
ATOM     13  C   UNL d   1       0.696  -1.866  -3.090  0.00  0.00    -0.034 A 
ATOM     14  C   UNL d   1       1.317  -2.907  -3.812  0.00  0.00     0.028 A 
ATOM     15  C   UNL d   1      -0.505  -1.220  -3.725  0.00  0.00     0.050 C 
ATOM     16  C   UNL d   1       2.446  -3.549  -3.310  0.00  0.00     0.011 A 
ATOM     17  C   UNL d   1       2.974  -3.180  -2.081  0.00  0.00     0.021 A 
ATOM     18 BR   UNL d   1       3.259  -4.939  -4.301  0.00  0.00    -0.051 Br
ATOM     19  C   UNL d   1       2.364  -2.159  -1.352  0.00  0.00     0.031 A 
ENDBRANCH   1  12
TORSDOF 3
