REMARK  3 active torsions:
REMARK  status: ('A' for Active; 'I' for Inactive)
REMARK    1  A    between atoms: C_10  and  C_1 
REMARK    2  A    between atoms: C_4  and  N_7 
REMARK    3  A    between atoms: N_7  and  N_8 
ROOT
ATOM      1  N   UNL d   1       4.641  -1.149  -0.320  0.00  0.00    -0.320 N 
ATOM      2  HN  UNL d   1       5.641  -1.011  -0.468  1.00  0.00     0.181 HD
ATOM      3  C   UNL d   1       3.856  -0.126  -0.147  0.00  0.00     0.035 C 
ATOM      4  C   UNL d   1       4.559   1.225  -0.157  0.00  0.00     0.070 C 
ENDROOT
BRANCH   1   5
ATOM      5  N   UNL d   1       4.122  -2.396  -0.303  0.00  0.00    -0.202 NA
ATOM      6  H   UNL d   1       4.077  -2.810   0.635  0.00  0.00     0.153 HD
BRANCH   5   7
ATOM      7  C   UNL d   1       4.697  -3.346  -1.210  0.00  0.00     0.071 A 
ATOM      8  C   UNL d   1       4.662  -4.715  -0.852  0.00  0.00     0.060 A 
ATOM      9  C   UNL d   1       5.064  -5.723  -1.730  0.00  0.00     0.049 A 
ATOM     10 CL   UNL d   1       4.114  -5.200   0.720  0.00  0.00    -0.082 Cl
ATOM     11  C   UNL d   1       5.494  -5.383  -3.007  0.00  0.00     0.037 A 
ATOM     12  C   UNL d   1       5.539  -4.053  -3.402  0.00  0.00     0.049 A 
ATOM     13 CL   UNL d   1       5.946  -6.618  -4.115  0.00  0.00    -0.084 Cl
ATOM     14  C   UNL d   1       5.142  -3.039  -2.519  0.00  0.00     0.060 A 
ATOM     15 CL   UNL d   1       5.189  -1.437  -3.187  0.00  0.00    -0.082 Cl
ENDBRANCH   5   7
ENDBRANCH   1   5
BRANCH   3  16
ATOM     16  C   UNL d   1       2.398  -0.125   0.043  0.00  0.00     0.035 A 
ATOM     17  S   UNL d   1       1.758   0.965   1.209  0.00  0.00    -0.087 SA
ATOM     18  C   UNL d   1       0.133   0.572   0.852  0.00  0.00     0.016 A 
ATOM     19  C   UNL d   1      -1.022   1.157   1.410  0.00  0.00     0.021 A 
ATOM     20  C   UNL d   1       0.060  -0.441  -0.103  0.00  0.00    -0.010 A 
ATOM     21  C   UNL d   1      -2.277   0.700   1.005  0.00  0.00     0.025 A 
ATOM     22  C   UNL d   1      -2.379  -0.324   0.077  0.00  0.00     0.035 A 
ATOM     23  C   UNL d   1      -1.233  -0.899  -0.476  0.00  0.00     0.037 A 
ATOM     24 CL   UNL d   1      -3.930  -0.888  -0.409  0.00  0.00    -0.084 Cl
ATOM     25  C   UNL d   1       1.374  -0.829  -0.588  0.00  0.00    -0.031 A 
ATOM     26  C   UNL d   1       1.525  -1.835  -1.686  0.00  0.00     0.050 C 
ENDBRANCH   3  16
TORSDOF 3
