REMARK  3 active torsions:
REMARK  status: ('A' for Active; 'I' for Inactive)
REMARK       I    between atoms: N_2  and  C_1 
REMARK    1  A    between atoms: O_8  and  C_1 
REMARK    2  A    between atoms: C_5  and  N_2 
REMARK    3  A    between atoms: C_13  and  O_8 
ROOT
ATOM      1  C   UNL d   1       2.485  -1.264  -4.009  0.00  0.00     0.058 A 
ATOM      2  C   UNL d   1       2.130  -1.152  -2.657  0.00  0.00     0.055 A 
ATOM      3  C   UNL d   1       0.788  -1.089  -2.276  0.00  0.00     0.038 A 
ATOM      4  C   UNL d   1       1.494  -1.331  -4.991  0.00  0.00     0.055 A 
ATOM      5  C   UNL d   1       0.151  -1.336  -4.612  0.00  0.00     0.028 A 
ATOM      6 CL   UNL d   1       4.170  -1.294  -4.396  0.00  0.00    -0.082 Cl
ATOM      7  C   UNL d   1      -0.197  -1.229  -3.262  0.00  0.00     0.031 A 
ATOM      8 CL   UNL d   1       1.857  -1.392  -6.678  0.00  0.00    -0.083 Cl
ENDROOT
BRANCH   3   9
ATOM      9  N   UNL d   1       0.335  -0.850  -0.966  0.00  0.00    -0.303 N 
ATOM     10  C   UNL d   1       0.981  -0.355   0.139  0.00  0.00     0.365 C 
ATOM     11  O   UNL d   1       0.342  -0.064   1.143  0.00  0.00    -0.238 OA
ATOM     12  H   UNL d   1      -0.664  -0.881  -0.805  0.00  0.00     0.171 HD
BRANCH  10  13
ATOM     13  O   UNL d   1       2.314  -0.175  -0.007  0.00  0.00    -0.299 OA
BRANCH  13  14
ATOM     14  C   UNL d   1       3.089   0.508   0.999  0.00  0.00     0.125 C 
ATOM     15  C   UNL d   1       2.745   1.991   1.040  0.00  0.00     0.040 C 
ATOM     16  C   UNL d   1       3.031  -0.163   2.368  0.00  0.00     0.040 C 
ENDBRANCH  13  14
ENDBRANCH  10  13
ENDBRANCH   3   9
TORSDOF 3
