REMARK  2 active torsions:
REMARK  status: ('A' for Active; 'I' for Inactive)
REMARK    1  A    between atoms: N_2  and  C_1 
REMARK    2  A    between atoms: N_10  and  C_7 
ROOT
ATOM      1  C   UNL d   1       0.482   1.426  -0.005  0.00  0.00     0.052 A 
ATOM      2  C   UNL d   1       0.139   0.836   1.231  0.00  0.00     0.062 A 
ATOM      3  C   UNL d   1      -0.727  -0.276   1.298  0.00  0.00     0.049 A 
ATOM      4  C   UNL d   1      -0.085   0.814  -1.144  0.00  0.00     0.033 A 
ATOM      5  C   UNL d   1      -1.299  -0.826   0.154  0.00  0.00     0.007 A 
ATOM      6 CL   UNL d   1       0.794   1.330   2.761  0.00  0.00    -0.082 Cl
ATOM      7  C   UNL d   1      -0.926  -0.304  -1.073  0.00  0.00     0.025 A 
ENDROOT
BRANCH   1   8
ATOM      8  N   UNL d   1       1.271   2.554  -0.217  0.00  0.00    -0.375 N 
ATOM      9  C   UNL d   1       1.540   3.571   0.813  0.00  0.00     0.149 C 
ATOM     10  C   UNL d   1       1.838   4.925   0.135  0.00  0.00     0.187 C 
ATOM     11  O   UNL d   1       2.903   4.830  -0.827  0.00  0.00    -0.388 OA
ATOM     12  C   UNL d   1       2.578   3.855  -1.832  0.00  0.00     0.187 C 
ATOM     13  C   UNL d   1       2.370   2.468  -1.206  0.00  0.00     0.149 C 
ENDBRANCH   1   8
BRANCH   5  14
ATOM     14  N   UNL d   1      -2.038  -2.012   0.223  0.00  0.00    -0.303 NA
ATOM     15  H   UNL d   1      -2.644  -2.168  -0.576  0.00  0.00     0.124 HD
ATOM     16  H   UNL d   1      -2.523  -2.148   1.106  0.00  0.00     0.124 HD
ENDBRANCH   5  14
TORSDOF 2
