REMARK  4 active torsions:
REMARK  status: ('A' for Active; 'I' for Inactive)
REMARK    1  A    between atoms: C_3  and  C_2 
REMARK    2  A    between atoms: C_16  and  N_4 
REMARK    3  A    between atoms: C_15  and  C_8 
REMARK    4  A    between atoms: C_22  and  C_17 
ROOT
ATOM      1  C   UNL d   1      -1.288   0.016  -0.248  0.00  0.00     0.106 C 
ATOM      2  C   UNL d   1      -2.618   0.052  -0.585  0.00  0.00     0.122 C 
ATOM      3  N   UNL d   1      -0.373   1.103  -0.077  0.00  0.00    -0.303 N 
ATOM      4  S   UNL d   1      -0.406  -1.585  -0.172  0.00  0.00    -0.080 SA
ATOM      5  C   UNL d   1       0.958   0.619  -0.095  0.00  0.00     0.057 C 
ATOM      6  C   UNL d   1       1.100  -0.717  -0.139  0.00  0.00     0.082 C 
ATOM      7  C   UNL d   1      -3.332   1.324  -0.812  0.00  0.00     0.106 C 
ATOM      8  N   UNL d   1      -3.887   2.325  -0.998  0.00  0.00    -0.191 NA
ENDROOT
BRANCH   2   9
ATOM      9  C   UNL d   1      -3.342  -1.170  -0.836  0.00  0.00     0.130 A 
ATOM     10  N   UNL d   1      -4.074  -1.930  -0.039  0.00  0.00    -0.339 N 
ATOM     11  C   UNL d   1      -4.596  -2.921  -0.839  0.00  0.00     0.060 A 
ATOM     12  HN  UNL d   1      -4.221  -1.807   0.963  1.00  0.00     0.167 HD
ATOM     13  C   UNL d   1      -5.443  -3.988  -0.511  0.00  0.00     0.032 A 
ATOM     14  C   UNL d   1      -4.180  -2.768  -2.157  0.00  0.00     0.060 A 
ATOM     15  C   UNL d   1      -5.845  -4.866  -1.526  0.00  0.00     0.002 A 
ATOM     16  C   UNL d   1      -5.411  -4.685  -2.842  0.00  0.00     0.002 A 
ATOM     17  C   UNL d   1      -4.563  -3.627  -3.189  0.00  0.00     0.032 A 
ATOM     18  N   UNL d   1      -3.383  -1.653  -2.129  0.00  0.00    -0.339 N 
ATOM     19  H   UNL d   1      -2.906  -1.255  -2.925  0.00  0.00     0.167 HD
ENDBRANCH   2   9
BRANCH   3  20
ATOM     20  C   UNL d   1      -0.706   2.409   0.422  0.00  0.00     0.040 A 
ATOM     21  C   UNL d   1      -1.687   2.599   1.412  0.00  0.00     0.030 A 
ATOM     22  C   UNL d   1      -1.983   3.874   1.915  0.00  0.00     0.002 A 
ATOM     23  C   UNL d   1      -1.263   4.985   1.489  0.00  0.00     0.000 A 
ATOM     24  C   UNL d   1      -0.276   4.828   0.526  0.00  0.00     0.002 A 
ATOM     25  C   UNL d   1      -0.032   3.563  -0.022  0.00  0.00     0.030 A 
ENDBRANCH   3  20
BRANCH   5  26
ATOM     26  C   UNL d   1       2.160   1.461  -0.123  0.00  0.00    -0.008 A 
ATOM     27  C   UNL d   1       2.732   1.817  -1.351  0.00  0.00     0.014 A 
ATOM     28  C   UNL d   1       3.855   2.652  -1.399  0.00  0.00     0.013 A 
ATOM     29  C   UNL d   1       4.450   3.152  -0.227  0.00  0.00    -0.026 A 
ATOM     30  C   UNL d   1       3.866   2.772   0.997  0.00  0.00     0.013 A 
ATOM     31  C   UNL d   1       2.747   1.929   1.053  0.00  0.00     0.014 A 
BRANCH  29  32
ATOM     32  C   UNL d   1       5.645   4.033  -0.278  0.00  0.00    -0.026 A 
ATOM     33  C   UNL d   1       6.631   3.987   0.726  0.00  0.00     0.012 A 
ATOM     34  C   UNL d   1       7.767   4.802   0.679  0.00  0.00     0.001 A 
ATOM     35  C   UNL d   1       7.953   5.679  -0.383  0.00  0.00     0.000 A 
ATOM     36  C   UNL d   1       6.995   5.751  -1.389  0.00  0.00     0.001 A 
ATOM     37  C   UNL d   1       5.853   4.943  -1.332  0.00  0.00     0.012 A 
ENDBRANCH  29  32
ENDBRANCH   5  26
TORSDOF 4
