REMARK  3 active torsions:
REMARK  status: ('A' for Active; 'I' for Inactive)
REMARK    1  A    between atoms: C_2  and  S_1 
REMARK    2  A    between atoms: N_7  and  S_1 
REMARK    3  A    between atoms: C_12  and  N_7 
ROOT
ATOM      1  S   UNL d   1       1.103   0.048  -0.373  0.00  0.00     0.253 S 
ATOM      2  O   UNL d   1       0.573  -1.232  -0.793  0.00  0.00    -0.205 OA
ATOM      3  O   UNL d   1       2.529   0.259  -0.252  0.00  0.00    -0.205 OA
ENDROOT
BRANCH   1   4
ATOM      4  C   UNL d   1       0.437   0.359   1.276  0.00  0.00     0.122 A 
ATOM      5  S   UNL d   1      -1.056  -0.396   1.625  0.00  0.00    -0.076 SA
ATOM      6  C   UNL d   1      -1.093   0.195   3.237  0.00  0.00     0.017 A 
ATOM      7  C   UNL d   1      -2.071  -0.067   4.220  0.00  0.00     0.021 A 
ATOM      8  C   UNL d   1       0.007   1.012   3.498  0.00  0.00    -0.009 A 
ATOM      9  C   UNL d   1      -1.934   0.504   5.490  0.00  0.00     0.025 A 
ATOM     10  C   UNL d   1      -0.852   1.324   5.767  0.00  0.00     0.035 A 
ATOM     11  C   UNL d   1       0.112   1.587   4.794  0.00  0.00     0.037 A 
ATOM     12 CL   UNL d   1      -0.690   2.023   7.334  0.00  0.00    -0.084 Cl
ATOM     13  C   UNL d   1       0.888   1.120   2.350  0.00  0.00    -0.021 A 
ATOM     14  C   UNL d   1       2.138   1.942   2.375  0.00  0.00     0.051 C 
ENDBRANCH   1   4
BRANCH   1  15
ATOM     15  N   UNL d   1       0.474   1.187  -1.472  0.00  0.00    -0.181 NA
ATOM     16  H   UNL d   1      -0.373   0.804  -1.895  0.00  0.00     0.146 HD
BRANCH  15  17
ATOM     17  C   UNL d   1       0.381   2.534  -1.022  0.00  0.00     0.025 A 
ATOM     18  C   UNL d   1      -0.801   2.953  -0.413  0.00  0.00     0.064 A 
ATOM     19  C   UNL d   1      -0.844   4.188   0.223  0.00  0.00     0.103 A 
ATOM     20  O   UNL d   1      -1.993   4.486   0.905  0.00  0.00    -0.346 OA
ATOM     21  C   UNL d   1       0.262   5.043   0.192  0.00  0.00     0.102 A 
ATOM     22  C   UNL d   1      -1.678   5.341   2.006  0.00  0.00     0.202 C 
ATOM     23  C   UNL d   1      -0.919   6.570   1.525  0.00  0.00     0.202 C 
ATOM     24  O   UNL d   1       0.301   6.243   0.845  0.00  0.00    -0.346 OA
ATOM     25  C   UNL d   1       1.417   4.647  -0.483  0.00  0.00     0.041 A 
ATOM     26  C   UNL d   1       1.488   3.381  -1.067  0.00  0.00     0.027 A 
ENDBRANCH  15  17
ENDBRANCH   1  15
TORSDOF 3
