REMARK  2 active torsions:
REMARK  status: ('A' for Active; 'I' for Inactive)
REMARK    1  A    between atoms: C_7  and  C_1 
REMARK    2  A    between atoms: C_10  and  C_6 
ROOT
ATOM      1  C   UNL d   1       1.077   0.570   0.051  0.00  0.00     0.141 C 
ATOM      2  N   UNL d   1      -0.211   1.156  -0.105  0.00  0.00    -0.351 N 
ATOM      3  N   UNL d   1       1.035  -0.720   0.190  0.00  0.00    -0.303 N 
ATOM      4  HN  UNL d   1       1.826  -1.360   0.268  1.00  0.00     0.182 HD
ATOM      5  N   UNL d   1      -0.304  -1.042   0.212  0.00  0.00    -0.211 NA
ATOM      6  C   UNL d   1      -1.168   0.073  -0.182  0.00  0.00     0.209 C 
ATOM      7  H   UNL d   1      -0.335   2.147  -0.252  0.00  0.00     0.163 HD
ATOM      8  H   UNL d   1      -0.528  -1.906  -0.283  0.00  0.00     0.149 HD
ENDROOT
BRANCH   1   9
ATOM      9  C   UNL d   1       2.259   1.426  -0.060  0.00  0.00     0.092 A 
ATOM     10  N   UNL d   1       2.023   2.762  -0.216  0.00  0.00    -0.360 N 
ATOM     11  C   UNL d   1       3.137   3.513  -0.395  0.00  0.00     0.105 A 
ATOM     12  HN  UNL d   1       1.085   3.162  -0.199  1.00  0.00     0.165 HD
ATOM     13  C   UNL d   1       4.410   2.964  -0.432  0.00  0.00     0.104 A 
ATOM     14  N   UNL d   1       4.631   1.635  -0.284  0.00  0.00    -0.372 N 
ATOM     15  C   UNL d   1       3.527   0.873  -0.094  0.00  0.00     0.121 A 
ATOM     16  HN  UNL d   1       5.568   1.235  -0.312  1.00  0.00     0.164 HD
ENDBRANCH   1   9
BRANCH   6  17
ATOM     17  C   UNL d   1      -1.684  -0.013  -1.602  0.00  0.00    -0.020 A 
ATOM     18  C   UNL d   1      -0.815  -0.197  -2.697  0.00  0.00     0.012 A 
ATOM     19  C   UNL d   1      -1.300  -0.248  -4.004  0.00  0.00     0.024 A 
ATOM     20  C   UNL d   1      -2.666  -0.119  -4.238  0.00  0.00     0.034 A 
ATOM     21  C   UNL d   1      -3.546   0.057  -3.172  0.00  0.00     0.024 A 
ATOM     22 CL   UNL d   1      -3.265  -0.176  -5.847  0.00  0.00    -0.084 Cl
ATOM     23  C   UNL d   1      -3.059   0.112  -1.862  0.00  0.00     0.012 A 
ENDBRANCH   6  17
TORSDOF 2
