REMARK  6 active torsions:
REMARK  status: ('A' for Active; 'I' for Inactive)
REMARK    1  A    between atoms: N_4  and  C_1 
REMARK    2  A    between atoms: N_6  and  C_1 
REMARK    3  A    between atoms: N_2  and  N_6 
REMARK    4  A    between atoms: C_11  and  N_4 
REMARK    5  A    between atoms: C_10  and  C_9 
REMARK    6  A    between atoms: O_18  and  C_12 
ROOT
ATOM      1  C   UNL d   1       1.226  -0.010   0.013  0.00  0.00     0.191 C 
ATOM      2  S   UNL d   1       2.818   0.438  -0.254  0.00  0.00    -0.039 SA
ENDROOT
BRANCH   1   3
ATOM      3  N   UNL d   1       0.482  -0.960  -0.652  0.00  0.00    -0.332 N 
ATOM      4  H   UNL d   1      -0.503  -0.726  -0.693  0.00  0.00     0.168 HD
BRANCH   3   5
ATOM      5  C   UNL d   1       0.964  -1.994  -1.473  0.00  0.00     0.034 A 
ATOM      6  C   UNL d   1       2.102  -2.722  -1.119  0.00  0.00     0.032 A 
ATOM      7  C   UNL d   1       2.597  -3.725  -1.952  0.00  0.00     0.039 A 
ATOM      8  C   UNL d   1       1.960  -4.002  -3.160  0.00  0.00     0.068 A 
ATOM      9  C   UNL d   1       0.775  -3.331  -3.479  0.00  0.00     0.039 A 
ATOM     10  C   UNL d   1       0.265  -2.343  -2.631  0.00  0.00     0.032 A 
BRANCH   8  11
ATOM     11  O   UNL d   1       2.399  -4.916  -4.078  0.00  0.00    -0.356 OA
ATOM     12  C   UNL d   1       3.801  -5.169  -4.052  0.00  0.00     0.210 C 
ENDBRANCH   8  11
ENDBRANCH   3   5
ENDBRANCH   1   3
BRANCH   1  13
ATOM     13  N   UNL d   1       0.543   0.671   0.996  0.00  0.00    -0.276 N 
ATOM     14  H   UNL d   1       1.087   1.354   1.515  0.00  0.00     0.189 HD
BRANCH  13  15
ATOM     15  N   UNL d   1      -0.672   0.262   1.465  0.00  0.00    -0.309 N 
ATOM     16  C   UNL d   1      -1.028   0.863   2.558  0.00  0.00     0.120 C 
ATOM     17  HN  UNL d   1      -1.243  -0.445   1.002  1.00  0.00     0.186 HD
BRANCH  16  18
ATOM     18  C   UNL d   1      -2.275   0.547   3.266  0.00  0.00    -0.004 A 
ATOM     19  C   UNL d   1      -2.625   1.296   4.382  0.00  0.00     0.100 A 
ATOM     20  N   UNL d   1      -3.751   1.087   5.102  0.00  0.00    -0.374 N 
ATOM     21  C   UNL d   1      -4.555   0.081   4.690  0.00  0.00     0.087 A 
ATOM     22  HN  UNL d   1      -3.981   1.658   5.915  1.00  0.00     0.164 HD
ATOM     23  C   UNL d   1      -4.280  -0.728   3.596  0.00  0.00     0.018 A 
ATOM     24  C   UNL d   1      -3.115  -0.489   2.870  0.00  0.00     0.015 A 
ENDBRANCH  16  18
ENDBRANCH  13  15
ENDBRANCH   1  13
TORSDOF 6
