REMARK  7 active torsions:
REMARK  status: ('A' for Active; 'I' for Inactive)
REMARK    1  A    between atoms: O_4  and  C_1 
REMARK    2  A    between atoms: C_2  and  CA_3 
REMARK    3  A    between atoms: OXT_13  and  C_2 
REMARK    4  A    between atoms: CA_3  and  C_6 
REMARK    5  A    between atoms: N_12  and  CA_3 
REMARK    6  A    between atoms: C_10  and  O_4 
REMARK    7  A    between atoms: C_6  and  C_11 
ROOT
ATOM      1  C   UNL d   1       0.817  -0.879  -2.017  0.00  0.00     0.078 A 
ATOM      2  C   UNL d   1       1.639  -1.159  -4.703  0.00  0.00    -0.055 A 
ATOM      3  C   UNL d   1       2.481  -0.587  -3.746  0.00  0.00     0.010 A 
ATOM      4  C   UNL d   1       0.388  -1.634  -4.291  0.00  0.00     0.010 A 
ATOM      5  C   UNL d   1       2.087  -0.464  -2.406  0.00  0.00     0.037 A 
ATOM      6  C   UNL d   1      -0.015  -1.484  -2.960  0.00  0.00     0.037 A 
ENDROOT
BRANCH   2   7
ATOM      7  C   UNL d   1       2.106  -1.304  -6.136  0.00  0.00     0.085 C 
BRANCH   7   8
ATOM      8  CA  UNL d   1       1.189  -0.697  -7.212  0.00  0.00     0.318 C 
BRANCH   8   9
ATOM      9  C   UNL d   1       1.160   0.846  -7.162  0.00  0.00     0.174 C 
ATOM     10  O   UNL d   1       1.644   1.560  -8.038  0.00  0.00    -0.648 OA
BRANCH   9  11
ATOM     11  OXT UNL d   1       0.505   1.370  -6.106  0.00  0.00    -0.775 OA
ATOM     12  HXT UNL d   1       0.166   0.719  -5.464  0.00  0.00     0.167 HD
ENDBRANCH   9  11
ENDBRANCH   8   9
BRANCH   8  13
ATOM     13  N   UNL d   1       1.697  -1.129  -8.545  0.00  0.00     0.093 N 
ATOM     14  H1  UNL d   1       2.606  -0.679  -8.690  0.00  0.00     0.314 HD
ATOM     15  H2  UNL d   1       1.113  -0.689  -9.262  0.00  0.00     0.314 HD
ENDBRANCH   8  13
ENDBRANCH   7   8
ENDBRANCH   2   7
BRANCH   1  16
ATOM     16  O   UNL d   1       0.274  -0.785  -0.772  0.00  0.00    -0.255 OA
BRANCH  16  17
ATOM     17  C   UNL d   1       0.818   0.119   0.179  0.00  0.00     0.530 C 
ATOM     18  F   UNL d   1       1.480   1.155  -0.378  0.00  0.00    -0.144 F 
ATOM     19  F   UNL d   1       1.643  -0.539   1.019  0.00  0.00    -0.144 F 
ATOM     20  F   UNL d   1      -0.203   0.632   0.904  0.00  0.00    -0.144 F 
ENDBRANCH  16  17
ENDBRANCH   1  16
TORSDOF 7
