REMARK  9 active torsions:
REMARK  status: ('A' for Active; 'I' for Inactive)
REMARK    1  A    between atoms: C_12  and  N_1 
REMARK    2  A    between atoms: S_14  and  C_5 
REMARK    3  A    between atoms: C_8  and  C_9 
REMARK    4  A    between atoms: C_11  and  N_13 
REMARK       I    between atoms: N_13  and  C_15 
REMARK    5  A    between atoms: C_26  and  S_14 
REMARK    6  A    between atoms: C_15  and  C_26 
REMARK    7  A    between atoms: O_27  and  C_28 
REMARK    8  A    between atoms: C_29  and  O_27 
REMARK    9  A    between atoms: C_33  and  C_29 
ROOT
ATOM      1  N   UNL d   1      -0.176  -1.355   0.263  0.00  0.00    -0.273 N 
ATOM      2  C   UNL d   1       1.036  -0.688   0.105  0.00  0.00     0.163 A 
ATOM      3  N   UNL d   1       0.842   0.616   0.180  0.00  0.00    -0.281 N 
ATOM      4  HN  UNL d   1       1.559   1.333   0.073  1.00  0.00     0.188 HD
ATOM      5  C   UNL d   1      -1.067  -0.328   0.537  0.00  0.00     0.168 A 
ATOM      6  N   UNL d   1      -0.482   0.841   0.426  0.00  0.00    -0.278 N 
ATOM      7  HN  UNL d   1      -0.934   1.752   0.508  1.00  0.00     0.189 HD
ATOM      8  C   UNL d   1       2.332  -1.254  -0.120  0.00  0.00     0.120 A 
ATOM      9  O   UNL d   1       2.558  -2.413  -0.820  0.00  0.00    -0.319 OA
ATOM     10  C   UNL d   1       3.547  -0.774   0.335  0.00  0.00     0.043 A 
ATOM     11  C   UNL d   1       3.885  -2.689  -0.747  0.00  0.00     0.142 A 
ATOM     12  C   UNL d   1       4.541  -1.712  -0.040  0.00  0.00     0.027 A 
ENDROOT
BRANCH   5  13
ATOM     13  S   UNL d   1      -2.642  -0.477   1.253  0.00  0.00    -0.083 SA
BRANCH  13  14
ATOM     14  C   UNL d   1      -2.265  -1.299   2.821  0.00  0.00     0.185 C 
BRANCH  14  15
ATOM     15  C   UNL d   1      -1.382  -0.557   3.812  0.00  0.00     0.231 C 
ATOM     16  N   UNL d   1      -0.992   0.730   3.502  0.00  0.00    -0.326 N 
ATOM     17  H   UNL d   1      -1.570   1.220   2.825  0.00  0.00     0.169 HD
ATOM     18  O   UNL d   1      -1.077  -1.113   4.871  0.00  0.00    -0.272 OA
BRANCH  16  19
ATOM     19  C   UNL d   1      -0.245   1.521   4.404  0.00  0.00     0.049 A 
ATOM     20  C   UNL d   1       0.932   1.095   5.044  0.00  0.00     0.074 A 
ATOM     21  C   UNL d   1       1.483   1.917   6.051  0.00  0.00     0.018 A 
ATOM     22  C   UNL d   1       0.910   3.144   6.382  0.00  0.00     0.001 A 
ATOM     23  C   UNL d   1      -0.204   3.593   5.681  0.00  0.00     0.002 A 
ATOM     24  C   UNL d   1      -0.767   2.793   4.684  0.00  0.00     0.030 A 
BRANCH  20  25
ATOM     25  C   UNL d   1       1.726  -0.133   4.657  0.00  0.00     0.419 C 
ATOM     26  F   UNL d   1       1.281  -0.837   3.576  0.00  0.00    -0.166 F 
ATOM     27  F   UNL d   1       3.014   0.204   4.327  0.00  0.00    -0.166 F 
ATOM     28  F   UNL d   1       1.855  -1.029   5.676  0.00  0.00    -0.166 F 
ENDBRANCH  20  25
ENDBRANCH  16  19
ENDBRANCH  14  15
ENDBRANCH  13  14
ENDBRANCH   5  13
BRANCH   1  29
ATOM     29  C   UNL d   1      -0.431  -2.756   0.228  0.00  0.00     0.043 A 
ATOM     30  C   UNL d   1       0.494  -3.649   0.775  0.00  0.00     0.033 A 
ATOM     31  C   UNL d   1       0.285  -5.028   0.702  0.00  0.00     0.039 A 
ATOM     32  C   UNL d   1      -0.865  -5.535   0.100  0.00  0.00     0.069 A 
ATOM     33  C   UNL d   1      -1.818  -4.645  -0.398  0.00  0.00     0.039 A 
ATOM     34  C   UNL d   1      -1.606  -3.260  -0.345  0.00  0.00     0.033 A 
BRANCH  32  35
ATOM     35  O   UNL d   1      -1.172  -6.865  -0.010  0.00  0.00    -0.347 OA
BRANCH  35  36
ATOM     36  C   UNL d   1      -0.053  -7.759  -0.039  0.00  0.00     0.214 C 
BRANCH  36  37
ATOM     37  C   UNL d   1      -0.509  -9.201  -0.068  0.00  0.00    -0.034 A 
ATOM     38  C   UNL d   1       0.230 -10.155  -0.784  0.00  0.00     0.009 A 
ATOM     39  C   UNL d   1      -0.117 -11.506  -0.734  0.00  0.00     0.001 A 
ATOM     40  C   UNL d   1      -1.201 -11.920   0.037  0.00  0.00     0.000 A 
ATOM     41  C   UNL d   1      -1.940 -10.984   0.757  0.00  0.00     0.001 A 
ATOM     42  C   UNL d   1      -1.595  -9.632   0.709  0.00  0.00     0.009 A 
ENDBRANCH  36  37
ENDBRANCH  35  36
ENDBRANCH  32  35
ENDBRANCH   1  29
TORSDOF 9
