REMARK  5 active torsions:
REMARK  status: ('A' for Active; 'I' for Inactive)
REMARK    1  A    between atoms: C_3  and  C_1 
REMARK    2  A    between atoms: C_11  and  N_2 
REMARK    3  A    between atoms: C_6  and  C_10 
REMARK       I    between atoms: N_9  and  C_6 
REMARK    4  A    between atoms: C_19  and  N_9 
REMARK    5  A    between atoms: C_15  and  C_11 
ROOT
ATOM      1  C   UNL d   1      -4.109   3.214  -1.370  0.00  0.00     0.032 A 
ATOM      2  C   UNL d   1      -3.310   2.055  -1.285  0.00  0.00     0.026 A 
ATOM      3  C   UNL d   1      -3.463   1.136  -0.237  0.00  0.00    -0.039 A 
ATOM      4  C   UNL d   1      -5.084   3.436  -0.395  0.00  0.00     0.017 A 
ATOM      5  C   UNL d   1      -5.230   2.537   0.666  0.00  0.00     0.002 A 
ATOM      6  C   UNL d   1      -4.421   1.400   0.747  0.00  0.00     0.009 A 
ENDROOT
BRANCH   3   7
ATOM      7  C   UNL d   1      -2.657  -0.146  -0.207  0.00  0.00     0.170 C 
BRANCH   7   8
ATOM      8  N   UNL d   1      -3.369  -1.246  -0.861  0.00  0.00    -0.320 N 
ATOM      9  C   UNL d   1      -3.197  -1.459  -2.223  0.00  0.00     0.110 A 
ATOM     10  C   UNL d   1      -3.877  -2.415  -2.884  0.00  0.00     0.063 A 
ATOM     11  C   UNL d   1      -4.821  -3.233  -2.147  0.00  0.00     0.023 A 
ATOM     12  C   UNL d   1      -5.012  -3.050  -0.832  0.00  0.00     0.075 A 
ATOM     13  C   UNL d   1      -4.255  -2.006  -0.098  0.00  0.00     0.247 A 
ATOM     14  O   UNL d   1      -4.448  -1.867   1.109  0.00  0.00    -0.268 OA
BRANCH  10  15
ATOM     15  C   UNL d   1      -3.703  -2.634  -4.362  0.00  0.00     0.418 C 
ATOM     16  F   UNL d   1      -4.585  -3.533  -4.872  0.00  0.00    -0.166 F 
ATOM     17  F   UNL d   1      -3.865  -1.485  -5.066  0.00  0.00    -0.166 F 
ATOM     18  F   UNL d   1      -2.461  -3.100  -4.651  0.00  0.00    -0.166 F 
ENDBRANCH  10  15
ENDBRANCH   7   8
ENDBRANCH   3   7
BRANCH   1  19
ATOM     19  C   UNL d   1      -3.849   4.130  -2.525  0.00  0.00     0.256 C 
ATOM     20  N   UNL d   1      -4.444   5.386  -2.503  0.00  0.00    -0.323 N 
ATOM     21  H   UNL d   1      -4.947   5.660  -1.673  0.00  0.00     0.169 HD
ATOM     22  O   UNL d   1      -3.077   3.732  -3.393  0.00  0.00    -0.267 OA
BRANCH  20  23
ATOM     23  C   UNL d   1      -4.197   6.428  -3.431  0.00  0.00     0.035 A 
ATOM     24  C   UNL d   1      -3.556   6.232  -4.657  0.00  0.00     0.029 A 
ATOM     25  C   UNL d   1      -3.211   7.317  -5.466  0.00  0.00     0.002 A 
ATOM     26  C   UNL d   1      -3.524   8.611  -5.067  0.00  0.00     0.000 A 
ATOM     27  C   UNL d   1      -4.226   8.816  -3.881  0.00  0.00     0.002 A 
ATOM     28  C   UNL d   1      -4.573   7.729  -3.072  0.00  0.00     0.029 A 
ENDBRANCH  20  23
ENDBRANCH   1  19
TORSDOF 5
