REMARK  10 active torsions:
REMARK  status: ('A' for Active; 'I' for Inactive)
REMARK    1  A    between atoms: C_2  and  C_1 
REMARK    2  A    between atoms: O_5  and  C_1 
REMARK    3  A    between atoms: C_4  and  C_3 
REMARK    4  A    between atoms: O_8  and  C_4 
REMARK    5  A    between atoms: C_11  and  O_5 
REMARK    6  A    between atoms: C_12  and  C_11 
REMARK    7  A    between atoms: C_16  and  C_12 
REMARK    8  A    between atoms: C_14  and  C_15 
REMARK    9  A    between atoms: C_15  and  C_17 
REMARK   10  A    between atoms: C_17  and  C_16 
ROOT
ATOM      1  C   UNL d   1       0.911   0.202  -0.097  0.00  0.00     0.294 C 
ATOM      2  O   UNL d   1       0.309  -0.122  -1.104  0.00  0.00    -0.259 OA
ENDROOT
BRANCH   1   3
ATOM      3  C   UNL d   1       2.385   0.401  -0.057  0.00  0.00     0.056 A 
ATOM      4  C   UNL d   1       3.192   0.426   1.093  0.00  0.00     0.053 A 
ATOM      5  C   UNL d   1       4.575   0.676   0.959  0.00  0.00     0.019 A 
ATOM      6  C   UNL d   1       5.156   0.884  -0.292  0.00  0.00     0.001 A 
ATOM      7  C   UNL d   1       4.362   0.852  -1.431  0.00  0.00     0.001 A 
ATOM      8  C   UNL d   1       2.991   0.614  -1.314  0.00  0.00     0.018 A 
BRANCH   4   9
ATOM      9  C   UNL d   1       2.742   0.232   2.495  0.00  0.00     0.177 C 
ATOM     10  O   UNL d   1       3.188   0.906   3.409  0.00  0.00    -0.646 OA
BRANCH   9  11
ATOM     11  O   UNL d   1       1.959  -0.846   2.705  0.00  0.00    -0.773 OA
ATOM     12  H   UNL d   1       1.542  -1.227   1.913  0.00  0.00     0.167 HD
ENDBRANCH   9  11
ENDBRANCH   4   9
ENDBRANCH   1   3
BRANCH   1  13
ATOM     13  O   UNL d   1       0.352   0.472   1.101  0.00  0.00    -0.312 OA
BRANCH  13  14
ATOM     14  C   UNL d   1      -1.089   0.590   1.137  0.00  0.00     0.128 C 
ATOM     15  C   UNL d   1      -1.381   1.723   2.116  0.00  0.00     0.040 C 
BRANCH  14  16
ATOM     16  C   UNL d   1      -1.726  -0.748   1.558  0.00  0.00     0.032 C 
BRANCH  16  17
ATOM     17  C   UNL d   1      -3.252  -0.645   1.600  0.00  0.00     0.002 C 
BRANCH  17  18
ATOM     18  C   UNL d   1      -3.990  -1.918   2.026  0.00  0.00     0.000 C 
BRANCH  18  19
ATOM     19  C   UNL d   1      -5.492  -1.605   2.075  0.00  0.00    -0.000 C 
BRANCH  19  20
ATOM     20  C   UNL d   1      -6.362  -2.776   2.518  0.00  0.00    -0.005 C 
ATOM     21  C   UNL d   1      -7.829  -2.361   2.534  0.00  0.00     0.005 C 
ENDBRANCH  19  20
ENDBRANCH  18  19
ENDBRANCH  17  18
ENDBRANCH  16  17
ENDBRANCH  14  16
ENDBRANCH  13  14
ENDBRANCH   1  13
TORSDOF 10
