REMARK  4 active torsions:
REMARK  status: ('A' for Active; 'I' for Inactive)
REMARK    1  A    between atoms: S_14  and  C_3 
REMARK    2  A    between atoms: C_19  and  S_14 
REMARK    3  A    between atoms: C_16  and  C_19 
REMARK    4  A    between atoms: O_22  and  C_16 
ROOT
ATOM      1  N   UNL d   1       0.924   0.620   0.010  0.00  0.00    -0.120 N 
ATOM      2  C   UNL d   1       1.683  -0.538   0.007  0.00  0.00     0.720 A 
ATOM      3  C   UNL d   1       1.845   1.645  -0.015  0.00  0.00     0.183 A 
ATOM      4  N   UNL d   1       2.962  -0.213  -0.034  0.00  0.00    -0.128 N 
ATOM      5  HN  UNL d   1       3.744  -0.869  -0.039  1.00  0.00     0.205 HD
ATOM      6  N   UNL d   1       1.096  -1.765   0.026  0.00  0.00    -0.130 N 
ATOM      7  HN  UNL d   1       1.690  -2.594   0.045  1.00  0.00     0.205 HD
ATOM      8  N   UNL d   1       3.064   1.156  -0.067  0.00  0.00    -0.265 N 
ATOM      9  HN  UNL d   1       3.928   1.695  -0.123  1.00  0.00     0.189 HD
ATOM     10  N   UNL d   1      -0.151  -1.913   0.022  0.00  0.00    -0.284 N 
ATOM     11  HN  UNL d   1      -0.560  -2.847   0.022  1.00  0.00     0.187 HD
ATOM     12  C   UNL d   1      -0.478   0.541   0.014  0.00  0.00     0.087 A 
ATOM     13  C   UNL d   1      -0.980  -0.769   0.016  0.00  0.00     0.077 A 
ATOM     14  C   UNL d   1      -1.344   1.635   0.004  0.00  0.00     0.034 A 
ATOM     15  C   UNL d   1      -2.367  -0.961   0.013  0.00  0.00     0.040 A 
ATOM     16  C   UNL d   1      -2.725   1.421   0.002  0.00  0.00     0.009 A 
ATOM     17  C   UNL d   1      -3.250   0.126   0.007  0.00  0.00    -0.060 A 
ATOM     18  C   UNL d   1      -4.732  -0.106   0.004  0.00  0.00     0.048 C 
ENDROOT
BRANCH   3  19
ATOM     19  S   UNL d   1       1.515   3.343   0.010  0.00  0.00    -0.081 SA
BRANCH  19  20
ATOM     20  C   UNL d   1       2.300   3.911  -1.520  0.00  0.00     0.192 C 
BRANCH  20  21
ATOM     21  C   UNL d   1       1.697   3.237  -2.731  0.00  0.00     0.149 C 
ATOM     22  O   UNL d   1       0.698   3.632  -3.309  0.00  0.00    -0.649 OA
BRANCH  21  23
ATOM     23  O   UNL d   1       2.346   2.106  -3.101  0.00  0.00    -0.776 OA
ATOM     24  H   UNL d   1       3.107   1.861  -2.534  0.00  0.00     0.167 HD
ENDBRANCH  21  23
ENDBRANCH  20  21
ENDBRANCH  19  20
ENDBRANCH   3  19
TORSDOF 4
