REMARK  13 active torsions:
REMARK  status: ('A' for Active; 'I' for Inactive)
REMARK    1  A    between atoms: N_5  and  C_1 
REMARK    2  A    between atoms: S_6  and  C_1 
REMARK    3  A    between atoms: C_3  and  C_2 
REMARK    4  A    between atoms: C_4  and  C_2 
REMARK    5  A    between atoms: O_18  and  C_3 
REMARK    6  A    between atoms: O_19  and  C_4 
REMARK    7  A    between atoms: C_14  and  N_5 
REMARK    8  A    between atoms: C_13  and  S_6 
REMARK    9  A    between atoms: C_7  and  C_13 
REMARK       I    between atoms: N_8  and  C_7 
REMARK   10  A    between atoms: C_17  and  N_8 
REMARK   11  A    between atoms: C_21  and  C_11 
REMARK   12  A    between atoms: C_30  and  O_18 
REMARK   13  A    between atoms: C_29  and  O_19 
ROOT
ATOM      1  C   UNL d   1       0.890  -0.189   0.297  0.00  0.00     0.093 C 
ATOM      2  C   UNL d   1       0.244   0.631   1.175  0.00  0.00     0.147 C 
ENDROOT
BRANCH   1   3
ATOM      3  N   UNL d   1       0.334  -0.773  -0.834  0.00  0.00    -0.350 N 
ATOM      4  H   UNL d   1       0.831  -1.607  -1.136  0.00  0.00     0.166 HD
BRANCH   3   5
ATOM      5  C   UNL d   1      -0.460  -0.200  -1.856  0.00  0.00     0.033 A 
ATOM      6  C   UNL d   1      -0.720   1.173  -1.977  0.00  0.00     0.031 A 
ATOM      7  C   UNL d   1      -1.621   1.657  -2.938  0.00  0.00     0.026 A 
ATOM      8  C   UNL d   1      -2.274   0.772  -3.790  0.00  0.00     0.034 A 
ATOM      9  C   UNL d   1      -2.021  -0.593  -3.700  0.00  0.00     0.026 A 
ATOM     10 CL   UNL d   1      -3.418   1.357  -4.932  0.00  0.00    -0.084 Cl
ATOM     11  C   UNL d   1      -1.124  -1.070  -2.737  0.00  0.00     0.031 A 
ENDBRANCH   3   5
ENDBRANCH   1   3
BRANCH   1  12
ATOM     12  S   UNL d   1       2.539  -0.769   0.750  0.00  0.00    -0.102 SA
BRANCH  12  13
ATOM     13  C   UNL d   1       3.507   0.024  -0.553  0.00  0.00     0.184 C 
BRANCH  13  14
ATOM     14  C   UNL d   1       4.998  -0.294  -0.587  0.00  0.00     0.231 C 
ATOM     15  N   UNL d   1       5.499  -1.214   0.316  0.00  0.00    -0.327 N 
ATOM     16  H   UNL d   1       4.822  -1.708   0.888  0.00  0.00     0.169 HD
ATOM     17  O   UNL d   1       5.673   0.281  -1.445  0.00  0.00    -0.272 OA
BRANCH  15  18
ATOM     18  C   UNL d   1       6.867  -1.547   0.511  0.00  0.00     0.034 A 
ATOM     19  C   UNL d   1       7.920  -0.847  -0.082  0.00  0.00     0.030 A 
ATOM     20  C   UNL d   1       9.257  -1.179   0.179  0.00  0.00     0.010 A 
ATOM     21  C   UNL d   1       9.586  -2.228   1.042  0.00  0.00    -0.055 A 
ATOM     22  C   UNL d   1       8.533  -2.947   1.625  0.00  0.00     0.010 A 
ATOM     23  C   UNL d   1       7.190  -2.607   1.369  0.00  0.00     0.030 A 
BRANCH  21  24
ATOM     24  C   UNL d   1      11.035  -2.551   1.373  0.00  0.00     0.010 C 
ATOM     25  C   UNL d   1      11.859  -2.897   0.128  0.00  0.00     0.015 C 
ATOM     26  C   UNL d   1      11.694  -1.397   2.138  0.00  0.00     0.015 C 
ENDBRANCH  21  24
ENDBRANCH  15  18
ENDBRANCH  13  14
ENDBRANCH  12  13
ENDBRANCH   1  12
BRANCH   2  27
ATOM     27  C   UNL d   1      -1.227   0.832   1.177  0.00  0.00     0.302 C 
ATOM     28  O   UNL d   1      -1.754   1.885   1.509  0.00  0.00    -0.259 OA
BRANCH  27  29
ATOM     29  O   UNL d   1      -1.896  -0.303   0.842  0.00  0.00    -0.318 OA
BRANCH  29  30
ATOM     30  C   UNL d   1      -3.331  -0.267   0.921  0.00  0.00     0.174 C 
ATOM     31  C   UNL d   1      -3.970   0.566  -0.177  0.00  0.00     0.034 C 
ENDBRANCH  29  30
ENDBRANCH  27  29
ENDBRANCH   2  27
BRANCH   2  32
ATOM     32  C   UNL d   1       0.977   1.459   2.161  0.00  0.00     0.302 C 
ATOM     33  O   UNL d   1       0.730   1.511   3.354  0.00  0.00    -0.259 OA
BRANCH  32  34
ATOM     34  O   UNL d   1       1.843   2.264   1.480  0.00  0.00    -0.318 OA
BRANCH  34  35
ATOM     35  C   UNL d   1       2.322   3.429   2.166  0.00  0.00     0.174 C 
ATOM     36  C   UNL d   1       3.591   3.150   2.947  0.00  0.00     0.034 C 
ENDBRANCH  34  35
ENDBRANCH  32  34
ENDBRANCH   2  32
TORSDOF 13
