REMARK  0 active torsions:
REMARK  status: ('A' for Active; 'I' for Inactive)
ROOT
ATOM      1  N   UNL d   1       0.264  -0.206   0.057  0.00  0.00    -0.288 N 
ATOM      2  C   UNL d   1       0.156  -1.606   0.006  0.00  0.00     0.135 A 
ATOM      3  C   UNL d   1       1.503   0.434   0.081  0.00  0.00     0.085 A 
ATOM      4  C   UNL d   1       1.373  -2.386  -0.005  0.00  0.00     0.095 A 
ATOM      5  N   UNL d   1      -1.108  -1.982  -0.024  0.00  0.00    -0.339 N 
ATOM      6  HN  UNL d   1      -1.464  -2.937  -0.058  1.00  0.00     0.167 HD
ATOM      7  C   UNL d   1       2.640  -0.280   0.044  0.00  0.00    -0.016 A 
ATOM      8  C   UNL d   1       2.577  -1.748   0.017  0.00  0.00    -0.028 A 
ATOM      9  C   UNL d   1      -1.029   0.302   0.052  0.00  0.00     0.068 A 
ATOM     10  C   UNL d   1      -1.847  -0.823  -0.001  0.00  0.00     0.061 A 
ATOM     11  C   UNL d   1       1.306  -3.822  -0.038  0.00  0.00     0.104 C 
ATOM     12  S   UNL d   1       1.756   2.144   0.160  0.00  0.00    -0.111 SA
ATOM     13  N   UNL d   1       1.321  -4.987  -0.065  0.00  0.00    -0.191 NA
ATOM     14  C   UNL d   1       3.892   0.556   0.051  0.00  0.00     0.053 C 
ATOM     15  C   UNL d   1       3.887  -2.501   0.032  0.00  0.00     0.050 C 
ATOM     16  C   UNL d   1       3.502   1.992  -0.306  0.00  0.00     0.085 C 
ATOM     17  C   UNL d   1      -1.567   1.604   0.078  0.00  0.00     0.032 A 
ATOM     18  C   UNL d   1      -3.244  -0.658  -0.027  0.00  0.00     0.032 A 
ATOM     19  C   UNL d   1      -2.957   1.748   0.047  0.00  0.00     0.002 A 
ATOM     20  C   UNL d   1      -3.787   0.634  -0.005  0.00  0.00     0.002 A 
ENDROOT
TORSDOF 0
