REMARK  7 active torsions:
REMARK  status: ('A' for Active; 'I' for Inactive)
REMARK       I    between atoms: N_4  and  C_1 
REMARK       I    between atoms: N_5  and  C_1 
REMARK       I    between atoms: C_2  and  N_7 
REMARK    1  A    between atoms: C_21  and  C_2 
REMARK    2  A    between atoms: C_3  and  N_4 
REMARK    3  A    between atoms: N_7  and  N_5 
REMARK    4  A    between atoms: C_6  and  C_22 
REMARK       I    between atoms: N_8  and  C_6 
REMARK    5  A    between atoms: C_20  and  N_8 
REMARK    6  A    between atoms: S_17  and  C_21 
REMARK    7  A    between atoms: C_22  and  S_17 
ROOT
ATOM      1  C   UNL d   1      -2.014   1.752   1.526  0.00  0.00     0.245 C 
ATOM      2  N   UNL d   1      -1.383   0.944   2.453  0.00  0.00    -0.265 N 
ATOM      3  O   UNL d   1      -1.396   2.324   0.630  0.00  0.00    -0.271 OA
ATOM      4  H   UNL d   1      -1.796   0.758   3.369  0.00  0.00     0.190 HD
ENDROOT
BRANCH   2   5
ATOM      5  N   UNL d   1       0.018   0.838   2.360  0.00  0.00    -0.249 N 
ATOM      6  C   UNL d   1       0.747   0.688   3.527  0.00  0.00     0.339 C 
ATOM      7  N   UNL d   1       2.106   0.787   3.296  0.00  0.00    -0.308 N 
ATOM      8  O   UNL d   1       0.195   0.481   4.604  0.00  0.00    -0.245 OA
ATOM      9  H   UNL d   1       2.375   1.165   2.398  0.00  0.00     0.170 HD
ATOM     10  H   UNL d   1       0.423   1.271   1.535  0.00  0.00     0.192 HD
BRANCH   7  11
ATOM     11  C   UNL d   1       3.138   0.616   4.246  0.00  0.00     0.039 A 
ATOM     12  C   UNL d   1       2.945   0.012   5.489  0.00  0.00     0.053 A 
ATOM     13  C   UNL d   1       4.003  -0.081   6.398  0.00  0.00     0.037 A 
ATOM     14 CL   UNL d   1       3.747  -0.817   7.934  0.00  0.00    -0.084 Cl
ATOM     15  C   UNL d   1       5.262   0.418   6.080  0.00  0.00     0.048 A 
ATOM     16  C   UNL d   1       5.463   0.987   4.828  0.00  0.00     0.037 A 
ATOM     17  C   UNL d   1       4.415   1.073   3.905  0.00  0.00     0.053 A 
ATOM     18 CL   UNL d   1       7.013   1.611   4.416  0.00  0.00    -0.084 Cl
ENDBRANCH   7  11
ENDBRANCH   2   5
BRANCH   1  19
ATOM     19  C   UNL d   1      -3.530   1.784   1.618  0.00  0.00     0.178 C 
BRANCH  19  20
ATOM     20  S   UNL d   1      -4.139   2.317   3.256  0.00  0.00    -0.150 SA
BRANCH  20  21
ATOM     21  C   UNL d   1      -3.612   4.050   3.174  0.00  0.00     0.177 C 
BRANCH  21  22
ATOM     22  C   UNL d   1      -3.983   4.927   4.362  0.00  0.00     0.231 C 
ATOM     23  N   UNL d   1      -4.774   4.376   5.350  0.00  0.00    -0.327 N 
ATOM     24  H   UNL d   1      -4.945   3.377   5.282  0.00  0.00     0.169 HD
ATOM     25  O   UNL d   1      -3.538   6.079   4.372  0.00  0.00    -0.272 OA
BRANCH  23  26
ATOM     26  C   UNL d   1      -5.172   5.026   6.544  0.00  0.00     0.034 A 
ATOM     27  C   UNL d   1      -5.115   6.413   6.715  0.00  0.00     0.029 A 
ATOM     28  C   UNL d   1      -5.417   7.002   7.946  0.00  0.00     0.002 A 
ATOM     29  C   UNL d   1      -5.796   6.206   9.023  0.00  0.00     0.000 A 
ATOM     30  C   UNL d   1      -5.911   4.829   8.854  0.00  0.00     0.002 A 
ATOM     31  C   UNL d   1      -5.617   4.242   7.615  0.00  0.00     0.029 A 
ENDBRANCH  23  26
ENDBRANCH  21  22
ENDBRANCH  20  21
ENDBRANCH  19  20
ENDBRANCH   1  19
TORSDOF 7
