REMARK  5 active torsions:
REMARK  status: ('A' for Active; 'I' for Inactive)
REMARK    1  A    between atoms: C_2  and  C_1 
REMARK    2  A    between atoms: C_4  and  C_1 
REMARK    3  A    between atoms: O_5  and  C_1 
REMARK    4  A    between atoms: C_7  and  C_1 
REMARK    5  A    between atoms: N_6  and  C_3 
ROOT
ATOM      1  C   UNL d   1       1.036  -0.051   0.028  0.00  0.00     0.113 C 
ENDROOT
BRANCH   1   2
ATOM      2  C   UNL d   1       0.495   0.946  -1.025  0.00  0.00     0.002 A 
ATOM      3  C   UNL d   1       0.625   0.747  -2.421  0.00  0.00     0.015 A 
ATOM      4  C   UNL d   1       0.234   1.775  -3.297  0.00  0.00     0.024 A 
ATOM      5  C   UNL d   1      -0.363   2.946  -2.833  0.00  0.00     0.002 A 
ATOM      6  C   UNL d   1      -0.545   3.128  -1.471  0.00  0.00     0.001 A 
ATOM      7  C   UNL d   1      -0.116   2.145  -0.581  0.00  0.00     0.012 A 
BRANCH   3   8
ATOM      8  N   UNL d   1       1.333  -0.335  -2.976  0.00  0.00    -0.302 NA
ATOM      9  H   UNL d   1       1.276  -1.196  -2.441  0.00  0.00     0.124 HD
ATOM     10  H   UNL d   1       1.105  -0.505  -3.951  0.00  0.00     0.124 HD
ENDBRANCH   3   8
ENDBRANCH   1   2
BRANCH   1  11
ATOM     11  C   UNL d   1       0.502  -1.496  -0.131  0.00  0.00    -0.019 A 
ATOM     12  C   UNL d   1       1.241  -2.614   0.304  0.00  0.00     0.010 A 
ATOM     13  C   UNL d   1       0.745  -3.915   0.176  0.00  0.00     0.001 A 
ATOM     14  C   UNL d   1      -0.514  -4.129  -0.373  0.00  0.00     0.000 A 
ATOM     15  C   UNL d   1      -1.278  -3.046  -0.787  0.00  0.00     0.001 A 
ATOM     16  C   UNL d   1      -0.784  -1.745  -0.651  0.00  0.00     0.010 A 
ENDBRANCH   1  11
BRANCH   1  17
ATOM     17  O   UNL d   1       0.589   0.351   1.341  0.00  0.00    -0.380 OA
ATOM     18  H   UNL d   1      -0.252  -0.107   1.506  0.00  0.00     0.211 HD
ENDBRANCH   1  17
BRANCH   1  19
ATOM     19  C   UNL d   1       2.593   0.047   0.062  0.00  0.00     0.044 C 
ATOM     20  C   UNL d   1       3.152   1.442   0.345  0.00  0.00     0.009 C 
ENDBRANCH   1  19
TORSDOF 5
