REMARK  3 active torsions:
REMARK  status: ('A' for Active; 'I' for Inactive)
REMARK    1  A    between atoms: C_3  and  C_1 
REMARK    2  A    between atoms: C_14  and  C_2 
REMARK    3  A    between atoms: O_13  and  C_3 
ROOT
ATOM      1  C   UNL d   1       0.799   0.770   1.138  0.00  0.00     0.047 C 
ATOM      2  C   UNL d   1      -1.494   0.335   0.098  0.00  0.00    -0.039 C 
ATOM      3  C   UNL d   1      -0.717   1.061   1.226  0.00  0.00     0.030 C 
ATOM      4  C   UNL d   1       1.005  -0.761   1.268  0.00  0.00     0.025 C 
ATOM      5  C   UNL d   1       1.327   1.213  -0.245  0.00  0.00     0.025 C 
ATOM      6  C   UNL d   1       0.261  -1.506   0.151  0.00  0.00    -0.012 C 
ATOM      7  C   UNL d   1       0.582   0.470  -1.366  0.00  0.00    -0.012 C 
ATOM      8  C   UNL d   1      -1.240  -1.190   0.244  0.00  0.00     0.014 C 
ATOM      9  C   UNL d   1      -0.921   0.786  -1.270  0.00  0.00     0.014 C 
ATOM     10  C   UNL d   1       0.796  -1.042  -1.210  0.00  0.00     0.009 C 
ENDROOT
BRANCH   1  11
ATOM     11  C   UNL d   1       1.556   1.485   2.260  0.00  0.00     0.148 C 
ATOM     12  O   UNL d   1       2.226   0.919   3.110  0.00  0.00    -0.649 OA
BRANCH  11  13
ATOM     13  O   UNL d   1       1.433   2.832   2.250  0.00  0.00    -0.776 OA
ATOM     14  H   UNL d   1       0.881   3.193   1.533  0.00  0.00     0.167 HD
ENDBRANCH  11  13
ENDBRANCH   1  11
BRANCH   2  15
ATOM     15  C   UNL d   1      -3.016   0.599   0.193  0.00  0.00     0.005 C 
ATOM     16  C   UNL d   1      -3.443   2.059   0.084  0.00  0.00     0.006 C 
ENDBRANCH   2  15
TORSDOF 3
