REMARK  5 active torsions:
REMARK  status: ('A' for Active; 'I' for Inactive)
REMARK    1  A    between atoms: C_7  and  C_1 
REMARK    2  A    between atoms: C_8  and  N_2 
REMARK    3  A    between atoms: C_11  and  C_6 
REMARK    4  A    between atoms: O_17  and  C_7 
REMARK    5  A    between atoms: C_9  and  C_8 
ROOT
ATOM      1  C   UNL d   1      -0.607  -1.128   0.377  0.00  0.00     0.126 A 
ATOM      2  N   UNL d   1       0.699  -0.719   0.175  0.00  0.00    -0.281 N 
ATOM      3  N   UNL d   1       0.806   0.617   0.015  0.00  0.00    -0.301 N 
ATOM      4  HN  UNL d   1       1.663   1.158  -0.106  1.00  0.00     0.187 HD
ATOM      5  C   UNL d   1      -1.361   0.019   0.206  0.00  0.00     0.065 A 
ATOM      6  C   UNL d   1      -0.444   1.081   0.050  0.00  0.00     0.036 A 
ENDROOT
BRANCH   2   7
ATOM      7  C   UNL d   1       1.895  -1.534  -0.026  0.00  0.00     0.189 C 
BRANCH   7   8
ATOM      8  C   UNL d   1       2.678  -1.840   1.232  0.00  0.00    -0.017 A 
ATOM      9  C   UNL d   1       3.653  -0.974   1.759  0.00  0.00     0.043 A 
ATOM     10  C   UNL d   1       4.466  -1.372   2.828  0.00  0.00     0.048 A 
ATOM     11 CL   UNL d   1       3.958   0.592   1.097  0.00  0.00    -0.084 Cl
ATOM     12  C   UNL d   1       4.308  -2.635   3.387  0.00  0.00     0.035 A 
ATOM     13  C   UNL d   1       3.320  -3.491   2.916  0.00  0.00     0.024 A 
ATOM     14 CL   UNL d   1       5.361  -3.155   4.645  0.00  0.00    -0.084 Cl
ATOM     15  C   UNL d   1       2.509  -3.095   1.848  0.00  0.00     0.012 A 
ENDBRANCH   7   8
ENDBRANCH   2   7
BRANCH   1  16
ATOM     16  C   UNL d   1      -1.033  -2.476   0.652  0.00  0.00     0.195 C 
ATOM     17  O   UNL d   1      -0.427  -3.495   0.368  0.00  0.00    -0.645 OA
BRANCH  16  18
ATOM     18  O   UNL d   1      -2.214  -2.501   1.312  0.00  0.00    -0.772 OA
ATOM     19  H   UNL d   1      -2.531  -1.627   1.605  0.00  0.00     0.167 HD
ENDBRANCH  16  18
ENDBRANCH   1  16
BRANCH   6  20
ATOM     20  C   UNL d   1      -0.754   2.566  -0.019  0.00  0.00    -0.007 C 
ATOM     21  C   UNL d   1      -1.471   2.984   1.282  0.00  0.00     0.021 C 
ATOM     22  C   UNL d   1       0.522   3.421  -0.162  0.00  0.00     0.021 C 
ATOM     23  C   UNL d   1      -1.676   2.873  -1.216  0.00  0.00     0.021 C 
ENDBRANCH   6  20
TORSDOF 5
