REMARK  6 active torsions:
REMARK  status: ('A' for Active; 'I' for Inactive)
REMARK    1  A    between atoms: C_2  and  C_1 
REMARK    2  A    between atoms: C_5  and  C_1 
REMARK    3  A    between atoms: C_4  and  C_2 
REMARK    4  A    between atoms: S_12  and  C_3 
REMARK    5  A    between atoms: S_13  and  C_3 
REMARK    6  A    between atoms: N_6  and  C_5 
ROOT
ATOM      1  C   UNL d   1       1.047   0.086   0.020  0.00  0.00     0.096 C 
ATOM      2  C   UNL d   1       0.417  -0.263  -1.132  0.00  0.00     0.059 C 
ENDROOT
BRANCH   1   3
ATOM      3  C   UNL d   1       0.444   0.852   1.147  0.00  0.00     0.174 C 
ATOM      4  O   UNL d   1       1.081   1.705   1.752  0.00  0.00    -0.291 OA
BRANCH   3   5
ATOM      5  C   UNL d   1      -0.948   0.504   1.585  0.00  0.00     0.061 A 
ATOM      6  C   UNL d   1      -1.882   1.631   1.981  0.00  0.00     0.013 A 
ATOM      7  C   UNL d   1      -1.385   0.671   3.022  0.00  0.00     0.013 A 
ENDBRANCH   3   5
ENDBRANCH   1   3
BRANCH   1   8
ATOM      8  C   UNL d   1       2.567   0.086   0.020  0.00  0.00    -0.031 C 
BRANCH   8   9
ATOM      9  N   UNL d   1       3.828   0.086   0.020  0.00  0.00    -0.365 N 
ATOM     10  HN2 UNL d   1       2.808   0.086   0.020  1.00  0.00     0.165 HD
ATOM     11  HN1 UNL d   1       4.848   0.086   0.020  1.00  0.00     0.165 HD
ENDBRANCH   8   9
ENDBRANCH   1   8
BRANCH   2  12
ATOM     12  S   UNL d   1       1.180  -1.331  -2.313  0.00  0.00    -0.126 SA
ATOM     13  C   UNL d   1       2.257  -0.204  -3.229  0.00  0.00     0.096 C 
ENDBRANCH   2  12
BRANCH   2  14
ATOM     14  S   UNL d   1      -1.137   0.436  -1.575  0.00  0.00    -0.126 SA
ATOM     15  C   UNL d   1      -2.033  -0.938  -2.323  0.00  0.00     0.096 C 
ENDBRANCH   2  14
TORSDOF 6
