REMARK  5 active torsions:
REMARK  status: ('A' for Active; 'I' for Inactive)
REMARK    1  A    between atoms: C_6  and  N_1 
REMARK    2  A    between atoms: C_11  and  C_6 
REMARK    3  A    between atoms: C_12  and  C_11 
REMARK    4  A    between atoms: O_20  and  C_11 
REMARK    5  A    between atoms: N_15  and  C_12 
ROOT
ATOM      1  N   UNL d   1       0.072  -1.554  -0.604  0.00  0.00    -0.343 N 
ATOM      2  C   UNL d   1      -0.713   0.532  -0.403  0.00  0.00     0.005 A 
ATOM      3  C   UNL d   1       0.713   0.586  -0.487  0.00  0.00     0.005 A 
ATOM      4  C   UNL d   1       1.173  -0.715  -0.675  0.00  0.00     0.046 A 
ATOM      5  C   UNL d   1      -1.088  -0.811  -0.455  0.00  0.00     0.046 A 
ATOM      6  C   UNL d   1       2.547  -0.993  -0.826  0.00  0.00     0.032 A 
ATOM      7  C   UNL d   1      -2.433  -1.202  -0.309  0.00  0.00     0.032 A 
ATOM      8  C   UNL d   1      -1.706   1.520  -0.225  0.00  0.00     0.033 A 
ATOM      9  C   UNL d   1       1.642   1.642  -0.373  0.00  0.00     0.033 A 
ATOM     10  C   UNL d   1      -3.041   1.134  -0.100  0.00  0.00     0.011 A 
ATOM     11  C   UNL d   1       3.005   1.356  -0.450  0.00  0.00     0.011 A 
ATOM     12  C   UNL d   1       3.449   0.070  -0.695  0.00  0.00     0.021 A 
ATOM     13  C   UNL d   1      -3.403  -0.207  -0.139  0.00  0.00     0.021 A 
ATOM     14 BR   UNL d   1       4.262   2.745  -0.170  0.00  0.00    -0.051 Br
ATOM     15 BR   UNL d   1      -4.370   2.454   0.161  0.00  0.00    -0.051 Br
ENDROOT
BRANCH   1  16
ATOM     16  C   UNL d   1       0.169  -2.985  -0.371  0.00  0.00     0.163 C 
BRANCH  16  17
ATOM     17  C   UNL d   1      -0.534  -3.928  -1.351  0.00  0.00     0.164 C 
BRANCH  17  18
ATOM     18  C   UNL d   1       0.053  -3.918  -2.786  0.00  0.00     0.304 C 
BRANCH  18  19
ATOM     19  N   UNL d   1      -0.519  -4.980  -3.648  0.00  0.00     0.082 N 
ATOM     20  C   UNL d   1      -1.946  -4.766  -3.927  0.00  0.00     0.309 C 
ATOM     21  C   UNL d   1       0.198  -5.059  -4.926  0.00  0.00     0.309 C 
ENDBRANCH  18  19
ENDBRANCH  17  18
BRANCH  17  22
ATOM     22  O   UNL d   1      -0.419  -5.244  -0.771  0.00  0.00    -0.392 OA
ATOM     23  H   UNL d   1       0.123  -5.780  -1.370  0.00  0.00     0.210 HD
ENDBRANCH  17  22
ENDBRANCH  16  17
ENDBRANCH   1  16
TORSDOF 5
