REMARK  1 active torsions:
REMARK  status: ('A' for Active; 'I' for Inactive)
REMARK    1  A    between atoms: C_7  and  N_5 
ROOT
ATOM      1  C   UNL d   1       3.032   0.748  -0.916  0.00  0.00     0.141 C 
ATOM      2  N   UNL d   1       3.982   1.089  -1.720  0.00  0.00    -0.370 N 
ATOM      3  HN  UNL d   1       4.268   2.051  -1.900  1.00  0.00     0.161 HD
ATOM      4  S   UNL d   1       2.656  -0.967  -0.853  0.00  0.00    -0.088 SA
ATOM      5  N   UNL d   1       2.265   1.530  -0.109  0.00  0.00    -0.337 N 
ATOM      6  C   UNL d   1       4.596  -0.094  -2.342  0.00  0.00     0.137 C 
ATOM      7  C   UNL d   1       3.595  -1.241  -2.377  0.00  0.00     0.069 C 
ATOM      8  C   UNL d   1       2.684  -1.175  -3.598  0.00  0.00     0.023 C 
ATOM      9  H   UNL d   1       1.635   1.043   0.513  0.00  0.00     0.168 HD
ENDROOT
BRANCH   5  10
ATOM     10  C   UNL d   1       2.109   2.925  -0.164  0.00  0.00     0.034 A 
ATOM     11  C   UNL d   1       2.513   3.693  -1.261  0.00  0.00     0.030 A 
ATOM     12  C   UNL d   1       2.385   5.085  -1.263  0.00  0.00     0.009 A 
ATOM     13  C   UNL d   1       1.870   5.750  -0.150  0.00  0.00    -0.062 A 
ATOM     14  C   UNL d   1       1.483   5.000   0.964  0.00  0.00     0.009 A 
ATOM     15  C   UNL d   1       1.742   7.243  -0.172  0.00  0.00     0.048 C 
ATOM     16  C   UNL d   1       1.605   3.604   0.956  0.00  0.00     0.030 A 
ENDBRANCH   5  10
TORSDOF 1
