REMARK  4 active torsions:
REMARK  status: ('A' for Active; 'I' for Inactive)
REMARK    1  A    between atoms: C_4  and  N_1 
REMARK    2  A    between atoms: C_2  and  N_7 
REMARK    3  A    between atoms: O_14  and  C_2 
REMARK    4  A    between atoms: N_7  and  C_13 
ROOT
ATOM      1  C   UNL d   1       1.250   2.180  -0.972  0.00  0.00     0.030 A 
ATOM      2  C   UNL d   1       1.929   1.669  -2.080  0.00  0.00     0.031 A 
ATOM      3  C   UNL d   1       1.103   3.574  -0.904  0.00  0.00     0.031 A 
ATOM      4  C   UNL d   1       2.417   3.894  -2.916  0.00  0.00     0.034 A 
ATOM      5  C   UNL d   1       2.494   2.509  -3.045  0.00  0.00     0.032 A 
ATOM      6  C   UNL d   1       1.670   4.424  -1.868  0.00  0.00     0.032 A 
ENDROOT
BRANCH   1   7
ATOM      7  N   UNL d   1       0.790   1.377   0.062  0.00  0.00    -0.376 N 
ATOM      8  C   UNL d   1       1.462   0.104   0.379  0.00  0.00     0.154 C 
ATOM      9  C   UNL d   1       0.701  -1.100  -0.209  0.00  0.00     0.136 C 
ATOM     10  C   UNL d   1       1.322  -2.409   0.261  0.00  0.00     0.041 C 
ATOM     11  O   UNL d   1      -0.675  -1.089   0.215  0.00  0.00    -0.378 OA
ATOM     12  C   UNL d   1      -1.333   0.117  -0.229  0.00  0.00     0.136 C 
ATOM     13  C   UNL d   1      -0.655   1.377   0.361  0.00  0.00     0.154 C 
ATOM     14  C   UNL d   1      -2.786   0.020   0.215  0.00  0.00     0.041 C 
ENDBRANCH   1   7
BRANCH   4  15
ATOM     15  N   UNL d   1       3.028   4.772  -3.834  0.00  0.00    -0.328 N 
ATOM     16  H   UNL d   1       2.643   5.705  -3.905  0.00  0.00     0.169 HD
BRANCH  15  17
ATOM     17  C   UNL d   1       4.152   4.578  -4.604  0.00  0.00     0.214 C 
ATOM     18  S   UNL d   1       5.374   3.454  -4.410  0.00  0.00    -0.033 SA
BRANCH  17  19
ATOM     19  O   UNL d   1       4.220   5.561  -5.545  0.00  0.00    -0.332 OA
ATOM     20  C   UNL d   1       5.159   5.494  -6.638  0.00  0.00     0.212 C 
ENDBRANCH  17  19
ENDBRANCH  15  17
ENDBRANCH   4  15
TORSDOF 4
