REMARK  9 active torsions:
REMARK  status: ('A' for Active; 'I' for Inactive)
REMARK    1  A    between atoms: N_2  and  C_1 
REMARK    2  A    between atoms: C_3  and  C_1 
REMARK    3  A    between atoms: C_4  and  C_1 
REMARK    4  A    between atoms: N_6  and  C_1 
REMARK       I    between atoms: C_5  and  N_2 
REMARK    5  A    between atoms: O_14  and  C_4 
REMARK    6  A    between atoms: O_13  and  C_5 
REMARK    7  A    between atoms: C_12  and  N_6 
REMARK    8  A    between atoms: C_15  and  O_13 
REMARK    9  A    between atoms: C_16  and  O_14 
ROOT
ATOM      1  C   UNL d   1       0.853   0.018  -0.014  0.00  0.00     0.298 C 
ENDROOT
BRANCH   1   2
ATOM      2  N   UNL d   1       0.157   0.670  -1.121  0.00  0.00    -0.294 N 
ATOM      3  C   UNL d   1       0.097   0.153  -2.365  0.00  0.00     0.363 C 
ATOM      4  O   UNL d   1       0.716  -0.827  -2.744  0.00  0.00    -0.238 OA
ATOM      5  H   UNL d   1      -0.501   1.410  -0.910  0.00  0.00     0.168 HD
BRANCH   3   6
ATOM      6  O   UNL d   1      -0.755   0.903  -3.099  0.00  0.00    -0.304 OA
BRANCH   6   7
ATOM      7  C   UNL d   1      -0.857   0.564  -4.487  0.00  0.00     0.176 C 
ATOM      8  C   UNL d   1       0.255   1.252  -5.255  0.00  0.00     0.034 C 
ENDBRANCH   6   7
ENDBRANCH   3   6
ENDBRANCH   1   2
BRANCH   1   9
ATOM      9  C   UNL d   1       0.426  -1.475   0.229  0.00  0.00     0.442 C 
ATOM     10  F   UNL d   1      -0.710  -1.801  -0.442  0.00  0.00    -0.166 F 
ATOM     11  F   UNL d   1       1.388  -2.344  -0.182  0.00  0.00    -0.166 F 
ATOM     12  F   UNL d   1       0.185  -1.766   1.531  0.00  0.00    -0.166 F 
ENDBRANCH   1   9
BRANCH   1  13
ATOM     13  C   UNL d   1       0.403   0.723   1.279  0.00  0.00     0.318 C 
ATOM     14  O   UNL d   1      -0.665   1.328   1.382  0.00  0.00    -0.260 OA
BRANCH  13  15
ATOM     15  O   UNL d   1       1.334   0.631   2.274  0.00  0.00    -0.318 OA
BRANCH  15  16
ATOM     16  C   UNL d   1       1.067   1.377   3.470  0.00  0.00     0.174 C 
ATOM     17  C   UNL d   1       1.391   2.847   3.269  0.00  0.00     0.034 C 
ENDBRANCH  15  16
ENDBRANCH  13  15
ENDBRANCH   1  13
BRANCH   1  18
ATOM     18  N   UNL d   1       2.311   0.183  -0.267  0.00  0.00    -0.348 N 
ATOM     19  H   UNL d   1       2.676  -0.543  -0.885  0.00  0.00     0.163 HD
BRANCH  18  20
ATOM     20  C   UNL d   1       3.022   1.371  -0.327  0.00  0.00     0.030 A 
ATOM     21  C   UNL d   1       2.456   2.647  -0.207  0.00  0.00     0.029 A 
ATOM     22  C   UNL d   1       3.248   3.799  -0.164  0.00  0.00     0.002 A 
ATOM     23  C   UNL d   1       4.633   3.699  -0.223  0.00  0.00     0.000 A 
ATOM     24  C   UNL d   1       5.222   2.446  -0.331  0.00  0.00     0.002 A 
ATOM     25  C   UNL d   1       4.422   1.298  -0.382  0.00  0.00     0.029 A 
ENDBRANCH  18  20
ENDBRANCH   1  18
TORSDOF 9
