REMARK  5 active torsions:
REMARK  status: ('A' for Active; 'I' for Inactive)
REMARK    1  A    between atoms: C_2  and  C_1 
REMARK    2  A    between atoms: C_6  and  C_1 
REMARK    3  A    between atoms: C_13  and  C_6 
REMARK    4  A    between atoms: S_7  and  C_13 
REMARK    5  A    between atoms: C_8  and  S_7 
ROOT
ATOM      1  C   UNL d   1       2.545   0.086  -0.048  0.00  0.00     0.094 C 
ENDROOT
BRANCH   1   2
ATOM      2  C   UNL d   1       1.028   0.115   0.008  0.00  0.00     0.160 C 
ATOM      3  O   UNL d   1       0.415   1.005   0.596  0.00  0.00    -0.292 OA
BRANCH   2   4
ATOM      4  C   UNL d   1       0.259  -0.966  -0.682  0.00  0.00     0.010 A 
ATOM      5  C   UNL d   1      -1.142  -0.890  -0.687  0.00  0.00     0.017 A 
ATOM      6  C   UNL d   1      -1.903  -1.847  -1.366  0.00  0.00     0.025 A 
ATOM      7  C   UNL d   1      -1.266  -2.884  -2.041  0.00  0.00     0.034 A 
ATOM      8  C   UNL d   1       0.124  -2.986  -2.022  0.00  0.00     0.025 A 
ATOM      9 CL   UNL d   1      -2.195  -4.038  -2.915  0.00  0.00    -0.084 Cl
ATOM     10  C   UNL d   1       0.888  -2.030  -1.341  0.00  0.00     0.017 A 
ENDBRANCH   2   4
ENDBRANCH   1   2
BRANCH   1  11
ATOM     11  C   UNL d   1       3.141   1.320   0.625  0.00  0.00     0.087 C 
BRANCH  11  12
ATOM     12  S   UNL d   1       4.965   1.244   0.555  0.00  0.00    -0.130 SA
BRANCH  12  13
ATOM     13  C   UNL d   1       5.366   2.764   1.397  0.00  0.00     0.000 A 
ATOM     14  C   UNL d   1       4.991   2.979   2.728  0.00  0.00     0.020 A 
ATOM     15  C   UNL d   1       5.328   4.171   3.374  0.00  0.00     0.025 A 
ATOM     16  C   UNL d   1       6.051   5.148   2.692  0.00  0.00     0.034 A 
ATOM     17  C   UNL d   1       6.443   4.940   1.372  0.00  0.00     0.025 A 
ATOM     18 CL   UNL d   1       6.465   6.617   3.488  0.00  0.00    -0.084 Cl
ATOM     19  C   UNL d   1       6.105   3.746   0.727  0.00  0.00     0.020 A 
ENDBRANCH  12  13
ENDBRANCH  11  12
ENDBRANCH   1  11
TORSDOF 5
