REMARK  7 active torsions:
REMARK  status: ('A' for Active; 'I' for Inactive)
REMARK    1  A    between atoms: S_7  and  C_1 
REMARK    2  A    between atoms: C_6  and  O_13 
REMARK    3  A    between atoms: C_16  and  S_7 
REMARK       I    between atoms: C_8  and  N_10 
REMARK       I    between atoms: N_11  and  C_8 
REMARK    4  A    between atoms: C_9  and  C_16 
REMARK       I    between atoms: N_12  and  C_9 
REMARK    5  A    between atoms: N_10  and  N_12 
REMARK    6  A    between atoms: C_20  and  N_11 
REMARK    7  A    between atoms: O_13  and  C_21 
ROOT
ATOM      1  C   UNL d   1      -2.540  -7.570   1.055  0.00  0.00     0.339 C 
ATOM      2  N   UNL d   1      -3.448  -6.533   1.240  0.00  0.00    -0.249 N 
ATOM      3  N   UNL d   1      -3.146  -8.795   1.260  0.00  0.00    -0.308 N 
ATOM      4  O   UNL d   1      -1.362  -7.358   0.786  0.00  0.00    -0.245 OA
ATOM      5  H   UNL d   1      -4.410  -6.688   0.948  0.00  0.00     0.192 HD
ATOM      6  H   UNL d   1      -4.073  -8.752   1.657  0.00  0.00     0.170 HD
ENDROOT
BRANCH   2   7
ATOM      7  N   UNL d   1      -2.999  -5.213   0.990  0.00  0.00    -0.265 N 
ATOM      8  C   UNL d   1      -3.895  -4.353   0.384  0.00  0.00     0.245 C 
ATOM      9  O   UNL d   1      -5.069  -4.681   0.196  0.00  0.00    -0.271 OA
ATOM     10  H   UNL d   1      -1.992  -5.098   0.854  0.00  0.00     0.190 HD
BRANCH   8  11
ATOM     11  C   UNL d   1      -3.397  -2.948   0.086  0.00  0.00     0.184 C 
BRANCH  11  12
ATOM     12  S   UNL d   1      -1.758  -2.933  -0.673  0.00  0.00    -0.118 SA
BRANCH  12  13
ATOM     13  C   UNL d   1      -1.365  -1.222  -0.805  0.00  0.00     0.035 A 
ATOM     14  C   UNL d   1      -2.182  -0.157  -1.146  0.00  0.00     0.023 A 
ATOM     15  N   UNL d   1      -1.381   0.963  -1.198  0.00  0.00    -0.358 N 
ATOM     16  C   UNL d   1      -3.626  -0.037  -1.469  0.00  0.00     0.069 C 
ATOM     17  C   UNL d   1      -0.072   0.647  -0.930  0.00  0.00     0.044 A 
ATOM     18  H   UNL d   1      -1.698   1.892  -1.438  0.00  0.00     0.166 HD
ATOM     19  C   UNL d   1      -0.030  -0.719  -0.655  0.00  0.00     0.009 A 
ATOM     20  C   UNL d   1       1.065   1.466  -0.924  0.00  0.00     0.030 A 
ATOM     21  C   UNL d   1       1.222  -1.290  -0.335  0.00  0.00     0.015 A 
ATOM     22  C   UNL d   1       2.370  -0.486  -0.316  0.00  0.00     0.001 A 
ATOM     23  C   UNL d   1       2.291   0.871  -0.614  0.00  0.00     0.002 A 
ENDBRANCH  12  13
ENDBRANCH  11  12
ENDBRANCH   8  11
ENDBRANCH   2   7
BRANCH   3  24
ATOM     24  C   UNL d   1      -2.575 -10.078   1.141  0.00  0.00     0.036 A 
ATOM     25  C   UNL d   1      -1.296 -10.327   0.641  0.00  0.00     0.032 A 
ATOM     26  C   UNL d   1      -0.795 -11.639   0.565  0.00  0.00     0.039 A 
ATOM     27  C   UNL d   1      -1.564 -12.714   1.004  0.00  0.00     0.078 A 
ATOM     28  C   UNL d   1      -2.855 -12.469   1.477  0.00  0.00     0.039 A 
ATOM     29  C   UNL d   1      -3.357 -11.165   1.545  0.00  0.00     0.032 A 
BRANCH  27  30
ATOM     30  O   UNL d   1      -1.198 -14.027   1.041  0.00  0.00    -0.255 OA
BRANCH  30  31
ATOM     31  C   UNL d   1       0.143 -14.369   0.737  0.00  0.00     0.530 C 
ATOM     32  F   UNL d   1       1.027 -13.592   1.397  0.00  0.00    -0.144 F 
ATOM     33  F   UNL d   1       0.354 -15.649   1.117  0.00  0.00    -0.144 F 
ATOM     34  F   UNL d   1       0.366 -14.281  -0.591  0.00  0.00    -0.144 F 
ENDBRANCH  30  31
ENDBRANCH  27  30
ENDBRANCH   3  24
TORSDOF 7
