REMARK  3 active torsions:
REMARK  status: ('A' for Active; 'I' for Inactive)
REMARK       I    between atoms: N_2  and  C_1 
REMARK    1  A    between atoms: C_5  and  C_1 
REMARK    2  A    between atoms: O_4  and  C_5 
REMARK    3  A    between atoms: C_6  and  O_4 
ROOT
ATOM      1  C   UNL d   1      -3.058   2.376  -0.212  0.00  0.00     0.007 A 
ATOM      2  C   UNL d   1      -1.952   1.977  -1.002  0.00  0.00     0.080 A 
ATOM      3  C   UNL d   1      -4.004   3.278  -0.761  0.00  0.00    -0.023 A 
ATOM      4  C   UNL d   1      -2.727   3.363  -2.828  0.00  0.00     0.004 A 
ATOM      5  C   UNL d   1      -1.802   2.461  -2.305  0.00  0.00     0.037 A 
ATOM      6  C   UNL d   1      -3.271   1.909   1.103  0.00  0.00     0.015 A 
ATOM      7  C   UNL d   1      -3.821   3.764  -2.064  0.00  0.00     0.012 A 
ATOM      8  C   UNL d   1      -5.121   3.664  -0.002  0.00  0.00     0.012 A 
ATOM      9  C   UNL d   1      -4.380   2.311   1.849  0.00  0.00     0.001 A 
ATOM     10  C   UNL d   1      -5.309   3.183   1.294  0.00  0.00     0.001 A 
ENDROOT
BRANCH   2  11
ATOM     11  O   UNL d   1      -1.133   0.998  -0.494  0.00  0.00    -0.341 OA
BRANCH  11  12
ATOM     12  C   UNL d   1       0.268   1.211  -0.631  0.00  0.00     0.278 C 
BRANCH  12  13
ATOM     13  C   UNL d   1       0.989  -0.140  -0.560  0.00  0.00     0.243 C 
ATOM     14  N   UNL d   1       0.965  -0.851   0.634  0.00  0.00    -0.359 N 
ATOM     15  C   UNL d   1       0.355  -0.391   1.873  0.00  0.00     0.152 C 
ATOM     16  C   UNL d   1       1.621  -2.147   0.699  0.00  0.00     0.152 C 
ATOM     17  O   UNL d   1       1.588  -0.558  -1.558  0.00  0.00    -0.271 OA
ENDBRANCH  12  13
ENDBRANCH  11  12
ENDBRANCH   2  11
TORSDOF 3
