REMARK  3 active torsions:
REMARK  status: ('A' for Active; 'I' for Inactive)
REMARK    1  A    between atoms: C_5  and  C_1 
REMARK    2  A    between atoms: O_13  and  C_10 
REMARK    3  A    between atoms: C_14  and  O_13 
ROOT
ATOM      1  C   UNL d   1       1.474   2.403  -0.002  0.00  0.00     0.013 A 
ATOM      2  N   UNL d   1       1.903   4.536   1.086  0.00  0.00    -0.346 N 
ATOM      3  HN  UNL d   1       1.737   5.179   1.860  1.00  0.00     0.167 HD
ATOM      4  C   UNL d   1       2.769   4.833   0.092  0.00  0.00     0.147 A 
ATOM      5  C   UNL d   1       1.266   3.344   1.003  0.00  0.00     0.104 A 
ATOM      6  C   UNL d   1       2.420   2.727  -0.982  0.00  0.00     0.020 A 
ATOM      7  C   UNL d   1       3.081   3.956  -0.935  0.00  0.00     0.057 A 
ENDROOT
BRANCH   4   8
ATOM      8  O   UNL d   1       3.399   6.070   0.074  0.00  0.00    -0.294 OA
BRANCH   8   9
ATOM      9  C   UNL d   1       2.716   7.146   0.597  0.00  0.00     0.077 A 
ATOM     10  C   UNL d   1       3.487   8.125   1.230  0.00  0.00     0.039 A 
ATOM     11  C   UNL d   1       2.875   9.257   1.772  0.00  0.00     0.026 A 
ATOM     12  C   UNL d   1       1.492   9.413   1.673  0.00  0.00     0.034 A 
ATOM     13  C   UNL d   1       0.721   8.457   1.016  0.00  0.00     0.026 A 
ATOM     14 CL   UNL d   1       0.734  10.796   2.358  0.00  0.00    -0.084 Cl
ATOM     15  C   UNL d   1       1.335   7.334   0.462  0.00  0.00     0.039 A 
ENDBRANCH   8   9
ENDBRANCH   4   8
BRANCH   1  16
ATOM     16  C   UNL d   1       0.673   1.177  -0.009  0.00  0.00     0.086 A 
ATOM     17  N   UNL d   1      -0.557   1.106   0.461  0.00  0.00    -0.353 N 
ATOM     18  C   UNL d   1      -1.066  -0.172   0.311  0.00  0.00     0.012 A 
ATOM     19  HN  UNL d   1      -1.064   1.886   0.879  1.00  0.00     0.166 HD
ATOM     20  C   UNL d   1      -2.460  -0.446   0.743  0.00  0.00     0.068 C 
ATOM     21  C   UNL d   1      -0.185  -1.079  -0.244  0.00  0.00     0.076 A 
ATOM     22  S   UNL d   1       1.299  -0.309  -0.612  0.00  0.00    -0.081 SA
ENDBRANCH   1  16
TORSDOF 3
