REMARK  2 active torsions:
REMARK  status: ('A' for Active; 'I' for Inactive)
REMARK    1  A    between atoms: C_17  and  N_2 
REMARK    2  A    between atoms: C_20  and  N_5 
ROOT
ATOM      1  C   UNL d   1       2.667  -0.737   0.009  0.00  0.00     0.139 C 
ATOM      2  N   UNL d   1       4.035  -0.376   0.028  0.00  0.00    -0.248 N 
ATOM      3  C   UNL d   1       1.728   0.237  -0.076  0.00  0.00     0.105 C 
ATOM      4  C   UNL d   1       4.467   0.975   0.086  0.00  0.00     0.342 C 
ATOM      5  N   UNL d   1       3.480   1.955   0.059  0.00  0.00    -0.229 N 
ATOM      6  N   UNL d   1       2.225  -2.086   0.119  0.00  0.00    -0.302 N 
ATOM      7  C   UNL d   1       2.141   1.674  -0.143  0.00  0.00     0.272 C 
ATOM      8  C   UNL d   1      -0.121  -1.421  -0.108  0.00  0.00     0.061 A 
ATOM      9  C   UNL d   1       0.287  -0.112  -0.082  0.00  0.00     0.068 A 
ATOM     10  C   UNL d   1       0.887  -2.475  -0.056  0.00  0.00     0.261 C 
ATOM     11  N   UNL d   1      -0.631   0.882  -0.047  0.00  0.00    -0.354 N 
ATOM     12  HN  UNL d   1      -0.317   1.853  -0.021  1.00  0.00     0.166 HD
ATOM     13  C   UNL d   1      -1.948   0.616  -0.047  0.00  0.00     0.046 A 
ATOM     14  C   UNL d   1      -2.450  -0.696  -0.070  0.00  0.00     0.013 A 
ATOM     15  C   UNL d   1      -1.488  -1.725  -0.103  0.00  0.00     0.035 A 
ATOM     16  C   UNL d   1      -3.855  -0.891  -0.049  0.00  0.00     0.048 A 
ATOM     17  C   UNL d   1      -2.834   1.682  -0.017  0.00  0.00     0.054 A 
ATOM     18  O   UNL d   1       5.669   1.272   0.070  0.00  0.00    -0.245 OA
ATOM     19  C   UNL d   1      -4.731   0.193  -0.017  0.00  0.00     0.048 A 
ATOM     20  O   UNL d   1       1.300   2.555  -0.327  0.00  0.00    -0.266 OA
ATOM     21  O   UNL d   1       0.505  -3.641  -0.119  0.00  0.00    -0.267 OA
ATOM     22  C   UNL d   1      -4.211   1.478  -0.004  0.00  0.00     0.037 A 
ATOM     23  C   UNL d   1       3.076  -3.209   0.498  0.00  0.00     0.161 C 
ATOM     24 CL   UNL d   1      -4.556  -2.474  -0.056  0.00  0.00    -0.083 Cl
ATOM     25 CL   UNL d   1      -5.277   2.828   0.032  0.00  0.00    -0.084 Cl
ENDROOT
BRANCH   2  26
ATOM     26  C   UNL d   1       5.129  -1.289  -0.177  0.00  0.00     0.045 A 
ATOM     27  C   UNL d   1       6.161  -1.375   0.776  0.00  0.00     0.030 A 
ATOM     28  C   UNL d   1       7.255  -2.212   0.573  0.00  0.00     0.002 A 
ATOM     29  C   UNL d   1       7.335  -2.974  -0.591  0.00  0.00     0.000 A 
ATOM     30  C   UNL d   1       6.327  -2.888  -1.554  0.00  0.00     0.002 A 
ATOM     31  C   UNL d   1       5.231  -2.044  -1.354  0.00  0.00     0.030 A 
ENDBRANCH   2  26
BRANCH   5  32
ATOM     32  C   UNL d   1       3.914   3.333   0.056  0.00  0.00     0.047 A 
ATOM     33  C   UNL d   1       3.430   4.251  -0.890  0.00  0.00     0.030 A 
ATOM     34  C   UNL d   1       3.876   5.575  -0.901  0.00  0.00     0.002 A 
ATOM     35  C   UNL d   1       4.803   6.007   0.043  0.00  0.00     0.000 A 
ATOM     36  C   UNL d   1       5.291   5.115   0.993  0.00  0.00     0.002 A 
ATOM     37  C   UNL d   1       4.856   3.786   0.995  0.00  0.00     0.030 A 
ENDBRANCH   5  32
TORSDOF 2
