REMARK  4 active torsions:
REMARK  status: ('A' for Active; 'I' for Inactive)
REMARK    1  A    between atoms: N_4  and  C_1 
REMARK       I    between atoms: C_2  and  N_5 
REMARK       I    between atoms: N_8  and  C_2 
REMARK    2  A    between atoms: C_3  and  C_11 
REMARK    3  A    between atoms: N_5  and  C_6 
REMARK    4  A    between atoms: C_7  and  N_8 
ROOT
ATOM      1  C   UNL d   1      -0.841   1.351   0.186  0.00  0.00     0.130 A 
ATOM      2  C   UNL d   1       0.500   1.241   0.638  0.00  0.00     0.080 A 
ATOM      3  N   UNL d   1      -1.694   0.312   0.283  0.00  0.00    -0.351 N 
ATOM      4  HN  UNL d   1      -2.656   0.387  -0.047  1.00  0.00     0.166 HD
ATOM      5  C   UNL d   1       0.935   0.070   1.263  0.00  0.00     0.035 A 
ATOM      6  C   UNL d   1      -1.230  -0.834   0.832  0.00  0.00     0.090 A 
ATOM      7  C   UNL d   1       0.047  -0.994   1.350  0.00  0.00     0.019 A 
ENDROOT
BRANCH   2   8
ATOM      8  N   UNL d   1       1.422   2.203   0.200  0.00  0.00    -0.305 N 
ATOM      9  C   UNL d   1       2.295   2.999   0.886  0.00  0.00     0.325 C 
ATOM     10  N   UNL d   1       2.288   2.897   2.253  0.00  0.00    -0.309 N 
ATOM     11  O   UNL d   1       2.947   3.807   0.226  0.00  0.00    -0.247 OA
ATOM     12  H   UNL d   1       1.682   2.192   2.647  0.00  0.00     0.170 HD
ATOM     13  H   UNL d   1       1.155   2.660  -0.671  0.00  0.00     0.171 HD
BRANCH  10  14
ATOM     14  C   UNL d   1       3.053   3.670   3.157  0.00  0.00     0.039 A 
ATOM     15  C   UNL d   1       3.874   4.736   2.771  0.00  0.00     0.053 A 
ATOM     16  C   UNL d   1       4.689   5.378   3.707  0.00  0.00     0.037 A 
ATOM     17 CL   UNL d   1       5.725   6.658   3.199  0.00  0.00    -0.084 Cl
ATOM     18  C   UNL d   1       4.689   4.984   5.037  0.00  0.00     0.048 A 
ATOM     19  C   UNL d   1       3.832   3.961   5.435  0.00  0.00     0.037 A 
ATOM     20  C   UNL d   1       3.006   3.317   4.509  0.00  0.00     0.053 A 
ATOM     21 CL   UNL d   1       3.815   3.462   7.082  0.00  0.00    -0.084 Cl
ENDBRANCH  10  14
ENDBRANCH   2   8
BRANCH   1  22
ATOM     22  N   UNL d   1      -1.249   2.552  -0.412  0.00  0.00    -0.365 N 
ATOM     23  C   UNL d   1      -1.140   3.759   0.420  0.00  0.00     0.125 C 
ATOM     24  C   UNL d   1      -0.935   4.925  -0.549  0.00  0.00     0.033 C 
ATOM     25  C   UNL d   1      -2.117   5.035  -1.530  0.00  0.00     0.096 C 
ATOM     26  C   UNL d   1      -2.413   3.671  -2.193  0.00  0.00     0.033 C 
ATOM     27  C   UNL d   1      -2.487   2.512  -1.189  0.00  0.00     0.125 C 
BRANCH  25  28
ATOM     28  C   UNL d   1      -3.351   5.639  -0.855  0.00  0.00     0.391 C 
ATOM     29  F   UNL d   1      -4.446   4.868  -0.995  0.00  0.00    -0.171 F 
ATOM     30  F   UNL d   1      -3.167   5.849   0.468  0.00  0.00    -0.171 F 
ATOM     31  F   UNL d   1      -3.632   6.843  -1.407  0.00  0.00    -0.171 F 
ENDBRANCH  25  28
ENDBRANCH   1  22
TORSDOF 4
