REMARK  5 active torsions:
REMARK  status: ('A' for Active; 'I' for Inactive)
REMARK    1  A    between atoms: C_7  and  C_1 
REMARK    2  A    between atoms: C_5  and  C_4 
REMARK    3  A    between atoms: C_6  and  C_10 
REMARK       I    between atoms: N_16  and  C_7 
REMARK       I    between atoms: C_14  and  N_18 
REMARK       I    between atoms: N_19  and  C_14 
REMARK    4  A    between atoms: N_18  and  N_16 
REMARK    5  A    between atoms: C_26  and  N_19 
ROOT
ATOM      1  C   UNL d   1       1.155   0.876  -0.006  0.00  0.00     0.110 A 
ATOM      2  N   UNL d   1      -0.151   1.357   0.137  0.00  0.00    -0.344 N 
ATOM      3  HN  UNL d   1      -0.389   2.304   0.432  1.00  0.00     0.167 HD
ATOM      4  C   UNL d   1      -1.036   0.418  -0.162  0.00  0.00     0.103 A 
ATOM      5  S   UNL d   1      -0.337  -1.123  -0.522  0.00  0.00    -0.079 SA
ATOM      6  C   UNL d   1       1.229  -0.462  -0.342  0.00  0.00     0.087 A 
ENDROOT
BRANCH   1   7
ATOM      7  C   UNL d   1       2.330   1.742   0.138  0.00  0.00     0.287 C 
ATOM      8  N   UNL d   1       2.030   3.035   0.517  0.00  0.00    -0.261 N 
ATOM      9  H   UNL d   1       1.109   3.238   0.914  0.00  0.00     0.190 HD
ATOM     10  O   UNL d   1       3.476   1.359  -0.096  0.00  0.00    -0.264 OA
BRANCH   8  11
ATOM     11  N   UNL d   1       3.075   3.928   0.830  0.00  0.00    -0.248 N 
ATOM     12  C   UNL d   1       2.817   4.894   1.788  0.00  0.00     0.339 C 
ATOM     13  N   UNL d   1       3.891   5.731   2.008  0.00  0.00    -0.308 N 
ATOM     14  O   UNL d   1       1.736   4.917   2.368  0.00  0.00    -0.245 OA
ATOM     15  H   UNL d   1       4.674   5.640   1.380  0.00  0.00     0.170 HD
ATOM     16  H   UNL d   1       3.773   4.061   0.109  0.00  0.00     0.192 HD
BRANCH  13  17
ATOM     17  C   UNL d   1       4.019   6.680   3.050  0.00  0.00     0.036 A 
ATOM     18  C   UNL d   1       3.084   6.817   4.081  0.00  0.00     0.031 A 
ATOM     19  C   UNL d   1       3.295   7.715   5.133  0.00  0.00     0.026 A 
ATOM     20  C   UNL d   1       4.446   8.495   5.154  0.00  0.00     0.034 A 
ATOM     21  C   UNL d   1       5.377   8.396   4.125  0.00  0.00     0.026 A 
ATOM     22 CL   UNL d   1       4.723   9.570   6.467  0.00  0.00    -0.084 Cl
ATOM     23  C   UNL d   1       5.164   7.487   3.075  0.00  0.00     0.031 A 
ENDBRANCH  13  17
ENDBRANCH   8  11
ENDBRANCH   1   7
BRANCH   4  24
ATOM     24  C   UNL d   1      -2.501   0.601  -0.257  0.00  0.00     0.088 A 
ATOM     25  N   UNL d   1      -3.250  -0.499   0.062  0.00  0.00    -0.361 N 
ATOM     26  C   UNL d   1      -4.599  -0.406  -0.029  0.00  0.00     0.104 A 
ATOM     27  HN  UNL d   1      -2.805  -1.366   0.361  1.00  0.00     0.165 HD
ATOM     28  C   UNL d   1      -5.268   0.741  -0.424  0.00  0.00     0.065 A 
ATOM     29  C   UNL d   1      -4.491   1.857  -0.748  0.00  0.00     0.043 A 
ATOM     30  C   UNL d   1      -3.095   1.795  -0.669  0.00  0.00     0.064 A 
ATOM     31 CL   UNL d   1      -2.217   3.201  -1.152  0.00  0.00    -0.082 Cl
BRANCH  28  32
ATOM     32  C   UNL d   1      -6.765   0.748  -0.500  0.00  0.00     0.418 C 
ATOM     33  F   UNL d   1      -7.281   1.950  -0.875  0.00  0.00    -0.166 F 
ATOM     34  F   UNL d   1      -7.243  -0.159  -1.394  0.00  0.00    -0.166 F 
ATOM     35  F   UNL d   1      -7.348   0.446   0.691  0.00  0.00    -0.166 F 
ENDBRANCH  28  32
ENDBRANCH   4  24
TORSDOF 5
