REMARK  5 active torsions:
REMARK  status: ('A' for Active; 'I' for Inactive)
REMARK    1  A    between atoms: C_2  and  S_1 
REMARK    2  A    between atoms: O_4  and  S_1 
REMARK    3  A    between atoms: C_10  and  O_4 
REMARK    4  A    between atoms: O_9  and  C_11 
REMARK    5  A    between atoms: C_14  and  O_9 
ROOT
ATOM      1  C   UNL d   1       0.816  -0.726  -2.574  0.00  0.00     0.089 A 
ATOM      2  C   UNL d   1       1.558  -0.216  -5.231  0.00  0.00     0.076 A 
ATOM      3  C   UNL d   1       2.142  -0.432  -2.891  0.00  0.00     0.041 A 
ATOM      4  C   UNL d   1      -0.126  -0.831  -3.603  0.00  0.00     0.041 A 
ATOM      5  C   UNL d   1       2.517  -0.202  -4.217  0.00  0.00     0.040 A 
ATOM      6  C   UNL d   1       0.244  -0.573  -4.929  0.00  0.00     0.040 A 
ENDROOT
BRANCH   1   7
ATOM      7  O   UNL d   1       0.361  -0.978  -1.302  0.00  0.00    -0.229 OA
BRANCH   7   8
ATOM      8  S   UNL d   1       1.046  -0.260   0.000  0.00  0.00     0.304 S 
ATOM      9  O   UNL d   1       2.405  -0.762   0.137  0.00  0.00    -0.193 OA
ATOM     10  O   UNL d   1       0.801   1.169  -0.035  0.00  0.00    -0.193 OA
BRANCH   8  11
ATOM     11  C   UNL d   1       0.155  -0.908   1.397  0.00  0.00     0.110 A 
ATOM     12  C   UNL d   1      -1.216  -0.687   1.560  0.00  0.00     0.079 A 
ATOM     13  C   UNL d   1      -1.831  -1.157   2.736  0.00  0.00     0.057 A 
ATOM     14 CL   UNL d   1      -2.164   0.119   0.356  0.00  0.00    -0.081 Cl
ATOM     15 CL   UNL d   1      -3.514  -0.913   3.069  0.00  0.00    -0.083 Cl
ATOM     16  C   UNL d   1      -1.094  -1.847   3.708  0.00  0.00     0.026 A 
ATOM     17  C   UNL d   1       0.265  -2.080   3.523  0.00  0.00     0.003 A 
ATOM     18  C   UNL d   1       0.891  -1.606   2.373  0.00  0.00     0.028 A 
ENDBRANCH   8  11
ENDBRANCH   7   8
ENDBRANCH   1   7
BRANCH   2  19
ATOM     19  O   UNL d   1       1.843   0.066  -6.551  0.00  0.00    -0.311 OA
BRANCH  19  20
ATOM     20  C   UNL d   1       2.763   1.054  -6.837  0.00  0.00     0.076 A 
ATOM     21  C   UNL d   1       3.529   0.878  -7.990  0.00  0.00     0.037 A 
ATOM     22  C   UNL d   1       4.503   1.819  -8.334  0.00  0.00     0.003 A 
ATOM     23  C   UNL d   1       4.711   2.936  -7.525  0.00  0.00     0.000 A 
ATOM     24  C   UNL d   1       3.919   3.138  -6.397  0.00  0.00     0.003 A 
ATOM     25  C   UNL d   1       2.926   2.212  -6.069  0.00  0.00     0.037 A 
ENDBRANCH  19  20
ENDBRANCH   2  19
TORSDOF 5
