REMARK  5 active torsions:
REMARK  status: ('A' for Active; 'I' for Inactive)
REMARK    1  A    between atoms: C_2  and  C_1 
REMARK       I    between atoms: N_3  and  C_2 
REMARK       I    between atoms: C_14  and  N_3 
REMARK    2  A    between atoms: N_10  and  C_4 
REMARK    3  A    between atoms: C_6  and  N_10 
REMARK    4  A    between atoms: O_19  and  C_12 
REMARK    5  A    between atoms: O_18  and  C_13 
ROOT
ATOM      1  C   UNL d   1      -0.822   1.217  -1.075  0.00  0.00     0.127 C 
ATOM      2  C   UNL d   1      -1.397   0.005  -1.158  0.00  0.00     0.116 C 
ATOM      3  C   UNL d   1      -0.086   1.641   0.061  0.00  0.00     0.106 C 
ATOM      4  N   UNL d   1       0.529   2.038   0.959  0.00  0.00    -0.191 NA
ENDROOT
BRANCH   1   5
ATOM      5  C   UNL d   1      -1.013   2.112  -2.277  0.00  0.00     0.270 C 
ATOM      6  N   UNL d   1      -0.405   3.353  -2.235  0.00  0.00    -0.293 N 
ATOM      7  C   UNL d   1      -0.368   4.341  -3.197  0.00  0.00     0.220 C 
ATOM      8  H   UNL d   1       0.082   3.653  -1.400  0.00  0.00     0.172 HD
ATOM      9  O   UNL d   1       0.185   5.405  -2.916  0.00  0.00    -0.274 OA
ATOM     10  C   UNL d   1      -1.016   4.140  -4.543  0.00  0.00     0.117 C 
ATOM     11  O   UNL d   1      -1.699   1.739  -3.227  0.00  0.00    -0.266 OA
ENDBRANCH   1   5
BRANCH   2  12
ATOM     12  N   UNL d   1      -1.468  -1.077  -0.303  0.00  0.00    -0.362 N 
ATOM     13  H   UNL d   1      -0.911  -1.088   0.549  0.00  0.00     0.165 HD
BRANCH  12  14
ATOM     14  C   UNL d   1      -2.173  -2.280  -0.563  0.00  0.00     0.068 A 
ATOM     15  C   UNL d   1      -3.258  -2.300  -1.459  0.00  0.00     0.071 A 
ATOM     16  C   UNL d   1      -3.902  -3.479  -1.866  0.00  0.00     0.092 A 
ATOM     17  C   UNL d   1      -3.443  -4.687  -1.343  0.00  0.00     0.070 A 
ATOM     18  C   UNL d   1      -2.383  -4.690  -0.419  0.00  0.00     0.065 A 
ATOM     19 CL   UNL d   1      -4.065  -6.250  -1.742  0.00  0.00    -0.081 Cl
ATOM     20  C   UNL d   1      -1.743  -3.506  -0.026  0.00  0.00     0.096 A 
BRANCH  16  21
ATOM     21  O   UNL d   1      -4.903  -3.202  -2.751  0.00  0.00    -0.354 OA
ATOM     22  C   UNL d   1      -5.682  -4.238  -3.317  0.00  0.00     0.210 C 
ENDBRANCH  16  21
BRANCH  20  23
ATOM     23  O   UNL d   1      -0.685  -3.458   0.852  0.00  0.00    -0.354 OA
ATOM     24  C   UNL d   1      -0.227  -4.708   1.368  0.00  0.00     0.210 C 
ENDBRANCH  20  23
ENDBRANCH  12  14
ENDBRANCH   2  12
TORSDOF 5
