REMARK  11 active torsions:
REMARK  status: ('A' for Active; 'I' for Inactive)
REMARK    1  A    between atoms: C_6  and  C_1 
REMARK    2  A    between atoms: C_8  and  C_1 
REMARK    3  A    between atoms: C_2  and  C_7 
REMARK    4  A    between atoms: C_5  and  C_2 
REMARK    5  A    between atoms: C_7  and  C_14 
REMARK    6  A    between atoms: C_13  and  C_8 
REMARK    7  A    between atoms: C_16  and  C_13 
REMARK    8  A    between atoms: C_14  and  C_15 
REMARK    9  A    between atoms: C_15  and  C_18 
REMARK   10  A    between atoms: C_17  and  C_16 
REMARK   11  A    between atoms: C_18  and  C_17 
ROOT
ATOM      1  C   UNL d   1       4.971  -0.797   2.716  0.00  0.00     0.000 C 
ENDROOT
BRANCH   1   2
ATOM      2  C   UNL d   1       4.444  -0.369   1.349  0.00  0.00     0.000 C 
BRANCH   2   3
ATOM      3  C   UNL d   1       2.920  -0.367   1.346  0.00  0.00     0.008 C 
BRANCH   3   4
ATOM      4  C   UNL d   1       2.369   0.087  -0.001  0.00  0.00     0.084 C 
BRANCH   4   5
ATOM      5  C   UNL d   1       0.851   0.081  -0.008  0.00  0.00     0.159 C 
ATOM      6  O   UNL d   1       0.182  -0.298   0.952  0.00  0.00    -0.292 OA
BRANCH   5   7
ATOM      7  C   UNL d   1       0.154   0.505  -1.251  0.00  0.00     0.010 A 
ATOM      8  C   UNL d   1       0.733   1.399  -2.159  0.00  0.00     0.015 A 
ATOM      9  C   UNL d   1       0.036   1.767  -3.312  0.00  0.00     0.001 A 
ATOM     10  C   UNL d   1      -1.232   1.242  -3.563  0.00  0.00     0.000 A 
ATOM     11  C   UNL d   1      -1.811   0.352  -2.658  0.00  0.00     0.001 A 
ATOM     12  C   UNL d   1      -1.123  -0.011  -1.502  0.00  0.00     0.015 A 
ENDBRANCH   5   7
ENDBRANCH   4   5
ENDBRANCH   3   4
ENDBRANCH   2   3
ENDBRANCH   1   2
BRANCH   1  13
ATOM     13  C   UNL d   1       6.495  -0.803   2.734  0.00  0.00     0.000 C 
BRANCH  13  14
ATOM     14  C   UNL d   1       7.021  -1.229   4.102  0.00  0.00     0.000 C 
BRANCH  14  15
ATOM     15  C   UNL d   1       8.546  -1.226   4.105  0.00  0.00     0.008 C 
BRANCH  15  16
ATOM     16  C   UNL d   1       9.106  -1.640   5.463  0.00  0.00     0.084 C 
BRANCH  16  17
ATOM     17  C   UNL d   1      10.624  -1.624   5.454  0.00  0.00     0.159 C 
ATOM     18  O   UNL d   1      11.270  -1.311   4.455  0.00  0.00    -0.292 OA
BRANCH  17  19
ATOM     19  C   UNL d   1      11.351  -2.008   6.698  0.00  0.00     0.010 A 
ATOM     20  C   UNL d   1      10.688  -2.336   7.887  0.00  0.00     0.015 A 
ATOM     21  C   UNL d   1      11.421  -2.699   9.019  0.00  0.00     0.001 A 
ATOM     22  C   UNL d   1      12.815  -2.736   8.969  0.00  0.00     0.000 A 
ATOM     23  C   UNL d   1      13.480  -2.407   7.791  0.00  0.00     0.001 A 
ATOM     24  C   UNL d   1      12.752  -2.043   6.659  0.00  0.00     0.015 A 
ENDBRANCH  17  19
ENDBRANCH  16  17
ENDBRANCH  15  16
ENDBRANCH  14  15
ENDBRANCH  13  14
ENDBRANCH   1  13
TORSDOF 11
