REMARK  9 active torsions:
REMARK  status: ('A' for Active; 'I' for Inactive)
REMARK    1  A    between atoms: C_3  and  C_1 
REMARK    2  A    between atoms: N_5  and  C_2 
REMARK    3  A    between atoms: S_9  and  C_2 
REMARK    4  A    between atoms: O_15  and  C_3 
REMARK    5  A    between atoms: C_12  and  N_5 
REMARK    6  A    between atoms: C_7  and  C_8 
REMARK    7  A    between atoms: O_16  and  C_7 
REMARK    8  A    between atoms: C_20  and  O_15 
REMARK    9  A    between atoms: C_21  and  O_16 
ROOT
ATOM      1  C   UNL d   1       1.024   2.086  -0.119  0.00  0.00     0.152 C 
ATOM      2  C   UNL d   1       0.295   0.987   0.240  0.00  0.00     0.097 C 
ATOM      3  C   UNL d   1       2.449   2.140  -0.028  0.00  0.00     0.108 C 
ATOM      4  N   UNL d   1       3.607   2.194   0.032  0.00  0.00    -0.191 NA
ENDROOT
BRANCH   1   5
ATOM      5  C   UNL d   1       0.351   3.291  -0.679  0.00  0.00     0.306 C 
ATOM      6  O   UNL d   1      -0.862   3.434  -0.750  0.00  0.00    -0.258 OA
BRANCH   5   7
ATOM      7  O   UNL d   1       1.276   4.160  -1.160  0.00  0.00    -0.317 OA
BRANCH   7   8
ATOM      8  C   UNL d   1       0.823   5.301  -1.904  0.00  0.00     0.174 C 
ATOM      9  C   UNL d   1       1.182   6.565  -1.149  0.00  0.00     0.034 C 
ENDBRANCH   7   8
ENDBRANCH   5   7
ENDBRANCH   1   5
BRANCH   2  10
ATOM     10  N   UNL d   1      -1.107   0.951   0.156  0.00  0.00    -0.349 N 
ATOM     11  H   UNL d   1      -1.512   1.821  -0.210  0.00  0.00     0.166 HD
BRANCH  10  12
ATOM     12  C   UNL d   1      -2.083   0.185   0.834  0.00  0.00     0.033 A 
ATOM     13  C   UNL d   1      -1.817  -0.751   1.834  0.00  0.00     0.030 A 
ATOM     14  C   UNL d   1      -2.839  -1.484   2.449  0.00  0.00     0.020 A 
ATOM     15  C   UNL d   1      -4.173  -1.286   2.087  0.00  0.00     0.039 A 
ATOM     16  C   UNL d   1      -4.464  -0.379   1.066  0.00  0.00     0.020 A 
ATOM     17  C   UNL d   1      -3.428   0.333   0.441  0.00  0.00     0.030 A 
BRANCH  15  18
ATOM     18  C   UNL d   1      -5.291  -1.927   2.833  0.00  0.00     0.293 C 
ATOM     19  O   UNL d   1      -6.466  -1.646   2.669  0.00  0.00    -0.259 OA
BRANCH  18  20
ATOM     20  O   UNL d   1      -4.784  -2.760   3.774  0.00  0.00    -0.318 OA
BRANCH  20  21
ATOM     21  C   UNL d   1      -5.643  -3.089   4.874  0.00  0.00     0.174 C 
ATOM     22  C   UNL d   1      -5.280  -2.169   6.026  0.00  0.00     0.034 C 
ENDBRANCH  20  21
ENDBRANCH  18  20
ENDBRANCH  15  18
ENDBRANCH  10  12
ENDBRANCH   2  10
BRANCH   2  23
ATOM     23  S   UNL d   1       1.251  -0.452   0.720  0.00  0.00    -0.115 SA
ATOM     24  C   UNL d   1       1.226  -1.342  -0.853  0.00  0.00     0.097 C 
ENDBRANCH   2  23
TORSDOF 9
