REMARK  3 active torsions:
REMARK  status: ('A' for Active; 'I' for Inactive)
REMARK    1  A    between atoms: N_2  and  C_1 
REMARK    2  A    between atoms: N_3  and  C_1 
REMARK    3  A    between atoms: C_5  and  N_3 
ROOT
ATOM      1  C   UNL d   1       0.843   0.205   0.063  0.00  0.00     0.174 C 
ATOM      2  S   UNL d   1       0.046  -0.913  -0.900  0.00  0.00    -0.041 SA
ENDROOT
BRANCH   1   3
ATOM      3  N   UNL d   1       0.281   0.937   1.111  0.00  0.00    -0.353 N 
ATOM      4  C   UNL d   1      -0.959   0.514   1.794  0.00  0.00     0.164 C 
ATOM      5  C   UNL d   1      -1.974   1.626   1.926  0.00  0.00    -0.034 A 
ATOM      6  C   UNL d   1      -3.346   1.399   1.789  0.00  0.00     0.009 A 
ATOM      7  C   UNL d   1      -1.519   2.913   2.256  0.00  0.00    -0.049 A 
ATOM      8  C   UNL d   1      -4.247   2.452   1.957  0.00  0.00     0.001 A 
ATOM      9  C   UNL d   1      -3.787   3.730   2.275  0.00  0.00     0.001 A 
ATOM     10  C   UNL d   1      -2.422   3.962   2.431  0.00  0.00     0.008 A 
ATOM     11  C   UNL d   1      -0.039   3.094   2.424  0.00  0.00     0.059 C 
ATOM     12  C   UNL d   1       0.684   2.353   1.301  0.00  0.00     0.130 C 
ENDBRANCH   1   3
BRANCH   1  13
ATOM     13  N   UNL d   1       2.140   0.497  -0.280  0.00  0.00    -0.332 N 
ATOM     14  H   UNL d   1       2.388   0.331  -1.251  0.00  0.00     0.168 HD
BRANCH  13  15
ATOM     15  C   UNL d   1       3.239   0.690   0.596  0.00  0.00     0.056 A 
ATOM     16  C   UNL d   1       4.395   1.330   0.126  0.00  0.00     0.060 A 
ATOM     17 CL   UNL d   1       4.499   1.921  -1.496  0.00  0.00    -0.082 Cl
ATOM     18  C   UNL d   1       5.463   1.578   0.992  0.00  0.00     0.026 A 
ATOM     19  C   UNL d   1       5.398   1.161   2.321  0.00  0.00     0.002 A 
ATOM     20  C   UNL d   1       4.267   0.491   2.786  0.00  0.00     0.002 A 
ATOM     21  C   UNL d   1       3.193   0.255   1.926  0.00  0.00     0.031 A 
ENDBRANCH  13  15
ENDBRANCH   1  13
TORSDOF 3
