REMARK  16 active torsions:
REMARK  status: ('A' for Active; 'I' for Inactive)
REMARK    1  A    between atoms: C_8  and  S_1 
REMARK    2  A    between atoms: N_12  and  S_1 
REMARK    3  A    between atoms: S_2  and  C_9 
REMARK    4  A    between atoms: N_13  and  S_2 
REMARK    5  A    between atoms: C_23  and  N_12 
REMARK    6  A    between atoms: C_24  and  N_12 
REMARK    7  A    between atoms: C_25  and  N_13 
REMARK    8  A    between atoms: C_26  and  N_13 
REMARK    9  A    between atoms: C_27  and  C_23 
REMARK   10  A    between atoms: C_28  and  C_24 
REMARK   11  A    between atoms: C_29  and  C_25 
REMARK   12  A    between atoms: C_30  and  C_26 
REMARK   13  A    between atoms: C_31  and  C_27 
REMARK   14  A    between atoms: C_32  and  C_28 
REMARK   15  A    between atoms: C_33  and  C_29 
REMARK   16  A    between atoms: C_34  and  C_30 
ROOT
ATOM      1  C   UNL d   1      -1.181   3.201   1.346  0.00  0.00     0.027 A 
ATOM      2  C   UNL d   1      -2.387   5.170   1.872  0.00  0.00     0.027 A 
ATOM      3  C   UNL d   1      -2.488   3.695   1.830  0.00  0.00     0.194 A 
ATOM      4  C   UNL d   1      -1.095   5.514   1.431  0.00  0.00    -0.011 A 
ATOM      5  C   UNL d   1      -0.350   4.313   1.140  0.00  0.00    -0.011 A 
ATOM      6  C   UNL d   1       0.513   1.728   0.616  0.00  0.00     0.075 A 
ATOM      7  C   UNL d   1      -3.003   7.443   2.026  0.00  0.00     0.075 A 
ATOM      8  C   UNL d   1      -0.794   1.907   1.073  0.00  0.00     0.041 A 
ATOM      9  C   UNL d   1      -3.355   6.101   2.197  0.00  0.00     0.041 A 
ATOM     10  C   UNL d   1      -0.754   6.840   1.258  0.00  0.00     0.015 A 
ATOM     11  C   UNL d   1       0.941   4.136   0.677  0.00  0.00     0.015 A 
ATOM     12  O   UNL d   1      -3.451   3.019   2.118  0.00  0.00    -0.287 OA
ATOM     13  C   UNL d   1      -1.738   7.799   1.504  0.00  0.00     0.026 A 
ATOM     14  C   UNL d   1       1.377   2.831   0.418  0.00  0.00     0.026 A 
ENDROOT
BRANCH   6  15
ATOM     15  S   UNL d   1       1.057   0.096   0.149  0.00  0.00     0.243 S 
ATOM     16  O   UNL d   1       2.370   0.246  -0.438  0.00  0.00    -0.206 OA
ATOM     17  O   UNL d   1      -0.025  -0.503  -0.609  0.00  0.00    -0.206 OA
BRANCH  15  18
ATOM     18  N   UNL d   1       1.178  -0.712   1.688  0.00  0.00    -0.206 NA
BRANCH  18  19
ATOM     19  C   UNL d   1      -0.081  -1.495   1.993  0.00  0.00     0.108 C 
BRANCH  19  20
ATOM     20  C   UNL d   1      -0.121  -2.132   3.385  0.00  0.00     0.019 C 
BRANCH  20  21
ATOM     21  C   UNL d   1      -1.450  -2.856   3.693  0.00  0.00    -0.022 C 
ATOM     22  C   UNL d   1      -1.772  -3.954   2.674  0.00  0.00     0.009 C 
ATOM     23  C   UNL d   1      -1.382  -3.472   5.094  0.00  0.00     0.009 C 
ENDBRANCH  20  21
ENDBRANCH  19  20
ENDBRANCH  18  19
BRANCH  18  24
ATOM     24  C   UNL d   1       2.432  -1.506   1.878  0.00  0.00     0.108 C 
BRANCH  24  25
ATOM     25  C   UNL d   1       3.693  -0.657   2.057  0.00  0.00     0.019 C 
BRANCH  25  26
ATOM     26  C   UNL d   1       3.618   0.430   3.144  0.00  0.00    -0.022 C 
ATOM     27  C   UNL d   1       3.439  -0.163   4.541  0.00  0.00     0.009 C 
ATOM     28  C   UNL d   1       4.892   1.278   3.096  0.00  0.00     0.009 C 
ENDBRANCH  25  26
ENDBRANCH  24  25
ENDBRANCH  18  24
ENDBRANCH  15  18
ENDBRANCH   6  15
BRANCH   7  29
ATOM     29  S   UNL d   1      -4.235   8.713   2.251  0.00  0.00     0.243 S 
ATOM     30  O   UNL d   1      -4.152   9.577   1.087  0.00  0.00    -0.206 OA
ATOM     31  O   UNL d   1      -5.469   8.043   2.590  0.00  0.00    -0.206 OA
BRANCH  29  32
ATOM     32  N   UNL d   1      -3.731   9.676   3.632  0.00  0.00    -0.206 NA
BRANCH  32  33
ATOM     33  C   UNL d   1      -2.311  10.158   3.503  0.00  0.00     0.108 C 
BRANCH  33  34
ATOM     34  C   UNL d   1      -1.773  10.975   4.678  0.00  0.00     0.019 C 
BRANCH  34  35
ATOM     35  C   UNL d   1      -0.283  11.343   4.491  0.00  0.00    -0.022 C 
ATOM     36  C   UNL d   1      -0.038  12.177   3.228  0.00  0.00     0.009 C 
ATOM     37  C   UNL d   1       0.211  12.113   5.716  0.00  0.00     0.009 C 
ENDBRANCH  34  35
ENDBRANCH  33  34
ENDBRANCH  32  33
BRANCH  32  38
ATOM     38  C   UNL d   1      -4.662  10.853   3.834  0.00  0.00     0.108 C 
BRANCH  38  39
ATOM     39  C   UNL d   1      -6.103  10.490   4.183  0.00  0.00     0.019 C 
BRANCH  39  40
ATOM     40  C   UNL d   1      -6.258   9.606   5.433  0.00  0.00    -0.022 C 
ATOM     41  C   UNL d   1      -5.734  10.294   6.695  0.00  0.00     0.009 C 
ATOM     42  C   UNL d   1      -7.731   9.236   5.613  0.00  0.00     0.009 C 
ENDBRANCH  39  40
ENDBRANCH  38  39
ENDBRANCH  32  38
ENDBRANCH  29  32
ENDBRANCH   7  29
TORSDOF 16
