REMARK  5 active torsions:
REMARK  status: ('A' for Active; 'I' for Inactive)
REMARK    1  A    between atoms: C_8  and  C_1 
REMARK    2  A    between atoms: C_3  and  C_5 
REMARK    3  A    between atoms: C_4  and  C_8 
REMARK    4  A    between atoms: C_13  and  C_6 
REMARK    5  A    between atoms: N_12  and  C_10 
ROOT
ATOM      1  C   UNL d   1      -4.367   0.101   0.028  0.00  0.00     0.056 A 
ATOM      2  S   UNL d   1      -2.897   0.978   0.021  0.00  0.00    -0.077 SA
ATOM      3  C   UNL d   1      -1.937  -0.433  -0.001  0.00  0.00     0.059 A 
ATOM      4  C   UNL d   1      -4.109  -1.264   0.020  0.00  0.00     0.025 A 
ATOM      5  C   UNL d   1      -2.711  -1.574   0.003  0.00  0.00     0.029 A 
ENDROOT
BRANCH   3   6
ATOM      6  C   UNL d   1      -0.508  -0.387  -0.016  0.00  0.00    -0.054 C 
ATOM      7  C   UNL d   1       0.690  -0.286  -0.023  0.00  0.00    -0.061 C 
BRANCH   7   8
ATOM      8  C   UNL d   1       2.115  -0.149  -0.018  0.00  0.00     0.018 A 
ATOM      9  C   UNL d   1       2.708   1.116  -0.011  0.00  0.00     0.020 A 
ATOM     10  C   UNL d   1       4.100   1.236   0.016  0.00  0.00     0.001 A 
ATOM     11  C   UNL d   1       4.899   0.092   0.034  0.00  0.00     0.000 A 
ATOM     12  C   UNL d   1       4.308  -1.171   0.020  0.00  0.00     0.001 A 
ATOM     13  C   UNL d   1       2.918  -1.292  -0.007  0.00  0.00     0.020 A 
ENDBRANCH   7   8
ENDBRANCH   3   6
BRANCH   1  14
ATOM     14  C   UNL d   1      -5.697   0.729   0.040  0.00  0.00     0.190 C 
ATOM     15  O   UNL d   1      -6.721   0.043   0.036  0.00  0.00    -0.287 OA
BRANCH  14  16
ATOM     16  C   UNL d   1      -5.835   2.231   0.054  0.00  0.00     0.073 C 
ATOM     17  C   UNL d   1      -7.037   2.834   0.059  0.00  0.00     0.088 C 
BRANCH  17  18
ATOM     18  N   UNL d   1      -7.362   4.190   0.070  0.00  0.00    -0.398 N 
ATOM     19  C   UNL d   1      -6.388   5.281   0.082  0.00  0.00     0.148 C 
ATOM     20  C   UNL d   1      -8.756   4.649   0.064  0.00  0.00     0.148 C 
ENDBRANCH  17  18
ENDBRANCH  14  16
ENDBRANCH   1  14
TORSDOF 5
