REMARK  3 active torsions:
REMARK  status: ('A' for Active; 'I' for Inactive)
REMARK    1  A    between atoms: C_6  and  C_1 
REMARK    2  A    between atoms: O_11  and  C_2 
REMARK    3  A    between atoms: C_12  and  N_8 
ROOT
ATOM      1  C   UNL d   1      -1.822  -0.877   0.004  0.00  0.00     0.081 A 
ATOM      2  C   UNL d   1      -0.575  -1.393  -0.004  0.00  0.00     0.095 A 
ATOM      3  C   UNL d   1      -2.013   0.602   0.007  0.00  0.00     0.260 A 
ATOM      4  N   UNL d   1      -0.893   1.389   0.018  0.00  0.00    -0.322 N 
ATOM      5  C   UNL d   1       0.604  -0.508  -0.001  0.00  0.00     0.025 A 
ATOM      6  C   UNL d   1       0.408   0.880   0.013  0.00  0.00     0.048 A 
ATOM      7  O   UNL d   1      -3.134   1.103  -0.002  0.00  0.00    -0.267 OA
ATOM      8  C   UNL d   1       1.916  -0.997  -0.011  0.00  0.00     0.016 A 
ATOM      9  C   UNL d   1       1.490   1.763   0.018  0.00  0.00     0.030 A 
ATOM     10  C   UNL d   1       3.003  -0.118  -0.005  0.00  0.00     0.001 A 
ATOM     11  C   UNL d   1       2.789   1.259   0.011  0.00  0.00     0.002 A 
ATOM     12  H   UNL d   1      -1.052   2.387   0.020  0.00  0.00     0.169 HD
ENDROOT
BRANCH   1  13
ATOM     13  C   UNL d   1      -3.022  -1.758  -0.008  0.00  0.00     0.108 C 
ATOM     14  N   UNL d   1      -2.960  -3.052  -0.066  0.00  0.00    -0.365 N 
ATOM     15  HN  UNL d   1      -2.054  -3.521  -0.065  1.00  0.00     0.165 HD
BRANCH  14  16
ATOM     16  C   UNL d   1      -4.149  -3.809  -0.132  0.00  0.00     0.031 A 
ATOM     17  C   UNL d   1      -5.319  -3.380  -0.773  0.00  0.00     0.029 A 
ATOM     18  C   UNL d   1      -6.434  -4.219  -0.878  0.00  0.00     0.002 A 
ATOM     19  C   UNL d   1      -6.387  -5.510  -0.359  0.00  0.00     0.000 A 
ATOM     20  C   UNL d   1      -5.231  -5.955   0.276  0.00  0.00     0.002 A 
ATOM     21  C   UNL d   1      -4.124  -5.108   0.391  0.00  0.00     0.029 A 
ENDBRANCH  14  16
ENDBRANCH   1  13
BRANCH   2  22
ATOM     22  O   UNL d   1      -0.298  -2.749  -0.018  0.00  0.00    -0.359 OA
ATOM     23  H   UNL d   1      -1.157  -3.230  -0.040  0.00  0.00     0.217 HD
ENDBRANCH   2  22
TORSDOF 3
