REMARK  4 active torsions:
REMARK  status: ('A' for Active; 'I' for Inactive)
REMARK    1  A    between atoms: S_2  and  C_1 
REMARK    2  A    between atoms: C_7  and  S_2 
REMARK    3  A    between atoms: C_5  and  C_4 
REMARK    4  A    between atoms: O_10  and  C_5 
ROOT
ATOM      1  C   UNL d   1       1.251  -1.472  -0.039  0.00  0.00     0.048 A 
ATOM      2  C   UNL d   1      -0.033  -0.800   0.011  0.00  0.00     0.011 A 
ATOM      3  C   UNL d   1      -1.369  -1.348   0.013  0.00  0.00     0.050 A 
ATOM      4  C   UNL d   1       0.018   0.631   0.068  0.00  0.00    -0.024 A 
ATOM      5  C   UNL d   1       2.454  -0.737   0.006  0.00  0.00     0.022 A 
ATOM      6  C   UNL d   1      -2.521  -0.535   0.041  0.00  0.00     0.019 A 
ATOM      7  C   UNL d   1       2.448   0.648   0.074  0.00  0.00     0.002 A 
ATOM      8  C   UNL d   1      -2.412   0.844   0.071  0.00  0.00     0.002 A 
ATOM      9  C   UNL d   1       1.238   1.318   0.095  0.00  0.00     0.012 A 
ATOM     10  C   UNL d   1      -1.150   1.413   0.088  0.00  0.00     0.012 A 
ENDROOT
BRANCH   1  11
ATOM     11  S   UNL d   1       1.430  -3.249  -0.377  0.00  0.00     0.086 S 
ATOM     12  O   UNL d   1       2.795  -3.431  -0.980  0.00  0.00    -0.247 OA
BRANCH  11  13
ATOM     13  C   UNL d   1       1.587  -3.905   1.308  0.00  0.00     0.036 A 
ATOM     14  C   UNL d   1       1.088  -3.290   2.459  0.00  0.00     0.021 A 
ATOM     15  C   UNL d   1       1.164  -3.942   3.698  0.00  0.00     0.001 A 
ATOM     16  C   UNL d   1       1.726  -5.214   3.797  0.00  0.00     0.000 A 
ATOM     17  C   UNL d   1       2.233  -5.835   2.660  0.00  0.00     0.001 A 
ATOM     18  C   UNL d   1       2.164  -5.182   1.429  0.00  0.00     0.021 A 
ENDBRANCH  11  13
ENDBRANCH   1  11
BRANCH   3  19
ATOM     19  C   UNL d   1      -1.683  -2.791  -0.011  0.00  0.00     0.177 C 
ATOM     20  O   UNL d   1      -1.414  -3.588  -0.886  0.00  0.00    -0.646 OA
BRANCH  19  21
ATOM     21  O   UNL d   1      -2.418  -3.129   1.063  0.00  0.00    -0.773 OA
ATOM     22  H   UNL d   1      -2.637  -4.075   0.926  0.00  0.00     0.167 HD
ENDBRANCH  19  21
ENDBRANCH   3  19
TORSDOF 4
