REMARK  2 active torsions:
REMARK  status: ('A' for Active; 'I' for Inactive)
REMARK    1  A    between atoms: C_2  and  N_7 
REMARK    2  A    between atoms: C_4  and  C_3 
REMARK       I    between atoms: N_7  and  C_4 
ROOT
ATOM      1  C   UNL d   1       0.179  -0.504   0.099  0.00  0.00     0.086 A 
ATOM      2  C   UNL d   1      -2.178  -0.665  -0.163  0.00  0.00     0.034 A 
ATOM      3  C   UNL d   1       0.104   0.943  -0.044  0.00  0.00     0.085 A 
ATOM      4  C   UNL d   1      -0.955  -1.342   0.032  0.00  0.00     0.051 A 
ATOM      5  O   UNL d   1       2.168   0.352   0.279  0.00  0.00    -0.156 OA
ATOM      6  N   UNL d   1       1.460  -0.840   0.291  0.00  0.00    -0.240 N 
ATOM      7  HN  UNL d   1       1.838  -1.779   0.419  1.00  0.00     0.197 HD
ATOM      8  N   UNL d   1       1.339   1.441   0.070  0.00  0.00    -0.240 N 
ATOM      9  HN  UNL d   1       1.615   2.422   0.015  1.00  0.00     0.197 HD
ATOM     10  C   UNL d   1      -2.232   0.761  -0.314  0.00  0.00     0.019 A 
ATOM     11  C   UNL d   1      -1.109   1.611  -0.264  0.00  0.00     0.035 A 
ENDROOT
BRANCH   2  12
ATOM     12  C   UNL d   1      -3.489  -1.391  -0.265  0.00  0.00     0.257 C 
ATOM     13  N   UNL d   1      -3.504  -2.735   0.059  0.00  0.00    -0.301 N 
ATOM     14  H   UNL d   1      -2.701  -3.198   0.449  0.00  0.00     0.171 HD
ATOM     15  O   UNL d   1      -4.467  -0.741  -0.625  0.00  0.00    -0.267 OA
BRANCH  13  16
ATOM     16  C   UNL d   1      -4.611  -3.522  -0.182  0.00  0.00     0.174 A 
ATOM     17  C   UNL d   1      -4.812  -4.865   0.027  0.00  0.00     0.085 A 
ATOM     18  C   UNL d   1      -6.082  -5.123  -0.543  0.00  0.00     0.033 A 
ATOM     19  C   UNL d   1      -6.777  -6.417  -0.715  0.00  0.00     0.070 C 
ATOM     20  N   UNL d   1      -6.647  -4.001  -0.998  0.00  0.00    -0.264 N 
ATOM     21  O   UNL d   1      -5.722  -2.998  -0.768  0.00  0.00    -0.220 OA
ATOM     22  HN  UNL d   1      -7.568  -3.904  -1.425  1.00  0.00     0.194 HD
ENDBRANCH  13  16
ENDBRANCH   2  12
TORSDOF 2
