REMARK  7 active torsions:
REMARK  status: ('A' for Active; 'I' for Inactive)
REMARK    1  A    between atoms: C_5  and  C_1 
REMARK    2  A    between atoms: C_8  and  C_1 
REMARK    3  A    between atoms: C_3  and  C_2 
REMARK    4  A    between atoms: C_6  and  C_3 
REMARK    5  A    between atoms: C_4  and  C_5 
REMARK    6  A    between atoms: C_7  and  C_4 
REMARK    7  A    between atoms: O_22  and  C_16 
ROOT
ATOM      1  C   UNL d   1       1.171  -0.033  -0.265  0.00  0.00    -0.037 C 
ATOM      2  C   UNL d   1       0.734  -1.315  -0.282  0.00  0.00     0.064 C 
ENDROOT
BRANCH   1   3
ATOM      3  C   UNL d   1       0.129   1.031   0.052  0.00  0.00     0.123 C 
BRANCH   3   4
ATOM      4  C   UNL d   1      -0.426   1.820  -1.133  0.00  0.00     0.163 C 
ATOM      5  O   UNL d   1      -0.041   1.675  -2.290  0.00  0.00    -0.292 OA
BRANCH   4   6
ATOM      6  C   UNL d   1      -1.533   2.793  -0.841  0.00  0.00     0.010 A 
ATOM      7  C   UNL d   1      -1.877   3.149   0.473  0.00  0.00     0.016 A 
ATOM      8  C   UNL d   1      -2.943   4.019   0.719  0.00  0.00     0.019 A 
ATOM      9  C   UNL d   1      -3.672   4.540  -0.347  0.00  0.00     0.006 A 
ATOM     10  C   UNL d   1      -3.330   4.212  -1.658  0.00  0.00     0.019 A 
ATOM     11  I   UNL d   1      -5.279   5.800   0.030  0.00  0.00    -0.045 I 
ATOM     12  C   UNL d   1      -2.261   3.341  -1.905  0.00  0.00     0.016 A 
ENDBRANCH   4   6
ENDBRANCH   3   4
ENDBRANCH   1   3
BRANCH   1  13
ATOM     13  C   UNL d   1       2.584   0.421  -0.438  0.00  0.00    -0.029 A 
ATOM     14  C   UNL d   1       3.451  -0.204  -1.347  0.00  0.00     0.012 A 
ATOM     15  C   UNL d   1       4.790   0.195  -1.474  0.00  0.00     0.001 A 
ATOM     16  C   UNL d   1       5.275   1.270  -0.738  0.00  0.00     0.000 A 
ATOM     17  C   UNL d   1       4.426   1.939   0.132  0.00  0.00     0.001 A 
ATOM     18  C   UNL d   1       3.102   1.512   0.287  0.00  0.00     0.012 A 
ENDBRANCH   1  13
BRANCH   2  19
ATOM     19  C   UNL d   1       1.396  -2.640  -0.411  0.00  0.00     0.182 C 
ATOM     20  O   UNL d   1       0.797  -3.539  -1.002  0.00  0.00    -0.288 OA
BRANCH  19  21
ATOM     21  C   UNL d   1       2.712  -2.927   0.207  0.00  0.00     0.014 A 
ATOM     22  C   UNL d   1       3.181  -2.252   1.337  0.00  0.00     0.018 A 
ATOM     23  C   UNL d   1       4.477  -2.489   1.809  0.00  0.00     0.037 A 
ATOM     24  C   UNL d   1       5.298  -3.420   1.171  0.00  0.00     0.068 A 
ATOM     25  C   UNL d   1       4.792  -4.163   0.104  0.00  0.00     0.037 A 
ATOM     26  C   UNL d   1       3.505  -3.922  -0.378  0.00  0.00     0.018 A 
BRANCH  24  27
ATOM     27  O   UNL d   1       6.597  -3.696   1.497  0.00  0.00    -0.356 OA
ATOM     28  C   UNL d   1       7.250  -2.753   2.338  0.00  0.00     0.210 C 
ENDBRANCH  24  27
ENDBRANCH  19  21
ENDBRANCH   2  19
TORSDOF 7
