REMARK  6 active torsions:
REMARK  status: ('A' for Active; 'I' for Inactive)
REMARK    1  A    between atoms: N_2  and  C_1 
REMARK    2  A    between atoms: C_10  and  N_2 
REMARK    3  A    between atoms: C_3  and  C_11 
REMARK    4  A    between atoms: C_11  and  N_6 
REMARK    5  A    between atoms: C_13  and  C_10 
REMARK    6  A    between atoms: O_12  and  C_13 
ROOT
ATOM      1  C   UNL d   1       1.365  -0.119  -0.017  0.00  0.00     0.168 C 
ATOM      2  S   UNL d   1       2.934   0.384  -0.266  0.00  0.00    -0.041 SA
ATOM      3  N   UNL d   1       0.786   0.281   1.148  0.00  0.00    -0.361 N 
ATOM      4  H   UNL d   1       1.361   0.915   1.691  0.00  0.00     0.162 HD
ENDROOT
BRANCH   1   5
ATOM      5  N   UNL d   1       0.604  -0.921  -0.817  0.00  0.00    -0.357 N 
ATOM      6  H   UNL d   1      -0.393  -0.784  -0.710  0.00  0.00     0.162 HD
BRANCH   5   7
ATOM      7  C   UNL d   1       0.901  -1.564  -2.130  0.00  0.00     0.046 C 
ATOM      8  C   UNL d   1       1.062  -0.503  -3.232  0.00  0.00     0.040 C 
ATOM      9  C   UNL d   1       2.133  -2.483  -2.073  0.00  0.00     0.040 C 
BRANCH   7  10
ATOM     10  C   UNL d   1      -0.315  -2.473  -2.482  0.00  0.00     0.194 C 
BRANCH  10  11
ATOM     11  O   UNL d   1      -1.521  -1.707  -2.528  0.00  0.00    -0.398 OA
ATOM     12  H   UNL d   1      -2.200  -2.283  -2.924  0.00  0.00     0.209 HD
ENDBRANCH  10  11
ENDBRANCH   7  10
ENDBRANCH   5   7
ENDBRANCH   1   5
BRANCH   3  13
ATOM     13  C   UNL d   1      -0.552   0.028   1.653  0.00  0.00     0.187 C 
BRANCH  13  14
ATOM     14  C   UNL d   1      -0.552   0.163   3.132  0.00  0.00     0.070 A 
ATOM     15  O   UNL d   1      -1.499   0.987   3.670  0.00  0.00    -0.325 OA
ATOM     16  C   UNL d   1      -1.333   0.956   5.018  0.00  0.00     0.142 A 
ATOM     17  C   UNL d   1      -0.292   0.123   5.357  0.00  0.00     0.027 A 
ATOM     18  C   UNL d   1       0.211  -0.390   4.140  0.00  0.00     0.036 A 
ENDBRANCH  13  14
ENDBRANCH   3  13
TORSDOF 6
