REMARK  2 active torsions:
REMARK  status: ('A' for Active; 'I' for Inactive)
REMARK    1  A    between atoms: C_10  and  C_4 
REMARK    2  A    between atoms: N_21  and  C_5 
ROOT
ATOM      1  C   UNL d   1      -0.260  -0.590   0.014  0.00  0.00     0.173 A 
ATOM      2  C   UNL d   1      -0.306   0.780   0.063  0.00  0.00     0.032 A 
ATOM      3  C   UNL d   1       2.199   0.645  -0.129  0.00  0.00     0.080 C 
ATOM      4  C   UNL d   1       0.969   1.561   0.094  0.00  0.00     0.105 C 
ATOM      5  C   UNL d   1       2.051  -0.717  -0.205  0.00  0.00     0.140 C 
ATOM      6  O   UNL d   1       0.808  -1.373  -0.059  0.00  0.00    -0.279 OA
ATOM      7  N   UNL d   1      -1.544  -1.032   0.019  0.00  0.00    -0.279 N 
ATOM      8  N   UNL d   1      -2.440  -0.026   0.054  0.00  0.00    -0.303 N 
ATOM      9  HN  UNL d   1      -3.457  -0.096   0.067  1.00  0.00     0.186 HD
ATOM     10  C   UNL d   1      -1.690   1.089   0.069  0.00  0.00     0.033 A 
ATOM     11  C   UNL d   1       3.504   1.290  -0.374  0.00  0.00     0.100 C 
ATOM     12  N   UNL d   1       4.533   1.788  -0.571  0.00  0.00    -0.191 NA
ATOM     13  C   UNL d   1      -2.357   2.414   0.056  0.00  0.00     0.070 C 
ATOM     14  H   UNL d   1      -1.880  -1.988  -0.015  0.00  0.00     0.189 HD
ENDROOT
BRANCH   5  15
ATOM     15  N   UNL d   1       3.081  -1.587  -0.476  0.00  0.00    -0.282 NA
ATOM     16  H   UNL d   1       4.021  -1.247  -0.292  0.00  0.00     0.126 HD
ATOM     17  H   UNL d   1       2.911  -2.532  -0.146  0.00  0.00     0.126 HD
ENDBRANCH   5  15
BRANCH   4  18
ATOM     18  C   UNL d   1       0.857   2.632  -0.979  0.00  0.00    -0.041 A 
ATOM     19  C   UNL d   1       0.944   3.985  -0.600  0.00  0.00     0.048 A 
ATOM     20  C   UNL d   1       0.872   4.946  -1.585  0.00  0.00     0.105 A 
ATOM     21  O   UNL d   1       0.926   6.289  -1.384  0.00  0.00    -0.323 OA
ATOM     22  C   UNL d   1       0.733   4.617  -2.912  0.00  0.00     0.105 A 
ATOM     23  C   UNL d   1       0.830   6.768  -2.741  0.00  0.00     0.352 A 
ATOM     24  O   UNL d   1       0.684   5.713  -3.714  0.00  0.00    -0.323 OA
ATOM     25  C   UNL d   1       0.660   3.307  -3.329  0.00  0.00     0.040 A 
ATOM     26  C   UNL d   1       0.725   2.307  -2.354  0.00  0.00     0.011 A 
ENDBRANCH   4  18
TORSDOF 2
