REMARK  4 active torsions:
REMARK  status: ('A' for Active; 'I' for Inactive)
REMARK    1  A    between atoms: C_7  and  C_1 
REMARK    2  A    between atoms: C_4  and  S_8 
REMARK    3  A    between atoms: S_8  and  C_9 
REMARK    4  A    between atoms: C_9  and  C_10 
ROOT
ATOM      1  C   UNL d   1       3.593   0.327  -0.514  0.00  0.00     0.024 C 
ATOM      2  C   UNL d   1       4.340   1.411  -0.249  0.00  0.00     0.064 C 
ENDROOT
BRANCH   2   3
ATOM      3  C   UNL d   1       5.814   1.263  -0.138  0.00  0.00     0.213 C 
ATOM      4  O   UNL d   1       6.365   0.222   0.175  0.00  0.00    -0.280 OA
BRANCH   3   5
ATOM      5  S   UNL d   1       6.686   2.735  -0.511  0.00  0.00    -0.045 SA
BRANCH   5   6
ATOM      6  C   UNL d   1       7.641   2.969   0.997  0.00  0.00     0.052 A 
ATOM      7  C   UNL d   1       8.952   2.469   1.127  0.00  0.00     0.052 A 
ATOM      8 CL   UNL d   1       9.701   1.477  -0.079  0.00  0.00    -0.083 Cl
ATOM      9  C   UNL d   1       9.734   2.780   2.251  0.00  0.00     0.025 A 
ATOM     10  C   UNL d   1       9.228   3.594   3.260  0.00  0.00     0.003 A 
ATOM     11  C   UNL d   1       7.928   4.079   3.162  0.00  0.00     0.025 A 
ATOM     12  C   UNL d   1       7.138   3.765   2.046  0.00  0.00     0.052 A 
ATOM     13 CL   UNL d   1       5.531   4.420   2.033  0.00  0.00    -0.083 Cl
ENDBRANCH   5   6
ENDBRANCH   3   5
ENDBRANCH   2   3
BRANCH   1  14
ATOM     14  C   UNL d   1       2.166   0.371  -0.542  0.00  0.00     0.012 A 
ATOM     15  S   UNL d   1       1.367  -0.447  -1.825  0.00  0.00    -0.089 SA
ATOM     16  C   UNL d   1      -0.196  -0.121  -1.203  0.00  0.00     0.016 A 
ATOM     17  C   UNL d   1      -1.431  -0.549  -1.735  0.00  0.00     0.019 A 
ATOM     18  C   UNL d   1      -0.127   0.645  -0.040  0.00  0.00    -0.012 A 
ATOM     19  C   UNL d   1      -2.614  -0.205  -1.077  0.00  0.00     0.001 A 
ATOM     20  C   UNL d   1      -2.576   0.566   0.074  0.00  0.00     0.001 A 
ATOM     21  C   UNL d   1      -1.351   0.996   0.591  0.00  0.00     0.013 A 
ATOM     22  C   UNL d   1       1.247   0.921   0.347  0.00  0.00    -0.033 A 
ATOM     23  C   UNL d   1       1.585   1.661   1.607  0.00  0.00     0.050 C 
ENDBRANCH   1  14
TORSDOF 4
