REMARK  4 active torsions:
REMARK  status: ('A' for Active; 'I' for Inactive)
REMARK    1  A    between atoms: C_2  and  N_1 
REMARK    2  A    between atoms: N_3  and  C_6 
REMARK    3  A    between atoms: C_4  and  C_5 
REMARK       I    between atoms: C_5  and  N_8 
REMARK    4  A    between atoms: N_8  and  C_7 
ROOT
ATOM      1  C   UNL d   1      -0.514  -1.352   1.528  0.00  0.00     0.258 C 
ATOM      2  N   UNL d   1      -1.083  -0.110   1.696  0.00  0.00    -0.321 N 
ATOM      3  O   UNL d   1       0.415  -1.639   0.785  0.00  0.00    -0.267 OA
ATOM      4  H   UNL d   1      -1.701   0.035   2.498  0.00  0.00     0.169 HD
ENDROOT
BRANCH   2   5
ATOM      5  C   UNL d   1      -0.868   1.026   0.871  0.00  0.00     0.068 A 
ATOM      6  C   UNL d   1      -1.137   2.329   1.331  0.00  0.00     0.130 A 
ATOM      7  C   UNL d   1      -0.996   3.453   0.498  0.00  0.00     0.045 A 
ATOM      8  C   UNL d   1      -0.599   3.289  -0.832  0.00  0.00    -0.059 A 
ATOM      9  C   UNL d   1      -0.308   2.001  -1.294  0.00  0.00     0.009 A 
ATOM     10  C   UNL d   1      -0.469   4.466  -1.753  0.00  0.00     0.048 C 
ATOM     11  C   UNL d   1      -0.435   0.886  -0.453  0.00  0.00     0.032 A 
BRANCH   6  12
ATOM     12  N   UNL d   1      -1.484   2.565   2.728  0.00  0.00    -0.113 N 
ATOM     13  O   UNL d   1      -2.227   1.741   3.284  0.00  0.00    -0.532 OA
ATOM     14  O   UNL d   1      -0.995   3.561   3.279  0.00  0.00    -0.532 OA
ENDBRANCH   6  12
ENDBRANCH   2   5
BRANCH   1  15
ATOM     15  C   UNL d   1      -1.042  -2.415   2.403  0.00  0.00     0.065 A 
ATOM     16  C   UNL d   1      -2.335  -2.925   2.269  0.00  0.00     0.118 A 
ATOM     17  C   UNL d   1      -2.780  -4.007   3.038  0.00  0.00     0.037 A 
ATOM     18  C   UNL d   1      -1.905  -4.587   3.957  0.00  0.00     0.002 A 
ATOM     19  C   UNL d   1      -0.605  -4.093   4.096  0.00  0.00     0.001 A 
ATOM     20  C   UNL d   1      -0.169  -3.016   3.318  0.00  0.00     0.020 A 
BRANCH  16  21
ATOM     21  N   UNL d   1      -3.243  -2.367   1.297  0.00  0.00    -0.115 N 
ATOM     22  O   UNL d   1      -3.747  -1.273   1.569  0.00  0.00    -0.532 OA
ATOM     23  O   UNL d   1      -3.480  -3.050   0.292  0.00  0.00    -0.532 OA
ENDBRANCH  16  21
ENDBRANCH   1  15
TORSDOF 4
