REMARK  8 active torsions:
REMARK  status: ('A' for Active; 'I' for Inactive)
REMARK    1  A    between atoms: C_18  and  C_2 
REMARK    2  A    between atoms: C_3  and  C_13 
REMARK    3  A    between atoms: N_19  and  C_7 
REMARK    4  A    between atoms: C_13  and  N_12 
REMARK    5  A    between atoms: N_14  and  C_26 
REMARK    6  A    between atoms: C_31  and  N_19 
REMARK    7  A    between atoms: C_26  and  C_27 
REMARK    8  A    between atoms: C_27  and  C_31 
ROOT
ATOM      1  N   UNL d   1       2.624   5.110  -2.408  0.00  0.00    -0.375 N 
ATOM      2  H   UNL d   1       2.404   5.893  -3.004  0.00  0.00     0.161 HD
ENDROOT
BRANCH   1   3
ATOM      3  C   UNL d   1       2.832   3.898  -3.012  0.00  0.00     0.116 A 
ATOM      4  C   UNL d   1       3.768   3.696  -4.054  0.00  0.00     0.053 A 
ATOM      5  C   UNL d   1       4.727   4.543  -4.747  0.00  0.00    -0.003 A 
ATOM      6  C   UNL d   1       3.829   2.398  -4.540  0.00  0.00     0.089 A 
ATOM      7  C   UNL d   1       5.430   3.834  -5.706  0.00  0.00     0.065 A 
ATOM      8  S   UNL d   1       4.963   2.197  -5.791  0.00  0.00    -0.082 SA
ATOM      9  N   UNL d   1       3.103   1.349  -4.124  0.00  0.00    -0.346 N 
ATOM     10  C   UNL d   1       2.282   1.665  -3.124  0.00  0.00     0.182 A 
ATOM     11  HN  UNL d   1       3.173   0.414  -4.527  1.00  0.00     0.167 HD
ATOM     12  N   UNL d   1       2.123   2.851  -2.547  0.00  0.00    -0.338 N 
ATOM     13  HN  UNL d   1       1.477   2.966  -1.766  1.00  0.00     0.168 HD
BRANCH   5  14
ATOM     14  C   UNL d   1       4.987   5.968  -4.546  0.00  0.00    -0.024 A 
ATOM     15  C   UNL d   1       4.833   6.569  -3.319  0.00  0.00     0.012 A 
ATOM     16  C   UNL d   1       4.953   7.921  -3.081  0.00  0.00     0.001 A 
ATOM     17  C   UNL d   1       5.318   8.765  -4.121  0.00  0.00     0.000 A 
ATOM     18  C   UNL d   1       5.490   8.183  -5.385  0.00  0.00     0.001 A 
ATOM     19  C   UNL d   1       5.324   6.807  -5.592  0.00  0.00     0.012 A 
ENDBRANCH   5  14
ENDBRANCH   1   3
BRANCH   1  20
ATOM     20  C   UNL d   1       2.364   5.202  -0.991  0.00  0.00     0.123 C 
BRANCH  20  21
ATOM     21  C   UNL d   1       3.440   4.427  -0.194  0.00  0.00     0.050 C 
BRANCH  21  22
ATOM     22  C   UNL d   1       4.848   5.046  -0.286  0.00  0.00     0.274 C 
BRANCH  22  23
ATOM     23  N   UNL d   1       4.737   6.443   0.132  0.00  0.00     0.091 N 
ATOM     24  C   UNL d   1       5.958   7.258   0.071  0.00  0.00     0.302 C 
ATOM     25  C   UNL d   1       5.662   8.717   0.548  0.00  0.00     0.303 C 
ATOM     26  N   UNL d   1       4.991   8.831   1.866  0.00  0.00     0.096 N 
ATOM     27  C   UNL d   1       3.790   7.984   1.803  0.00  0.00     0.303 C 
ATOM     28  C   UNL d   1       4.134   6.537   1.468  0.00  0.00     0.302 C 
BRANCH  26  29
ATOM     29  C   UNL d   1       5.898   8.416   2.956  0.00  0.00     0.316 C 
BRANCH  29  30
ATOM     30  C   UNL d   1       7.133   9.285   3.116  0.00  0.00     0.030 A 
ATOM     31  C   UNL d   1       8.405   8.692   3.031  0.00  0.00     0.126 A 
ATOM     32  F   UNL d   1       8.529   7.405   2.673  0.00  0.00    -0.205 F 
ATOM     33  C   UNL d   1       9.580   9.405   3.273  0.00  0.00     0.043 A 
ATOM     34  C   UNL d   1       9.516  10.761   3.560  0.00  0.00     0.005 A 
ATOM     35  C   UNL d   1       8.273  11.391   3.581  0.00  0.00     0.024 A 
ATOM     36  C   UNL d   1       7.091  10.662   3.370  0.00  0.00     0.045 A 
ATOM     37 CL   UNL d   1       5.614  11.558   3.398  0.00  0.00    -0.084 Cl
ENDBRANCH  29  30
ENDBRANCH  26  29
ENDBRANCH  22  23
ENDBRANCH  21  22
ENDBRANCH  20  21
ENDBRANCH   1  20
TORSDOF 8
