REMARK  5 active torsions:
REMARK  status: ('A' for Active; 'I' for Inactive)
REMARK    1  A    between atoms: C_4  and  C_1 
REMARK    2  A    between atoms: O_7  and  C_2 
REMARK    3  A    between atoms: N_3  and  C_8 
REMARK    4  A    between atoms: O_16  and  C_4 
REMARK    5  A    between atoms: C_15  and  O_7 
ROOT
ATOM      1  O   UNL d   1       2.502   1.570   0.304  0.00  0.00    -0.309 OA
ENDROOT
BRANCH   1   2
ATOM      2  C   UNL d   1       1.366   0.879   0.051  0.00  0.00     0.099 A 
ATOM      3  C   UNL d   1       0.083   1.171   0.486  0.00  0.00     0.114 A 
ATOM      4  S   UNL d   1      -1.029  -0.040  -0.050  0.00  0.00    -0.093 SA
ATOM      5  C   UNL d   1       0.203  -0.964  -0.778  0.00  0.00     0.053 A 
ATOM      6  C   UNL d   1       1.431  -0.360  -0.657  0.00  0.00     0.046 A 
BRANCH   3   7
ATOM      7  C   UNL d   1      -0.474   2.258   1.258  0.00  0.00     0.302 C 
ATOM      8  O   UNL d   1      -1.604   2.718   1.127  0.00  0.00    -0.259 OA
BRANCH   7   9
ATOM      9  O   UNL d   1       0.426   2.728   2.173  0.00  0.00    -0.322 OA
ATOM     10  C   UNL d   1      -0.050   3.850   2.918  0.00  0.00     0.213 C 
ENDBRANCH   7   9
ENDBRANCH   3   7
ENDBRANCH   1   2
BRANCH   1  11
ATOM     11  C   UNL d   1       2.664   2.928   0.189  0.00  0.00     0.076 A 
ATOM     12  C   UNL d   1       3.813   3.427   0.815  0.00  0.00     0.040 A 
ATOM     13  C   UNL d   1       4.116   4.788   0.768  0.00  0.00     0.039 A 
ATOM     14  C   UNL d   1       3.254   5.657   0.089  0.00  0.00     0.103 A 
ATOM     15  C   UNL d   1       2.105   5.164  -0.548  0.00  0.00     0.039 A 
ATOM     16  C   UNL d   1       1.826   3.792  -0.516  0.00  0.00     0.040 A 
BRANCH  14  17
ATOM     17  N   UNL d   1       3.569   7.089   0.030  0.00  0.00    -0.116 N 
ATOM     18  O   UNL d   1       4.640   7.466   0.528  0.00  0.00    -0.532 OA
ATOM     19  O   UNL d   1       2.745   7.837  -0.514  0.00  0.00    -0.532 OA
ENDBRANCH  14  17
ENDBRANCH   1  11
TORSDOF 5
