REMARK  6 active torsions:
REMARK  status: ('A' for Active; 'I' for Inactive)
REMARK    1  A    between atoms: N_3  and  C_1 
REMARK    2  A    between atoms: N_4  and  C_1 
REMARK    3  A    between atoms: C_7  and  N_2 
REMARK    4  A    between atoms: C_6  and  N_3 
REMARK    5  A    between atoms: C_10  and  N_4 
REMARK    6  A    between atoms: C_13  and  C_7 
ROOT
ATOM      1  N   UNL d   1      -2.247  -0.947  -1.949  0.00  0.00     0.092 N 
ATOM      2  C   UNL d   1      -1.678  -2.191   0.152  0.00  0.00     0.055 C 
ATOM      3  C   UNL d   1      -1.921   0.288   0.214  0.00  0.00     0.055 C 
ATOM      4  C   UNL d   1      -1.192  -0.906   0.823  0.00  0.00     0.087 C 
ATOM      5  C   UNL d   1      -1.823   0.314  -1.315  0.00  0.00     0.275 C 
ATOM      6  C   UNL d   1      -1.567  -2.115  -1.368  0.00  0.00     0.275 C 
ENDROOT
BRANCH   4   7
ATOM      7  N   UNL d   1       0.270  -0.805   0.697  0.00  0.00    -0.363 N 
ATOM      8  H   UNL d   1       0.618  -0.693  -0.241  0.00  0.00     0.162 HD
BRANCH   7   9
ATOM      9  C   UNL d   1       1.188  -0.514   1.652  0.00  0.00     0.168 C 
ATOM     10  S   UNL d   1       0.879   0.183   3.134  0.00  0.00    -0.041 SA
BRANCH   9  11
ATOM     11  N   UNL d   1       2.480  -0.862   1.368  0.00  0.00    -0.359 N 
ATOM     12  H   UNL d   1       3.078  -0.636   2.155  0.00  0.00     0.162 HD
BRANCH  11  13
ATOM     13  C   UNL d   1       2.984  -1.988   0.536  0.00  0.00     0.021 C 
ATOM     14  C   UNL d   1       2.683  -1.823  -0.962  0.00  0.00     0.037 C 
ATOM     15  C   UNL d   1       4.518  -2.033   0.683  0.00  0.00     0.037 C 
ATOM     16  C   UNL d   1       2.410  -3.320   1.048  0.00  0.00     0.037 C 
ENDBRANCH  11  13
ENDBRANCH   9  11
ENDBRANCH   7   9
ENDBRANCH   4   7
BRANCH   1  17
ATOM     17  C   UNL d   1      -1.970  -0.932  -3.403  0.00  0.00     0.311 C 
BRANCH  17  18
ATOM     18  C   UNL d   1      -2.716   0.119  -4.194  0.00  0.00    -0.030 A 
ATOM     19  C   UNL d   1      -2.018   1.173  -4.805  0.00  0.00     0.009 A 
ATOM     20  C   UNL d   1      -2.694   2.110  -5.589  0.00  0.00     0.001 A 
ATOM     21  C   UNL d   1      -4.071   2.004  -5.771  0.00  0.00     0.000 A 
ATOM     22  C   UNL d   1      -4.777   0.968  -5.160  0.00  0.00     0.001 A 
ATOM     23  C   UNL d   1      -4.102   0.031  -4.370  0.00  0.00     0.009 A 
ENDBRANCH  17  18
ENDBRANCH   1  17
TORSDOF 6
