REMARK  6 active torsions:
REMARK  status: ('A' for Active; 'I' for Inactive)
REMARK    1  A    between atoms: C_4  and  C_3 
REMARK    2  A    between atoms: S_16  and  C_5 
REMARK       I    between atoms: C_8  and  N_15 
REMARK       I    between atoms: N_10  and  C_8 
REMARK    3  A    between atoms: C_17  and  N_10 
REMARK    4  A    between atoms: N_15  and  C_26 
REMARK    5  A    between atoms: C_27  and  S_16 
REMARK    6  A    between atoms: C_26  and  C_27 
ROOT
ATOM      1  S   UNL d   1      -1.316  -3.104  -0.092  0.00  0.00    -0.127 SA
ENDROOT
BRANCH   1   2
ATOM      2  C   UNL d   1      -1.001  -1.375   0.288  0.00  0.00     0.015 A 
ATOM      3  C   UNL d   1      -0.297  -0.483  -0.558  0.00  0.00     0.007 A 
ATOM      4  C   UNL d   1      -0.214   0.861  -0.134  0.00  0.00     0.044 A 
ATOM      5  C   UNL d   1       0.302  -0.834  -1.795  0.00  0.00     0.015 A 
ATOM      6  N   UNL d   1      -0.770   1.309   1.001  0.00  0.00    -0.352 N 
ATOM      7  C   UNL d   1       0.456   1.783  -0.928  0.00  0.00     0.030 A 
ATOM      8  C   UNL d   1      -1.463   0.447   1.791  0.00  0.00     0.118 A 
ATOM      9  HN  UNL d   1      -0.674   2.288   1.269  1.00  0.00     0.166 HD
ATOM     10  C   UNL d   1      -1.589  -0.897   1.464  0.00  0.00     0.053 A 
ATOM     11  C   UNL d   1       1.054   1.422  -2.135  0.00  0.00     0.002 A 
ATOM     12  C   UNL d   1       0.978   0.109  -2.570  0.00  0.00     0.001 A 
BRANCH   8  13
ATOM     13  C   UNL d   1      -2.140   0.967   3.052  0.00  0.00     0.432 C 
ATOM     14  F   UNL d   1      -1.977   2.301   3.273  0.00  0.00    -0.165 F 
ATOM     15  F   UNL d   1      -3.490   0.756   3.039  0.00  0.00    -0.165 F 
ATOM     16  F   UNL d   1      -1.688   0.344   4.180  0.00  0.00    -0.165 F 
ENDBRANCH   8  13
ENDBRANCH   1   2
BRANCH   1  17
ATOM     17  C   UNL d   1       0.370  -3.812   0.075  0.00  0.00     0.099 C 
BRANCH  17  18
ATOM     18  C   UNL d   1       0.304  -5.343   0.085  0.00  0.00     0.135 C 
BRANCH  18  19
ATOM     19  N   UNL d   1      -0.253  -5.913  -1.131  0.00  0.00    -0.342 N 
ATOM     20  C   UNL d   1       0.532  -6.211  -2.222  0.00  0.00     0.320 C 
ATOM     21  N   UNL d   1      -0.200  -6.813  -3.221  0.00  0.00    -0.309 N 
ATOM     22  O   UNL d   1       1.738  -5.991  -2.227  0.00  0.00    -0.247 OA
ATOM     23  H   UNL d   1      -1.202  -6.733  -3.149  0.00  0.00     0.170 HD
ATOM     24  H   UNL d   1      -1.257  -5.930  -1.220  0.00  0.00     0.164 HD
BRANCH  21  25
ATOM     25  C   UNL d   1       0.298  -7.524  -4.333  0.00  0.00     0.036 A 
ATOM     26  C   UNL d   1       1.651  -7.816  -4.521  0.00  0.00     0.031 A 
ATOM     27  C   UNL d   1       2.067  -8.605  -5.601  0.00  0.00     0.026 A 
ATOM     28  C   UNL d   1       1.129  -9.102  -6.500  0.00  0.00     0.034 A 
ATOM     29  C   UNL d   1      -0.221  -8.804  -6.338  0.00  0.00     0.026 A 
ATOM     30 CL   UNL d   1       1.637 -10.101  -7.804  0.00  0.00    -0.084 Cl
ATOM     31  C   UNL d   1      -0.636  -8.017  -5.257  0.00  0.00     0.031 A 
ENDBRANCH  21  25
ENDBRANCH  18  19
ENDBRANCH  17  18
ENDBRANCH   1  17
TORSDOF 6
