REMARK  4 active torsions:
REMARK  status: ('A' for Active; 'I' for Inactive)
REMARK    1  A    between atoms: C_7  and  C_2 
REMARK    2  A    between atoms: S_8  and  C_3 
REMARK    3  A    between atoms: C_18  and  S_8 
REMARK    4  A    between atoms: C_11  and  C_18 
ROOT
ATOM      1  N   UNL d   1       0.803   0.009  -0.005  0.00  0.00    -0.330 N 
ATOM      2  C   UNL d   1       0.005  -1.121   0.092  0.00  0.00     0.061 A 
ATOM      3  C   UNL d   1      -0.024   1.107   0.080  0.00  0.00     0.146 A 
ATOM      4  N   UNL d   1      -1.285   0.766   0.148  0.00  0.00    -0.344 N 
ATOM      5  HN  UNL d   1      -2.094   1.385   0.197  1.00  0.00     0.167 HD
ATOM      6  C   UNL d   1      -1.281  -0.602   0.138  0.00  0.00     0.120 A 
ATOM      7  C   UNL d   1       2.234   0.068  -0.197  0.00  0.00     0.158 C 
ENDROOT
BRANCH   2   8
ATOM      8  C   UNL d   1       0.430  -2.525   0.113  0.00  0.00    -0.008 A 
ATOM      9  C   UNL d   1       1.568  -2.945   0.817  0.00  0.00     0.015 A 
ATOM     10  C   UNL d   1       1.956  -4.290   0.822  0.00  0.00     0.024 A 
ATOM     11  C   UNL d   1       1.185  -5.236   0.153  0.00  0.00     0.034 A 
ATOM     12  C   UNL d   1       0.031  -4.849  -0.521  0.00  0.00     0.024 A 
ATOM     13 CL   UNL d   1       1.657  -6.890   0.167  0.00  0.00    -0.084 Cl
ATOM     14  C   UNL d   1      -0.341  -3.500  -0.543  0.00  0.00     0.015 A 
ENDBRANCH   2   8
BRANCH   3  15
ATOM     15  S   UNL d   1       0.568   2.736   0.090  0.00  0.00    -0.090 SA
BRANCH  15  16
ATOM     16  C   UNL d   1      -0.843   3.594   0.843  0.00  0.00     0.108 C 
BRANCH  16  17
ATOM     17  C   UNL d   1      -0.537   5.062   0.913  0.00  0.00    -0.026 C 
ATOM     18  C   UNL d   1      -0.412   5.761   2.050  0.00  0.00     0.007 C 
ENDBRANCH  16  17
ENDBRANCH  15  16
ENDBRANCH   3  15
TORSDOF 4
