REMARK  5 active torsions:
REMARK  status: ('A' for Active; 'I' for Inactive)
REMARK       I    between atoms: C_2  and  N_1 
REMARK    1  A    between atoms: C_6  and  C_2 
REMARK    2  A    between atoms: C_5  and  C_3 
REMARK    3  A    between atoms: C_7  and  C_5 
REMARK       I    between atoms: N_11  and  C_7 
REMARK    4  A    between atoms: C_19  and  N_11 
REMARK    5  A    between atoms: O_26  and  C_21 
ROOT
ATOM      1  N   UNL d   1      -1.470  -1.181   0.292  0.00  0.00    -0.333 N 
ATOM      2  C   UNL d   1      -2.273  -2.087   0.997  0.00  0.00     0.254 C 
ATOM      3  C   UNL d   1       0.025  -1.230   0.377  0.00  0.00     0.188 C 
ATOM      4  C   UNL d   1       0.558   0.041   1.129  0.00  0.00     0.241 C 
ATOM      5  N   UNL d   1      -0.083   1.230   0.873  0.00  0.00    -0.358 N 
ATOM      6  O   UNL d   1      -1.815  -3.003   1.678  0.00  0.00    -0.267 OA
ATOM      7  O   UNL d   1       1.602   0.070   1.770  0.00  0.00    -0.271 OA
ATOM      8  C   UNL d   1      -1.944   0.087  -0.291  0.00  0.00     0.147 C 
ATOM      9  C   UNL d   1      -1.484   1.286   0.536  0.00  0.00     0.142 C 
ATOM     10  H   UNL d   1       0.318   2.011   1.382  0.00  0.00     0.162 HD
ENDROOT
BRANCH   3  11
ATOM     11  C   UNL d   1       0.753  -2.466   0.928  0.00  0.00     0.138 C 
BRANCH  11  12
ATOM     12  C   UNL d   1       0.735  -3.661  -0.003  0.00  0.00     0.224 C 
ATOM     13  N   UNL d   1      -0.175  -4.647   0.344  0.00  0.00    -0.327 N 
ATOM     14  H   UNL d   1      -0.917  -4.354   0.983  0.00  0.00     0.169 HD
ATOM     15  O   UNL d   1       1.490  -3.692  -0.972  0.00  0.00    -0.273 OA
BRANCH  13  16
ATOM     16  C   UNL d   1      -0.334  -5.885  -0.319  0.00  0.00     0.034 A 
ATOM     17  C   UNL d   1       0.679  -6.457  -1.091  0.00  0.00     0.032 A 
ATOM     18  C   UNL d   1       0.441  -7.606  -1.853  0.00  0.00     0.039 A 
ATOM     19  C   UNL d   1      -0.817  -8.199  -1.847  0.00  0.00     0.068 A 
ATOM     20  C   UNL d   1      -1.794  -7.713  -0.976  0.00  0.00     0.039 A 
ATOM     21  C   UNL d   1      -1.552  -6.562  -0.208  0.00  0.00     0.032 A 
BRANCH  19  22
ATOM     22  O   UNL d   1      -1.164  -9.273  -2.622  0.00  0.00    -0.356 OA
ATOM     23  C   UNL d   1      -0.609  -9.248  -3.938  0.00  0.00     0.210 C 
ENDBRANCH  19  22
ENDBRANCH  13  16
ENDBRANCH  11  12
ENDBRANCH   3  11
BRANCH   2  24
ATOM     24  C   UNL d   1      -3.760  -2.003   0.967  0.00  0.00     0.032 C 
ATOM     25  C   UNL d   1      -4.475  -1.631  -0.171  0.00  0.00     0.024 C 
ATOM     26  C   UNL d   1      -5.859  -1.409  -0.113  0.00  0.00    -0.055 C 
ATOM     27  C   UNL d   1      -6.542  -0.759  -1.286  0.00  0.00     0.049 C 
ATOM     28  C   UNL d   1      -6.564  -1.772   1.049  0.00  0.00    -0.056 C 
ATOM     29  C   UNL d   1      -5.857  -2.270   2.153  0.00  0.00     0.008 C 
ATOM     30  C   UNL d   1      -8.060  -1.644   1.125  0.00  0.00     0.049 C 
ATOM     31  C   UNL d   1      -4.465  -2.362   2.121  0.00  0.00     0.017 C 
ENDBRANCH   2  24
TORSDOF 5
