REMARK  7 active torsions:
REMARK  status: ('A' for Active; 'I' for Inactive)
REMARK    1  A    between atoms: C_9  and  N_1 
REMARK    2  A    between atoms: S_16  and  C_2 
REMARK    3  A    between atoms: O_26  and  C_3 
REMARK    4  A    between atoms: C_10  and  C_21 
REMARK    5  A    between atoms: C_11  and  C_17 
REMARK    6  A    between atoms: C_21  and  S_16 
REMARK    7  A    between atoms: O_30  and  C_27 
ROOT
ATOM      1  N   UNL d   1       0.539   0.485   0.076  0.00  0.00    -0.255 N 
ATOM      2  C   UNL d   1       0.986  -0.819   0.247  0.00  0.00     0.169 A 
ATOM      3  C   UNL d   1      -0.645   0.515   0.802  0.00  0.00     0.245 A 
ATOM      4  N   UNL d   1       0.118  -1.513   0.948  0.00  0.00    -0.276 N 
ATOM      5  HN  UNL d   1       0.190  -2.503   1.182  1.00  0.00     0.189 HD
ATOM      6  N   UNL d   1      -0.900  -0.669   1.309  0.00  0.00    -0.263 N 
ATOM      7  HN  UNL d   1      -1.714  -0.918   1.872  1.00  0.00     0.190 HD
ENDROOT
BRANCH   2   8
ATOM      8  S   UNL d   1       2.578  -1.382  -0.170  0.00  0.00    -0.087 SA
BRANCH   8   9
ATOM      9  C   UNL d   1       2.410  -3.171   0.091  0.00  0.00     0.122 C 
BRANCH   9  10
ATOM     10  C   UNL d   1       3.684  -3.863  -0.334  0.00  0.00    -0.030 A 
ATOM     11  C   UNL d   1       4.814  -4.049   0.595  0.00  0.00     0.005 A 
ATOM     12  C   UNL d   1       5.939  -4.752   0.149  0.00  0.00     0.092 A 
ATOM     13  C   UNL d   1       4.834  -3.573   1.914  0.00  0.00     0.017 A 
ATOM     14  C   UNL d   1       7.041  -4.999   0.969  0.00  0.00     0.074 A 
ATOM     15  O   UNL d   1       6.024  -5.255  -1.164  0.00  0.00    -0.275 OA
ATOM     16  C   UNL d   1       7.025  -4.528   2.272  0.00  0.00     0.068 A 
ATOM     17  C   UNL d   1       5.934  -3.812   2.751  0.00  0.00     0.037 A 
ATOM     18  C   UNL d   1       4.993  -5.075  -2.063  0.00  0.00     0.288 A 
ATOM     19  C   UNL d   1       3.801  -4.369  -1.574  0.00  0.00     0.091 A 
ATOM     20  O   UNL d   1       5.044  -5.487  -3.217  0.00  0.00    -0.260 OA
BRANCH  16  21
ATOM     21  O   UNL d   1       8.107  -4.790   3.057  0.00  0.00    -0.361 OA
ATOM     22  H   UNL d   1       7.953  -4.423   3.943  0.00  0.00     0.217 HD
ENDBRANCH  16  21
ENDBRANCH   9  10
ENDBRANCH   8   9
ENDBRANCH   2   8
BRANCH   1  23
ATOM     23  C   UNL d   1       1.147   1.554  -0.639  0.00  0.00     0.046 A 
ATOM     24  C   UNL d   1       1.829   1.298  -1.838  0.00  0.00     0.046 A 
ATOM     25  C   UNL d   1       2.518   2.321  -2.508  0.00  0.00     0.050 A 
ATOM     26  C   UNL d   1       2.477   3.619  -1.983  0.00  0.00     0.016 A 
ATOM     27  C   UNL d   1       1.766   3.888  -0.812  0.00  0.00     0.003 A 
ATOM     28  C   UNL d   1       1.104   2.860  -0.136  0.00  0.00     0.030 A 
BRANCH  25  29
ATOM     29  C   UNL d   1       3.324   2.025  -3.752  0.00  0.00     0.417 C 
ATOM     30  F   UNL d   1       3.218   0.733  -4.170  0.00  0.00    -0.166 F 
ATOM     31  F   UNL d   1       2.950   2.793  -4.811  0.00  0.00    -0.166 F 
ATOM     32  F   UNL d   1       4.654   2.251  -3.571  0.00  0.00    -0.166 F 
ENDBRANCH  25  29
ENDBRANCH   1  23
BRANCH   3  33
ATOM     33  O   UNL d   1      -1.488   1.533   0.922  0.00  0.00    -0.331 OA
ATOM     34  H   UNL d   1      -1.323   2.167   0.204  0.00  0.00     0.221 HD
ENDBRANCH   3  33
TORSDOF 7
