REMARK  3 active torsions:
REMARK  status: ('A' for Active; 'I' for Inactive)
REMARK    1  A    between atoms: C_5  and  C_1 
REMARK    2  A    between atoms: C_6  and  C_2 
REMARK       I    between atoms: N_7  and  C_5 
REMARK    3  A    between atoms: C_8  and  N_11 
ROOT
ATOM      1  C   UNL d   1       0.221  -2.646   0.281  0.00  0.00     0.258 C 
ATOM      2  N   UNL d   1      -0.606  -3.745   0.030  0.00  0.00    -0.346 N 
ATOM      3  N   UNL d   1      -2.716  -5.674  -0.267  0.00  0.00    -0.251 NA
ATOM      4  O   UNL d   1       0.383  -1.748  -0.545  0.00  0.00    -0.267 OA
ATOM      5  C   UNL d   1      -1.317  -3.847  -1.255  0.00  0.00     0.141 C 
ATOM      6  C   UNL d   1      -0.578  -5.021   0.760  0.00  0.00     0.141 C 
ATOM      7  C   UNL d   1      -2.733  -4.459  -1.106  0.00  0.00     0.118 C 
ATOM      8  C   UNL d   1      -2.007  -5.530   1.011  0.00  0.00     0.118 C 
ENDROOT
BRANCH   1   9
ATOM      9  C   UNL d   1       0.871  -2.563   1.581  0.00  0.00     0.093 C 
ATOM     10  C   UNL d   1       2.227  -2.225   1.927  0.00  0.00     0.088 C 
ATOM     11  N   UNL d   1       2.400  -2.369   3.254  0.00  0.00    -0.259 N 
ATOM     12  O   UNL d   1       1.165  -2.598   3.796  0.00  0.00    -0.241 OA
ATOM     13  HN  UNL d   1       3.285  -2.318   3.759  1.00  0.00     0.195 HD
ATOM     14  C   UNL d   1       0.241  -2.670   2.811  0.00  0.00     0.090 C 
ATOM     15  C   UNL d   1      -1.148  -2.839   3.273  0.00  0.00     0.080 C 
BRANCH  10  16
ATOM     16  C   UNL d   1       3.380  -1.838   1.102  0.00  0.00     0.054 A 
ATOM     17  C   UNL d   1       3.621  -2.469  -0.124  0.00  0.00     0.130 A 
ATOM     18  F   UNL d   1       2.794  -3.422  -0.579  0.00  0.00    -0.205 F 
ATOM     19  C   UNL d   1       4.749  -2.175  -0.898  0.00  0.00     0.043 A 
ATOM     20  C   UNL d   1       5.686  -1.252  -0.448  0.00  0.00     0.005 A 
ATOM     21  C   UNL d   1       5.475  -0.606   0.765  0.00  0.00     0.025 A 
ATOM     22  C   UNL d   1       4.327  -0.877   1.526  0.00  0.00     0.049 A 
ATOM     23 CL   UNL d   1       4.159   0.070   2.971  0.00  0.00    -0.083 Cl
ENDBRANCH  10  16
ENDBRANCH   1   9
BRANCH   3  24
ATOM     24  C   UNL d   1      -3.975  -6.273  -0.145  0.00  0.00     0.159 A 
ATOM     25  N   UNL d   1      -4.380  -6.718   1.060  0.00  0.00    -0.343 N 
ATOM     26  C   UNL d   1      -5.571  -7.340   1.137  0.00  0.00     0.092 A 
ATOM     27  HN  UNL d   1      -3.801  -6.587   1.890  1.00  0.00     0.167 HD
ATOM     28  C   UNL d   1      -6.380  -7.561   0.056  0.00  0.00     0.034 A 
ATOM     29  C   UNL d   1      -5.894  -7.080  -1.133  0.00  0.00     0.092 A 
ATOM     30  N   UNL d   1      -4.720  -6.428  -1.251  0.00  0.00    -0.343 N 
ATOM     31  HN  UNL d   1      -4.408  -6.064  -2.152  1.00  0.00     0.167 HD
ENDBRANCH   3  24
TORSDOF 3
