REMARK  4 active torsions:
REMARK  status: ('A' for Active; 'I' for Inactive)
REMARK    1  A    between atoms: C_6  and  C_1 
REMARK    2  A    between atoms: C_8  and  C_9 
REMARK    3  A    between atoms: O_11  and  C_8 
REMARK    4  A    between atoms: C_14  and  O_11 
ROOT
ATOM      1  N   UNL d   1      12.828  -0.138   2.964  0.00  0.00    -0.191 NA
ATOM      2  C   UNL d   1      11.734  -0.006   2.605  0.00  0.00     0.099 C 
ATOM      3  C   UNL d   1      10.376   0.149   2.158  0.00  0.00     0.044 A 
ATOM      4  C   UNL d   1       7.734   0.417   1.250  0.00  0.00     0.079 A 
ATOM      5  C   UNL d   1       9.350  -0.598   2.746  0.00  0.00     0.025 A 
ATOM      6  C   UNL d   1      10.071   1.039   1.123  0.00  0.00     0.025 A 
ATOM      7  C   UNL d   1       8.033  -0.468   2.289  0.00  0.00     0.039 A 
ATOM      8  C   UNL d   1       8.752   1.170   0.663  0.00  0.00     0.039 A 
ENDROOT
BRANCH   4   9
ATOM      9  O   UNL d   1       6.363   0.461   0.878  0.00  0.00    -0.276 OA
BRANCH   9  10
ATOM     10  C   UNL d   1       5.803   1.436   0.067  0.00  0.00     0.288 C 
ATOM     11  O   UNL d   1       6.387   2.347  -0.504  0.00  0.00    -0.260 OA
BRANCH  10  12
ATOM     12  C   UNL d   1       4.332   1.315  -0.039  0.00  0.00     0.084 C 
ATOM     13  C   UNL d   1       3.548   0.339   0.444  0.00  0.00     0.025 C 
BRANCH  13  14
ATOM     14  C   UNL d   1       2.121   0.364   0.268  0.00  0.00     0.012 A 
ATOM     15  S   UNL d   1       1.162  -0.260   1.559  0.00  0.00    -0.089 SA
ATOM     16  C   UNL d   1      -0.325   0.112   0.792  0.00  0.00     0.016 A 
ATOM     17  C   UNL d   1      -1.626  -0.086   1.301  0.00  0.00     0.019 A 
ATOM     18  C   UNL d   1      -0.112   0.660  -0.470  0.00  0.00    -0.012 A 
ATOM     19  C   UNL d   1      -2.729   0.280   0.524  0.00  0.00     0.001 A 
ATOM     20  C   UNL d   1      -2.547   0.817  -0.741  0.00  0.00     0.001 A 
ATOM     21  C   UNL d   1      -1.256   1.001  -1.242  0.00  0.00     0.013 A 
ATOM     22  C   UNL d   1       1.305   0.793  -0.780  0.00  0.00    -0.033 A 
ATOM     23  C   UNL d   1       1.742   1.340  -2.105  0.00  0.00     0.050 C 
ENDBRANCH  13  14
ENDBRANCH  10  12
ENDBRANCH   9  10
ENDBRANCH   4   9
TORSDOF 4
