REMARK  3 active torsions:
REMARK  status: ('A' for Active; 'I' for Inactive)
REMARK       I    between atoms: N_3  and  C_1 
REMARK       I    between atoms: N_5  and  C_1 
REMARK    1  A    between atoms: C_4  and  N_3 
REMARK    2  A    between atoms: C_12  and  N_5 
REMARK    3  A    between atoms: C_19  and  C_14 
ROOT
ATOM      1  N   UNL d   1       1.425   7.247  -2.961  0.00  0.00    -0.197 NA
ATOM      2  C   UNL d   1       1.506   6.265  -3.573  0.00  0.00     0.063 C 
ATOM      3  C   UNL d   1       1.613   5.023  -4.365  0.00  0.00     0.162 C 
ENDROOT
BRANCH   3   4
ATOM      4  C   UNL d   1       1.290   3.800  -3.543  0.00  0.00    -0.045 A 
ATOM      5  C   UNL d   1      -0.025   3.332  -3.408  0.00  0.00     0.010 A 
ATOM      6  C   UNL d   1      -0.323   2.274  -2.536  0.00  0.00     0.030 A 
ATOM      7  C   UNL d   1       0.687   1.663  -1.788  0.00  0.00     0.036 A 
ATOM      8  C   UNL d   1       2.002   2.101  -1.970  0.00  0.00     0.030 A 
ATOM      9  C   UNL d   1       2.303   3.158  -2.829  0.00  0.00     0.010 A 
BRANCH   7  10
ATOM     10  N   UNL d   1       0.323   0.634  -0.882  0.00  0.00    -0.309 N 
ATOM     11  C   UNL d   1       1.183  -0.007  -0.006  0.00  0.00     0.325 C 
ATOM     12  N   UNL d   1       0.567  -1.053   0.667  0.00  0.00    -0.309 N 
ATOM     13  O   UNL d   1       2.364   0.293   0.130  0.00  0.00    -0.247 OA
ATOM     14  H   UNL d   1      -0.333  -1.351   0.326  0.00  0.00     0.170 HD
ATOM     15  H   UNL d   1      -0.661   0.426  -0.800  0.00  0.00     0.170 HD
BRANCH  12  16
ATOM     16  C   UNL d   1       1.244  -1.950   1.533  0.00  0.00     0.037 A 
ATOM     17  C   UNL d   1       2.501  -1.675   2.081  0.00  0.00     0.036 A 
ATOM     18  C   UNL d   1       3.211  -2.636   2.806  0.00  0.00    -0.059 A 
ATOM     19  C   UNL d   1       4.600  -2.339   3.288  0.00  0.00     0.048 C 
ATOM     20  C   UNL d   1       2.629  -3.886   3.019  0.00  0.00     0.013 A 
ATOM     21  C   UNL d   1       1.344  -4.167   2.532  0.00  0.00    -0.059 A 
ATOM     22  C   UNL d   1       0.651  -3.188   1.801  0.00  0.00     0.036 A 
ATOM     23  C   UNL d   1       0.756  -5.529   2.754  0.00  0.00     0.048 C 
ENDBRANCH  12  16
ENDBRANCH   7  10
ENDBRANCH   3   4
TORSDOF 3
