REMARK  3 active torsions:
REMARK  status: ('A' for Active; 'I' for Inactive)
REMARK       I    between atoms: N_2  and  C_1 
REMARK    1  A    between atoms: C_4  and  C_1 
REMARK    2  A    between atoms: C_9  and  N_2 
REMARK    3  A    between atoms: C_19  and  C_13 
ROOT
ATOM      1  N   UNL d   1       4.470  -3.643   5.941  0.00  0.00    -0.197 NA
ATOM      2  C   UNL d   1       3.769  -2.720   6.029  0.00  0.00     0.063 C 
ATOM      3  C   UNL d   1       2.887  -1.549   6.175  0.00  0.00     0.162 C 
ENDROOT
BRANCH   3   4
ATOM      4  C   UNL d   1       2.171  -1.197   4.891  0.00  0.00    -0.045 A 
ATOM      5  C   UNL d   1       0.929  -1.763   4.569  0.00  0.00     0.010 A 
ATOM      6  C   UNL d   1       0.335  -1.517   3.321  0.00  0.00     0.030 A 
ATOM      7  C   UNL d   1       0.978  -0.716   2.371  0.00  0.00     0.035 A 
ATOM      8  C   UNL d   1       2.183  -0.105   2.721  0.00  0.00     0.030 A 
ATOM      9  C   UNL d   1       2.776  -0.342   3.965  0.00  0.00     0.010 A 
BRANCH   7  10
ATOM     10  N   UNL d   1       0.380  -0.573   1.095  0.00  0.00    -0.323 N 
ATOM     11  C   UNL d   1       1.010  -0.075  -0.036  0.00  0.00     0.256 C 
ATOM     12  O   UNL d   1       2.188   0.258  -0.122  0.00  0.00    -0.267 OA
ATOM     13  H   UNL d   1      -0.524  -1.009   0.974  0.00  0.00     0.169 HD
BRANCH  11  14
ATOM     14  C   UNL d   1       0.186   0.011  -1.275  0.00  0.00     0.032 A 
ATOM     15  C   UNL d   1      -1.191   0.267  -1.249  0.00  0.00     0.018 A 
ATOM     16  C   UNL d   1      -1.894   0.404  -2.453  0.00  0.00     0.025 A 
ATOM     17  C   UNL d   1      -1.226   0.292  -3.673  0.00  0.00     0.034 A 
ATOM     18  C   UNL d   1       0.144   0.040  -3.707  0.00  0.00     0.025 A 
ATOM     19 CL   UNL d   1      -2.091   0.488  -5.147  0.00  0.00    -0.084 Cl
ATOM     20  C   UNL d   1       0.848  -0.097  -2.509  0.00  0.00     0.018 A 
ENDBRANCH  11  14
ENDBRANCH   7  10
ENDBRANCH   3   4
TORSDOF 3
