REMARK  4 active torsions:
REMARK  status: ('A' for Active; 'I' for Inactive)
REMARK    1  A    between atoms: C_8  and  C_1 
REMARK    2  A    between atoms: C_6  and  C_2 
REMARK    3  A    between atoms: O_14  and  C_8 
REMARK    4  A    between atoms: C_16  and  O_14 
ROOT
ATOM      1  C   UNL d   1       0.006  -1.334  -0.059  0.00  0.00     0.102 A 
ATOM      2  C   UNL d   1      -1.300  -0.874  -0.081  0.00  0.00     0.150 A 
ATOM      3  O   UNL d   1      -1.267   0.491  -0.166  0.00  0.00    -0.234 OA
ATOM      4  N   UNL d   1       0.035   0.943  -0.139  0.00  0.00    -0.264 N 
ATOM      5  HN  UNL d   1       0.352   1.912  -0.172  1.00  0.00     0.194 HD
ATOM      6  C   UNL d   1       0.798  -0.153  -0.060  0.00  0.00     0.048 A 
ATOM      7  C   UNL d   1       2.274  -0.017  -0.016  0.00  0.00     0.071 C 
ENDROOT
BRANCH   1   8
ATOM      8  C   UNL d   1       0.408  -2.718  -0.005  0.00  0.00     0.298 C 
ATOM      9  O   UNL d   1      -0.229  -3.634  -0.513  0.00  0.00    -0.259 OA
BRANCH   8  10
ATOM     10  O   UNL d   1       1.540  -2.891   0.731  0.00  0.00    -0.318 OA
BRANCH  10  11
ATOM     11  C   UNL d   1       1.715  -4.213   1.257  0.00  0.00     0.174 C 
ATOM     12  C   UNL d   1       0.992  -4.283   2.592  0.00  0.00     0.034 C 
ENDBRANCH  10  11
ENDBRANCH   8  10
ENDBRANCH   1   8
BRANCH   2  13
ATOM     13  C   UNL d   1      -2.532  -1.596   0.023  0.00  0.00     0.112 A 
ATOM     14  O   UNL d   1      -2.645  -2.788   0.693  0.00  0.00    -0.320 OA
ATOM     15  C   UNL d   1      -3.936  -3.193   0.608  0.00  0.00     0.142 A 
ATOM     16  C   UNL d   1      -4.679  -2.278  -0.094  0.00  0.00     0.027 A 
ATOM     17  C   UNL d   1      -3.781  -1.245  -0.460  0.00  0.00     0.042 A 
ENDBRANCH   2  13
TORSDOF 4
