REMARK  6 active torsions:
REMARK  status: ('A' for Active; 'I' for Inactive)
REMARK       I    between atoms: N_2  and  C_1 
REMARK       I    between atoms: N_9  and  C_1 
REMARK    1  A    between atoms: C_10  and  N_2 
REMARK    2  A    between atoms: C_3  and  C_18 
REMARK    3  A    between atoms: C_19  and  N_9 
REMARK    4  A    between atoms: S_12  and  C_20 
REMARK    5  A    between atoms: C_18  and  S_12 
REMARK    6  A    between atoms: C_20  and  C_19 
ROOT
ATOM      1  C   UNL d   1       1.951   1.058  -0.624  0.00  0.00     0.320 C 
ATOM      2  N   UNL d   1       1.056   1.759   0.157  0.00  0.00    -0.309 N 
ATOM      3  O   UNL d   1       2.200   1.259  -1.802  0.00  0.00    -0.247 OA
ATOM      4  N   UNL d   1       2.523   0.014   0.068  0.00  0.00    -0.342 N 
ATOM      5  H   UNL d   1       1.101   1.594   1.150  0.00  0.00     0.170 HD
ATOM      6  H   UNL d   1       2.540   0.035   1.077  0.00  0.00     0.164 HD
ENDROOT
BRANCH   2   7
ATOM      7  C   UNL d   1       0.067   2.660  -0.297  0.00  0.00     0.036 A 
ATOM      8  C   UNL d   1      -0.223   2.865  -1.649  0.00  0.00     0.031 A 
ATOM      9  C   UNL d   1      -1.289   3.685  -2.035  0.00  0.00     0.026 A 
ATOM     10  C   UNL d   1      -2.065   4.314  -1.069  0.00  0.00     0.034 A 
ATOM     11  C   UNL d   1      -1.770   4.148   0.282  0.00  0.00     0.026 A 
ATOM     12 CL   UNL d   1      -3.406   5.280  -1.543  0.00  0.00    -0.084 Cl
ATOM     13  C   UNL d   1      -0.707   3.321   0.666  0.00  0.00     0.031 A 
ENDBRANCH   2   7
BRANCH   4  14
ATOM     14  C   UNL d   1       3.443  -0.909  -0.582  0.00  0.00     0.134 C 
BRANCH  14  15
ATOM     15  C   UNL d   1       4.912  -0.512  -0.414  0.00  0.00     0.094 C 
BRANCH  15  16
ATOM     16  S   UNL d   1       5.338  -0.531   1.361  0.00  0.00    -0.161 SA
BRANCH  16  17
ATOM     17  C   UNL d   1       7.128  -0.193   1.248  0.00  0.00     0.139 C 
BRANCH  17  18
ATOM     18  C   UNL d   1       7.695  -0.110   2.620  0.00  0.00     0.061 A 
ATOM     19  O   UNL d   1       8.691  -0.990   2.931  0.00  0.00    -0.326 OA
ATOM     20  C   UNL d   1       9.020  -0.772   4.231  0.00  0.00     0.142 A 
ATOM     21  C   UNL d   1       8.258   0.243   4.759  0.00  0.00     0.027 A 
ATOM     22  C   UNL d   1       7.412   0.683   3.715  0.00  0.00     0.035 A 
ENDBRANCH  17  18
ENDBRANCH  16  17
ENDBRANCH  15  16
ENDBRANCH  14  15
ENDBRANCH   4  14
TORSDOF 6
