REMARK  6 active torsions:
REMARK  status: ('A' for Active; 'I' for Inactive)
REMARK    1  A    between atoms: C_4  and  C_3 
REMARK    2  A    between atoms: N_11  and  C_5 
REMARK    3  A    between atoms: C_6  and  O_14 
REMARK       I    between atoms: C_8  and  N_12 
REMARK       I    between atoms: N_13  and  C_8 
REMARK    4  A    between atoms: N_12  and  N_11 
REMARK    5  A    between atoms: C_22  and  N_13 
REMARK    6  A    between atoms: O_14  and  C_23 
ROOT
ATOM      1  N   UNL d   1      -0.826  -2.844   0.633  0.00  0.00    -0.218 NA
ATOM      2  H   UNL d   1      -1.780  -3.159   0.858  0.00  0.00     0.147 HD
ENDROOT
BRANCH   1   3
ATOM      3  C   UNL d   1      -0.823  -1.458   0.294  0.00  0.00     0.037 A 
ATOM      4  C   UNL d   1      -0.949  -0.488   1.322  0.00  0.00     0.013 A 
ATOM      5  C   UNL d   1      -0.975   0.871   0.941  0.00  0.00     0.044 A 
ATOM      6  C   UNL d   1      -1.030  -0.806   2.700  0.00  0.00     0.015 A 
ATOM      7  N   UNL d   1      -0.900   1.271  -0.335  0.00  0.00    -0.352 N 
ATOM      8  C   UNL d   1      -1.079   1.847   1.922  0.00  0.00     0.030 A 
ATOM      9  C   UNL d   1      -0.808   0.338  -1.318  0.00  0.00     0.118 A 
ATOM     10  HN  UNL d   1      -0.912   2.265  -0.566  1.00  0.00     0.166 HD
ATOM     11  C   UNL d   1      -0.774  -1.025  -1.036  0.00  0.00     0.060 A 
ATOM     12  C   UNL d   1      -1.165   1.523   3.278  0.00  0.00     0.002 A 
ATOM     13  C   UNL d   1      -1.139   0.193   3.666  0.00  0.00     0.001 A 
BRANCH   9  14
ATOM     14  C   UNL d   1      -0.749   0.791  -2.769  0.00  0.00     0.432 C 
ATOM     15  F   UNL d   1      -0.789   2.142  -2.942  0.00  0.00    -0.165 F 
ATOM     16  F   UNL d   1       0.388   0.369  -3.399  0.00  0.00    -0.165 F 
ATOM     17  F   UNL d   1      -1.780   0.290  -3.511  0.00  0.00    -0.165 F 
ENDBRANCH   9  14
ENDBRANCH   1   3
BRANCH   1  18
ATOM     18  N   UNL d   1      -0.252  -3.687  -0.347  0.00  0.00    -0.172 NA
ATOM     19  C   UNL d   1      -0.473  -5.047  -0.205  0.00  0.00     0.312 C 
ATOM     20  N   UNL d   1       0.346  -5.858  -0.957  0.00  0.00    -0.313 N 
ATOM     21  O   UNL d   1      -1.281  -5.527   0.596  0.00  0.00    -0.252 OA
ATOM     22  H   UNL d   1       0.467  -6.783  -0.564  0.00  0.00     0.170 HD
ATOM     23  H   UNL d   1       0.725  -3.459  -0.521  0.00  0.00     0.152 HD
BRANCH  20  24
ATOM     24  C   UNL d   1       1.170  -5.456  -2.020  0.00  0.00     0.036 A 
ATOM     25  C   UNL d   1       2.475  -5.941  -2.091  0.00  0.00     0.032 A 
ATOM     26  C   UNL d   1       3.356  -5.443  -3.063  0.00  0.00     0.039 A 
ATOM     27  C   UNL d   1       2.906  -4.537  -4.024  0.00  0.00     0.078 A 
ATOM     28  C   UNL d   1       1.577  -4.109  -3.982  0.00  0.00     0.039 A 
ATOM     29  C   UNL d   1       0.712  -4.563  -2.988  0.00  0.00     0.032 A 
BRANCH  27  30
ATOM     30  O   UNL d   1       3.623  -3.975  -5.033  0.00  0.00    -0.255 OA
BRANCH  30  31
ATOM     31  C   UNL d   1       4.869  -4.519  -5.433  0.00  0.00     0.530 C 
ATOM     32  F   UNL d   1       5.011  -5.825  -5.128  0.00  0.00    -0.144 F 
ATOM     33  F   UNL d   1       4.966  -4.398  -6.776  0.00  0.00    -0.144 F 
ATOM     34  F   UNL d   1       5.876  -3.818  -4.871  0.00  0.00    -0.144 F 
ENDBRANCH  30  31
ENDBRANCH  27  30
ENDBRANCH  20  24
ENDBRANCH   1  18
TORSDOF 6
