REMARK  3 active torsions:
REMARK  status: ('A' for Active; 'I' for Inactive)
REMARK    1  A    between atoms: C_5  and  C_1 
REMARK    2  A    between atoms: O_8  and  C_5 
REMARK    3  A    between atoms: C_11  and  O_8 
ROOT
ATOM      1  C   UNL d   1      -0.733  -1.261   0.004  0.00  0.00     0.063 A 
ATOM      2  C   UNL d   1      -1.150   0.065  -0.053  0.00  0.00     0.021 A 
ATOM      3  N   UNL d   1      -0.028   0.859  -0.110  0.00  0.00    -0.363 N 
ATOM      4  C   UNL d   1       0.695  -1.230  -0.050  0.00  0.00     0.044 A 
ATOM      5  C   UNL d   1       1.103   0.084  -0.086  0.00  0.00     0.006 A 
ATOM      6  C   UNL d   1      -2.502   0.687  -0.032  0.00  0.00     0.069 C 
ATOM      7  C   UNL d   1       2.462   0.677  -0.079  0.00  0.00     0.068 C 
ATOM      8  H   UNL d   1      -0.037   1.870  -0.135  0.00  0.00     0.165 HD
ENDROOT
BRANCH   1   9
ATOM      9  C   UNL d   1      -1.577  -2.448   0.148  0.00  0.00     0.295 C 
ATOM     10  O   UNL d   1      -2.793  -2.418   0.277  0.00  0.00    -0.259 OA
BRANCH   9  11
ATOM     11  O   UNL d   1      -0.827  -3.589   0.202  0.00  0.00    -0.318 OA
BRANCH  11  12
ATOM     12  C   UNL d   1      -1.504  -4.759   0.676  0.00  0.00     0.174 C 
ATOM     13  C   UNL d   1      -1.401  -4.795   2.190  0.00  0.00     0.034 C 
ENDBRANCH  11  12
ENDBRANCH   9  11
ENDBRANCH   1   9
TORSDOF 3
