REMARK  4 active torsions:
REMARK  status: ('A' for Active; 'I' for Inactive)
REMARK    1  A    between atoms: C_20  and  N_1 
REMARK    2  A    between atoms: C_6  and  S_10 
REMARK    3  A    between atoms: S_10  and  C_7 
REMARK    4  A    between atoms: C_21  and  C_20 
ROOT
ATOM      1  N   UNL d   1       1.588   1.010  -0.052  0.00  0.00    -0.314 N 
ATOM      2  C   UNL d   1       0.267  -0.910  -0.117  0.00  0.00     0.086 A 
ATOM      3  C   UNL d   1       2.605   0.061  -0.056  0.00  0.00     0.147 A 
ATOM      4  C   UNL d   1       0.279   0.470  -0.090  0.00  0.00     0.130 A 
ATOM      5  S   UNL d   1       1.899  -1.566  -0.102  0.00  0.00    -0.054 SA
ATOM      6  C   UNL d   1      -0.972  -1.507  -0.088  0.00  0.00     0.099 A 
ATOM      7  N   UNL d   1      -0.822   1.235  -0.052  0.00  0.00    -0.337 N 
ATOM      8  HN  UNL d   1      -0.782   2.254  -0.034  1.00  0.00     0.168 HD
ATOM      9  N   UNL d   1      -2.113  -0.778  -0.038  0.00  0.00    -0.345 N 
ATOM     10  HN  UNL d   1      -3.031  -1.222   0.000  1.00  0.00     0.167 HD
ATOM     11  S   UNL d   1       4.253   0.312  -0.001  0.00  0.00    -0.052 SA
ATOM     12  C   UNL d   1      -1.977   0.557  -0.040  0.00  0.00     0.182 A 
ENDROOT
BRANCH   6  13
ATOM     13  S   UNL d   1      -1.185  -3.265   0.080  0.00  0.00    -0.035 SA
BRANCH  13  14
ATOM     14  C   UNL d   1      -1.097  -3.747  -1.573  0.00  0.00     0.151 A 
ATOM     15  N   UNL d   1      -0.612  -3.100  -2.605  0.00  0.00    -0.335 N 
ATOM     16  C   UNL d   1      -0.752  -3.974  -3.663  0.00  0.00     0.061 A 
ATOM     17  HN  UNL d   1      -0.218  -2.159  -2.622  1.00  0.00     0.168 HD
ATOM     18  C   UNL d   1      -0.397  -3.824  -5.012  0.00  0.00     0.032 A 
ATOM     19  C   UNL d   1      -1.337  -5.169  -3.251  0.00  0.00     0.061 A 
ATOM     20  C   UNL d   1      -0.647  -4.883  -5.897  0.00  0.00     0.002 A 
ATOM     21  C   UNL d   1      -1.236  -6.069  -5.451  0.00  0.00     0.002 A 
ATOM     22  C   UNL d   1      -1.597  -6.240  -4.110  0.00  0.00     0.032 A 
ATOM     23  N   UNL d   1      -1.546  -4.991  -1.910  0.00  0.00    -0.335 N 
ATOM     24  H   UNL d   1      -1.949  -5.657  -1.269  0.00  0.00     0.168 HD
ENDBRANCH  13  14
ENDBRANCH   6  13
BRANCH   1  25
ATOM     25  C   UNL d   1       1.773   2.452   0.048  0.00  0.00     0.158 C 
BRANCH  25  26
ATOM     26  C   UNL d   1       1.985   3.122  -1.282  0.00  0.00    -0.017 C 
ATOM     27  C   UNL d   1       1.896   2.593  -2.511  0.00  0.00     0.008 C 
ENDBRANCH  25  26
ENDBRANCH   1  25
TORSDOF 4
