REMARK  5 active torsions:
REMARK  status: ('A' for Active; 'I' for Inactive)
REMARK    1  A    between atoms: N_4  and  C_1 
REMARK    2  A    between atoms: N_6  and  C_1 
REMARK    3  A    between atoms: N_2  and  N_6 
REMARK    4  A    between atoms: C_11  and  N_4 
REMARK    5  A    between atoms: C_10  and  C_9 
ROOT
ATOM      1  N   UNL d   1       2.530  -0.102   0.110  0.00  0.00    -0.276 N 
ATOM      2  H   UNL d   1       2.931  -0.087  -0.823  0.00  0.00     0.189 HD
ENDROOT
BRANCH   1   3
ATOM      3  N   UNL d   1       3.313  -0.511   1.149  0.00  0.00    -0.309 N 
ATOM      4  C   UNL d   1       4.584  -0.586   0.920  0.00  0.00     0.120 C 
ATOM      5  HN  UNL d   1       2.917  -0.746   2.059  1.00  0.00     0.186 HD
BRANCH   4   6
ATOM      6  C   UNL d   1       5.510  -1.013   1.980  0.00  0.00    -0.004 A 
ATOM      7  C   UNL d   1       6.875  -1.042   1.734  0.00  0.00     0.100 A 
ATOM      8  N   UNL d   1       7.795  -1.409   2.658  0.00  0.00    -0.374 N 
ATOM      9  C   UNL d   1       7.325  -1.761   3.877  0.00  0.00     0.087 A 
ATOM     10  HN  UNL d   1       8.793  -1.418   2.445  1.00  0.00     0.164 HD
ATOM     11  C   UNL d   1       5.980  -1.768   4.213  0.00  0.00     0.018 A 
ATOM     12  C   UNL d   1       5.056  -1.386   3.245  0.00  0.00     0.015 A 
ENDBRANCH   4   6
ENDBRANCH   1   3
BRANCH   1  13
ATOM     13  C   UNL d   1       1.168  -0.203   0.176  0.00  0.00     0.191 C 
ATOM     14  S   UNL d   1       0.292  -0.340  -1.242  0.00  0.00    -0.039 SA
BRANCH  13  15
ATOM     15  N   UNL d   1       0.528  -0.301   1.375  0.00  0.00    -0.332 N 
ATOM     16  H   UNL d   1      -0.369  -0.768   1.329  0.00  0.00     0.168 HD
BRANCH  15  17
ATOM     17  C   UNL d   1       0.838   0.309   2.607  0.00  0.00     0.034 A 
ATOM     18  C   UNL d   1       1.661   1.438   2.709  0.00  0.00     0.032 A 
ATOM     19  C   UNL d   1       1.884   2.040   3.949  0.00  0.00     0.044 A 
ATOM     20  C   UNL d   1       1.286   1.510   5.085  0.00  0.00     0.116 A 
ATOM     21  C   UNL d   1       0.459   0.396   5.002  0.00  0.00     0.044 A 
ATOM     22  F   UNL d   1       1.502   2.085   6.274  0.00  0.00    -0.206 F 
ATOM     23  C   UNL d   1       0.222  -0.195   3.759  0.00  0.00     0.032 A 
ENDBRANCH  15  17
ENDBRANCH  13  15
ENDBRANCH   1  13
TORSDOF 5
