REMARK  5 active torsions:
REMARK  status: ('A' for Active; 'I' for Inactive)
REMARK    1  A    between atoms: C_3  and  C_1 
REMARK       I    between atoms: C_2  and  N_7 
REMARK    2  A    between atoms: O_11  and  C_2 
REMARK    3  A    between atoms: N_5  and  O_11 
REMARK    4  A    between atoms: N_7  and  C_19 
REMARK    5  A    between atoms: C_20  and  C_18 
ROOT
ATOM      1  C   UNL d   1       0.235  -6.522  -0.659  0.00  0.00     0.387 C 
ATOM      2  N   UNL d   1      -0.559  -5.409  -0.525  0.00  0.00    -0.301 N 
ATOM      3  O   UNL d   1       1.451  -6.586  -0.536  0.00  0.00    -0.236 OA
ATOM      4  H   UNL d   1      -1.540  -5.579  -0.695  0.00  0.00     0.171 HD
ENDROOT
BRANCH   1   5
ATOM      5  O   UNL d   1      -0.549  -7.596  -1.024  0.00  0.00    -0.181 OA
BRANCH   5   6
ATOM      6  N   UNL d   1       0.080  -8.216  -2.116  0.00  0.00    -0.267 N 
ATOM      7  C   UNL d   1      -0.446  -9.366  -2.375  0.00  0.00     0.126 C 
ATOM      8  HN  UNL d   1       0.856  -7.809  -2.639  1.00  0.00     0.194 HD
BRANCH   7   9
ATOM      9  C   UNL d   1       0.004 -10.114  -3.566  0.00  0.00    -0.017 A 
ATOM     10  C   UNL d   1      -0.582 -11.342  -3.876  0.00  0.00     0.038 A 
ATOM     11  C   UNL d   1      -0.202 -12.009  -5.048  0.00  0.00     0.056 A 
ATOM     12 CL   UNL d   1      -0.972 -13.516  -5.393  0.00  0.00    -0.083 Cl
ATOM     13  C   UNL d   1       0.759 -11.448  -5.903  0.00  0.00     0.055 A 
ATOM     14  C   UNL d   1       1.349 -10.224  -5.576  0.00  0.00     0.026 A 
ATOM     15 CL   UNL d   1       1.248 -12.206  -7.375  0.00  0.00    -0.083 Cl
ATOM     16  C   UNL d   1       0.973  -9.561  -4.410  0.00  0.00     0.014 A 
ENDBRANCH   7   9
ENDBRANCH   5   6
ENDBRANCH   1   5
BRANCH   2  17
ATOM     17  C   UNL d   1      -0.138  -4.076  -0.367  0.00  0.00     0.036 A 
ATOM     18  C   UNL d   1       1.198  -3.699  -0.216  0.00  0.00     0.030 A 
ATOM     19  C   UNL d   1       1.548  -2.351  -0.086  0.00  0.00     0.018 A 
ATOM     20  C   UNL d   1       0.567  -1.351  -0.103  0.00  0.00     0.048 A 
ATOM     21  C   UNL d   1      -0.773  -1.730  -0.263  0.00  0.00     0.018 A 
ATOM     22  C   UNL d   1      -1.121  -3.079  -0.393  0.00  0.00     0.030 A 
BRANCH  20  23
ATOM     23  C   UNL d   1       0.968   0.094   0.056  0.00  0.00     0.417 C 
ATOM     24  F   UNL d   1      -0.084   0.959   0.011  0.00  0.00    -0.166 F 
ATOM     25  F   UNL d   1       1.831   0.507  -0.913  0.00  0.00    -0.166 F 
ATOM     26  F   UNL d   1       1.594   0.332   1.241  0.00  0.00    -0.166 F 
ENDBRANCH  20  23
ENDBRANCH   2  17
TORSDOF 5
