REMARK  9 active torsions:
REMARK  status: ('A' for Active; 'I' for Inactive)
REMARK    1  A    between atoms: S_16  and  C_1 
REMARK    2  A    between atoms: C_2  and  S_15 
REMARK    3  A    between atoms: C_25  and  N_3 
REMARK    4  A    between atoms: C_26  and  N_4 
REMARK    5  A    between atoms: O_32  and  C_9 
REMARK    6  A    between atoms: O_33  and  C_10 
REMARK    7  A    between atoms: S_15  and  C_21 
REMARK    8  A    between atoms: C_22  and  S_16 
REMARK    9  A    between atoms: S_27  and  C_23 
ROOT
ATOM      1  N   UNL d   1       3.322  -5.303   0.349  0.00  0.00    -0.331 N 
ATOM      2  HN  UNL d   1       4.169  -5.858   0.469  1.00  0.00     0.168 HD
ATOM      3  N   UNL d   1       1.391  -4.786  -0.928  0.00  0.00    -0.331 N 
ATOM      4  HN  UNL d   1       0.809  -4.960  -1.748  1.00  0.00     0.168 HD
ATOM      5  C   UNL d   1       2.946  -4.384   1.257  0.00  0.00     0.082 A 
ATOM      6  C   UNL d   1       1.049  -3.875   0.000  0.00  0.00     0.082 A 
ATOM      7  C   UNL d   1       2.531  -5.452  -0.722  0.00  0.00     0.145 A 
ATOM      8  C   UNL d   1       1.799  -3.634   1.131  0.00  0.00     0.074 A 
ENDROOT
BRANCH   5   9
ATOM      9  S   UNL d   1       4.094  -4.135   2.598  0.00  0.00    -0.034 SA
BRANCH   9  10
ATOM     10  C   UNL d   1       3.175  -4.859   3.878  0.00  0.00     0.175 A 
ATOM     11  N   UNL d   1       3.623  -5.871   4.720  0.00  0.00    -0.255 N 
ATOM     12  C   UNL d   1       2.673  -5.874   5.738  0.00  0.00     0.245 A 
ATOM     13  N   UNL d   1       1.755  -4.964   5.518  0.00  0.00    -0.263 N 
ATOM     14  N   UNL d   1       2.062  -4.334   4.343  0.00  0.00    -0.276 N 
ATOM     15  HN  UNL d   1       0.954  -4.762   6.116  1.00  0.00     0.190 HD
ATOM     16  HN  UNL d   1       1.523  -3.588   3.904  1.00  0.00     0.189 HD
BRANCH  11  17
ATOM     17  C   UNL d   1       4.740  -6.749   4.598  0.00  0.00     0.045 A 
ATOM     18  C   UNL d   1       5.399  -7.218   5.746  0.00  0.00     0.032 A 
ATOM     19  C   UNL d   1       6.439  -8.148   5.636  0.00  0.00     0.026 A 
ATOM     20  C   UNL d   1       6.830  -8.605   4.378  0.00  0.00     0.034 A 
ATOM     21  C   UNL d   1       6.201  -8.128   3.233  0.00  0.00     0.026 A 
ATOM     22 CL   UNL d   1       8.087  -9.771   4.245  0.00  0.00    -0.084 Cl
ATOM     23  C   UNL d   1       5.156  -7.201   3.338  0.00  0.00     0.032 A 
ENDBRANCH  11  17
BRANCH  12  24
ATOM     24  O   UNL d   1       2.590  -6.726   6.753  0.00  0.00    -0.331 OA
ATOM     25  H   UNL d   1       3.033  -7.553   6.503  0.00  0.00     0.221 HD
ENDBRANCH  12  24
ENDBRANCH   9  10
ENDBRANCH   5   9
BRANCH   7  26
ATOM     26  S   UNL d   1       3.064  -6.645  -1.926  0.00  0.00    -0.098 SA
ATOM     27  C   UNL d   1       1.883  -6.311  -3.257  0.00  0.00     0.099 C 
ENDBRANCH   7  26
BRANCH   6  28
ATOM     28  S   UNL d   1      -0.495  -3.027  -0.282  0.00  0.00    -0.034 SA
BRANCH  28  29
ATOM     29  C   UNL d   1       0.099  -1.615  -1.102  0.00  0.00     0.175 A 
ATOM     30  N   UNL d   1      -0.609  -0.833  -2.012  0.00  0.00    -0.255 N 
ATOM     31  C   UNL d   1       0.330   0.127  -2.388  0.00  0.00     0.245 A 
ATOM     32  N   UNL d   1       1.487  -0.104  -1.820  0.00  0.00    -0.263 N 
ATOM     33  N   UNL d   1       1.337  -1.181  -0.996  0.00  0.00    -0.276 N 
ATOM     34  HN  UNL d   1       2.346   0.427  -1.967  1.00  0.00     0.190 HD
ATOM     35  HN  UNL d   1       2.061  -1.582  -0.400  1.00  0.00     0.189 HD
BRANCH  30  36
ATOM     36  C   UNL d   1      -1.955  -0.916  -2.489  0.00  0.00     0.045 A 
ATOM     37  C   UNL d   1      -2.994  -1.399  -1.682  0.00  0.00     0.032 A 
ATOM     38  C   UNL d   1      -4.312  -1.416  -2.158  0.00  0.00     0.026 A 
ATOM     39  C   UNL d   1      -4.603  -0.945  -3.435  0.00  0.00     0.034 A 
ATOM     40  C   UNL d   1      -3.583  -0.474  -4.254  0.00  0.00     0.026 A 
ATOM     41 CL   UNL d   1      -6.228  -0.935  -3.998  0.00  0.00    -0.084 Cl
ATOM     42  C   UNL d   1      -2.263  -0.468  -3.788  0.00  0.00     0.032 A 
ENDBRANCH  30  36
BRANCH  31  43
ATOM     43  O   UNL d   1       0.113   1.212  -3.122  0.00  0.00    -0.331 OA
ATOM     44  H   UNL d   1      -0.818   1.470  -3.021  0.00  0.00     0.221 HD
ENDBRANCH  31  43
ENDBRANCH  28  29
ENDBRANCH   6  28
TORSDOF 9
