REMARK  2 active torsions:
REMARK  status: ('A' for Active; 'I' for Inactive)
REMARK       I    between atoms: N_2  and  C_1 
REMARK       I    between atoms: N_3  and  C_1 
REMARK       I    between atoms: C_4  and  N_2 
REMARK    1  A    between atoms: C_6  and  N_3 
REMARK    2  A    between atoms: C_10  and  C_4 
ROOT
ATOM      1  N   UNL d   1       5.589   2.609  -0.552  0.00  0.00    -0.197 NA
ATOM      2  C   UNL d   1       4.940   1.718  -0.909  0.00  0.00     0.068 C 
ATOM      3  C   UNL d   1       4.149   0.561  -1.327  0.00  0.00     0.227 C 
ENDROOT
BRANCH   3   4
ATOM      4  C   UNL d   1       2.675   0.862  -1.182  0.00  0.00     0.238 C 
ATOM      5  N   UNL d   1       2.053   0.179  -0.151  0.00  0.00    -0.278 N 
ATOM      6  C   UNL d   1       0.705   0.071   0.111  0.00  0.00     0.327 C 
ATOM      7  H   UNL d   1       2.574  -0.505   0.380  0.00  0.00     0.173 HD
ATOM      8  N   UNL d   1      -0.104   0.965  -0.531  0.00  0.00    -0.306 N 
ATOM      9  O   UNL d   1       0.353  -0.814   0.885  0.00  0.00    -0.247 OA
ATOM     10  H   UNL d   1       0.364   1.708  -1.052  0.00  0.00     0.171 HD
ATOM     11  O   UNL d   1       2.096   1.673  -1.902  0.00  0.00    -0.272 OA
BRANCH   8  12
ATOM     12  C   UNL d   1      -1.511   1.046  -0.468  0.00  0.00     0.075 A 
ATOM     13  C   UNL d   1      -2.121   2.196  -0.993  0.00  0.00     0.146 A 
ATOM     14  C   UNL d   1      -3.500   2.371  -0.960  0.00  0.00     0.086 A 
ATOM     15  F   UNL d   1      -1.360   3.167  -1.520  0.00  0.00    -0.204 F 
ATOM     16  C   UNL d   1      -4.285   1.370  -0.409  0.00  0.00     0.119 A 
ATOM     17  C   UNL d   1      -3.713   0.210   0.102  0.00  0.00     0.044 A 
ATOM     18  F   UNL d   1      -5.615   1.520  -0.370  0.00  0.00    -0.206 F 
ATOM     19  C   UNL d   1      -2.324   0.048   0.077  0.00  0.00     0.036 A 
ENDBRANCH   8  12
ENDBRANCH   3   4
TORSDOF 2
