REMARK  7 active torsions:
REMARK  status: ('A' for Active; 'I' for Inactive)
REMARK    1  A    between atoms: C_7  and  C_1 
REMARK    2  A    between atoms: N_6  and  C_2 
REMARK    3  A    between atoms: C_8  and  C_4 
REMARK       I    between atoms: C_9  and  N_6 
REMARK    4  A    between atoms: C_14  and  C_9 
REMARK    5  A    between atoms: C_10  and  C_15 
REMARK    6  A    between atoms: O_16  and  C_10 
REMARK    7  A    between atoms: C_15  and  C_14 
ROOT
ATOM      1  C   UNL d   1       0.141   1.340   0.065  0.00  0.00     0.077 A 
ATOM      2  C   UNL d   1       1.460   0.901  -0.043  0.00  0.00     0.056 A 
ATOM      3  S   UNL d   1      -0.946   0.005   0.166  0.00  0.00    -0.088 SA
ATOM      4  C   UNL d   1       0.283  -1.174   0.013  0.00  0.00    -0.007 A 
ATOM      5  C   UNL d   1       1.517  -0.544  -0.068  0.00  0.00     0.046 A 
ENDROOT
BRANCH   2   6
ATOM      6  N   UNL d   1       2.614   1.706  -0.072  0.00  0.00    -0.326 N 
ATOM      7  C   UNL d   1       3.554   1.581  -1.083  0.00  0.00     0.222 C 
ATOM      8  O   UNL d   1       3.484   0.824  -2.047  0.00  0.00    -0.273 OA
ATOM      9  H   UNL d   1       2.608   2.555   0.474  0.00  0.00     0.169 HD
BRANCH   7  10
ATOM     10  C   UNL d   1       4.759   2.521  -0.936  0.00  0.00     0.113 C 
BRANCH  10  11
ATOM     11  C   UNL d   1       5.325   2.924  -2.292  0.00  0.00     0.119 C 
BRANCH  11  12
ATOM     12  C   UNL d   1       4.326   3.687  -3.115  0.00  0.00     0.139 C 
ATOM     13  O   UNL d   1       4.176   4.909  -3.056  0.00  0.00    -0.650 OA
BRANCH  12  14
ATOM     14  O   UNL d   1       3.584   2.915  -3.929  0.00  0.00    -0.776 OA
ATOM     15  H   UNL d   1       3.753   1.942  -3.820  0.00  0.00     0.167 HD
ENDBRANCH  12  14
ENDBRANCH  11  12
ENDBRANCH  10  11
ENDBRANCH   7  10
ENDBRANCH   2   6
BRANCH   1  16
ATOM     16  C   UNL d   1      -0.537   2.637   0.014  0.00  0.00     0.164 C 
ATOM     17  O   UNL d   1      -1.594   2.865   0.611  0.00  0.00    -0.292 OA
ATOM     18  C   UNL d   1       0.015   3.740  -0.851  0.00  0.00     0.097 C 
ENDBRANCH   1  16
BRANCH   4  19
ATOM     19  C   UNL d   1      -0.087  -2.671  -0.007  0.00  0.00    -0.018 C 
ATOM     20  C   UNL d   1      -1.007  -2.994  -1.206  0.00  0.00     0.020 C 
ATOM     21  C   UNL d   1       1.171  -3.557  -0.119  0.00  0.00     0.020 C 
ATOM     22  C   UNL d   1      -0.830  -3.075   1.285  0.00  0.00     0.020 C 
ENDBRANCH   4  19
TORSDOF 7
