REMARK  4 active torsions:
REMARK  status: ('A' for Active; 'I' for Inactive)
REMARK    1  A    between atoms: O_7  and  C_1 
REMARK    2  A    between atoms: O_8  and  C_2 
REMARK    3  A    between atoms: C_11  and  O_7 
REMARK    4  A    between atoms: C_12  and  O_8 
ROOT
ATOM      1  C   UNL d   1       1.685  -1.399   0.104  0.00  0.00     0.086 A 
ATOM      2  C   UNL d   1       1.668   1.424  -0.076  0.00  0.00     0.086 A 
ATOM      3  C   UNL d   1       0.478  -0.710   0.031  0.00  0.00    -0.007 A 
ATOM      4  C   UNL d   1       0.470   0.718  -0.049  0.00  0.00    -0.007 A 
ATOM      5  C   UNL d   1      -1.670  -0.743  -1.187  0.00  0.00    -0.021 C 
ATOM      6  C   UNL d   1      -1.679   0.605  -1.255  0.00  0.00    -0.021 C 
ATOM      7  C   UNL d   1      -0.943   1.300  -0.110  0.00  0.00     0.044 C 
ATOM      8  C   UNL d   1      -0.926  -1.312   0.023  0.00  0.00     0.044 C 
ATOM      9  C   UNL d   1       2.871   0.723   0.007  0.00  0.00     0.041 A 
ATOM     10  C   UNL d   1       2.880  -0.678   0.070  0.00  0.00     0.041 A 
ATOM     11  C   UNL d   1      -1.649   0.834   1.193  0.00  0.00     0.014 C 
ATOM     12  C   UNL d   1      -1.642  -0.727   1.273  0.00  0.00     0.014 C 
ENDROOT
BRANCH   1  13
ATOM     13  O   UNL d   1       1.645  -2.807   0.142  0.00  0.00    -0.279 OA
BRANCH  13  14
ATOM     14  C   UNL d   1       2.636  -3.550   0.787  0.00  0.00     0.260 C 
ATOM     15  O   UNL d   1       3.585  -3.116   1.427  0.00  0.00    -0.265 OA
ATOM     16  C   UNL d   1       2.374  -5.015   0.602  0.00  0.00     0.126 C 
ENDBRANCH  13  14
ENDBRANCH   1  13
BRANCH   2  17
ATOM     17  O   UNL d   1       1.609   2.832  -0.119  0.00  0.00    -0.279 OA
BRANCH  17  18
ATOM     18  C   UNL d   1       2.605   3.582  -0.745  0.00  0.00     0.260 C 
ATOM     19  O   UNL d   1       3.581   3.160  -1.351  0.00  0.00    -0.265 OA
ATOM     20  C   UNL d   1       2.312   5.047  -0.585  0.00  0.00     0.126 C 
ENDBRANCH  17  18
ENDBRANCH   2  17
TORSDOF 4
