REMARK  6 active torsions:
REMARK  status: ('A' for Active; 'I' for Inactive)
REMARK    1  A    between atoms: C_8  and  N_1 
REMARK    2  A    between atoms: C_2  and  O_5 
REMARK       I    between atoms: N_9  and  C_2 
REMARK    3  A    between atoms: O_5  and  C_6 
REMARK    4  A    between atoms: C_7  and  S_15 
REMARK    5  A    between atoms: S_15  and  C_20 
REMARK    6  A    between atoms: C_20  and  C_21 
ROOT
ATOM      1  N   UNL d   1      -0.766  -7.702  -4.757  0.00  0.00    -0.317 N 
ATOM      2  HN  UNL d   1       0.048  -8.076  -4.269  1.00  0.00     0.170 HD
ATOM      3  C   UNL d   1      -1.577  -8.488  -5.502  0.00  0.00     0.156 A 
ATOM      4  C   UNL d   1      -1.095  -6.404  -4.695  0.00  0.00     0.146 A 
ATOM      5  N   UNL d   1      -2.137  -5.851  -5.338  0.00  0.00    -0.347 N 
ATOM      6  HN  UNL d   1      -2.330  -4.851  -5.280  1.00  0.00     0.167 HD
ATOM      7  C   UNL d   1      -2.688  -8.024  -6.165  0.00  0.00     0.073 A 
ATOM      8  C   UNL d   1      -2.913  -6.676  -6.059  0.00  0.00     0.094 A 
ENDROOT
BRANCH   4   9
ATOM      9  S   UNL d   1      -0.196  -5.299  -3.637  0.00  0.00    -0.089 SA
BRANCH   9  10
ATOM     10  C   UNL d   1       1.381  -6.180  -3.435  0.00  0.00     0.121 C 
BRANCH  10  11
ATOM     11  C   UNL d   1       2.291  -5.404  -2.499  0.00  0.00    -0.048 A 
ATOM     12  C   UNL d   1       2.285  -5.675  -1.119  0.00  0.00     0.010 A 
ATOM     13  C   UNL d   1       3.062  -4.917  -0.240  0.00  0.00     0.036 A 
ATOM     14  C   UNL d   1       3.849  -3.871  -0.736  0.00  0.00     0.102 A 
ATOM     15  C   UNL d   1       3.875  -3.593  -2.108  0.00  0.00     0.036 A 
ATOM     16  C   UNL d   1       3.095  -4.359  -2.982  0.00  0.00     0.010 A 
BRANCH  14  17
ATOM     17  N   UNL d   1       4.639  -3.050   0.191  0.00  0.00    -0.116 N 
ATOM     18  O   UNL d   1       5.312  -2.125  -0.288  0.00  0.00    -0.532 OA
ATOM     19  O   UNL d   1       4.587  -3.327   1.397  0.00  0.00    -0.532 OA
ENDBRANCH  14  17
ENDBRANCH  10  11
ENDBRANCH   9  10
ENDBRANCH   4   9
BRANCH   3  20
ATOM     20  O   UNL d   1      -1.127  -9.828  -5.597  0.00  0.00    -0.244 OA
BRANCH  20  21
ATOM     21  C   UNL d   1      -1.726 -10.880  -6.291  0.00  0.00     0.368 C 
ATOM     22  N   UNL d   1      -0.913 -12.007  -6.348  0.00  0.00    -0.336 N 
ATOM     23  C   UNL d   1       0.385 -12.088  -5.699  0.00  0.00     0.154 C 
ATOM     24  C   UNL d   1      -1.391 -13.216  -6.997  0.00  0.00     0.154 C 
ATOM     25  O   UNL d   1      -2.840 -10.825  -6.803  0.00  0.00    -0.238 OA
ENDBRANCH  20  21
ENDBRANCH   3  20
TORSDOF 6
