REMARK  4 active torsions:
REMARK  status: ('A' for Active; 'I' for Inactive)
REMARK    1  A    between atoms: C_2  and  C_1 
REMARK       I    between atoms: N_3  and  C_1 
REMARK    2  A    between atoms: C_7  and  N_3 
REMARK       I    between atoms: C_4  and  N_5 
REMARK    3  A    between atoms: C_12  and  C_4 
REMARK    4  A    between atoms: N_5  and  C_6 
ROOT
ATOM      1  C   UNL d   1       0.112   0.404   1.189  0.00  0.00     0.059 A 
ATOM      2  C   UNL d   1       0.676   1.574   1.733  0.00  0.00     0.050 A 
ATOM      3  C   UNL d   1      -1.114  -0.080   1.676  0.00  0.00     0.019 A 
ATOM      4  C   UNL d   1      -0.053   2.279   2.701  0.00  0.00     0.030 A 
ATOM      5  C   UNL d   1      -1.807   0.619   2.662  0.00  0.00     0.001 A 
ATOM      6  C   UNL d   1      -1.284   1.806   3.162  0.00  0.00     0.002 A 
ENDROOT
BRANCH   1   7
ATOM      7  C   UNL d   1       0.848  -0.423   0.191  0.00  0.00     0.259 C 
ATOM      8  N   UNL d   1       0.055  -1.030  -0.759  0.00  0.00    -0.309 N 
ATOM      9  H   UNL d   1      -0.808  -0.575  -1.018  0.00  0.00     0.170 HD
ATOM     10  O   UNL d   1       2.071  -0.459   0.223  0.00  0.00    -0.267 OA
BRANCH   8  11
ATOM     11  C   UNL d   1       0.567  -1.855  -1.761  0.00  0.00     0.108 A 
ATOM     12  N   UNL d   1       0.001  -1.687  -2.971  0.00  0.00    -0.352 N 
ATOM     13  C   UNL d   1       0.545  -2.385  -3.994  0.00  0.00     0.090 A 
ATOM     14  HN  UNL d   1      -0.796  -1.066  -3.109  1.00  0.00     0.166 HD
ATOM     15  C   UNL d   1       1.575  -3.300  -3.845  0.00  0.00     0.024 A 
ATOM     16  C   UNL d   1       2.078  -3.539  -2.567  0.00  0.00    -0.057 A 
ATOM     17  C   UNL d   1       1.572  -2.781  -1.509  0.00  0.00     0.055 A 
ATOM     18  C   UNL d   1       3.159  -4.552  -2.350  0.00  0.00     0.048 C 
ENDBRANCH   8  11
ENDBRANCH   1   7
BRANCH   2  19
ATOM     19  N   UNL d   1       1.951   2.048   1.310  0.00  0.00    -0.322 N 
ATOM     20  C   UNL d   1       2.855   2.622   2.188  0.00  0.00     0.256 C 
ATOM     21  O   UNL d   1       2.702   2.753   3.395  0.00  0.00    -0.267 OA
ATOM     22  H   UNL d   1       2.360   1.581   0.503  0.00  0.00     0.169 HD
BRANCH  20  23
ATOM     23  C   UNL d   1       4.157   3.038   1.605  0.00  0.00     0.032 A 
ATOM     24  C   UNL d   1       4.220   3.769   0.413  0.00  0.00     0.017 A 
ATOM     25  C   UNL d   1       5.453   4.239  -0.042  0.00  0.00     0.001 A 
ATOM     26  C   UNL d   1       6.617   3.974   0.681  0.00  0.00     0.000 A 
ATOM     27  C   UNL d   1       6.557   3.242   1.866  0.00  0.00     0.001 A 
ATOM     28  C   UNL d   1       5.325   2.781   2.333  0.00  0.00     0.017 A 
ENDBRANCH  20  23
ENDBRANCH   2  19
TORSDOF 4
