REMARK  9 active torsions:
REMARK  status: ('A' for Active; 'I' for Inactive)
REMARK    1  A    between atoms: C_3  and  C_1 
REMARK    2  A    between atoms: C_22  and  C_1 
REMARK    3  A    between atoms: C_2  and  C_21 
REMARK    4  A    between atoms: C_4  and  C_2 
REMARK    5  A    between atoms: S_17  and  C_22 
REMARK    6  A    between atoms: C_24  and  S_17 
REMARK    7  A    between atoms: S_18  and  C_23 
REMARK    8  A    between atoms: C_21  and  S_18 
REMARK    9  A    between atoms: C_23  and  C_24 
ROOT
ATOM      1  C   UNL d   1       5.626   1.268   2.766  0.00  0.00     0.084 C 
ENDROOT
BRANCH   1   2
ATOM      2  S   UNL d   1       7.387   0.797   2.818  0.00  0.00    -0.161 SA
BRANCH   2   3
ATOM      3  C   UNL d   1       7.960   1.581   1.281  0.00  0.00     0.157 C 
BRANCH   3   4
ATOM      4  C   UNL d   1       9.461   1.455   1.127  0.00  0.00     0.168 C 
ATOM      5  O   UNL d   1      10.220   2.364   1.459  0.00  0.00    -0.292 OA
BRANCH   4   6
ATOM      6  C   UNL d   1      10.025   0.234   0.479  0.00  0.00     0.011 A 
ATOM      7  C   UNL d   1      11.248   0.354  -0.200  0.00  0.00     0.018 A 
ATOM      8  C   UNL d   1      11.827  -0.760  -0.809  0.00  0.00     0.043 A 
ATOM      9  C   UNL d   1      11.191  -1.993  -0.729  0.00  0.00     0.116 A 
ATOM     10  C   UNL d   1       9.979  -2.130  -0.064  0.00  0.00     0.043 A 
ATOM     11  F   UNL d   1      11.756  -3.066  -1.297  0.00  0.00    -0.206 F 
ATOM     12  C   UNL d   1       9.389  -1.014   0.536  0.00  0.00     0.018 A 
ENDBRANCH   4   6
ENDBRANCH   3   4
ENDBRANCH   2   3
ENDBRANCH   1   2
BRANCH   1  13
ATOM     13  C   UNL d   1       4.887   0.710   1.550  0.00  0.00     0.084 C 
BRANCH  13  14
ATOM     14  S   UNL d   1       3.111   1.127   1.577  0.00  0.00    -0.161 SA
BRANCH  14  15
ATOM     15  C   UNL d   1       3.218   2.932   1.352  0.00  0.00     0.157 C 
BRANCH  15  16
ATOM     16  C   UNL d   1       1.832   3.539   1.294  0.00  0.00     0.168 C 
ATOM     17  O   UNL d   1       1.346   3.901   0.221  0.00  0.00    -0.292 OA
BRANCH  16  18
ATOM     18  C   UNL d   1       1.049   3.731   2.558  0.00  0.00     0.011 A 
ATOM     19  C   UNL d   1      -0.231   4.298   2.459  0.00  0.00     0.018 A 
ATOM     20  C   UNL d   1      -1.014   4.484   3.601  0.00  0.00     0.043 A 
ATOM     21  C   UNL d   1      -0.515   4.107   4.841  0.00  0.00     0.116 A 
ATOM     22  C   UNL d   1       0.755   3.557   4.962  0.00  0.00     0.043 A 
ATOM     23  F   UNL d   1      -1.269   4.271   5.935  0.00  0.00    -0.206 F 
ATOM     24  C   UNL d   1       1.543   3.372   3.822  0.00  0.00     0.018 A 
ENDBRANCH  16  18
ENDBRANCH  15  16
ENDBRANCH  14  15
ENDBRANCH  13  14
ENDBRANCH   1  13
TORSDOF 9
