REMARK  4 active torsions:
REMARK  status: ('A' for Active; 'I' for Inactive)
REMARK    1  A    between atoms: S_6  and  C_1 
REMARK    2  A    between atoms: C_13  and  S_6 
REMARK       I    between atoms: C_7  and  N_8 
REMARK    3  A    between atoms: C_16  and  C_7 
REMARK    4  A    between atoms: N_8  and  C_14 
ROOT
ATOM      1  C   UNL d   1       4.610  -3.171  -0.200  0.00  0.00     0.096 C 
ATOM      2  C   UNL d   1       5.855  -3.635   0.216  0.00  0.00     0.085 C 
ATOM      3  N   UNL d   1       3.717  -3.975  -0.824  0.00  0.00    -0.349 N 
ATOM      4  HN  UNL d   1       2.821  -3.601  -1.137  1.00  0.00     0.166 HD
ATOM      5  C   UNL d   1       6.252  -4.932  -0.167  0.00  0.00    -0.026 C 
ATOM      6  C   UNL d   1       5.290  -5.800  -0.737  0.00  0.00    -0.002 A 
ATOM      7  C   UNL d   1       6.665  -2.904   1.140  0.00  0.00     0.103 C 
ATOM      8  C   UNL d   1       4.017  -5.272  -1.030  0.00  0.00     0.043 A 
ATOM      9  N   UNL d   1       7.311  -2.386   1.948  0.00  0.00    -0.191 NA
ATOM     10  C   UNL d   1       7.662  -5.415   0.082  0.00  0.00     0.050 C 
ATOM     11  C   UNL d   1       5.535  -7.174  -0.954  0.00  0.00     0.014 A 
ATOM     12  C   UNL d   1       3.039  -6.135  -1.511  0.00  0.00     0.030 A 
ATOM     13  C   UNL d   1       4.530  -8.024  -1.399  0.00  0.00     0.001 A 
ATOM     14  C   UNL d   1       3.274  -7.505  -1.677  0.00  0.00     0.002 A 
ENDROOT
BRANCH   1  15
ATOM     15  S   UNL d   1       3.960  -1.539   0.137  0.00  0.00    -0.069 SA
BRANCH  15  16
ATOM     16  C   UNL d   1       5.327  -0.390  -0.072  0.00  0.00     0.033 A 
ATOM     17  C   UNL d   1       5.616   0.552   0.941  0.00  0.00     0.052 A 
ATOM     18  C   UNL d   1       6.611   1.516   0.737  0.00  0.00     0.031 A 
ATOM     19  C   UNL d   1       7.302   1.572  -0.475  0.00  0.00     0.002 A 
ATOM     20  C   UNL d   1       6.998   0.668  -1.491  0.00  0.00     0.002 A 
ATOM     21  C   UNL d   1       6.014  -0.308  -1.293  0.00  0.00     0.021 A 
BRANCH  17  22
ATOM     22  N   UNL d   1       4.919   0.507   2.176  0.00  0.00    -0.322 N 
ATOM     23  C   UNL d   1       4.245   1.616   2.672  0.00  0.00     0.256 C 
ATOM     24  O   UNL d   1       4.245   2.729   2.156  0.00  0.00    -0.267 OA
ATOM     25  H   UNL d   1       4.518  -0.392   2.414  0.00  0.00     0.169 HD
BRANCH  23  26
ATOM     26  C   UNL d   1       3.389   1.376   3.875  0.00  0.00     0.032 A 
ATOM     27  C   UNL d   1       3.708   0.406   4.834  0.00  0.00     0.017 A 
ATOM     28  C   UNL d   1       2.903   0.250   5.968  0.00  0.00     0.001 A 
ATOM     29  C   UNL d   1       1.781   1.059   6.153  0.00  0.00     0.000 A 
ATOM     30  C   UNL d   1       1.458   2.027   5.203  0.00  0.00     0.001 A 
ATOM     31  C   UNL d   1       2.259   2.186   4.069  0.00  0.00     0.017 A 
ENDBRANCH  23  26
ENDBRANCH  17  22
ENDBRANCH  15  16
ENDBRANCH   1  15
TORSDOF 4
