REMARK  7 active torsions:
REMARK  status: ('A' for Active; 'I' for Inactive)
REMARK    1  A    between atoms: S_6  and  C_1 
REMARK    2  A    between atoms: C_9  and  C_3 
REMARK    3  A    between atoms: C_12  and  S_6 
REMARK       I    between atoms: C_7  and  N_8 
REMARK    4  A    between atoms: C_17  and  C_7 
REMARK    5  A    between atoms: N_8  and  C_13 
REMARK    6  A    between atoms: O_19  and  C_9 
REMARK    7  A    between atoms: C_25  and  O_19 
ROOT
ATOM      1  C   UNL d   1       0.289   4.004  -0.058  0.00  0.00     0.097 A 
ATOM      2  C   UNL d   1      -1.078   4.101  -0.332  0.00  0.00     0.094 A 
ATOM      3  C   UNL d   1      -1.525   5.260  -0.976  0.00  0.00     0.065 A 
ATOM      4  N   UNL d   1       1.155   5.029  -0.272  0.00  0.00    -0.353 N 
ATOM      5  HN  UNL d   1       2.132   4.952   0.011  1.00  0.00     0.166 HD
ATOM      6  C   UNL d   1      -1.981   3.079   0.108  0.00  0.00     0.103 C 
ATOM      7  N   UNL d   1      -2.720   2.280   0.512  0.00  0.00    -0.191 NA
ATOM      8  C   UNL d   1      -0.624   6.295  -1.252  0.00  0.00     0.043 A 
ATOM      9  C   UNL d   1       0.698   6.152  -0.868  0.00  0.00     0.007 A 
ATOM     10  C   UNL d   1       1.701   7.230  -1.139  0.00  0.00     0.068 C 
ENDROOT
BRANCH   1  11
ATOM     11  S   UNL d   1       0.988   2.476   0.573  0.00  0.00    -0.069 SA
BRANCH  11  12
ATOM     12  C   UNL d   1       2.671   2.499  -0.047  0.00  0.00     0.033 A 
ATOM     13  C   UNL d   1       3.117   1.786  -1.181  0.00  0.00     0.052 A 
ATOM     14  C   UNL d   1       4.498   1.612  -1.381  0.00  0.00     0.031 A 
ATOM     15  C   UNL d   1       5.430   2.186  -0.515  0.00  0.00     0.002 A 
ATOM     16  C   UNL d   1       4.995   2.924   0.578  0.00  0.00     0.002 A 
ATOM     17  C   UNL d   1       3.627   3.067   0.816  0.00  0.00     0.021 A 
BRANCH  13  18
ATOM     18  N   UNL d   1       2.277   1.156  -2.137  0.00  0.00    -0.322 N 
ATOM     19  C   UNL d   1       1.241   1.802  -2.791  0.00  0.00     0.256 C 
ATOM     20  O   UNL d   1       0.914   2.975  -2.654  0.00  0.00    -0.267 OA
ATOM     21  H   UNL d   1       2.706   0.412  -2.673  0.00  0.00     0.169 HD
BRANCH  19  22
ATOM     22  C   UNL d   1       0.550   1.004  -3.841  0.00  0.00     0.032 A 
ATOM     23  C   UNL d   1       0.370  -0.379  -3.722  0.00  0.00     0.017 A 
ATOM     24  C   UNL d   1      -0.318  -1.077  -4.718  0.00  0.00     0.001 A 
ATOM     25  C   UNL d   1      -0.826  -0.400  -5.828  0.00  0.00     0.000 A 
ATOM     26  C   UNL d   1      -0.649   0.977  -5.949  0.00  0.00     0.001 A 
ATOM     27  C   UNL d   1       0.034   1.679  -4.957  0.00  0.00     0.017 A 
ENDBRANCH  19  22
ENDBRANCH  13  18
ENDBRANCH  11  12
ENDBRANCH   1  11
BRANCH   3  28
ATOM     28  C   UNL d   1      -2.930   5.495  -1.392  0.00  0.00     0.295 C 
ATOM     29  O   UNL d   1      -3.413   6.613  -1.486  0.00  0.00    -0.259 OA
BRANCH  28  30
ATOM     30  O   UNL d   1      -3.538   4.333  -1.714  0.00  0.00    -0.318 OA
BRANCH  30  31
ATOM     31  C   UNL d   1      -4.901   4.426  -2.159  0.00  0.00     0.174 C 
ATOM     32  C   UNL d   1      -5.848   4.590  -0.984  0.00  0.00     0.034 C 
ENDBRANCH  30  31
ENDBRANCH  28  30
ENDBRANCH   3  28
TORSDOF 7
