REMARK  3 active torsions:
REMARK  status: ('A' for Active; 'I' for Inactive)
REMARK    1  A    between atoms: C_7  and  C_2 
REMARK    2  A    between atoms: C_8  and  C_6 
REMARK    3  A    between atoms: N_10  and  C_9 
ROOT
ATOM      1  N   UNL d   1      -0.886  -1.437   0.121  0.00  0.00    -0.353 N 
ATOM      2  C   UNL d   1       0.527  -1.530   0.211  0.00  0.00     0.123 C 
ATOM      3  N   UNL d   1       1.111  -0.375   0.232  0.00  0.00    -0.304 N 
ATOM      4  HN  UNL d   1       2.114  -0.192   0.274  1.00  0.00     0.182 HD
ATOM      5  N   UNL d   1       0.094   0.555   0.183  0.00  0.00    -0.211 NA
ATOM      6  C   UNL d   1      -1.203  -0.041  -0.129  0.00  0.00     0.209 C 
ATOM      7  H   UNL d   1      -1.540  -2.199   0.128  0.00  0.00     0.163 HD
ATOM      8  H   UNL d   1       0.306   1.369  -0.392  0.00  0.00     0.149 HD
ENDROOT
BRANCH   6   9
ATOM      9  C   UNL d   1      -1.651   0.035  -1.571  0.00  0.00    -0.020 A 
ATOM     10  C   UNL d   1      -0.751   0.011  -2.643  0.00  0.00     0.013 A 
ATOM     11  C   UNL d   1      -1.203  -0.078  -3.969  0.00  0.00     0.030 A 
ATOM     12  C   UNL d   1      -2.564  -0.165  -4.295  0.00  0.00     0.029 A 
ATOM     13  C   UNL d   1      -3.452  -0.117  -3.207  0.00  0.00     0.030 A 
ATOM     14  C   UNL d   1      -3.015  -0.017  -1.876  0.00  0.00     0.013 A 
BRANCH  12  15
ATOM     15  N   UNL d   1      -3.013  -0.373  -5.592  0.00  0.00    -0.390 N 
ATOM     16  C   UNL d   1      -4.289   0.183  -6.046  0.00  0.00     0.149 C 
ATOM     17  C   UNL d   1      -2.094  -0.708  -6.680  0.00  0.00     0.149 C 
ENDBRANCH  12  15
ENDBRANCH   6   9
BRANCH   2  18
ATOM     18  C   UNL d   1       1.181  -2.844   0.200  0.00  0.00     0.009 A 
ATOM     19  C   UNL d   1       0.574  -3.925  -0.454  0.00  0.00     0.017 A 
ATOM     20  C   UNL d   1       1.232  -5.156  -0.524  0.00  0.00     0.025 A 
ATOM     21  C   UNL d   1       2.490  -5.303   0.058  0.00  0.00     0.034 A 
ATOM     22  C   UNL d   1       3.099  -4.230   0.708  0.00  0.00     0.025 A 
ATOM     23 CL   UNL d   1       3.302  -6.815  -0.044  0.00  0.00    -0.084 Cl
ATOM     24  C   UNL d   1       2.449  -2.993   0.773  0.00  0.00     0.017 A 
ENDBRANCH   2  18
TORSDOF 3
