REMARK  3 active torsions:
REMARK  status: ('A' for Active; 'I' for Inactive)
REMARK    1  A    between atoms: C_2  and  S_1 
REMARK    2  A    between atoms: N_6  and  S_1 
REMARK    3  A    between atoms: C_13  and  N_6 
ROOT
ATOM      1  N   UNL d   1       0.479   1.334  -0.793  0.00  0.00    -0.180 NA
ATOM      2  H   UNL d   1      -0.149   1.334  -1.598  0.00  0.00     0.146 HD
ENDROOT
BRANCH   1   3
ATOM      3  S   UNL d   1      -0.059   0.183   0.332  0.00  0.00     0.263 S 
ATOM      4  O   UNL d   1      -0.526  -0.955  -0.427  0.00  0.00    -0.204 OA
ATOM      5  O   UNL d   1       0.930   0.041   1.384  0.00  0.00    -0.204 OA
BRANCH   3   6
ATOM      6  C   UNL d   1      -1.497   0.766   1.146  0.00  0.00     0.161 A 
ATOM      7  N   UNL d   1      -2.635   1.210   0.481  0.00  0.00    -0.341 N 
ATOM      8  C   UNL d   1      -3.496   1.499   1.435  0.00  0.00     0.183 A 
ATOM      9  HN  UNL d   1      -2.773   1.295  -0.526  1.00  0.00     0.167 HD
ATOM     10  N   UNL d   1      -2.951   1.320   2.676  0.00  0.00    -0.354 N 
ATOM     11  C   UNL d   1      -1.682   0.848   2.514  0.00  0.00     0.134 A 
ATOM     12  C   UNL d   1      -3.610   1.588   3.930  0.00  0.00     0.156 C 
ENDBRANCH   3   6
ENDBRANCH   1   3
BRANCH   1  13
ATOM     13  C   UNL d   1       0.850   2.619  -0.305  0.00  0.00     0.025 A 
ATOM     14  C   UNL d   1       2.162   2.852   0.111  0.00  0.00     0.064 A 
ATOM     15  C   UNL d   1       2.540   4.129   0.532  0.00  0.00     0.103 A 
ATOM     16  O   UNL d   1       3.851   4.301   0.897  0.00  0.00    -0.346 OA
ATOM     17  C   UNL d   1       1.604   5.168   0.541  0.00  0.00     0.102 A 
ATOM     18  C   UNL d   1       4.046   5.532   1.603  0.00  0.00     0.202 C 
ATOM     19  C   UNL d   1       3.327   6.676   0.907  0.00  0.00     0.202 C 
ATOM     20  O   UNL d   1       1.911   6.456   0.903  0.00  0.00    -0.346 OA
ATOM     21  C   UNL d   1       0.280   4.919   0.178  0.00  0.00     0.041 A 
ATOM     22  C   UNL d   1      -0.098   3.643  -0.246  0.00  0.00     0.027 A 
ENDBRANCH   1  13
TORSDOF 3
