REMARK  0 active torsions:
REMARK  status: ('A' for Active; 'I' for Inactive)
ROOT
ATOM      1  C   UNL d   1      -0.777   0.058  -0.190  0.00  0.00     0.116 A 
ATOM      2  C   UNL d   1       0.491   0.556  -0.235  0.00  0.00     0.116 A 
ATOM      3  C   UNL d   1      -1.378   1.370  -0.472  0.00  0.00     0.252 A 
ATOM      4  C   UNL d   1       0.023   1.910  -0.564  0.00  0.00     0.252 A 
ATOM      5  N   UNL d   1      -1.131  -1.203  -0.018  0.00  0.00    -0.378 N 
ATOM      6  N   UNL d   1       1.608  -0.125  -0.093  0.00  0.00    -0.378 N 
ATOM      7  O   UNL d   1      -2.466   1.859  -0.651  0.00  0.00    -0.281 OA
ATOM      8  O   UNL d   1       0.473   2.995  -0.843  0.00  0.00    -0.281 OA
ATOM      9  C   UNL d   1       0.019  -2.155  -0.218  0.00  0.00     0.142 C 
ATOM     10  C   UNL d   1       1.415  -1.564   0.278  0.00  0.00     0.142 C 
ATOM     11  C   UNL d   1      -2.459  -1.685  -0.354  0.00  0.00     0.150 C 
ATOM     12  C   UNL d   1       2.916   0.332  -0.509  0.00  0.00     0.150 C 
ENDROOT
TORSDOF 0
