REMARK  7 active torsions:
REMARK  status: ('A' for Active; 'I' for Inactive)
REMARK    1  A    between atoms: N_2  and  C_1 
REMARK    2  A    between atoms: C_3  and  N_2 
REMARK    3  A    between atoms: O_17  and  C_5 
REMARK    4  A    between atoms: O_18  and  C_7 
REMARK    5  A    between atoms: C_19  and  N_10 
REMARK    6  A    between atoms: C_13  and  C_21 
REMARK    7  A    between atoms: C_21  and  C_19 
ROOT
ATOM      1  C   UNL d   1       1.141  -0.256  -0.094  0.00  0.00     0.172 C 
ATOM      2  S   UNL d   1       0.417  -0.093  -1.588  0.00  0.00    -0.041 SA
ATOM      3  N   UNL d   1       2.462   0.054   0.042  0.00  0.00    -0.367 N 
ATOM      4  H   UNL d   1       2.861   0.351  -0.841  0.00  0.00     0.161 HD
ENDROOT
BRANCH   3   5
ATOM      5  C   UNL d   1       3.354  -0.699   0.918  0.00  0.00     0.126 C 
BRANCH   5   6
ATOM      6  C   UNL d   1       4.813  -0.263   0.787  0.00  0.00     0.058 C 
BRANCH   6   7
ATOM      7  C   UNL d   1       5.691  -1.086   1.698  0.00  0.00    -0.054 A 
ATOM      8  C   UNL d   1       6.261  -2.287   1.241  0.00  0.00     0.046 A 
ATOM      9  C   UNL d   1       6.992  -3.123   2.099  0.00  0.00     0.102 A 
ATOM     10  C   UNL d   1       7.176  -2.726   3.435  0.00  0.00     0.101 A 
ATOM     11  C   UNL d   1       6.602  -1.530   3.889  0.00  0.00     0.040 A 
ATOM     12  C   UNL d   1       5.866  -0.715   3.031  0.00  0.00     0.010 A 
BRANCH   9  13
ATOM     13  O   UNL d   1       7.502  -4.335   1.713  0.00  0.00    -0.353 OA
ATOM     14  C   UNL d   1       7.277  -4.762   0.375  0.00  0.00     0.210 C 
ENDBRANCH   9  13
BRANCH  10  15
ATOM     15  O   UNL d   1       7.830  -3.409   4.429  0.00  0.00    -0.353 OA
ATOM     16  C   UNL d   1       8.903  -4.253   4.035  0.00  0.00     0.210 C 
ENDBRANCH  10  15
ENDBRANCH   6   7
ENDBRANCH   5   6
ENDBRANCH   3   5
BRANCH   1  17
ATOM     17  N   UNL d   1       0.468  -0.818   0.939  0.00  0.00    -0.333 N 
ATOM     18  H   UNL d   1      -0.351  -1.347   0.658  0.00  0.00     0.168 HD
BRANCH  17  19
ATOM     19  C   UNL d   1       0.409  -0.373   2.283  0.00  0.00     0.040 A 
ATOM     20  C   UNL d   1      -0.145  -1.214   3.260  0.00  0.00    -0.035 A 
ATOM     21  C   UNL d   1      -0.376  -0.705   4.552  0.00  0.00     0.015 A 
ATOM     22  C   UNL d   1      -0.493  -2.656   3.007  0.00  0.00     0.050 C 
ATOM     23  C   UNL d   1      -0.051   0.616   4.880  0.00  0.00    -0.061 A 
ATOM     24  C   UNL d   1       0.554   1.423   3.918  0.00  0.00     0.009 A 
ATOM     25  C   UNL d   1      -0.410   1.159   6.233  0.00  0.00     0.048 C 
ATOM     26  C   UNL d   1       0.789   0.932   2.629  0.00  0.00     0.030 A 
ENDBRANCH  17  19
ENDBRANCH   1  17
TORSDOF 7
