REMARK  7 active torsions:
REMARK  status: ('A' for Active; 'I' for Inactive)
REMARK    1  A    between atoms: C_2  and  C_1 
REMARK    2  A    between atoms: N_17  and  C_1 
REMARK    3  A    between atoms: O_10  and  N_3 
REMARK    4  A    between atoms: C_5  and  O_10 
REMARK       I    between atoms: N_8  and  C_5 
REMARK    5  A    between atoms: C_13  and  N_8 
REMARK    6  A    between atoms: O_16  and  C_9 
REMARK    7  A    between atoms: C_18  and  O_16 
ROOT
ATOM      1  C   UNL d   1       0.949  -0.148  -0.078  0.00  0.00     0.110 C 
ATOM      2  N   UNL d   1       0.351  -0.046   1.079  0.00  0.00    -0.244 N 
ATOM      3  HN  UNL d   1       0.808  -0.036   1.991  1.00  0.00     0.196 HD
ENDROOT
BRANCH   1   4
ATOM      4  C   UNL d   1       2.432  -0.223  -0.125  0.00  0.00     0.019 A 
ATOM      5  C   UNL d   1       3.148  -0.797   0.913  0.00  0.00     0.105 A 
ATOM      6  N   UNL d   1       4.500  -0.864   0.941  0.00  0.00    -0.346 N 
ATOM      7  C   UNL d   1       5.165  -0.300  -0.096  0.00  0.00     0.147 A 
ATOM      8  HN  UNL d   1       4.996  -1.319   1.708  1.00  0.00     0.167 HD
ATOM      9  C   UNL d   1       4.536   0.260  -1.198  0.00  0.00     0.057 A 
ATOM     10  C   UNL d   1       3.144   0.300  -1.210  0.00  0.00     0.020 A 
BRANCH   7  11
ATOM     11  O   UNL d   1       6.553  -0.269  -0.092  0.00  0.00    -0.294 OA
BRANCH  11  12
ATOM     12  C   UNL d   1       7.193  -0.171   1.124  0.00  0.00     0.077 A 
ATOM     13  C   UNL d   1       8.431  -0.808   1.226  0.00  0.00     0.039 A 
ATOM     14  C   UNL d   1       9.152  -0.750   2.422  0.00  0.00     0.026 A 
ATOM     15  C   UNL d   1       8.635  -0.045   3.509  0.00  0.00     0.034 A 
ATOM     16  C   UNL d   1       7.418   0.623   3.402  0.00  0.00     0.026 A 
ATOM     17 CL   UNL d   1       9.507   0.005   4.991  0.00  0.00    -0.084 Cl
ATOM     18  C   UNL d   1       6.706   0.577   2.203  0.00  0.00     0.039 A 
ENDBRANCH  11  12
ENDBRANCH   7  11
ENDBRANCH   1   4
BRANCH   1  19
ATOM     19  N   UNL d   1       0.271  -0.179  -1.278  0.00  0.00    -0.286 NA
ATOM     20  H   UNL d   1       0.657  -0.778  -2.000  0.00  0.00     0.125 HD
ATOM     21  H   UNL d   1      -0.729  -0.322  -1.159  0.00  0.00     0.125 HD
ENDBRANCH   1  19
BRANCH   2  22
ATOM     22  O   UNL d   1      -1.043   0.046   0.845  0.00  0.00    -0.179 OA
BRANCH  22  23
ATOM     23  C   UNL d   1      -1.809   0.273   1.969  0.00  0.00     0.387 C 
ATOM     24  N   UNL d   1      -1.112   0.300   3.155  0.00  0.00    -0.301 N 
ATOM     25  H   UNL d   1      -0.110   0.230   3.022  0.00  0.00     0.171 HD
ATOM     26  O   UNL d   1      -3.019   0.433   1.832  0.00  0.00    -0.236 OA
BRANCH  24  27
ATOM     27  C   UNL d   1      -1.647   0.465   4.450  0.00  0.00     0.038 A 
ATOM     28  C   UNL d   1      -3.022   0.469   4.717  0.00  0.00     0.053 A 
ATOM     29  C   UNL d   1      -3.493   0.659   6.017  0.00  0.00     0.036 A 
ATOM     30 CL   UNL d   1      -5.189   0.663   6.319  0.00  0.00    -0.084 Cl
ATOM     31  C   UNL d   1      -2.606   0.843   7.071  0.00  0.00     0.024 A 
ATOM     32  C   UNL d   1      -1.234   0.821   6.823  0.00  0.00     0.004 A 
ATOM     33  C   UNL d   1      -0.758   0.626   5.519  0.00  0.00     0.029 A 
ENDBRANCH  24  27
ENDBRANCH  22  23
ENDBRANCH   2  22
TORSDOF 7
