REMARK  1 active torsions:
REMARK  status: ('A' for Active; 'I' for Inactive)
REMARK    1  A    between atoms: C_7  and  C_15 
ROOT
ATOM      1  C   UNL d   1       0.098  -0.687   0.048  0.00  0.00    -0.024 A 
ATOM      2  C   UNL d   1       0.099   0.722   0.023  0.00  0.00    -0.024 A 
ATOM      3  C   UNL d   1      -1.131  -1.374   0.072  0.00  0.00     0.020 A 
ATOM      4  C   UNL d   1       1.324  -1.371   0.032  0.00  0.00     0.036 A 
ATOM      5  C   UNL d   1       1.318   1.417   0.012  0.00  0.00     0.036 A 
ATOM      6  C   UNL d   1      -1.121   1.403  -0.007  0.00  0.00     0.013 A 
ATOM      7  C   UNL d   1      -2.368  -0.698   0.036  0.00  0.00    -0.050 A 
ATOM      8  C   UNL d   1       2.541  -0.672  -0.014  0.00  0.00     0.066 A 
ATOM      9  C   UNL d   1       2.537   0.727  -0.012  0.00  0.00     0.066 A 
ATOM     10  C   UNL d   1      -2.331   0.704  -0.015  0.00  0.00     0.009 A 
ATOM     11  C   UNL d   1       3.762  -1.421  -0.085  0.00  0.00     0.101 C 
ATOM     12  C   UNL d   1       3.754   1.486  -0.044  0.00  0.00     0.101 C 
ATOM     13  N   UNL d   1       4.739  -2.043  -0.156  0.00  0.00    -0.191 NA
ATOM     14  N   UNL d   1       4.724   2.121  -0.069  0.00  0.00    -0.191 NA
ENDROOT
BRANCH   7  15
ATOM     15  C   UNL d   1      -3.690  -1.488   0.041  0.00  0.00    -0.024 C 
ATOM     16  C   UNL d   1      -4.943  -0.584  -0.004  0.00  0.00     0.019 C 
ATOM     17  C   UNL d   1      -3.746  -2.419  -1.190  0.00  0.00     0.019 C 
ATOM     18  C   UNL d   1      -3.793  -2.344   1.321  0.00  0.00     0.019 C 
ENDBRANCH   7  15
TORSDOF 1
