REMARK  4 active torsions:
REMARK  status: ('A' for Active; 'I' for Inactive)
REMARK    1  A    between atoms: C_9  and  N_3 
REMARK    2  A    between atoms: C_7  and  C_4 
REMARK    3  A    between atoms: C_8  and  C_5 
REMARK    4  A    between atoms: O_21  and  C_15 
ROOT
ATOM      1  N   UNL d   1       1.158  -0.188   0.124  0.00  0.00    -0.301 N 
ATOM      2  HN  UNL d   1       2.155  -0.384   0.213  1.00  0.00     0.187 HD
ATOM      3  N   UNL d   1       0.148  -1.106   0.101  0.00  0.00    -0.283 N 
ATOM      4  C   UNL d   1       0.608   0.985   0.012  0.00  0.00     0.038 A 
ATOM      5  C   UNL d   1      -1.182  -0.513  -0.014  0.00  0.00     0.147 A 
ATOM      6  C   UNL d   1      -0.895   0.985  -0.060  0.00  0.00     0.091 A 
ENDROOT
BRANCH   4   7
ATOM      7  C   UNL d   1       1.380   2.249  -0.059  0.00  0.00    -0.012 A 
ATOM      8  C   UNL d   1       2.776   2.208   0.003  0.00  0.00     0.016 A 
ATOM      9  C   UNL d   1       3.526   3.388  -0.091  0.00  0.00     0.037 A 
ATOM     10  C   UNL d   1       2.881   4.614  -0.246  0.00  0.00     0.068 A 
ATOM     11  C   UNL d   1       1.489   4.653  -0.327  0.00  0.00     0.037 A 
ATOM     12  C   UNL d   1       0.736   3.480  -0.224  0.00  0.00     0.016 A 
BRANCH  10  13
ATOM     13  O   UNL d   1       3.502   5.826  -0.382  0.00  0.00    -0.356 OA
ATOM     14  C   UNL d   1       4.767   5.944   0.260  0.00  0.00     0.210 C 
ENDBRANCH  10  13
ENDBRANCH   4   7
BRANCH   3  15
ATOM     15  C   UNL d   1       0.419  -2.473   0.055  0.00  0.00     0.051 A 
ATOM     16  C   UNL d   1       1.614  -2.985   0.583  0.00  0.00     0.031 A 
ATOM     17  C   UNL d   1       1.882  -4.358   0.599  0.00  0.00     0.002 A 
ATOM     18  C   UNL d   1       0.964  -5.252   0.055  0.00  0.00     0.000 A 
ATOM     19  C   UNL d   1      -0.218  -4.772  -0.496  0.00  0.00     0.002 A 
ATOM     20  C   UNL d   1      -0.488  -3.399  -0.487  0.00  0.00     0.031 A 
ENDBRANCH   3  15
BRANCH   5  21
ATOM     21  C   UNL d   1      -2.091  -0.861   1.158  0.00  0.00    -0.033 A 
ATOM     22  C   UNL d   1      -1.579  -1.067   2.452  0.00  0.00     0.011 A 
ATOM     23  C   UNL d   1      -2.426  -1.383   3.515  0.00  0.00     0.024 A 
ATOM     24  C   UNL d   1      -3.796  -1.481   3.298  0.00  0.00     0.034 A 
ATOM     25  C   UNL d   1      -4.326  -1.266   2.028  0.00  0.00     0.024 A 
ATOM     26 CL   UNL d   1      -4.844  -1.865   4.608  0.00  0.00    -0.084 Cl
ATOM     27  C   UNL d   1      -3.478  -0.956   0.961  0.00  0.00     0.011 A 
ENDBRANCH   5  21
TORSDOF 4
