REMARK  8 active torsions:
REMARK  status: ('A' for Active; 'I' for Inactive)
REMARK    1  A    between atoms: C_2  and  N_1 
REMARK       I    between atoms: C_3  and  N_1 
REMARK    2  A    between atoms: N_12  and  C_2 
REMARK    3  A    between atoms: O_13  and  C_3 
REMARK    4  A    between atoms: N_6  and  C_14 
REMARK    5  A    between atoms: C_16  and  N_12 
REMARK    6  A    between atoms: C_17  and  O_13 
REMARK    7  A    between atoms: C_14  and  C_15 
REMARK    8  A    between atoms: C_15  and  C_16 
ROOT
ATOM      1  N   UNL d   1      -1.143  -0.620   1.264  0.00  0.00    -0.367 N 
ATOM      2  H   UNL d   1      -0.678  -1.288   0.648  0.00  0.00     0.161 HD
ENDROOT
BRANCH   1   3
ATOM      3  C   UNL d   1      -1.051   0.692   0.893  0.00  0.00     0.176 C 
ATOM      4  S   UNL d   1      -1.503   2.009   1.817  0.00  0.00    -0.041 SA
BRANCH   3   5
ATOM      5  N   UNL d   1      -0.591   0.924  -0.381  0.00  0.00    -0.279 N 
ATOM      6  C   UNL d   1      -0.269   0.019  -1.363  0.00  0.00     0.366 C 
ATOM      7  O   UNL d   1      -0.203  -1.195  -1.216  0.00  0.00    -0.238 OA
ATOM      8  H   UNL d   1      -0.602   1.887  -0.683  0.00  0.00     0.173 HD
BRANCH   6   9
ATOM      9  O   UNL d   1      -0.037   0.684  -2.523  0.00  0.00    -0.304 OA
BRANCH   9  10
ATOM     10  C   UNL d   1       0.311  -0.128  -3.654  0.00  0.00     0.176 C 
ATOM     11  C   UNL d   1      -0.936  -0.680  -4.319  0.00  0.00     0.034 C 
ENDBRANCH   9  10
ENDBRANCH   6   9
ENDBRANCH   3   5
ENDBRANCH   1   3
BRANCH   1  12
ATOM     12  C   UNL d   1      -1.986  -1.181   2.310  0.00  0.00     0.123 C 
BRANCH  12  13
ATOM     13  C   UNL d   1      -3.474  -1.086   1.967  0.00  0.00     0.040 C 
BRANCH  13  14
ATOM     14  C   UNL d   1      -3.803  -1.803   0.656  0.00  0.00     0.130 C 
BRANCH  14  15
ATOM     15  N   UNL d   1      -5.203  -1.696   0.306  0.00  0.00    -0.352 N 
ATOM     16  C   UNL d   1      -5.756  -0.730  -0.490  0.00  0.00     0.182 A 
ATOM     17  N   UNL d   1      -7.043  -0.936  -0.663  0.00  0.00    -0.361 N 
ATOM     18  C   UNL d   1      -7.325  -2.073   0.048  0.00  0.00     0.106 A 
ATOM     19  HN  UNL d   1      -7.693  -0.370  -1.210  1.00  0.00     0.166 HD
ATOM     20  C   UNL d   1      -6.201  -2.558   0.661  0.00  0.00     0.108 A 
ENDBRANCH  14  15
ENDBRANCH  13  14
ENDBRANCH  12  13
ENDBRANCH   1  12
TORSDOF 8
