REMARK  6 active torsions:
REMARK  status: ('A' for Active; 'I' for Inactive)
REMARK    1  A    between atoms: N_5  and  C_1 
REMARK       I    between atoms: C_6  and  N_5 
REMARK       I    between atoms: N_12  and  C_6 
REMARK    2  A    between atoms: O_16  and  C_8 
REMARK    3  A    between atoms: O_17  and  C_9 
REMARK    4  A    between atoms: C_18  and  N_12 
REMARK    5  A    between atoms: C_14  and  C_21 
REMARK    6  A    between atoms: C_21  and  C_18 
ROOT
ATOM      1  N   UNL d   1       0.798  -3.211  -0.180  0.00  0.00    -0.308 N 
ATOM      2  C   UNL d   1      -0.318  -3.968   0.072  0.00  0.00     0.320 C 
ATOM      3  O   UNL d   1      -1.424  -3.551   0.383  0.00  0.00    -0.247 OA
ATOM      4  N   UNL d   1      -0.091  -5.325  -0.071  0.00  0.00    -0.343 N 
ATOM      5  H   UNL d   1       1.689  -3.682  -0.119  0.00  0.00     0.170 HD
ATOM      6  H   UNL d   1       0.812  -5.672   0.212  0.00  0.00     0.164 HD
ENDROOT
BRANCH   4   7
ATOM      7  C   UNL d   1      -1.242  -6.208   0.054  0.00  0.00     0.129 C 
BRANCH   7   8
ATOM      8  C   UNL d   1      -0.937  -7.704   0.008  0.00  0.00     0.058 C 
BRANCH   8   9
ATOM      9  C   UNL d   1      -0.359  -8.190  -1.297  0.00  0.00    -0.054 A 
ATOM     10  C   UNL d   1       1.027  -8.372  -1.428  0.00  0.00     0.046 A 
ATOM     11  C   UNL d   1       1.597  -8.829  -2.626  0.00  0.00     0.102 A 
ATOM     12  C   UNL d   1       0.750  -9.137  -3.704  0.00  0.00     0.101 A 
ATOM     13  C   UNL d   1      -0.631  -8.937  -3.579  0.00  0.00     0.040 A 
ATOM     14  C   UNL d   1      -1.185  -8.469  -2.388  0.00  0.00     0.010 A 
BRANCH  11  15
ATOM     15  O   UNL d   1       2.947  -8.965  -2.809  0.00  0.00    -0.353 OA
ATOM     16  C   UNL d   1       3.808  -8.607  -1.735  0.00  0.00     0.210 C 
ENDBRANCH  11  15
BRANCH  12  17
ATOM     17  O   UNL d   1       1.121  -9.585  -4.946  0.00  0.00    -0.353 OA
ATOM     18  C   UNL d   1       2.261 -10.434  -5.000  0.00  0.00     0.210 C 
ENDBRANCH  12  17
ENDBRANCH   8   9
ENDBRANCH   7   8
ENDBRANCH   4   7
BRANCH   1  19
ATOM     19  C   UNL d   1       0.838  -1.811  -0.238  0.00  0.00     0.054 A 
ATOM     20  C   UNL d   1      -0.226  -0.861  -0.533  0.00  0.00     0.008 A 
ATOM     21  C   UNL d   1       0.218   0.462  -0.393  0.00  0.00     0.017 A 
ATOM     22  C   UNL d   1      -1.577  -1.025  -0.946  0.00  0.00     0.015 A 
ATOM     23  C   UNL d   1      -0.644   1.568  -0.564  0.00  0.00     0.020 A 
ATOM     24  S   UNL d   1       1.895   0.532  -0.020  0.00  0.00    -0.099 SA
ATOM     25  C   UNL d   1      -1.978   1.351  -0.908  0.00  0.00     0.001 A 
ATOM     26  C   UNL d   1      -2.439   0.064  -1.110  0.00  0.00     0.001 A 
ATOM     27  C   UNL d   1       2.039  -1.163  -0.028  0.00  0.00     0.081 A 
ENDBRANCH   1  19
TORSDOF 6
