REMARK  6 active torsions:
REMARK  status: ('A' for Active; 'I' for Inactive)
REMARK    1  A    between atoms: N_5  and  S_1 
REMARK    2  A    between atoms: C_11  and  S_1 
REMARK    3  A    between atoms: S_2  and  N_6 
REMARK    4  A    between atoms: C_12  and  S_2 
REMARK    5  A    between atoms: N_7  and  N_5 
REMARK    6  A    between atoms: N_6  and  N_9 
ROOT
ATOM      1  C   UNL d   1      -1.143   4.679   5.445  0.00  0.00    -0.026 C 
ATOM      2  C   UNL d   1      -1.417   5.623   4.217  0.00  0.00    -0.026 C 
ATOM      3  N   UNL d   1      -3.806   6.902   6.581  0.00  0.00    -0.299 N 
ATOM      4  HN  UNL d   1      -4.230   6.497   7.416  1.00  0.00     0.187 HD
ATOM      5  N   UNL d   1      -3.682   2.838   3.724  0.00  0.00    -0.299 N 
ATOM      6  HN  UNL d   1      -4.343   3.129   3.003  1.00  0.00     0.187 HD
ATOM      7  C   UNL d   1      -2.765   6.377   6.015  0.00  0.00     0.006 C 
ATOM      8  C   UNL d   1      -2.647   3.561   4.013  0.00  0.00     0.006 C 
ATOM      9  C   UNL d   1      -2.077   6.887   4.790  0.00  0.00     0.064 C 
ATOM     10  C   UNL d   1      -2.409   4.861   3.297  0.00  0.00     0.064 C 
ATOM     11  C   UNL d   1      -2.077   5.170   6.589  0.00  0.00     0.064 C 
ATOM     12  C   UNL d   1      -1.557   3.263   4.994  0.00  0.00     0.064 C 
ATOM     13  C   UNL d   1       0.314   4.637   5.923  0.00  0.00     0.016 C 
ATOM     14  C   UNL d   1      -0.188   6.070   3.416  0.00  0.00     0.016 C 
ENDROOT
BRANCH   3  15
ATOM     15  N   UNL d   1      -4.325   8.089   5.959  0.00  0.00    -0.223 N 
ATOM     16  H   UNL d   1      -3.783   8.673   5.321  0.00  0.00     0.200 HD
BRANCH  15  17
ATOM     17  S   UNL d   1      -5.737   8.854   6.485  0.00  0.00     0.276 S 
ATOM     18  O   UNL d   1      -6.823   7.894   6.527  0.00  0.00    -0.199 OA
ATOM     19  O   UNL d   1      -5.844  10.072   5.703  0.00  0.00    -0.199 OA
BRANCH  17  20
ATOM     20  C   UNL d   1      -5.319   9.311   8.143  0.00  0.00     0.081 A 
ATOM     21  C   UNL d   1      -4.735  10.556   8.401  0.00  0.00     0.026 A 
ATOM     22  C   UNL d   1      -4.453  10.920   9.719  0.00  0.00     0.008 A 
ATOM     23  C   UNL d   1      -4.770  10.056  10.777  0.00  0.00    -0.062 A 
ATOM     24  C   UNL d   1      -5.360   8.817  10.499  0.00  0.00     0.008 A 
ATOM     25  C   UNL d   1      -4.494  10.467  12.194  0.00  0.00     0.048 C 
ATOM     26  C   UNL d   1      -5.638   8.443   9.185  0.00  0.00     0.026 A 
ENDBRANCH  17  20
ENDBRANCH  15  17
ENDBRANCH   3  15
BRANCH   5  27
ATOM     27  N   UNL d   1      -3.869   1.623   4.446  0.00  0.00    -0.223 N 
ATOM     28  H   UNL d   1      -3.302   1.314   5.234  0.00  0.00     0.200 HD
BRANCH  27  29
ATOM     29  S   UNL d   1      -5.176   0.584   4.131  0.00  0.00     0.276 S 
ATOM     30  O   UNL d   1      -5.162   0.217   2.732  0.00  0.00    -0.199 OA
ATOM     31  O   UNL d   1      -5.123  -0.429   5.166  0.00  0.00    -0.199 OA
BRANCH  29  32
ATOM     32  C   UNL d   1      -6.606   1.595   4.438  0.00  0.00     0.081 A 
ATOM     33  C   UNL d   1      -7.201   2.285   3.379  0.00  0.00     0.026 A 
ATOM     34  C   UNL d   1      -8.385   2.996   3.594  0.00  0.00     0.008 A 
ATOM     35  C   UNL d   1      -8.986   3.012   4.860  0.00  0.00    -0.062 A 
ATOM     36  C   UNL d   1      -8.384   2.311   5.912  0.00  0.00     0.008 A 
ATOM     37  C   UNL d   1     -10.272   3.761   5.068  0.00  0.00     0.048 C 
ATOM     38  C   UNL d   1      -7.200   1.597   5.704  0.00  0.00     0.026 A 
ENDBRANCH  29  32
ENDBRANCH  27  29
ENDBRANCH   5  27
TORSDOF 6
