REMARK  1 active torsions:
REMARK  status: ('A' for Active; 'I' for Inactive)
REMARK    1  A    between atoms: C_2  and  C_1 
REMARK       I    between atoms: N_5  and  C_2 
ROOT
ATOM      1  C   UNL d   1       1.371   1.187   0.018  0.00  0.00     0.048 A 
ATOM      2  C   UNL d   1       0.755  -0.076   0.023  0.00  0.00     0.022 A 
ATOM      3  I   UNL d   1      -1.318  -0.422  -0.042  0.00  0.00    -0.043 I 
ATOM      4  C   UNL d   1       2.781   1.243  -0.002  0.00  0.00     0.018 A 
ATOM      5  C   UNL d   1       1.548  -1.240   0.017  0.00  0.00     0.019 A 
ATOM      6  C   UNL d   1       3.558   0.083  -0.008  0.00  0.00     0.001 A 
ATOM      7  C   UNL d   1       2.939  -1.159   0.002  0.00  0.00     0.001 A 
ENDROOT
BRANCH   1   8
ATOM      8  C   UNL d   1       0.693   2.522   0.009  0.00  0.00     0.252 C 
ATOM      9  O   UNL d   1       1.247   3.471  -0.540  0.00  0.00    -0.268 OA
ATOM     10  N   UNL d   1      -0.501   2.642   0.677  0.00  0.00    -0.361 N 
ATOM     11  C   UNL d   1      -1.233   3.884   0.744  0.00  0.00     0.149 C 
ATOM     12  H   UNL d   1      -0.923   1.820   1.086  0.00  0.00     0.162 HD
ENDBRANCH   1   8
TORSDOF 1
