REMARK  4 active torsions:
REMARK  status: ('A' for Active; 'I' for Inactive)
REMARK    1  A    between atoms: C_7  and  N_1 
REMARK    2  A    between atoms: S_9  and  C_2 
REMARK    3  A    between atoms: C_13  and  S_9 
REMARK    4  A    between atoms: C_15  and  C_13 
ROOT
ATOM      1  N   UNL d   1       2.350  -0.633  -0.080  0.00  0.00    -0.257 N 
ATOM      2  C   UNL d   1       2.284   0.757  -0.180  0.00  0.00     0.155 A 
ATOM      3  C   UNL d   1       1.189  -1.404   0.029  0.00  0.00     0.266 A 
ATOM      4  N   UNL d   1       1.171   1.419  -0.183  0.00  0.00    -0.335 N 
ATOM      5  HN  UNL d   1       1.175   2.437  -0.248  1.00  0.00     0.168 HD
ATOM      6  C   UNL d   1      -0.086  -0.667   0.007  0.00  0.00     0.059 A 
ATOM      7  C   UNL d   1      -0.033   0.719  -0.095  0.00  0.00     0.049 A 
ATOM      8  O   UNL d   1       1.152  -2.627   0.143  0.00  0.00    -0.267 OA
ATOM      9  C   UNL d   1      -1.310  -1.341   0.081  0.00  0.00     0.019 A 
ATOM     10  C   UNL d   1      -1.232   1.436  -0.123  0.00  0.00     0.030 A 
ATOM     11  C   UNL d   1      -2.499  -0.617   0.048  0.00  0.00     0.001 A 
ATOM     12  C   UNL d   1      -2.461   0.773  -0.053  0.00  0.00     0.002 A 
ENDROOT
BRANCH   1  13
ATOM     13  C   UNL d   1       3.580  -1.352  -0.072  0.00  0.00     0.056 A 
ATOM     14  C   UNL d   1       4.040  -1.961  -1.262  0.00  0.00    -0.034 A 
ATOM     15  C   UNL d   1       5.205  -2.744  -1.222  0.00  0.00     0.009 A 
ATOM     16  C   UNL d   1       3.303  -1.873  -2.571  0.00  0.00     0.050 C 
ATOM     17  C   UNL d   1       5.906  -2.916  -0.032  0.00  0.00     0.001 A 
ATOM     18  C   UNL d   1       5.447  -2.320   1.139  0.00  0.00     0.009 A 
ATOM     19  C   UNL d   1       4.275  -1.546   1.142  0.00  0.00    -0.034 A 
ATOM     20  C   UNL d   1       3.816  -0.984   2.460  0.00  0.00     0.050 C 
ENDBRANCH   1  13
BRANCH   2  21
ATOM     21  S   UNL d   1       3.781   1.684  -0.329  0.00  0.00    -0.089 SA
BRANCH  21  22
ATOM     22  C   UNL d   1       3.101   3.343  -0.634  0.00  0.00     0.121 C 
BRANCH  22  23
ATOM     23  C   UNL d   1       4.112   4.447  -0.870  0.00  0.00    -0.049 A 
ATOM     24  C   UNL d   1       5.262   4.274  -1.654  0.00  0.00     0.008 A 
ATOM     25  C   UNL d   1       6.116   5.351  -1.919  0.00  0.00     0.001 A 
ATOM     26  C   UNL d   1       5.822   6.619  -1.425  0.00  0.00     0.000 A 
ATOM     27  C   UNL d   1       4.675   6.815  -0.662  0.00  0.00     0.001 A 
ATOM     28  C   UNL d   1       3.826   5.739  -0.390  0.00  0.00     0.008 A 
ENDBRANCH  22  23
ENDBRANCH  21  22
ENDBRANCH   2  21
TORSDOF 4
