REMARK  5 active torsions:
REMARK  status: ('A' for Active; 'I' for Inactive)
REMARK    1  A    between atoms: C_2  and  C_1 
REMARK    2  A    between atoms: C_14  and  C_2 
REMARK    3  A    between atoms: C_7  and  C_5 
REMARK    4  A    between atoms: C_10  and  C_12 
REMARK    5  A    between atoms: O_18  and  C_14 
ROOT
ATOM      1  C   UNL d   1      -0.695  -1.338  -0.630  0.00  0.00     0.146 C 
ATOM      2  C   UNL d   1      -0.538   0.109  -1.127  0.00  0.00     0.039 C 
ATOM      3  C   UNL d   1      -0.316  -1.208   0.858  0.00  0.00     0.039 A 
ATOM      4  C   UNL d   1       1.475  -1.138  -0.735  0.00  0.00     0.132 C 
ATOM      5  C   UNL d   1       1.015   0.236  -1.223  0.00  0.00     0.027 C 
ATOM      6  C   UNL d   1       1.226  -1.101   0.769  0.00  0.00     0.027 A 
ATOM      7  O   UNL d   1       0.456  -2.004  -1.219  0.00  0.00    -0.366 OA
ATOM      8  C   UNL d   1      -0.378   0.277   1.267  0.00  0.00     0.003 A 
ATOM      9  C   UNL d   1       1.167   0.380   1.157  0.00  0.00     0.002 A 
ATOM     10  C   UNL d   1      -0.873   1.062   0.042  0.00  0.00    -0.002 C 
ATOM     11  C   UNL d   1       1.354   1.234  -0.111  0.00  0.00    -0.002 C 
ATOM     12  C   UNL d   1       0.159   2.177  -0.082  0.00  0.00     0.011 C 
ENDROOT
BRANCH   1  13
ATOM     13  C   UNL d   1      -1.972  -2.116  -0.911  0.00  0.00     0.357 C 
ATOM     14  F   UNL d   1      -2.167  -2.219  -2.257  0.00  0.00    -0.191 F 
ATOM     15  F   UNL d   1      -1.795  -3.412  -0.474  0.00  0.00    -0.191 F 
BRANCH  13  16
ATOM     16  C   UNL d   1      -3.200  -1.550  -0.211  0.00  0.00     0.219 C 
ATOM     17  O   UNL d   1      -3.670  -0.430  -0.380  0.00  0.00    -0.645 OA
BRANCH  16  18
ATOM     18  O   UNL d   1      -3.761  -2.441   0.655  0.00  0.00    -0.772 OA
ATOM     19  H   UNL d   1      -3.298  -3.311   0.613  0.00  0.00     0.167 HD
ENDBRANCH  16  18
ENDBRANCH  13  16
ENDBRANCH   1  13
TORSDOF 5
