REMARK  8 active torsions:
REMARK  status: ('A' for Active; 'I' for Inactive)
REMARK    1  A    between atoms: C_2  and  C_1 
REMARK       I    between atoms: N_3  and  C_1 
REMARK    2  A    between atoms: N_5  and  C_2 
REMARK    3  A    between atoms: C_10  and  N_3 
REMARK    4  A    between atoms: C_4  and  C_7 
REMARK    5  A    between atoms: O_14  and  C_4 
REMARK    6  A    between atoms: C_13  and  N_5 
REMARK    7  A    between atoms: C_17  and  C_13 
REMARK    8  A    between atoms: C_18  and  O_14 
ROOT
ATOM      1  C   UNL d   1       0.879  -0.157   0.382  0.00  0.00     0.283 C 
ATOM      2  N   UNL d   1       0.164   0.958   0.767  0.00  0.00    -0.321 N 
ATOM      3  O   UNL d   1       0.469  -1.305   0.272  0.00  0.00    -0.265 OA
ATOM      4  H   UNL d   1       0.546   1.867   0.534  0.00  0.00     0.169 HD
ENDROOT
BRANCH   1   5
ATOM      5  C   UNL d   1       2.330   0.124   0.047  0.00  0.00     0.165 C 
ATOM      6  S   UNL d   1       3.420   0.019   1.301  0.00  0.00    -0.055 SA
BRANCH   5   7
ATOM      7  N   UNL d   1       2.729   0.431  -1.228  0.00  0.00    -0.372 N 
ATOM      8  H   UNL d   1       3.732   0.364  -1.371  0.00  0.00     0.161 HD
BRANCH   7   9
ATOM      9  C   UNL d   1       1.896   0.486  -2.417  0.00  0.00     0.159 C 
BRANCH   9  10
ATOM     10  C   UNL d   1       2.577   1.181  -3.576  0.00  0.00    -0.041 A 
ATOM     11  C   UNL d   1       2.102   0.964  -4.879  0.00  0.00     0.009 A 
ATOM     12  C   UNL d   1       2.694   1.599  -5.976  0.00  0.00     0.001 A 
ATOM     13  C   UNL d   1       3.771   2.461  -5.788  0.00  0.00     0.000 A 
ATOM     14  C   UNL d   1       4.247   2.702  -4.502  0.00  0.00     0.001 A 
ATOM     15  C   UNL d   1       3.645   2.080  -3.405  0.00  0.00     0.009 A 
ENDBRANCH   9  10
ENDBRANCH   7   9
ENDBRANCH   5   7
ENDBRANCH   1   5
BRANCH   2  16
ATOM     16  C   UNL d   1      -1.025   0.934   1.528  0.00  0.00     0.035 A 
ATOM     17  C   UNL d   1      -1.369  -0.152   2.343  0.00  0.00     0.030 A 
ATOM     18  C   UNL d   1      -2.476  -0.075   3.200  0.00  0.00     0.020 A 
ATOM     19  C   UNL d   1      -3.267   1.078   3.223  0.00  0.00     0.039 A 
ATOM     20  C   UNL d   1      -2.954   2.140   2.365  0.00  0.00     0.020 A 
ATOM     21  C   UNL d   1      -1.824   2.078   1.543  0.00  0.00     0.030 A 
BRANCH  19  22
ATOM     22  C   UNL d   1      -4.393   1.265   4.177  0.00  0.00     0.293 C 
ATOM     23  O   UNL d   1      -5.205   2.171   4.083  0.00  0.00    -0.259 OA
BRANCH  22  24
ATOM     24  O   UNL d   1      -4.289   0.383   5.201  0.00  0.00    -0.318 OA
BRANCH  24  25
ATOM     25  C   UNL d   1      -5.097   0.664   6.355  0.00  0.00     0.174 C 
ATOM     26  C   UNL d   1      -4.246   1.408   7.369  0.00  0.00     0.034 C 
ENDBRANCH  24  25
ENDBRANCH  22  24
ENDBRANCH  19  22
ENDBRANCH   2  16
TORSDOF 8
