REMARK  5 active torsions:
REMARK  status: ('A' for Active; 'I' for Inactive)
REMARK    1  A    between atoms: N_2  and  C_1 
REMARK    2  A    between atoms: N_9  and  C_3 
REMARK    3  A    between atoms: C_8  and  C_4 
REMARK    4  A    between atoms: O_15  and  C_8 
REMARK    5  A    between atoms: C_14  and  N_9 
ROOT
ATOM      1  C   UNL d   1       0.834   1.161   0.213  0.00  0.00     0.147 A 
ATOM      2  C   UNL d   1      -0.555   1.175   0.036  0.00  0.00     0.139 A 
ATOM      3  C   UNL d   1       0.842  -1.241   0.015  0.00  0.00     0.057 A 
ATOM      4  C   UNL d   1       1.541  -0.053   0.191  0.00  0.00     0.059 A 
ATOM      5  N   UNL d   1      -1.222   0.005  -0.150  0.00  0.00    -0.349 N 
ATOM      6  HN  UNL d   1      -2.231   0.007  -0.296  1.00  0.00     0.167 HD
ATOM      7  C   UNL d   1      -0.532  -1.165  -0.139  0.00  0.00     0.107 A 
ENDROOT
BRANCH   2   8
ATOM      8  N   UNL d   1      -1.297   2.363  -0.014  0.00  0.00    -0.340 N 
ATOM      9  H   UNL d   1      -0.974   3.089   0.622  0.00  0.00     0.167 HD
BRANCH   8  10
ATOM     10  C   UNL d   1      -2.458   2.680  -0.733  0.00  0.00     0.033 A 
ATOM     11  C   UNL d   1      -3.332   3.657  -0.232  0.00  0.00     0.031 A 
ATOM     12  C   UNL d   1      -4.476   4.030  -0.944  0.00  0.00     0.026 A 
ATOM     13  C   UNL d   1      -4.755   3.426  -2.167  0.00  0.00     0.034 A 
ATOM     14  C   UNL d   1      -3.921   2.428  -2.662  0.00  0.00     0.026 A 
ATOM     15 CL   UNL d   1      -6.130   3.922  -3.073  0.00  0.00    -0.084 Cl
ATOM     16  C   UNL d   1      -2.791   2.044  -1.935  0.00  0.00     0.031 A 
ENDBRANCH   8  10
ENDBRANCH   2   8
BRANCH   1  17
ATOM     17  N   UNL d   1       1.586   2.398   0.425  0.00  0.00    -0.112 N 
ATOM     18  O   UNL d   1       0.964   3.421   0.745  0.00  0.00    -0.532 OA
ATOM     19  O   UNL d   1       2.818   2.341   0.311  0.00  0.00    -0.532 OA
ENDBRANCH   1  17
BRANCH   3  20
ATOM     20  C   UNL d   1       1.486  -2.579  -0.017  0.00  0.00     0.294 C 
ATOM     21  O   UNL d   1       0.863  -3.624  -0.117  0.00  0.00    -0.259 OA
BRANCH  20  22
ATOM     22  O   UNL d   1       2.827  -2.449   0.073  0.00  0.00    -0.322 OA
ATOM     23  C   UNL d   1       3.546  -3.686   0.036  0.00  0.00     0.213 C 
ENDBRANCH  20  22
ENDBRANCH   3  20
TORSDOF 5
