REMARK  5 active torsions:
REMARK  status: ('A' for Active; 'I' for Inactive)
REMARK    1  A    between atoms: C_4  and  C_2 
REMARK    2  A    between atoms: C_11  and  C_3 
REMARK       I    between atoms: N_8  and  C_4 
REMARK    3  A    between atoms: C_5  and  N_9 
REMARK    4  A    between atoms: N_9  and  N_8 
REMARK    5  A    between atoms: C_14  and  N_10 
ROOT
ATOM      1  C   UNL d   1      -0.217   2.500   0.034  0.00  0.00     0.277 C 
ATOM      2  N   UNL d   1      -1.509   2.963  -0.135  0.00  0.00    -0.263 N 
ATOM      3  O   UNL d   1       0.664   3.359   0.121  0.00  0.00    -0.265 OA
ATOM      4  H   UNL d   1      -1.589   3.978  -0.188  0.00  0.00     0.190 HD
ENDROOT
BRANCH   1   5
ATOM      5  C   UNL d   1       0.097   1.080   0.128  0.00  0.00     0.075 A 
ATOM      6  S   UNL d   1      -0.878  -0.164  -0.512  0.00  0.00    -0.084 SA
ATOM      7  C   UNL d   1       0.267  -1.391  -0.134  0.00  0.00     0.016 A 
ATOM      8  C   UNL d   1       1.365  -0.847   0.501  0.00  0.00     0.021 A 
ATOM      9  C   UNL d   1       1.272   0.567   0.641  0.00  0.00     0.026 A 
BRANCH   7  10
ATOM     10  C   UNL d   1       0.009  -2.804  -0.469  0.00  0.00    -0.019 A 
ATOM     11  C   UNL d   1      -0.710  -3.181  -1.615  0.00  0.00     0.014 A 
ATOM     12  C   UNL d   1      -0.927  -4.530  -1.919  0.00  0.00     0.024 A 
ATOM     13  C   UNL d   1      -0.419  -5.519  -1.083  0.00  0.00     0.034 A 
ATOM     14  C   UNL d   1       0.306  -5.173   0.053  0.00  0.00     0.024 A 
ATOM     15 CL   UNL d   1      -0.685  -7.177  -1.456  0.00  0.00    -0.084 Cl
ATOM     16  C   UNL d   1       0.518  -3.823   0.356  0.00  0.00     0.014 A 
ENDBRANCH   7  10
ENDBRANCH   1   5
BRANCH   2  17
ATOM     17  N   UNL d   1      -2.698   2.280   0.117  0.00  0.00    -0.274 N 
ATOM     18  H   UNL d   1      -2.664   1.440   0.684  0.00  0.00     0.189 HD
BRANCH  17  19
ATOM     19  C   UNL d   1      -3.822   2.575  -0.608  0.00  0.00     0.187 C 
ATOM     20  N   UNL d   1      -5.029   2.200  -0.102  0.00  0.00    -0.358 N 
ATOM     21  H   UNL d   1      -5.778   2.463  -0.734  0.00  0.00     0.162 HD
ATOM     22  S   UNL d   1      -3.846   3.465  -2.028  0.00  0.00    -0.040 SA
BRANCH  20  23
ATOM     23  C   UNL d   1      -5.453   1.943   1.293  0.00  0.00     0.021 C 
ATOM     24  C   UNL d   1      -4.751   2.880   2.292  0.00  0.00     0.037 C 
ATOM     25  C   UNL d   1      -6.972   2.223   1.366  0.00  0.00     0.037 C 
ATOM     26  C   UNL d   1      -5.218   0.479   1.683  0.00  0.00     0.037 C 
ENDBRANCH  20  23
ENDBRANCH  17  19
ENDBRANCH   2  17
TORSDOF 5
