REMARK  7 active torsions:
REMARK  status: ('A' for Active; 'I' for Inactive)
REMARK    1  A    between atoms: C_13  and  C_2 
REMARK    2  A    between atoms: C_10  and  C_3 
REMARK    3  A    between atoms: S_16  and  C_4 
REMARK    4  A    between atoms: N_5  and  C_13 
REMARK    5  A    between atoms: C_24  and  S_16 
REMARK    6  A    between atoms: C_17  and  C_24 
REMARK       I    between atoms: N_18  and  C_17 
REMARK    7  A    between atoms: C_26  and  N_18 
ROOT
ATOM      1  N   UNL d   1       1.045   0.082   0.358  0.00  0.00    -0.318 N 
ATOM      2  C   UNL d   1       0.172   1.062  -0.061  0.00  0.00     0.118 A 
ATOM      3  C   UNL d   1       0.294  -1.058   0.440  0.00  0.00     0.162 A 
ATOM      4  N   UNL d   1      -0.996   0.503  -0.325  0.00  0.00    -0.285 N 
ATOM      5  HN  UNL d   1      -1.822   0.982  -0.682  1.00  0.00     0.188 HD
ATOM      6  N   UNL d   1      -0.902  -0.836  -0.033  0.00  0.00    -0.278 N 
ATOM      7  HN  UNL d   1      -1.636  -1.532  -0.163  1.00  0.00     0.189 HD
ATOM      8  C   UNL d   1       2.461   0.207   0.598  0.00  0.00     0.160 C 
ENDROOT
BRANCH   3   9
ATOM      9  S   UNL d   1       0.863  -2.533   1.137  0.00  0.00    -0.083 SA
BRANCH   9  10
ATOM     10  C   UNL d   1      -0.584  -3.609   1.008  0.00  0.00     0.185 C 
BRANCH  10  11
ATOM     11  C   UNL d   1      -1.657  -3.281   2.037  0.00  0.00     0.231 C 
ATOM     12  N   UNL d   1      -2.478  -2.229   1.673  0.00  0.00    -0.327 N 
ATOM     13  H   UNL d   1      -2.227  -1.729   0.818  0.00  0.00     0.169 HD
ATOM     14  O   UNL d   1      -1.782  -3.977   3.044  0.00  0.00    -0.272 OA
BRANCH  12  15
ATOM     15  C   UNL d   1      -3.664  -1.807   2.301  0.00  0.00     0.034 A 
ATOM     16  C   UNL d   1      -4.089  -2.277   3.545  0.00  0.00     0.031 A 
ATOM     17  C   UNL d   1      -5.343  -1.918   4.046  0.00  0.00     0.026 A 
ATOM     18  C   UNL d   1      -6.173  -1.083   3.305  0.00  0.00     0.034 A 
ATOM     19  C   UNL d   1      -5.737  -0.557   2.092  0.00  0.00     0.026 A 
ATOM     20 CL   UNL d   1      -7.752  -0.717   3.881  0.00  0.00    -0.084 Cl
ATOM     21  C   UNL d   1      -4.476  -0.906   1.599  0.00  0.00     0.031 A 
ENDBRANCH  12  15
ENDBRANCH  10  11
ENDBRANCH   9  10
ENDBRANCH   3   9
BRANCH   2  22
ATOM     22  C   UNL d   1       0.481   2.517  -0.186  0.00  0.00     0.209 C 
BRANCH  22  23
ATOM     23  N   UNL d   1       0.868   2.829  -1.559  0.00  0.00    -0.317 N 
ATOM     24  C   UNL d   1      -0.118   3.099  -2.499  0.00  0.00     0.110 A 
ATOM     25  C   UNL d   1       0.177   3.346  -3.788  0.00  0.00     0.063 A 
ATOM     26  C   UNL d   1       1.569   3.292  -4.200  0.00  0.00     0.023 A 
ATOM     27  C   UNL d   1       2.545   3.034  -3.317  0.00  0.00     0.075 A 
ATOM     28  C   UNL d   1       2.219   2.801  -1.889  0.00  0.00     0.247 A 
ATOM     29  O   UNL d   1       3.130   2.582  -1.095  0.00  0.00    -0.268 OA
BRANCH  25  30
ATOM     30  C   UNL d   1      -0.887   3.649  -4.806  0.00  0.00     0.418 C 
ATOM     31  F   UNL d   1      -0.413   3.656  -6.078  0.00  0.00    -0.166 F 
ATOM     32  F   UNL d   1      -1.897   2.744  -4.770  0.00  0.00    -0.166 F 
ATOM     33  F   UNL d   1      -1.444   4.868  -4.590  0.00  0.00    -0.166 F 
ENDBRANCH  25  30
ENDBRANCH  22  23
ENDBRANCH   2  22
TORSDOF 7
