REMARK  5 active torsions:
REMARK  status: ('A' for Active; 'I' for Inactive)
REMARK    1  A    between atoms: C_10  and  C_1 
REMARK    2  A    between atoms: C_16  and  C_2 
REMARK    3  A    between atoms: C_3  and  C_11 
REMARK    4  A    between atoms: C_4  and  N_5 
REMARK    5  A    between atoms: N_9  and  C_10 
ROOT
ATOM      1  N   UNL d   1       3.606  -1.931  -0.331  0.00  0.00    -0.364 N 
ATOM      2  N   UNL d   1       3.360   1.010  -0.258  0.00  0.00     0.096 N 
ATOM      3  C   UNL d   1       3.667  -1.235   0.954  0.00  0.00     0.154 C 
ATOM      4  C   UNL d   1       2.883  -1.238  -1.407  0.00  0.00     0.154 C 
ATOM      5  C   UNL d   1       4.111   0.237   0.757  0.00  0.00     0.292 C 
ATOM      6  C   UNL d   1       3.351   0.231  -1.520  0.00  0.00     0.292 C 
ENDROOT
BRANCH   2   7
ATOM      7  C   UNL d   1       2.026   1.366   0.232  0.00  0.00     0.315 C 
BRANCH   7   8
ATOM      8  C   UNL d   1       1.303   2.263  -0.722  0.00  0.00     0.016 A 
ATOM      9  C   UNL d   1       1.713   3.498  -1.334  0.00  0.00     0.067 A 
ATOM     10  N   UNL d   1       0.762   3.946  -2.175  0.00  0.00    -0.300 N 
ATOM     11  N   UNL d   1      -0.230   3.058  -2.078  0.00  0.00    -0.311 N 
ATOM     12  HN  UNL d   1       0.793   4.782  -2.758  1.00  0.00     0.187 HD
ATOM     13  C   UNL d   1       0.031   2.041  -1.218  0.00  0.00     0.118 A 
ATOM     14  H   UNL d   1      -1.064   3.212  -2.635  0.00  0.00     0.186 HD
BRANCH   9  15
ATOM     15  C   UNL d   1       2.956   4.261  -1.174  0.00  0.00    -0.007 A 
ATOM     16  C   UNL d   1       3.545   4.877  -2.295  0.00  0.00     0.017 A 
ATOM     17  C   UNL d   1       4.709   5.636  -2.161  0.00  0.00     0.043 A 
ATOM     18  C   UNL d   1       5.285   5.788  -0.907  0.00  0.00     0.116 A 
ATOM     19  C   UNL d   1       4.716   5.195   0.215  0.00  0.00     0.043 A 
ATOM     20  F   UNL d   1       6.396   6.524  -0.773  0.00  0.00    -0.206 F 
ATOM     21  C   UNL d   1       3.550   4.436   0.081  0.00  0.00     0.017 A 
ENDBRANCH   9  15
ENDBRANCH   7   8
ENDBRANCH   2   7
BRANCH   1  22
ATOM     22  C   UNL d   1       3.791  -3.292  -0.461  0.00  0.00     0.103 A 
ATOM     23  C   UNL d   1       3.800  -4.155   0.631  0.00  0.00     0.064 A 
ATOM     24  C   UNL d   1       4.085  -5.520   0.465  0.00  0.00     0.052 A 
ATOM     25  C   UNL d   1       4.376  -5.988  -0.814  0.00  0.00     0.033 A 
ATOM     26  C   UNL d   1       4.332  -5.085  -1.854  0.00  0.00     0.090 A 
ATOM     27  N   UNL d   1       4.032  -3.777  -1.699  0.00  0.00    -0.352 N 
ATOM     28  HN  UNL d   1       3.989  -3.160  -2.510  1.00  0.00     0.166 HD
BRANCH  24  29
ATOM     29  C   UNL d   1       4.095  -6.460   1.638  0.00  0.00     0.417 C 
ATOM     30  F   UNL d   1       3.699  -5.879   2.805  0.00  0.00    -0.166 F 
ATOM     31  F   UNL d   1       3.270  -7.528   1.456  0.00  0.00    -0.166 F 
ATOM     32  F   UNL d   1       5.330  -6.978   1.879  0.00  0.00    -0.166 F 
ENDBRANCH  24  29
ENDBRANCH   1  22
TORSDOF 5
