REMARK  5 active torsions:
REMARK  status: ('A' for Active; 'I' for Inactive)
REMARK    1  A    between atoms: N_2  and  C_1 
REMARK    2  A    between atoms: C_5  and  N_2 
REMARK    3  A    between atoms: C_7  and  N_4 
REMARK    4  A    between atoms: O_6  and  C_8 
REMARK    5  A    between atoms: C_8  and  C_7 
ROOT
ATOM      1  C   UNL d   1       0.208   0.632   0.665  0.00  0.00     0.168 C 
ATOM      2  S   UNL d   1      -0.962   1.399   1.573  0.00  0.00    -0.041 SA
ATOM      3  N   UNL d   1       0.519   1.150  -0.557  0.00  0.00    -0.365 N 
ATOM      4  H   UNL d   1      -0.009   1.993  -0.768  0.00  0.00     0.161 HD
ENDROOT
BRANCH   1   5
ATOM      5  N   UNL d   1       0.898  -0.491   1.018  0.00  0.00    -0.363 N 
ATOM      6  H   UNL d   1       1.373  -0.965   0.265  0.00  0.00     0.162 HD
BRANCH   5   7
ATOM      7  C   UNL d   1       0.876  -1.174   2.307  0.00  0.00     0.083 C 
ATOM      8  C   UNL d   1       1.833  -0.517   3.317  0.00  0.00     0.025 C 
ATOM      9  C   UNL d   1       2.888  -1.570   3.640  0.00  0.00     0.002 C 
ATOM     10  C   UNL d   1       2.163  -2.888   3.433  0.00  0.00     0.002 C 
ATOM     11  C   UNL d   1       1.343  -2.631   2.180  0.00  0.00     0.025 C 
ENDBRANCH   5   7
ENDBRANCH   1   5
BRANCH   3  12
ATOM     12  C   UNL d   1       1.830   1.125  -1.202  0.00  0.00     0.148 C 
BRANCH  12  13
ATOM     13  C   UNL d   1       1.712   1.355  -2.707  0.00  0.00     0.183 C 
BRANCH  13  14
ATOM     14  O   UNL d   1       1.136   2.634  -2.960  0.00  0.00    -0.399 OA
ATOM     15  H   UNL d   1       1.030   2.711  -3.924  0.00  0.00     0.209 HD
ENDBRANCH  13  14
ENDBRANCH  12  13
ENDBRANCH   3  12
TORSDOF 5
