REMARK  8 active torsions:
REMARK  status: ('A' for Active; 'I' for Inactive)
REMARK    1  A    between atoms: C_2  and  S_1 
REMARK    2  A    between atoms: N_4  and  S_1 
REMARK    3  A    between atoms: N_3  and  C_14 
REMARK    4  A    between atoms: C_5  and  N_4 
REMARK    5  A    between atoms: C_8  and  C_5 
REMARK    6  A    between atoms: C_17  and  C_5 
REMARK    7  A    between atoms: O_24  and  C_8 
REMARK    8  A    between atoms: C_22  and  C_17 
ROOT
ATOM      1  C   UNL d   1       1.228   2.440   0.938  0.00  0.00     0.195 C 
ENDROOT
BRANCH   1   2
ATOM      2  N   UNL d   1       0.413   1.526   0.106  0.00  0.00    -0.300 N 
ATOM      3  H   UNL d   1       0.010   1.925  -0.743  0.00  0.00     0.173 HD
BRANCH   2   4
ATOM      4  S   UNL d   1       0.941  -0.039  -0.177  0.00  0.00     0.261 S 
ATOM      5  O   UNL d   1       0.479  -0.355  -1.510  0.00  0.00    -0.200 OA
ATOM      6  O   UNL d   1       2.333  -0.163   0.192  0.00  0.00    -0.200 OA
BRANCH   4   7
ATOM      7  C   UNL d   1      -0.056  -0.972   0.955  0.00  0.00     0.101 A 
ATOM      8  C   UNL d   1       0.357  -1.290   2.247  0.00  0.00     0.059 A 
ATOM      9  C   UNL d   1      -0.425  -2.157   3.019  0.00  0.00     0.050 A 
ATOM     10 CL   UNL d   1       1.750  -0.631   3.027  0.00  0.00    -0.083 Cl
ATOM     11  C   UNL d   1      -1.628  -2.675   2.527  0.00  0.00     0.041 A 
ATOM     12  C   UNL d   1      -2.087  -2.314   1.255  0.00  0.00    -0.039 A 
ATOM     13 CL   UNL d   1      -2.500  -3.757   3.550  0.00  0.00    -0.084 Cl
ATOM     14  C   UNL d   1      -1.277  -1.475   0.470  0.00  0.00     0.035 A 
ATOM     15  C   UNL d   1      -3.397  -2.765   0.672  0.00  0.00     0.050 C 
ENDBRANCH   4   7
ENDBRANCH   2   4
ENDBRANCH   1   2
BRANCH   1  16
ATOM     16  C   UNL d   1       2.676   2.608   0.497  0.00  0.00     0.164 C 
ATOM     17  O   UNL d   1       3.015   2.772  -0.667  0.00  0.00    -0.648 OA
BRANCH  16  18
ATOM     18  O   UNL d   1       3.559   2.693   1.523  0.00  0.00    -0.775 OA
ATOM     19  H   UNL d   1       3.205   2.481   2.409  0.00  0.00     0.167 HD
ENDBRANCH  16  18
ENDBRANCH   1  16
BRANCH   1  20
ATOM     20  C   UNL d   1       0.614   3.853   0.869  0.00  0.00     0.075 C 
BRANCH  20  21
ATOM     21  C   UNL d   1      -0.826   3.911   1.324  0.00  0.00    -0.056 A 
ATOM     22  C   UNL d   1      -1.176   3.515   2.623  0.00  0.00     0.009 A 
ATOM     23  C   UNL d   1      -2.508   3.530   3.031  0.00  0.00     0.036 A 
ATOM     24  C   UNL d   1      -3.498   3.959   2.138  0.00  0.00     0.102 A 
ATOM     25  C   UNL d   1      -3.162   4.378   0.846  0.00  0.00     0.036 A 
ATOM     26  C   UNL d   1      -1.826   4.353   0.443  0.00  0.00     0.009 A 
BRANCH  24  27
ATOM     27  N   UNL d   1      -4.902   3.961   2.564  0.00  0.00    -0.116 N 
ATOM     28  O   UNL d   1      -5.158   3.536   3.700  0.00  0.00    -0.532 OA
ATOM     29  O   UNL d   1      -5.747   4.380   1.762  0.00  0.00    -0.532 OA
ENDBRANCH  24  27
ENDBRANCH  20  21
ENDBRANCH   1  20
TORSDOF 8
