REMARK  4 active torsions:
REMARK  status: ('A' for Active; 'I' for Inactive)
REMARK    1  A    between atoms: C_3  and  C_6 
REMARK    2  A    between atoms: C_4  and  C_9 
REMARK    3  A    between atoms: C_5  and  C_7 
REMARK       I    between atoms: N_8  and  C_5 
REMARK    4  A    between atoms: C_10  and  N_8 
ROOT
ATOM      1  C   UNL d   1      -1.229  -2.363  -0.049  0.00  0.00     0.272 C 
ATOM      2  N   UNL d   1      -2.604  -2.418   0.110  0.00  0.00    -0.322 N 
ATOM      3  O   UNL d   1      -0.564  -1.355  -0.275  0.00  0.00    -0.266 OA
ATOM      4  H   UNL d   1      -2.976  -3.324   0.384  0.00  0.00     0.169 HD
ENDROOT
BRANCH   1   5
ATOM      5  C   UNL d   1      -0.507  -3.665   0.108  0.00  0.00     0.101 A 
ATOM      6  N   UNL d   1      -1.254  -4.790   0.283  0.00  0.00    -0.348 N 
ATOM      7  C   UNL d   1      -0.570  -5.971   0.398  0.00  0.00     0.117 A 
ATOM      8  HN  UNL d   1      -2.273  -4.755   0.327  1.00  0.00     0.166 HD
ATOM      9  C   UNL d   1       0.830  -6.032   0.353  0.00  0.00     0.034 A 
ATOM     10  C   UNL d   1       1.561  -4.862   0.187  0.00  0.00     0.005 A 
ATOM     11  C   UNL d   1       0.884  -3.659   0.061  0.00  0.00     0.035 A 
BRANCH   7  12
ATOM     12  C   UNL d   1      -1.327  -7.284   0.572  0.00  0.00     0.432 C 
ATOM     13  F   UNL d   1      -2.680  -7.144   0.634  0.00  0.00    -0.165 F 
ATOM     14  F   UNL d   1      -1.087  -8.160  -0.447  0.00  0.00    -0.165 F 
ATOM     15  F   UNL d   1      -0.966  -7.943   1.712  0.00  0.00    -0.165 F 
ENDBRANCH   7  12
ENDBRANCH   1   5
BRANCH   2  16
ATOM     16  C   UNL d   1      -3.492  -1.322   0.037  0.00  0.00     0.035 A 
ATOM     17  C   UNL d   1      -3.115  -0.063  -0.445  0.00  0.00     0.045 A 
ATOM     18  C   UNL d   1      -4.012   1.018  -0.459  0.00  0.00     0.050 A 
ATOM     19  C   UNL d   1      -5.314   0.822   0.016  0.00  0.00     0.016 A 
ATOM     20  C   UNL d   1      -5.711  -0.435   0.473  0.00  0.00     0.003 A 
ATOM     21  C   UNL d   1      -4.807  -1.503   0.475  0.00  0.00     0.029 A 
BRANCH  18  22
ATOM     22  C   UNL d   1      -3.576   2.373  -0.963  0.00  0.00     0.417 C 
ATOM     23  F   UNL d   1      -2.314   2.396  -1.475  0.00  0.00    -0.166 F 
ATOM     24  F   UNL d   1      -4.385   2.843  -1.955  0.00  0.00    -0.166 F 
ATOM     25  F   UNL d   1      -3.599   3.322   0.014  0.00  0.00    -0.166 F 
ENDBRANCH  18  22
ENDBRANCH   2  16
TORSDOF 4
