REMARK  2 active torsions:
REMARK  status: ('A' for Active; 'I' for Inactive)
REMARK    1  A    between atoms: N_4  and  C_10 
REMARK    2  A    between atoms: N_5  and  C_11 
ROOT
ATOM      1  C   UNL d   1       1.186  -0.601   0.004  0.00  0.00     0.028 A 
ATOM      2  C   UNL d   1      -1.188  -0.597   0.015  0.00  0.00     0.028 A 
ATOM      3  C   UNL d   1      -0.003  -1.483   0.001  0.00  0.00     0.194 A 
ATOM      4  C   UNL d   1      -0.723   0.731   0.049  0.00  0.00    -0.011 A 
ATOM      5  C   UNL d   1       0.725   0.728   0.048  0.00  0.00    -0.011 A 
ATOM      6  C   UNL d   1       2.523  -0.945  -0.062  0.00  0.00     0.052 A 
ATOM      7  C   UNL d   1      -2.527  -0.938  -0.029  0.00  0.00     0.052 A 
ATOM      8  C   UNL d   1       3.438   0.115  -0.086  0.00  0.00     0.103 A 
ATOM      9  C   UNL d   1      -3.439   0.124  -0.046  0.00  0.00     0.103 A 
ATOM     10  C   UNL d   1      -1.631   1.776   0.041  0.00  0.00     0.016 A 
ATOM     11  C   UNL d   1       1.636   1.771   0.053  0.00  0.00     0.016 A 
ATOM     12  O   UNL d   1      -0.005  -2.693  -0.019  0.00  0.00    -0.287 OA
ATOM     13  C   UNL d   1      -2.999   1.470  -0.009  0.00  0.00     0.037 A 
ATOM     14  C   UNL d   1       3.002   1.462  -0.017  0.00  0.00     0.037 A 
ENDROOT
BRANCH   8  15
ATOM     15  N   UNL d   1       4.874  -0.168  -0.215  0.00  0.00    -0.116 N 
ATOM     16  O   UNL d   1       5.220  -1.353  -0.312  0.00  0.00    -0.532 OA
ATOM     17  O   UNL d   1       5.651   0.797  -0.228  0.00  0.00    -0.532 OA
ENDBRANCH   8  15
BRANCH   9  18
ATOM     18  N   UNL d   1      -4.880  -0.157  -0.117  0.00  0.00    -0.116 N 
ATOM     19  O   UNL d   1      -5.232  -1.344  -0.162  0.00  0.00    -0.532 OA
ATOM     20  O   UNL d   1      -5.654   0.809  -0.131  0.00  0.00    -0.532 OA
ENDBRANCH   9  18
TORSDOF 2
