REMARK  6 active torsions:
REMARK  status: ('A' for Active; 'I' for Inactive)
REMARK    1  A    between atoms: N_10  and  S_1 
REMARK    2  A    between atoms: C_12  and  S_1 
REMARK    3  A    between atoms: C_2  and  C_11 
REMARK    4  A    between atoms: C_21  and  C_5 
REMARK    5  A    between atoms: C_11  and  N_10 
REMARK    6  A    between atoms: C_13  and  C_15 
ROOT
ATOM      1  S   UNL d   1       1.102   0.093   0.011  0.00  0.00     0.259 S 
ATOM      2  O   UNL d   1       0.542   1.370   0.388  0.00  0.00    -0.201 OA
ATOM      3  O   UNL d   1       2.515  -0.085  -0.234  0.00  0.00    -0.201 OA
ENDROOT
BRANCH   1   4
ATOM      4  N   UNL d   1       0.286  -0.435  -1.365  0.00  0.00    -0.311 N 
ATOM      5  H   UNL d   1       0.642  -1.320  -1.724  0.00  0.00     0.172 HD
BRANCH   4   6
ATOM      6  C   UNL d   1      -1.162  -0.241  -1.374  0.00  0.00     0.176 C 
BRANCH   6   7
ATOM      7  C   UNL d   1      -1.716  -0.661  -2.688  0.00  0.00     0.021 A 
ATOM      8  C   UNL d   1      -1.940   0.111  -3.880  0.00  0.00     0.075 A 
ATOM      9  N   UNL d   1      -2.581  -0.638  -4.796  0.00  0.00    -0.260 N 
ATOM     10  O   UNL d   1      -2.746  -1.885  -4.248  0.00  0.00    -0.242 OA
ATOM     11  HN  UNL d   1      -2.886  -0.336  -5.721  1.00  0.00     0.195 HD
ATOM     12  C   UNL d   1      -2.227  -1.906  -2.999  0.00  0.00     0.083 A 
ATOM     13  C   UNL d   1      -2.341  -3.182  -2.266  0.00  0.00     0.079 C 
BRANCH   8  14
ATOM     14  C   UNL d   1      -1.606   1.508  -4.182  0.00  0.00    -0.007 A 
ATOM     15  C   UNL d   1      -2.412   2.255  -5.058  0.00  0.00     0.014 A 
ATOM     16  C   UNL d   1      -2.098   3.582  -5.370  0.00  0.00     0.001 A 
ATOM     17  C   UNL d   1      -0.973   4.181  -4.808  0.00  0.00     0.000 A 
ATOM     18  C   UNL d   1      -0.160   3.453  -3.945  0.00  0.00     0.001 A 
ATOM     19  C   UNL d   1      -0.469   2.123  -3.642  0.00  0.00     0.014 A 
ENDBRANCH   8  14
ENDBRANCH   6   7
ENDBRANCH   4   6
ENDBRANCH   1   4
BRANCH   1  20
ATOM     20  C   UNL d   1       0.638  -1.103   1.244  0.00  0.00     0.080 A 
ATOM     21  C   UNL d   1       1.005  -2.447   1.072  0.00  0.00     0.038 A 
ATOM     22  C   UNL d   1       0.720  -3.407   2.062  0.00  0.00    -0.008 A 
ATOM     23  C   UNL d   1       0.048  -2.961   3.218  0.00  0.00     0.014 A 
ATOM     24  C   UNL d   1      -0.312  -1.619   3.389  0.00  0.00     0.002 A 
ATOM     25  C   UNL d   1      -0.018  -0.685   2.401  0.00  0.00     0.025 A 
BRANCH  22  26
ATOM     26  C   UNL d   1       1.130  -4.821   1.896  0.00  0.00     0.045 A 
ATOM     27  N   UNL d   1       1.190  -5.274   0.622  0.00  0.00    -0.345 N 
ATOM     28  C   UNL d   1       1.565  -6.557   0.440  0.00  0.00     0.077 A 
ATOM     29  HN  UNL d   1       0.962  -4.670  -0.168  1.00  0.00     0.167 HD
ATOM     30  C   UNL d   1       1.663  -7.072  -0.962  0.00  0.00     0.089 C 
ATOM     31  N   UNL d   1       1.878  -7.413   1.427  0.00  0.00    -0.356 N 
ATOM     32  C   UNL d   1       1.814  -6.929   2.676  0.00  0.00     0.091 A 
ATOM     33  HN  UNL d   1       2.149  -8.378   1.237  1.00  0.00     0.166 HD
ATOM     34  C   UNL d   1       1.447  -5.637   2.969  0.00  0.00     0.047 A 
ENDBRANCH  22  26
ENDBRANCH   1  20
TORSDOF 6
