REMARK  2 active torsions:
REMARK  status: ('A' for Active; 'I' for Inactive)
REMARK       I    between atoms: C_4  and  N_1 
REMARK    1  A    between atoms: C_2  and  C_6 
REMARK       I    between atoms: N_3  and  C_2 
REMARK    2  A    between atoms: C_5  and  N_3 
ROOT
ATOM      1  C   UNL d   1      -1.620  -0.012  -1.809  0.00  0.00     0.226 C 
ATOM      2  N   UNL d   1      -1.296  -1.221  -2.403  0.00  0.00    -0.327 N 
ATOM      3  O   UNL d   1      -1.940   1.014  -2.400  0.00  0.00    -0.273 OA
ATOM      4  H   UNL d   1      -1.163  -2.017  -1.794  0.00  0.00     0.169 HD
ENDROOT
BRANCH   1   5
ATOM      5  C   UNL d   1      -1.490  -0.039  -0.280  0.00  0.00     0.081 C 
ATOM      6  C   UNL d   1      -1.627   1.365   0.322  0.00  0.00     0.034 C 
ATOM      7  C   UNL d   1      -3.067   1.873   0.327  0.00  0.00     0.126 C 
ATOM      8  N   UNL d   1      -3.994   0.902   0.908  0.00  0.00    -0.352 N 
ATOM      9  C   UNL d   1      -5.195   1.269   1.513  0.00  0.00     0.215 C 
ATOM     10  C   UNL d   1      -3.903  -0.459   0.389  0.00  0.00     0.126 C 
ATOM     11  O   UNL d   1      -6.070   0.451   1.802  0.00  0.00    -0.274 OA
ATOM     12  C   UNL d   1      -5.391   2.725   1.859  0.00  0.00     0.117 C 
ATOM     13  C   UNL d   1      -2.475  -0.993   0.401  0.00  0.00     0.034 C 
ENDBRANCH   1   5
BRANCH   2  14
ATOM     14  C   UNL d   1      -1.079  -1.463  -3.778  0.00  0.00     0.035 A 
ATOM     15  C   UNL d   1      -1.059  -0.460  -4.749  0.00  0.00     0.036 A 
ATOM     16  C   UNL d   1      -0.761  -0.755  -6.088  0.00  0.00    -0.059 A 
ATOM     17  C   UNL d   1      -0.690   0.337  -7.115  0.00  0.00     0.048 C 
ATOM     18  C   UNL d   1      -0.490  -2.078  -6.453  0.00  0.00     0.013 A 
ATOM     19  C   UNL d   1      -0.519  -3.101  -5.500  0.00  0.00    -0.059 A 
ATOM     20  C   UNL d   1      -0.810  -2.784  -4.165  0.00  0.00     0.036 A 
ATOM     21  C   UNL d   1      -0.203  -4.509  -5.912  0.00  0.00     0.048 C 
ENDBRANCH   2  14
TORSDOF 2
