REMARK  2 active torsions:
REMARK  status: ('A' for Active; 'I' for Inactive)
REMARK    1  A    between atoms: C_4  and  CA_3 
REMARK    2  A    between atoms: OXT_10  and  C_4 
ROOT
ATOM      1  N   UNL d   1       2.476  -0.571   0.009  0.00  0.00    -0.360 N 
ATOM      2  HN  UNL d   1       3.381  -1.041   0.013  1.00  0.00     0.165 HD
ATOM      3  CA  UNL d   1       2.362   0.789   0.009  0.00  0.00     0.107 A 
ATOM      4  C   UNL d   1       1.161   1.482   0.003  0.00  0.00     0.048 A 
ATOM      5  C   UNL d   1      -0.026   0.745  -0.003  0.00  0.00    -0.022 A 
ATOM      6  C   UNL d   1       1.307  -1.256   0.004  0.00  0.00     0.100 A 
ATOM      7  C   UNL d   1       0.038  -0.665  -0.002  0.00  0.00    -0.011 A 
ATOM      8  C   UNL d   1      -1.280   1.375  -0.008  0.00  0.00     0.012 A 
ATOM      9  C   UNL d   1      -1.152  -1.414  -0.005  0.00  0.00     0.013 A 
ATOM     10  C   UNL d   1      -2.455   0.620  -0.012  0.00  0.00     0.001 A 
ATOM     11  C   UNL d   1      -2.391  -0.772  -0.010  0.00  0.00     0.001 A 
ENDROOT
BRANCH   3  12
ATOM     12  C   UNL d   1       3.654   1.535   0.018  0.00  0.00     0.193 C 
ATOM     13  O   UNL d   1       3.763   2.748   0.019  0.00  0.00    -0.645 OA
BRANCH  12  14
ATOM     14  OXT UNL d   1       4.698   0.669   0.023  0.00  0.00    -0.772 OA
ATOM     15  HXT UNL d   1       4.340  -0.251   0.021  0.00  0.00     0.167 HD
ENDBRANCH  12  14
ENDBRANCH   3  12
TORSDOF 2
