REMARK  2 active torsions:
REMARK  status: ('A' for Active; 'I' for Inactive)
REMARK    1  A    between atoms: C_6  and  C_1 
REMARK    2  A    between atoms: N_8  and  C_7 
ROOT
ATOM      1  C   UNL d   1      -2.081  -0.829   0.278  0.00  0.00     0.160 A 
ATOM      2  N   UNL d   1      -2.467   0.287   1.159  0.00  0.00    -0.274 NA
ATOM      3  S   UNL d   1      -1.327  -2.173   1.250  0.00  0.00    -0.103 SA
ATOM      4  C   UNL d   1      -2.036   0.022   2.476  0.00  0.00     0.026 A 
ATOM      5  C   UNL d   1      -1.374  -1.187   2.706  0.00  0.00     0.023 A 
ATOM      6  C   UNL d   1      -2.195   0.926   3.519  0.00  0.00     0.025 A 
ATOM      7  C   UNL d   1      -0.866  -1.516   3.955  0.00  0.00     0.020 A 
ATOM      8  C   UNL d   1      -1.015  -0.601   4.998  0.00  0.00     0.001 A 
ATOM      9  C   UNL d   1      -1.680   0.613   4.782  0.00  0.00     0.002 A 
ATOM     10  H   UNL d   1      -3.454   0.519   1.123  0.00  0.00     0.129 HD
ENDROOT
BRANCH   1  11
ATOM     11  C   UNL d   1      -3.247  -1.288  -0.576  0.00  0.00    -0.030 A 
ATOM     12  C   UNL d   1      -3.174  -1.194  -1.970  0.00  0.00     0.012 A 
ATOM     13  C   UNL d   1      -4.228  -1.636  -2.785  0.00  0.00     0.030 A 
ATOM     14  C   UNL d   1      -5.401  -2.201  -2.256  0.00  0.00     0.029 A 
ATOM     15  C   UNL d   1      -5.453  -2.281  -0.853  0.00  0.00     0.030 A 
ATOM     16  C   UNL d   1      -4.412  -1.835  -0.025  0.00  0.00     0.012 A 
BRANCH  14  17
ATOM     17  N   UNL d   1      -6.420  -2.699  -3.054  0.00  0.00    -0.390 N 
ATOM     18  C   UNL d   1      -7.813  -2.646  -2.615  0.00  0.00     0.149 C 
ATOM     19  C   UNL d   1      -6.245  -2.935  -4.486  0.00  0.00     0.149 C 
ENDBRANCH  14  17
ENDBRANCH   1  11
TORSDOF 2
