REMARK  8 active torsions:
REMARK  status: ('A' for Active; 'I' for Inactive)
REMARK       I    between atoms: N_4  and  C_1 
REMARK    1  A    between atoms: C_5  and  C_1 
REMARK    2  A    between atoms: C_2  and  C_5 
REMARK    3  A    between atoms: C_6  and  C_2 
REMARK    4  A    between atoms: C_9  and  C_2 
REMARK    5  A    between atoms: C_3  and  C_6 
REMARK    6  A    between atoms: O_12  and  C_3 
REMARK    7  A    between atoms: C_10  and  N_4 
REMARK    8  A    between atoms: O_17  and  C_11 
ROOT
ATOM      1  C   UNL d   1       0.270   1.042  -0.489  0.00  0.00     0.113 C 
ENDROOT
BRANCH   1   2
ATOM      2  C   UNL d   1      -1.258   0.956  -0.293  0.00  0.00     0.037 C 
BRANCH   2   3
ATOM      3  C   UNL d   1      -1.709   0.791   1.171  0.00  0.00     0.119 C 
BRANCH   3   4
ATOM      4  C   UNL d   1      -1.351   1.968   2.045  0.00  0.00     0.140 C 
ATOM      5  O   UNL d   1      -0.253   2.118   2.563  0.00  0.00    -0.650 OA
BRANCH   4   6
ATOM      6  O   UNL d   1      -2.341   2.874   2.178  0.00  0.00    -0.776 OA
ATOM      7  H   UNL d   1      -3.115   2.700   1.607  0.00  0.00     0.167 HD
ENDBRANCH   4   6
ENDBRANCH   3   4
ENDBRANCH   2   3
BRANCH   2   8
ATOM      8  C   UNL d   1      -2.000   2.139  -0.916  0.00  0.00    -0.053 A 
ATOM      9  C   UNL d   1      -3.303   1.957  -1.409  0.00  0.00     0.007 A 
ATOM     10  C   UNL d   1      -4.038   3.041  -1.896  0.00  0.00     0.001 A 
ATOM     11  C   UNL d   1      -3.482   4.318  -1.901  0.00  0.00     0.000 A 
ATOM     12  C   UNL d   1      -2.191   4.514  -1.422  0.00  0.00     0.001 A 
ATOM     13  C   UNL d   1      -1.457   3.434  -0.931  0.00  0.00     0.007 A 
ENDBRANCH   2   8
ENDBRANCH   1   2
BRANCH   1  14
ATOM     14  C   UNL d   1       1.038  -0.205  -0.080  0.00  0.00     0.222 C 
ATOM     15  N   UNL d   1       2.402  -0.035  -0.267  0.00  0.00    -0.327 N 
ATOM     16  H   UNL d   1       2.697   0.812  -0.737  0.00  0.00     0.169 HD
ATOM     17  O   UNL d   1       0.475  -1.211   0.333  0.00  0.00    -0.273 OA
BRANCH  15  18
ATOM     18  C   UNL d   1       3.434  -0.917   0.109  0.00  0.00     0.034 A 
ATOM     19  C   UNL d   1       3.228  -2.064   0.874  0.00  0.00     0.032 A 
ATOM     20  C   UNL d   1       4.304  -2.886   1.235  0.00  0.00     0.039 A 
ATOM     21  C   UNL d   1       5.601  -2.568   0.838  0.00  0.00     0.068 A 
ATOM     22  C   UNL d   1       5.811  -1.420   0.073  0.00  0.00     0.039 A 
ATOM     23  C   UNL d   1       4.738  -0.598  -0.286  0.00  0.00     0.032 A 
BRANCH  21  24
ATOM     24  O   UNL d   1       6.729  -3.281   1.136  0.00  0.00    -0.356 OA
ATOM     25  C   UNL d   1       6.548  -4.468   1.899  0.00  0.00     0.210 C 
ENDBRANCH  21  24
ENDBRANCH  15  18
ENDBRANCH   1  14
TORSDOF 8
