REMARK  6 active torsions:
REMARK  status: ('A' for Active; 'I' for Inactive)
REMARK    1  A    between atoms: C_12  and  C_2 
REMARK    2  A    between atoms: S_15  and  C_5 
REMARK    3  A    between atoms: C_8  and  C_9 
REMARK    4  A    between atoms: C_20  and  S_15 
REMARK    5  A    between atoms: C_17  and  C_20 
REMARK    6  A    between atoms: C_18  and  C_17 
ROOT
ATOM      1  N   UNL d   1       8.740  -6.803  -0.792  0.00  0.00    -0.191 NA
ATOM      2  C   UNL d   1       7.634  -6.474  -0.681  0.00  0.00     0.099 C 
ATOM      3  C   UNL d   1       3.629  -5.164  -0.110  0.00  0.00     0.011 A 
ATOM      4  C   UNL d   1       4.591  -4.294  -0.636  0.00  0.00     0.017 A 
ATOM      5  C   UNL d   1       3.991  -6.494   0.160  0.00  0.00     0.017 A 
ATOM      6  C   UNL d   1       6.271  -6.049  -0.528  0.00  0.00     0.044 A 
ATOM      7  C   UNL d   1       5.305  -6.934  -0.043  0.00  0.00     0.023 A 
ATOM      8  C   UNL d   1       5.906  -4.736  -0.841  0.00  0.00     0.023 A 
ENDROOT
BRANCH   3   9
ATOM      9  C   UNL d   1       2.232  -4.720   0.210  0.00  0.00     0.169 C 
ATOM     10  O   UNL d   1       1.440  -5.566   0.621  0.00  0.00    -0.291 OA
BRANCH   9  11
ATOM     11  C   UNL d   1       1.885  -3.246   0.026  0.00  0.00     0.165 C 
BRANCH  11  12
ATOM     12  S   UNL d   1       0.186  -2.881   0.553  0.00  0.00    -0.096 SA
BRANCH  12  13
ATOM     13  C   UNL d   1       0.039  -1.195   0.120  0.00  0.00     0.129 A 
ATOM     14  S   UNL d   1      -1.393  -0.302   0.400  0.00  0.00    -0.043 SA
ATOM     15  C   UNL d   1      -0.632   1.042  -0.370  0.00  0.00     0.118 A 
ATOM     16  N   UNL d   1       0.613   0.788  -0.743  0.00  0.00    -0.291 N 
ATOM     17  N   UNL d   1       1.001  -0.510  -0.458  0.00  0.00    -0.287 N 
ATOM     18  HN  UNL d   1       1.219   1.474  -1.192  1.00  0.00     0.187 HD
ATOM     19  HN  UNL d   1       1.924  -0.890  -0.671  1.00  0.00     0.188 HD
BRANCH  15  20
ATOM     20  C   UNL d   1      -1.344   2.314  -0.583  0.00  0.00     0.067 A 
ATOM     21  N   UNL d   1      -2.615   2.398  -0.110  0.00  0.00    -0.363 N 
ATOM     22  C   UNL d   1      -3.292   3.555  -0.307  0.00  0.00     0.104 A 
ATOM     23  HN  UNL d   1      -3.046   1.614   0.379  1.00  0.00     0.165 HD
ATOM     24  C   UNL d   1      -2.770   4.659  -0.961  0.00  0.00     0.063 A 
ATOM     25  C   UNL d   1      -1.462   4.556  -1.445  0.00  0.00     0.020 A 
ATOM     26  C   UNL d   1      -0.741   3.375  -1.255  0.00  0.00     0.033 A 
BRANCH  24  27
ATOM     27  C   UNL d   1      -3.585   5.905  -1.131  0.00  0.00     0.418 C 
ATOM     28  F   UNL d   1      -4.830   5.821  -0.585  0.00  0.00    -0.166 F 
ATOM     29  F   UNL d   1      -3.000   6.992  -0.557  0.00  0.00    -0.166 F 
ATOM     30  F   UNL d   1      -3.774   6.230  -2.440  0.00  0.00    -0.166 F 
ENDBRANCH  24  27
ENDBRANCH  15  20
ENDBRANCH  12  13
ENDBRANCH  11  12
ENDBRANCH   9  11
ENDBRANCH   3   9
TORSDOF 6
