REMARK  3 active torsions:
REMARK  status: ('A' for Active; 'I' for Inactive)
REMARK       I    between atoms: N_2  and  C_1 
REMARK       I    between atoms: N_5  and  C_1 
REMARK       I    between atoms: C_3  and  N_2 
REMARK    1  A    between atoms: C_4  and  C_3 
REMARK    2  A    between atoms: C_12  and  N_5 
REMARK    3  A    between atoms: C_13  and  N_5 
ROOT
ATOM      1  C   UNL d   1       0.918  -0.273  -0.262  0.00  0.00     0.325 C 
ATOM      2  N   UNL d   1       0.192  -0.887   0.740  0.00  0.00    -0.275 N 
ATOM      3  C   UNL d   1       0.734  -1.743   1.680  0.00  0.00     0.262 C 
ATOM      4  N   UNL d   1       0.195   0.591  -1.112  0.00  0.00    -0.326 N 
ATOM      5  O   UNL d   1       2.121  -0.467  -0.416  0.00  0.00    -0.247 OA
ATOM      6  O   UNL d   1       1.845  -2.270   1.622  0.00  0.00    -0.267 OA
ATOM      7  H   UNL d   1      -0.730  -0.536   0.928  0.00  0.00     0.173 HD
ENDROOT
BRANCH   3   8
ATOM      8  C   UNL d   1      -0.130  -2.135   2.828  0.00  0.00     0.071 A 
ATOM      9  C   UNL d   1      -1.139  -1.317   3.337  0.00  0.00     0.135 A 
ATOM     10  C   UNL d   1      -1.873  -1.694   4.461  0.00  0.00     0.085 A 
ATOM     11  F   UNL d   1      -1.417  -0.137   2.764  0.00  0.00    -0.205 F 
ATOM     12  C   UNL d   1      -1.602  -2.916   5.068  0.00  0.00     0.119 A 
ATOM     13  C   UNL d   1      -0.618  -3.760   4.572  0.00  0.00     0.043 A 
ATOM     14  F   UNL d   1      -2.297  -3.280   6.153  0.00  0.00    -0.206 F 
ATOM     15  C   UNL d   1       0.122  -3.370   3.454  0.00  0.00     0.023 A 
ENDBRANCH   3   8
BRANCH   4  16
ATOM     16  C   UNL d   1       0.964   1.338  -2.148  0.00  0.00     0.081 C 
ATOM     17  C   UNL d   1       2.103   2.206  -1.592  0.00  0.00     0.032 C 
ATOM     18  C   UNL d   1       1.476   0.418  -3.263  0.00  0.00     0.032 C 
ENDBRANCH   4  16
BRANCH   4  19
ATOM     19  C   UNL d   1      -1.289   0.701  -1.096  0.00  0.00     0.081 C 
ATOM     20  C   UNL d   1      -1.754   1.704  -0.036  0.00  0.00     0.032 C 
ATOM     21  C   UNL d   1      -1.956   1.040  -2.436  0.00  0.00     0.032 C 
ENDBRANCH   4  19
TORSDOF 3
