REMARK  5 active torsions:
REMARK  status: ('A' for Active; 'I' for Inactive)
REMARK    1  A    between atoms: C_5  and  C_1 
REMARK    2  A    between atoms: C_7  and  C_2 
REMARK       I    between atoms: N_13  and  C_7 
REMARK    3  A    between atoms: C_8  and  C_12 
REMARK    4  A    between atoms: N_15  and  N_13 
REMARK    5  A    between atoms: C_14  and  N_15 
ROOT
ATOM      1  C   UNL d   1       2.942   0.566  -0.054  0.00  0.00     0.275 C 
ATOM      2  N   UNL d   1       3.399   1.873  -0.066  0.00  0.00    -0.281 N 
ATOM      3  O   UNL d   1       1.779   0.308  -0.360  0.00  0.00    -0.266 OA
ATOM      4  H   UNL d   1       4.274   2.171   0.363  0.00  0.00     0.184 HD
ENDROOT
BRANCH   2   5
ATOM      5  N   UNL d   1       2.474   2.898  -0.363  0.00  0.00    -0.187 NA
ATOM      6  H   UNL d   1       1.513   2.540  -0.330  0.00  0.00     0.154 HD
BRANCH   5   7
ATOM      7  C   UNL d   1       2.618   4.027   0.481  0.00  0.00     0.098 A 
ATOM      8  N   UNL d   1       3.696   4.131   1.297  0.00  0.00    -0.342 N 
ATOM      9  C   UNL d   1       3.838   5.267   2.046  0.00  0.00     0.117 A 
ATOM     10  HN  UNL d   1       4.385   3.381   1.351  1.00  0.00     0.167 HD
ATOM     11  C   UNL d   1       2.919   6.316   1.984  0.00  0.00     0.034 A 
ATOM     12  C   UNL d   1       1.827   6.203   1.134  0.00  0.00     0.005 A 
ATOM     13  C   UNL d   1       1.679   5.049   0.372  0.00  0.00     0.044 A 
BRANCH   9  14
ATOM     14  C   UNL d   1       5.034   5.407   2.977  0.00  0.00     0.432 C 
ATOM     15  F   UNL d   1       5.877   4.337   2.971  0.00  0.00    -0.165 F 
ATOM     16  F   UNL d   1       5.807   6.492   2.674  0.00  0.00    -0.165 F 
ATOM     17  F   UNL d   1       4.662   5.581   4.281  0.00  0.00    -0.165 F 
ENDBRANCH   9  14
ENDBRANCH   5   7
ENDBRANCH   2   5
BRANCH   1  18
ATOM     18  C   UNL d   1       3.901  -0.447   0.339  0.00  0.00     0.107 A 
ATOM     19  C   UNL d   1       3.672  -1.699   0.902  0.00  0.00     0.140 A 
ATOM     20  N   UNL d   1       4.840  -2.466   1.055  0.00  0.00    -0.349 N 
ATOM     21  C   UNL d   1       5.892  -1.812   0.625  0.00  0.00     0.048 A 
ATOM     22  HN  UNL d   1       4.865  -3.407   1.449  1.00  0.00     0.166 HD
ATOM     23  C   UNL d   1       7.275  -2.363   0.610  0.00  0.00     0.076 C 
ATOM     24  S   UNL d   1       5.582  -0.229   0.056  0.00  0.00    -0.070 SA
BRANCH  19  25
ATOM     25  C   UNL d   1       2.362  -2.289   1.355  0.00  0.00     0.434 C 
ATOM     26  F   UNL d   1       1.348  -1.393   1.448  0.00  0.00    -0.165 F 
ATOM     27  F   UNL d   1       1.943  -3.285   0.532  0.00  0.00    -0.165 F 
ATOM     28  F   UNL d   1       2.475  -2.835   2.599  0.00  0.00    -0.165 F 
ENDBRANCH  19  25
ENDBRANCH   1  18
TORSDOF 5
