REMARK  4 active torsions:
REMARK  status: ('A' for Active; 'I' for Inactive)
REMARK       I    between atoms: N_2  and  C_1 
REMARK       I    between atoms: N_3  and  C_1 
REMARK    1  A    between atoms: C_12  and  N_3 
REMARK    2  A    between atoms: C_4  and  C_8 
REMARK    3  A    between atoms: O_13  and  C_4 
REMARK    4  A    between atoms: C_14  and  O_13 
ROOT
ATOM      1  C   UNL d   1       0.875   0.158   0.043  0.00  0.00     0.322 C 
ATOM      2  N   UNL d   1       0.159   1.196   0.632  0.00  0.00    -0.334 N 
ATOM      3  N   UNL d   1       0.689  -1.078   0.607  0.00  0.00    -0.309 N 
ATOM      4  O   UNL d   1       1.611   0.380  -0.916  0.00  0.00    -0.247 OA
ATOM      5  C   UNL d   1      -0.831   1.093   1.704  0.00  0.00     0.128 C 
ATOM      6  C   UNL d   1       0.544   2.560   0.282  0.00  0.00     0.128 C 
ATOM      7  C   UNL d   1      -1.760   3.343   0.948  0.00  0.00     0.088 C 
ATOM      8  C   UNL d   1      -2.081   1.911   1.388  0.00  0.00     0.034 C 
ATOM      9  C   UNL d   1      -0.667   3.389  -0.119  0.00  0.00     0.034 C 
ATOM     10  H   UNL d   1       0.136  -1.139   1.444  0.00  0.00     0.170 HD
ENDROOT
BRANCH   3  11
ATOM     11  C   UNL d   1       1.207  -2.312   0.156  0.00  0.00     0.036 A 
ATOM     12  C   UNL d   1       2.099  -2.429  -0.913  0.00  0.00     0.029 A 
ATOM     13  C   UNL d   1       2.511  -3.683  -1.361  0.00  0.00     0.002 A 
ATOM     14  C   UNL d   1       2.048  -4.838  -0.733  0.00  0.00     0.000 A 
ATOM     15  C   UNL d   1       1.195  -4.732   0.362  0.00  0.00     0.002 A 
ATOM     16  C   UNL d   1       0.784  -3.475   0.812  0.00  0.00     0.029 A 
ENDBRANCH   3  11
BRANCH   7  17
ATOM     17  C   UNL d   1      -1.418   4.205   2.147  0.00  0.00     0.263 C 
ATOM     18  O   UNL d   1      -1.361   3.808   3.302  0.00  0.00    -0.265 OA
BRANCH  17  19
ATOM     19  O   UNL d   1      -1.336   5.508   1.760  0.00  0.00    -0.322 OA
BRANCH  19  20
ATOM     20  C   UNL d   1      -1.606   6.458   2.796  0.00  0.00     0.174 C 
ATOM     21  C   UNL d   1      -3.111   6.658   2.846  0.00  0.00     0.034 C 
ENDBRANCH  19  20
ENDBRANCH  17  19
ENDBRANCH   7  17
TORSDOF 4
