REMARK  5 active torsions:
REMARK  status: ('A' for Active; 'I' for Inactive)
REMARK    1  A    between atoms: N_2  and  S_1 
REMARK    2  A    between atoms: C_3  and  S_1 
REMARK    3  A    between atoms: C_7  and  C_4 
REMARK    4  A    between atoms: O_17  and  C_7 
REMARK    5  A    between atoms: C_21  and  O_17 
ROOT
ATOM      1  N   UNL d   1       0.537   1.238  -1.020  0.00  0.00    -0.206 NA
ATOM      2  C   UNL d   1       0.230   3.694  -1.448  0.00  0.00     0.100 C 
ATOM      3  C   UNL d   1       0.724   2.622  -0.472  0.00  0.00     0.122 C 
ATOM      4  C   UNL d   1       1.202   1.056  -2.342  0.00  0.00     0.107 C 
ATOM      5  C   UNL d   1       0.884   3.503  -2.822  0.00  0.00     0.017 C 
ATOM      6  C   UNL d   1       0.681   2.084  -3.340  0.00  0.00     0.016 C 
ENDROOT
BRANCH   1   7
ATOM      7  S   UNL d   1       0.969  -0.009   0.088  0.00  0.00     0.243 S 
ATOM      8  O   UNL d   1       2.238   0.360   0.678  0.00  0.00    -0.206 OA
ATOM      9  O   UNL d   1       0.789  -1.287  -0.568  0.00  0.00    -0.206 OA
BRANCH   7  10
ATOM     10  C   UNL d   1      -0.285   0.099   1.340  0.00  0.00     0.076 A 
ATOM     11  C   UNL d   1      -1.611  -0.176   0.983  0.00  0.00     0.051 A 
ATOM     12  C   UNL d   1      -2.597  -0.148   1.967  0.00  0.00     0.074 A 
ATOM     13 CL   UNL d   1      -4.226  -0.502   1.539  0.00  0.00    -0.081 Cl
ATOM     14  C   UNL d   1      -2.258   0.149   3.288  0.00  0.00     0.138 A 
ATOM     15  C   UNL d   1      -0.936   0.418   3.641  0.00  0.00     0.045 A 
ATOM     16  F   UNL d   1      -3.195   0.172   4.247  0.00  0.00    -0.204 F 
ATOM     17  C   UNL d   1       0.061   0.391   2.664  0.00  0.00     0.028 A 
ENDBRANCH   7  10
ENDBRANCH   1   7
BRANCH   2  18
ATOM     18  C   UNL d   1      -1.291   3.725  -1.465  0.00  0.00     0.264 C 
ATOM     19  O   UNL d   1      -1.990   3.454  -0.496  0.00  0.00    -0.265 OA
BRANCH  18  20
ATOM     20  O   UNL d   1      -1.768   4.176  -2.658  0.00  0.00    -0.322 OA
BRANCH  20  21
ATOM     21  C   UNL d   1      -3.196   4.254  -2.777  0.00  0.00     0.174 C 
ATOM     22  C   UNL d   1      -3.768   2.892  -3.124  0.00  0.00     0.034 C 
ENDBRANCH  20  21
ENDBRANCH  18  20
ENDBRANCH   2  18
TORSDOF 5
