REMARK  5 active torsions:
REMARK  status: ('A' for Active; 'I' for Inactive)
REMARK    1  A    between atoms: C_2  and  CA_1 
REMARK    2  A    between atoms: N_3  and  CA_1 
REMARK    3  A    between atoms: CA_1  and  C_5 
REMARK    4  A    between atoms: OXT_13  and  C_2 
REMARK       I    between atoms: C_4  and  N_3 
REMARK    5  A    between atoms: C_7  and  C_5 
ROOT
ATOM      1  C   UNL d   1       2.473   0.021   0.078  0.00  0.00     0.074 C 
ENDROOT
BRANCH   1   2
ATOM      2  CA  UNL d   1       3.590   0.915  -0.469  0.00  0.00     0.186 C 
BRANCH   2   3
ATOM      3  C   UNL d   1       4.516   0.144  -1.415  0.00  0.00     0.163 C 
ATOM      4  O   UNL d   1       4.136  -0.689  -2.228  0.00  0.00    -0.648 OA
BRANCH   3   5
ATOM      5  OXT UNL d   1       5.800   0.580  -1.373  0.00  0.00    -0.775 OA
ATOM      6  HXT UNL d   1       5.909   1.396  -0.834  0.00  0.00     0.167 HD
ENDBRANCH   3   5
ENDBRANCH   2   3
BRANCH   2   7
ATOM      7  N   UNL d   1       3.025   2.040  -1.215  0.00  0.00    -0.347 N 
ATOM      8  C   UNL d   1       3.724   3.216  -1.311  0.00  0.00     0.214 C 
ATOM      9  O   UNL d   1       4.818   3.370  -0.770  0.00  0.00    -0.274 OA
ATOM     10  C   UNL d   1       3.047   4.285  -2.123  0.00  0.00     0.117 C 
ATOM     11  H   UNL d   1       2.368   1.821  -1.956  0.00  0.00     0.163 HD
ENDBRANCH   2   7
ENDBRANCH   1   2
BRANCH   1  12
ATOM     12  C   UNL d   1       2.943  -1.110   0.962  0.00  0.00    -0.055 A 
ATOM     13  C   UNL d   1       3.701  -0.869   2.117  0.00  0.00     0.019 A 
ATOM     14  C   UNL d   1       4.088  -1.919   2.966  0.00  0.00    -0.025 A 
ATOM     15  C   UNL d   1       4.851  -1.684   4.122  0.00  0.00     0.012 A 
ATOM     16  C   UNL d   1       3.691  -3.239   2.658  0.00  0.00    -0.026 A 
ATOM     17  C   UNL d   1       5.194  -2.733   4.975  0.00  0.00     0.001 A 
ATOM     18  C   UNL d   1       4.784  -4.031   4.683  0.00  0.00     0.001 A 
ATOM     19  C   UNL d   1       4.042  -4.284   3.527  0.00  0.00     0.012 A 
ATOM     20  C   UNL d   1       2.948  -3.478   1.493  0.00  0.00     0.013 A 
ATOM     21  C   UNL d   1       2.581  -2.425   0.653  0.00  0.00     0.008 A 
ENDBRANCH   1  12
TORSDOF 5
