REMARK  4 active torsions:
REMARK  status: ('A' for Active; 'I' for Inactive)
REMARK    1  A    between atoms: C_3  and  C_1 
REMARK    2  A    between atoms: N_2  and  C_4 
REMARK       I    between atoms: N_5  and  C_3 
REMARK    3  A    between atoms: C_11  and  N_5 
REMARK    4  A    between atoms: N_19  and  C_16 
ROOT
ATOM      1  C   UNL d   1       2.173   2.612  -1.148  0.00  0.00     0.067 A 
ATOM      2  C   UNL d   1       2.508   1.622  -2.075  0.00  0.00     0.118 A 
ATOM      3  C   UNL d   1       3.708   1.670  -2.796  0.00  0.00     0.039 A 
ATOM      4  C   UNL d   1       3.083   3.666  -0.945  0.00  0.00     0.042 A 
ATOM      5  C   UNL d   1       4.257   3.770  -1.704  0.00  0.00     0.006 A 
ATOM      6  C   UNL d   1       4.583   2.737  -2.591  0.00  0.00     0.026 A 
ENDROOT
BRANCH   1   7
ATOM      7  C   UNL d   1       0.960   2.514  -0.290  0.00  0.00     0.258 C 
ATOM      8  N   UNL d   1       0.367   3.721   0.048  0.00  0.00    -0.323 N 
ATOM      9  H   UNL d   1       0.725   4.560  -0.387  0.00  0.00     0.169 HD
ATOM     10  O   UNL d   1       0.612   1.395   0.061  0.00  0.00    -0.267 OA
BRANCH   8  11
ATOM     11  C   UNL d   1      -0.739   3.919   0.909  0.00  0.00     0.035 A 
ATOM     12  C   UNL d   1      -1.423   2.884   1.548  0.00  0.00     0.037 A 
ATOM     13  C   UNL d   1      -2.549   3.137   2.355  0.00  0.00    -0.054 A 
ATOM     14  C   UNL d   1      -3.290   1.972   2.953  0.00  0.00     0.049 C 
ATOM     15  C   UNL d   1      -2.972   4.463   2.564  0.00  0.00    -0.056 A 
ATOM     16  C   UNL d   1      -2.268   5.503   1.944  0.00  0.00     0.009 A 
ATOM     17  C   UNL d   1      -4.171   4.777   3.417  0.00  0.00     0.049 C 
ATOM     18  C   UNL d   1      -1.170   5.232   1.119  0.00  0.00     0.030 A 
ENDBRANCH   8  11
ENDBRANCH   1   7
BRANCH   2  19
ATOM     19  N   UNL d   1       1.607   0.528  -2.369  0.00  0.00    -0.115 N 
ATOM     20  O   UNL d   1       0.530   0.822  -2.908  0.00  0.00    -0.532 OA
ATOM     21  O   UNL d   1       2.034  -0.620  -2.181  0.00  0.00    -0.532 OA
ENDBRANCH   2  19
BRANCH   5  22
ATOM     22  N   UNL d   1       5.196   4.758  -1.403  0.00  0.00    -0.303 NA
ATOM     23  H   UNL d   1       4.814   5.613  -1.013  0.00  0.00     0.124 HD
ATOM     24  H   UNL d   1       5.867   4.944  -2.144  0.00  0.00     0.124 HD
ENDBRANCH   5  22
TORSDOF 4
