REMARK  3 active torsions:
REMARK  status: ('A' for Active; 'I' for Inactive)
REMARK    1  A    between atoms: C_12  and  C_2 
REMARK    2  A    between atoms: C_13  and  C_10 
REMARK    3  A    between atoms: C_14  and  C_11 
ROOT
ATOM      1  N   UNL d   1       0.286   0.636   0.009  0.00  0.00    -0.235 N 
ATOM      2  C   UNL d   1      -0.840   1.448   0.028  0.00  0.00     0.144 A 
ATOM      3  C   UNL d   1       0.151  -0.761   0.001  0.00  0.00     0.130 A 
ATOM      4  N   UNL d   1       1.590   0.993   0.009  0.00  0.00    -0.296 N 
ATOM      5  HN  UNL d   1       1.974   1.938   0.021  1.00  0.00     0.187 HD
ATOM      6  N   UNL d   1      -1.065  -1.381   0.029  0.00  0.00    -0.340 N 
ATOM      7  HN  UNL d   1      -1.146  -2.397   0.037  1.00  0.00     0.167 HD
ATOM      8  C   UNL d   1      -2.065   0.884   0.047  0.00  0.00     0.067 A 
ATOM      9  C   UNL d   1       1.428  -1.276  -0.033  0.00  0.00     0.077 A 
ATOM     10  C   UNL d   1       2.265  -0.155  -0.011  0.00  0.00     0.034 A 
ATOM     11  C   UNL d   1      -2.119  -0.613   0.045  0.00  0.00     0.046 A 
ENDROOT
BRANCH  11  12
ATOM     12  C   UNL d   1      -3.474  -1.237   0.103  0.00  0.00    -0.006 A 
ATOM     13  C   UNL d   1      -3.617  -2.445   0.804  0.00  0.00     0.053 A 
ATOM     14  C   UNL d   1      -4.875  -3.004   0.876  0.00  0.00     0.105 A 
ATOM     15  O   UNL d   1      -5.198  -4.154   1.526  0.00  0.00    -0.323 OA
ATOM     16  C   UNL d   1      -5.965  -2.419   0.276  0.00  0.00     0.105 A 
ATOM     17  C   UNL d   1      -6.619  -4.217   1.281  0.00  0.00     0.352 A 
ATOM     18  O   UNL d   1      -7.108  -3.127   0.471  0.00  0.00    -0.323 OA
ATOM     19  C   UNL d   1      -5.857  -1.245  -0.438  0.00  0.00     0.040 A 
ATOM     20  C   UNL d   1      -4.593  -0.649  -0.528  0.00  0.00     0.016 A 
ENDBRANCH  11  12
BRANCH   2  21
ATOM     21  C   UNL d   1      -0.669   2.921   0.035  0.00  0.00     0.434 C 
ATOM     22  F   UNL d   1       0.595   3.398  -0.002  0.00  0.00    -0.165 F 
ATOM     23  F   UNL d   1      -1.316   3.477  -1.029  0.00  0.00    -0.165 F 
ATOM     24  F   UNL d   1      -1.252   3.464   1.140  0.00  0.00    -0.165 F 
ENDBRANCH   2  21
BRANCH  10  25
ATOM     25  C   UNL d   1       3.784  -0.228  -0.002  0.00  0.00     0.037 A 
ATOM     26  C   UNL d   1       4.550   0.821   0.783  0.00  0.00     0.011 A 
ATOM     27  C   UNL d   1       4.566   0.865  -0.706  0.00  0.00     0.011 A 
ENDBRANCH  10  25
TORSDOF 3
