REMARK  9 active torsions:
REMARK  status: ('A' for Active; 'I' for Inactive)
REMARK    1  A    between atoms: C_8  and  C_1 
REMARK    2  A    between atoms: N_2  and  O_10 
REMARK    3  A    between atoms: C_7  and  C_4 
REMARK    4  A    between atoms: N_21  and  C_4 
REMARK    5  A    between atoms: O_13  and  C_5 
REMARK    6  A    between atoms: C_6  and  C_11 
REMARK    7  A    between atoms: O_10  and  C_6 
REMARK    8  A    between atoms: C_22  and  O_13 
REMARK    9  A    between atoms: O_23  and  C_14 
ROOT
ATOM      1  N   UNL d   1       0.234  -6.412   1.132  0.00  0.00    -0.246 N 
ATOM      2  HN  UNL d   1       1.051  -6.233   0.549  1.00  0.00     0.196 HD
ATOM      3  C   UNL d   1      -0.196  -7.608   1.398  0.00  0.00     0.109 C 
ENDROOT
BRANCH   3   4
ATOM      4  C   UNL d   1       0.558  -8.747   0.774  0.00  0.00     0.006 A 
ATOM      5  C   UNL d   1       1.922  -8.579   0.491  0.00  0.00     0.054 A 
ATOM      6  C   UNL d   1       2.662  -9.580  -0.154  0.00  0.00     0.103 A 
ATOM      7  C   UNL d   1       2.028 -10.794  -0.473  0.00  0.00     0.101 A 
ATOM      8  C   UNL d   1       0.660 -10.953  -0.191  0.00  0.00     0.040 A 
ATOM      9  C   UNL d   1      -0.075  -9.940   0.432  0.00  0.00     0.018 A 
BRANCH   6  10
ATOM     10  O   UNL d   1       3.981  -9.410  -0.487  0.00  0.00    -0.343 OA
BRANCH  10  11
ATOM     11  C   UNL d   1       4.441  -8.079  -0.738  0.00  0.00     0.129 C 
ATOM     12  C   UNL d   1       3.811  -7.454  -1.984  0.00  0.00     0.032 C 
ATOM     13  C   UNL d   1       4.865  -6.521  -2.570  0.00  0.00     0.002 C 
ATOM     14  C   UNL d   1       6.173  -6.835  -1.853  0.00  0.00     0.002 C 
ATOM     15  C   UNL d   1       5.926  -8.126  -1.090  0.00  0.00     0.032 C 
ENDBRANCH  10  11
ENDBRANCH   6  10
BRANCH   7  16
ATOM     16  O   UNL d   1       2.568 -11.873  -1.122  0.00  0.00    -0.353 OA
ATOM     17  C   UNL d   1       3.953 -12.127  -0.920  0.00  0.00     0.210 C 
ENDBRANCH   7  16
ENDBRANCH   3   4
BRANCH   3  18
ATOM     18  N   UNL d   1      -1.266  -7.889   2.213  0.00  0.00    -0.286 NA
ATOM     19  H   UNL d   1      -1.513  -7.111   2.813  0.00  0.00     0.125 HD
ATOM     20  H   UNL d   1      -1.206  -8.764   2.723  0.00  0.00     0.125 HD
ENDBRANCH   3  18
BRANCH   1  21
ATOM     21  O   UNL d   1      -0.529  -5.379   1.722  0.00  0.00    -0.193 OA
BRANCH  21  22
ATOM     22  C   UNL d   1       0.014  -4.177   1.338  0.00  0.00     0.315 C 
ATOM     23  O   UNL d   1       1.010  -4.009   0.645  0.00  0.00    -0.257 OA
BRANCH  22  24
ATOM     24  C   UNL d   1      -0.743  -3.012   1.886  0.00  0.00     0.042 A 
ATOM     25  C   UNL d   1      -1.918  -3.131   2.641  0.00  0.00     0.034 A 
ATOM     26  C   UNL d   1      -2.575  -1.981   3.127  0.00  0.00     0.048 A 
ATOM     27  C   UNL d   1      -2.032  -0.713   2.861  0.00  0.00     0.016 A 
ATOM     28  C   UNL d   1      -0.871  -0.587   2.104  0.00  0.00     0.002 A 
ATOM     29  C   UNL d   1      -0.235  -1.729   1.615  0.00  0.00     0.018 A 
BRANCH  26  30
ATOM     30  C   UNL d   1      -3.857  -2.080   3.920  0.00  0.00     0.417 C 
ATOM     31  F   UNL d   1      -4.312  -3.357   4.055  0.00  0.00    -0.166 F 
ATOM     32  F   UNL d   1      -4.875  -1.378   3.352  0.00  0.00    -0.166 F 
ATOM     33  F   UNL d   1      -3.726  -1.594   5.185  0.00  0.00    -0.166 F 
ENDBRANCH  26  30
ENDBRANCH  22  24
ENDBRANCH  21  22
ENDBRANCH   1  21
TORSDOF 9
