REMARK  0 active torsions:
REMARK  status: ('A' for Active; 'I' for Inactive)
ROOT
ATOM      1  N   UNL d   1       2.401  -0.933  -0.194  0.00  0.00    -0.277 N 
ATOM      2  C   UNL d   1       2.419   0.402   0.085  0.00  0.00     0.229 A 
ATOM      3  C   UNL d   1       1.254  -1.678  -0.217  0.00  0.00     0.263 A 
ATOM      4  N   UNL d   1       1.383   1.139   0.276  0.00  0.00    -0.321 N 
ATOM      5  HN  UNL d   1       1.459   2.130   0.503  1.00  0.00     0.169 HD
ATOM      6  C   UNL d   1       0.013  -0.886  -0.072  0.00  0.00     0.059 A 
ATOM      7  C   UNL d   1       0.136   0.494   0.154  0.00  0.00     0.051 A 
ATOM      8  O   UNL d   1       3.692   0.879   0.137  0.00  0.00    -0.320 OA
ATOM      9  O   UNL d   1       1.228  -2.898  -0.345  0.00  0.00    -0.267 OA
ATOM     10  C   UNL d   1       3.732  -1.437  -0.280  0.00  0.00     0.163 C 
ATOM     11  C   UNL d   1      -1.242  -1.493  -0.191  0.00  0.00     0.019 A 
ATOM     12  C   UNL d   1       4.550  -0.166  -0.350  0.00  0.00     0.199 C 
ATOM     13  C   UNL d   1      -1.027   1.262   0.239  0.00  0.00     0.030 A 
ATOM     14  C   UNL d   1      -2.392  -0.709  -0.108  0.00  0.00     0.001 A 
ATOM     15  C   UNL d   1      -2.285   0.667   0.101  0.00  0.00     0.002 A 
ENDROOT
TORSDOF 0
