REMARK  5 active torsions:
REMARK  status: ('A' for Active; 'I' for Inactive)
REMARK    1  A    between atoms: N_2  and  C_1 
REMARK    2  A    between atoms: N_7  and  C_1 
REMARK    3  A    between atoms: C_3  and  N_2 
REMARK    4  A    between atoms: N_4  and  N_7 
REMARK    5  A    between atoms: C_11  and  C_9 
ROOT
ATOM      1  C   UNL d   1       1.325  -0.108  -0.299  0.00  0.00     0.191 C 
ATOM      2  S   UNL d   1       0.689   0.862  -1.503  0.00  0.00    -0.039 SA
ENDROOT
BRANCH   1   3
ATOM      3  N   UNL d   1       0.685  -1.028   0.495  0.00  0.00    -0.330 N 
ATOM      4  H   UNL d   1       1.172  -1.181   1.375  0.00  0.00     0.168 HD
BRANCH   3   5
ATOM      5  C   UNL d   1      -0.570  -1.653   0.347  0.00  0.00     0.073 A 
ATOM      6  C   UNL d   1      -1.212  -2.133   1.494  0.00  0.00     0.143 A 
ATOM      7  F   UNL d   1      -0.654  -1.946   2.701  0.00  0.00    -0.204 F 
ATOM      8  C   UNL d   1      -2.444  -2.782   1.420  0.00  0.00     0.044 A 
ATOM      9  C   UNL d   1      -3.038  -2.994   0.178  0.00  0.00     0.003 A 
ATOM     10  C   UNL d   1      -2.393  -2.557  -0.978  0.00  0.00     0.002 A 
ATOM     11  C   UNL d   1      -1.166  -1.889  -0.893  0.00  0.00     0.033 A 
ENDBRANCH   3   5
ENDBRANCH   1   3
BRANCH   1  12
ATOM     12  N   UNL d   1       2.667   0.035  -0.019  0.00  0.00    -0.276 N 
ATOM     13  H   UNL d   1       3.183   0.685  -0.604  0.00  0.00     0.189 HD
BRANCH  12  14
ATOM     14  N   UNL d   1       3.330  -0.779   0.857  0.00  0.00    -0.309 N 
ATOM     15  C   UNL d   1       4.621  -0.657   0.797  0.00  0.00     0.118 C 
ATOM     16  HN  UNL d   1       2.858  -1.420   1.495  1.00  0.00     0.186 HD
BRANCH  15  17
ATOM     17  C   UNL d   1       5.548  -1.446   1.629  0.00  0.00    -0.019 A 
ATOM     18  C   UNL d   1       5.079  -2.339   2.594  0.00  0.00     0.013 A 
ATOM     19  C   UNL d   1       5.992  -3.070   3.359  0.00  0.00     0.001 A 
ATOM     20  C   UNL d   1       7.364  -2.909   3.156  0.00  0.00     0.000 A 
ATOM     21  C   UNL d   1       7.831  -2.021   2.189  0.00  0.00     0.001 A 
ATOM     22  C   UNL d   1       6.923  -1.286   1.423  0.00  0.00     0.013 A 
ENDBRANCH  15  17
ENDBRANCH  12  14
ENDBRANCH   1  12
TORSDOF 5
