REMARK  2 active torsions:
REMARK  status: ('A' for Active; 'I' for Inactive)
REMARK    1  A    between atoms: C_2  and  N_1 
REMARK       I    between atoms: C_3  and  N_1 
REMARK    2  A    between atoms: C_7  and  C_3 
ROOT
ATOM      1  N   UNL d   1       3.346   1.075  -0.540  0.00  0.00    -0.303 N 
ATOM      2  C   UNL d   1       2.480   0.105  -0.093  0.00  0.00     0.257 C 
ATOM      3  O   UNL d   1       1.284   0.001  -0.338  0.00  0.00    -0.267 OA
ATOM      4  H   UNL d   1       4.343   0.978  -0.422  0.00  0.00     0.171 HD
ENDROOT
BRANCH   2   5
ATOM      5  C   UNL d   1       3.124  -0.965   0.719  0.00  0.00     0.032 A 
ATOM      6  C   UNL d   1       4.162  -0.684   1.619  0.00  0.00     0.018 A 
ATOM      7  C   UNL d   1       4.748  -1.721   2.351  0.00  0.00     0.025 A 
ATOM      8  C   UNL d   1       4.293  -3.030   2.190  0.00  0.00     0.034 A 
ATOM      9  C   UNL d   1       3.248  -3.314   1.312  0.00  0.00     0.025 A 
ATOM     10 CL   UNL d   1       5.024  -4.303   3.088  0.00  0.00    -0.084 Cl
ATOM     11  C   UNL d   1       2.659  -2.280   0.580  0.00  0.00     0.018 A 
ENDBRANCH   2   5
BRANCH   1  12
ATOM     12  C   UNL d   1       2.934   2.120  -1.317  0.00  0.00     0.151 A 
ATOM     13  N   UNL d   1       1.725   2.507  -1.627  0.00  0.00    -0.346 N 
ATOM     14  C   UNL d   1       1.796   3.593  -2.476  0.00  0.00     0.097 A 
ATOM     15  HN  UNL d   1       0.863   2.075  -1.293  1.00  0.00     0.167 HD
ATOM     16  C   UNL d   1       3.069   4.011  -2.799  0.00  0.00     0.070 A 
ATOM     17  S   UNL d   1       4.218   3.039  -1.974  0.00  0.00    -0.064 SA
ENDBRANCH   1  12
TORSDOF 2
