REMARK  3 active torsions:
REMARK  status: ('A' for Active; 'I' for Inactive)
REMARK    1  A    between atoms: C_4  and  C_1 
REMARK    2  A    between atoms: C_9  and  C_3 
REMARK       I    between atoms: N_7  and  C_4 
REMARK    3  A    between atoms: C_8  and  N_7 
ROOT
ATOM      1  C   UNL d   1      -2.817  -1.311   0.071  0.00  0.00     0.254 C 
ATOM      2  N   UNL d   1      -3.988  -0.621   0.262  0.00  0.00    -0.352 N 
ATOM      3  O   UNL d   1      -2.817  -2.519  -0.155  0.00  0.00    -0.268 OA
ATOM      4  H   UNL d   1      -3.944   0.349   0.511  0.00  0.00     0.163 HD
ENDROOT
BRANCH   1   5
ATOM      5  C   UNL d   1      -1.551  -0.562   0.133  0.00  0.00     0.063 A 
ATOM      6  C   UNL d   1      -0.269  -1.206   0.022  0.00  0.00     0.053 A 
ATOM      7  C   UNL d   1       0.706  -0.235   0.075  0.00  0.00     0.062 A 
ATOM      8  O   UNL d   1       0.103   0.974   0.224  0.00  0.00    -0.318 OA
ATOM      9  C   UNL d   1      -1.251   0.792   0.254  0.00  0.00     0.065 A 
ATOM     10  C   UNL d   1      -1.962   2.084   0.382  0.00  0.00     0.077 C 
BRANCH   7  11
ATOM     11  C   UNL d   1       2.210  -0.224  -0.007  0.00  0.00    -0.002 C 
ATOM     12  C   UNL d   1       2.772  -1.652  -0.102  0.00  0.00     0.021 C 
ATOM     13  C   UNL d   1       2.653   0.562  -1.257  0.00  0.00     0.021 C 
ATOM     14  C   UNL d   1       2.795   0.451   1.247  0.00  0.00     0.021 C 
ENDBRANCH   7  11
ENDBRANCH   1   5
BRANCH   2  15
ATOM     15  C   UNL d   1      -5.318  -1.190   0.089  0.00  0.00     0.093 C 
ATOM     16  C   UNL d   1      -5.760  -2.311   1.063  0.00  0.00     0.064 C 
ATOM     17  C   UNL d   1      -7.005  -2.776   0.353  0.00  0.00    -0.050 A 
ATOM     18  C   UNL d   1      -8.121  -3.408   0.876  0.00  0.00     0.007 A 
ATOM     19  C   UNL d   1      -6.933  -2.457  -1.013  0.00  0.00    -0.050 A 
ATOM     20  C   UNL d   1      -9.182  -3.699   0.012  0.00  0.00     0.001 A 
ATOM     21  C   UNL d   1      -9.103  -3.388  -1.355  0.00  0.00     0.001 A 
ATOM     22  C   UNL d   1      -7.964  -2.772  -1.881  0.00  0.00     0.007 A 
ATOM     23  C   UNL d   1      -5.644  -1.747  -1.317  0.00  0.00     0.064 C 
ENDBRANCH   2  15
TORSDOF 3
