REMARK  4 active torsions:
REMARK  status: ('A' for Active; 'I' for Inactive)
REMARK    1  A    between atoms: C_6  and  C_1 
REMARK    2  A    between atoms: C_15  and  C_4 
REMARK       I    between atoms: N_11  and  C_6 
REMARK    3  A    between atoms: C_8  and  C_13 
REMARK    4  A    between atoms: C_13  and  N_11 
ROOT
ATOM      1  C   UNL d   1      -0.112  -1.315  -0.076  0.00  0.00     0.092 A 
ATOM      2  N   UNL d   1      -1.172   0.696  -0.213  0.00  0.00    -0.259 N 
ATOM      3  HN  UNL d   1      -1.893   1.413  -0.292  1.00  0.00     0.195 HD
ATOM      4  C   UNL d   1      -1.375  -0.629  -0.077  0.00  0.00     0.083 A 
ATOM      5  O   UNL d   1       0.177   0.902  -0.226  0.00  0.00    -0.241 OA
ATOM      6  C   UNL d   1       0.814  -0.284  -0.121  0.00  0.00     0.090 A 
ATOM      7  C   UNL d   1       2.289  -0.212  -0.086  0.00  0.00     0.080 C 
ENDROOT
BRANCH   1   8
ATOM      8  C   UNL d   1       0.301  -2.703   0.024  0.00  0.00     0.256 C 
ATOM      9  N   UNL d   1      -0.461  -3.646  -0.634  0.00  0.00    -0.352 N 
ATOM     10  H   UNL d   1      -1.282  -3.377  -1.158  0.00  0.00     0.163 HD
ATOM     11  O   UNL d   1       1.327  -3.012   0.618  0.00  0.00    -0.267 OA
BRANCH   9  12
ATOM     12  C   UNL d   1      -0.093  -5.050  -0.590  0.00  0.00     0.169 C 
BRANCH  12  13
ATOM     13  C   UNL d   1      -0.024  -5.618  -1.979  0.00  0.00     0.006 A 
ATOM     14  C   UNL d   1       0.876  -5.338  -3.002  0.00  0.00    -0.047 A 
ATOM     15  C   UNL d   1       0.611  -6.141  -4.161  0.00  0.00     0.015 A 
ATOM     16  C   UNL d   1       1.993  -4.347  -2.942  0.00  0.00     0.049 C 
ATOM     17  C   UNL d   1      -0.428  -7.021  -3.973  0.00  0.00     0.051 A 
ATOM     18  S   UNL d   1      -1.117  -6.867  -2.421  0.00  0.00    -0.104 SA
ENDBRANCH  12  13
ENDBRANCH   9  12
ENDBRANCH   1   8
BRANCH   4  19
ATOM     19  C   UNL d   1      -2.760  -1.090   0.102  0.00  0.00    -0.006 A 
ATOM     20  C   UNL d   1      -3.820  -0.282  -0.360  0.00  0.00     0.014 A 
ATOM     21  C   UNL d   1      -5.152  -0.627  -0.128  0.00  0.00     0.001 A 
ATOM     22  C   UNL d   1      -5.451  -1.793   0.565  0.00  0.00     0.000 A 
ATOM     23  C   UNL d   1      -4.418  -2.605   1.033  0.00  0.00     0.001 A 
ATOM     24  C   UNL d   1      -3.079  -2.251   0.812  0.00  0.00     0.014 A 
ENDBRANCH   4  19
TORSDOF 4
