REMARK  6 active torsions:
REMARK  status: ('A' for Active; 'I' for Inactive)
REMARK    1  A    between atoms: C_7  and  N_1 
REMARK    2  A    between atoms: C_8  and  C_2 
REMARK    3  A    between atoms: C_13  and  C_6 
REMARK    4  A    between atoms: C_9  and  C_7 
REMARK       I    between atoms: N_12  and  C_8 
REMARK    5  A    between atoms: C_23  and  N_12 
REMARK    6  A    between atoms: C_15  and  C_23 
ROOT
ATOM      1  N   UNL d   1       0.471  -0.587   0.379  0.00  0.00    -0.282 N 
ATOM      2  C   UNL d   1      -0.804  -1.154   0.410  0.00  0.00     0.120 C 
ATOM      3  N   UNL d   1       0.447   0.718   0.054  0.00  0.00    -0.301 N 
ATOM      4  HN  UNL d   1       1.246   1.304  -0.190  1.00  0.00     0.187 HD
ATOM      5  C   UNL d   1      -1.650  -0.049   0.308  0.00  0.00     0.064 C 
ATOM      6  C   UNL d   1      -0.822   1.090   0.115  0.00  0.00     0.036 C 
ENDROOT
BRANCH   1   7
ATOM      7  C   UNL d   1       1.815  -1.167   0.466  0.00  0.00     0.189 C 
BRANCH   7   8
ATOM      8  C   UNL d   1       2.384  -1.268   1.878  0.00  0.00    -0.026 A 
ATOM      9  C   UNL d   1       2.637  -2.538   2.458  0.00  0.00    -0.053 A 
ATOM     10  C   UNL d   1       3.136  -2.634   3.775  0.00  0.00     0.014 A 
ATOM     11  C   UNL d   1       2.409  -3.858   1.770  0.00  0.00     0.049 C 
ATOM     12  C   UNL d   1       3.438  -1.510   4.531  0.00  0.00    -0.061 A 
ATOM     13  C   UNL d   1       3.256  -0.258   3.951  0.00  0.00     0.014 A 
ATOM     14  C   UNL d   1       3.973  -1.657   5.923  0.00  0.00     0.048 C 
ATOM     15  C   UNL d   1       2.761  -0.117   2.635  0.00  0.00    -0.053 A 
ATOM     16  C   UNL d   1       2.731   1.310   2.142  0.00  0.00     0.049 C 
ENDBRANCH   7   8
ENDBRANCH   1   7
BRANCH   2  17
ATOM     17  C   UNL d   1      -1.093  -2.585   0.538  0.00  0.00     0.270 C 
ATOM     18  N   UNL d   1      -2.428  -3.003   0.621  0.00  0.00    -0.351 N 
ATOM     19  H   UNL d   1      -3.192  -2.348   0.552  0.00  0.00     0.163 HD
ATOM     20  O   UNL d   1      -0.203  -3.424   0.557  0.00  0.00    -0.266 OA
BRANCH  18  21
ATOM     21  C   UNL d   1      -2.699  -4.418   0.857  0.00  0.00     0.169 C 
BRANCH  21  22
ATOM     22  C   UNL d   1      -4.153  -4.838   0.824  0.00  0.00     0.000 A 
ATOM     23  S   UNL d   1      -5.032  -4.877  -0.652  0.00  0.00    -0.105 SA
ATOM     24  C   UNL d   1      -6.340  -5.731   0.052  0.00  0.00     0.050 A 
ATOM     25  C   UNL d   1      -6.147  -5.944   1.400  0.00  0.00     0.008 A 
ATOM     26  C   UNL d   1      -4.897  -5.414   1.845  0.00  0.00     0.017 A 
ENDBRANCH  21  22
ENDBRANCH  18  21
ENDBRANCH   2  17
BRANCH   6  27
ATOM     27  C   UNL d   1      -1.115   2.578  -0.009  0.00  0.00    -0.007 C 
ATOM     28  C   UNL d   1      -0.439   3.177  -1.267  0.00  0.00     0.021 C 
ATOM     29  C   UNL d   1      -2.621   2.863  -0.093  0.00  0.00     0.021 C 
ATOM     30  C   UNL d   1      -0.542   3.323   1.219  0.00  0.00     0.021 C 
ENDBRANCH   6  27
TORSDOF 6
