REMARK  1 active torsions:
REMARK  status: ('A' for Active; 'I' for Inactive)
REMARK    1  A    between atoms: C_4  and  C_1 
ROOT
ATOM      1  C   UNL d   1      -2.405  -0.074  -0.045  0.00  0.00     0.043 A 
ATOM      2  N   UNL d   1      -1.650  -1.093   0.497  0.00  0.00    -0.355 N 
ATOM      3  C   UNL d   1      -1.508   0.895  -0.461  0.00  0.00     0.044 A 
ATOM      4  C   UNL d   1      -0.311  -0.777   0.483  0.00  0.00     0.043 A 
ATOM      5  C   UNL d   1      -0.197   0.474  -0.122  0.00  0.00    -0.007 A 
ATOM      6  C   UNL d   1       0.798  -1.488   0.955  0.00  0.00     0.030 A 
ATOM      7  C   UNL d   1       1.078   1.048  -0.270  0.00  0.00     0.014 A 
ATOM      8  C   UNL d   1       2.055  -0.889   0.815  0.00  0.00     0.002 A 
ATOM      9  C   UNL d   1       2.196   0.359   0.211  0.00  0.00     0.001 A 
ATOM     10  H   UNL d   1      -2.025  -1.959   0.856  0.00  0.00     0.166 HD
ENDROOT
BRANCH   1  11
ATOM     11  C   UNL d   1      -3.864  -0.112  -0.142  0.00  0.00    -0.009 A 
ATOM     12  C   UNL d   1      -4.638  -0.750   0.836  0.00  0.00     0.026 A 
ATOM     13  C   UNL d   1      -6.038  -0.815   0.729  0.00  0.00    -0.025 A 
ATOM     14  C   UNL d   1      -6.814  -1.478   1.693  0.00  0.00     0.012 A 
ATOM     15  C   UNL d   1      -6.677  -0.212  -0.377  0.00  0.00    -0.026 A 
ATOM     16  C   UNL d   1      -8.200  -1.560   1.557  0.00  0.00     0.001 A 
ATOM     17  C   UNL d   1      -8.828  -0.975   0.461  0.00  0.00     0.001 A 
ATOM     18  C   UNL d   1      -8.072  -0.299  -0.498  0.00  0.00     0.012 A 
ATOM     19  C   UNL d   1      -5.904   0.456  -1.336  0.00  0.00     0.013 A 
ATOM     20  C   UNL d   1      -4.513   0.502  -1.219  0.00  0.00     0.014 A 
ENDBRANCH   1  11
TORSDOF 1
