REMARK  3 active torsions:
REMARK  status: ('A' for Active; 'I' for Inactive)
REMARK    1  A    between atoms: C_13  and  N_1 
REMARK    2  A    between atoms: C_11  and  N_3 
REMARK    3  A    between atoms: C_16  and  C_13 
ROOT
ATOM      1  N   UNL d   1      -0.698   1.186  -0.037  0.00  0.00    -0.262 N 
ATOM      2  C   UNL d   1      -1.427  -0.003  -0.022  0.00  0.00     0.351 A 
ATOM      3  N   UNL d   1      -0.667  -1.192  -0.006  0.00  0.00    -0.204 N 
ATOM      4  N   UNL d   1       0.711  -1.226   0.080  0.00  0.00    -0.275 N 
ATOM      5  HN  UNL d   1       1.210  -2.112   0.162  1.00  0.00     0.188 HD
ATOM      6  C   UNL d   1       1.353  -0.099   0.053  0.00  0.00     0.198 A 
ATOM      7  C   UNL d   1       0.680   1.226  -0.040  0.00  0.00     0.290 A 
ATOM      8  C   UNL d   1       2.783  -0.261   0.134  0.00  0.00     0.125 C 
ATOM      9  N   UNL d   1       3.934  -0.404   0.204  0.00  0.00    -0.190 NA
ATOM     10  O   UNL d   1      -2.657   0.036   0.013  0.00  0.00    -0.244 OA
ATOM     11  O   UNL d   1       1.371   2.235  -0.089  0.00  0.00    -0.265 OA
ENDROOT
BRANCH   3  12
ATOM     12  C   UNL d   1      -1.282  -2.492   0.008  0.00  0.00     0.061 A 
ATOM     13  C   UNL d   1      -2.569  -2.709  -0.509  0.00  0.00     0.032 A 
ATOM     14  C   UNL d   1      -3.187  -3.961  -0.425  0.00  0.00     0.002 A 
ATOM     15  C   UNL d   1      -2.525  -5.025   0.175  0.00  0.00     0.000 A 
ATOM     16  C   UNL d   1      -1.233  -4.846   0.659  0.00  0.00     0.002 A 
ATOM     17  C   UNL d   1      -0.610  -3.595   0.561  0.00  0.00     0.032 A 
ENDBRANCH   3  12
BRANCH   1  18
ATOM     18  C   UNL d   1      -1.432   2.450  -0.005  0.00  0.00     0.137 C 
BRANCH  18  19
ATOM     19  C   UNL d   1      -1.675   3.063  -1.388  0.00  0.00     0.016 C 
ATOM     20  C   UNL d   1      -2.573   2.228  -2.289  0.00  0.00     0.006 C 
ENDBRANCH  18  19
ENDBRANCH   1  18
TORSDOF 3
