REMARK  6 active torsions:
REMARK  status: ('A' for Active; 'I' for Inactive)
REMARK       I    between atoms: N_6  and  C_1 
REMARK       I    between atoms: N_7  and  C_1 
REMARK    1  A    between atoms: N_2  and  N_7 
REMARK    2  A    between atoms: N_4  and  N_6 
REMARK    3  A    between atoms: C_19  and  C_9 
REMARK    4  A    between atoms: C_20  and  C_10 
REMARK    5  A    between atoms: C_17  and  C_15 
REMARK    6  A    between atoms: C_18  and  C_16 
ROOT
ATOM      1  C   UNL d   1       1.014   0.069  -0.047  0.00  0.00     0.353 C 
ATOM      2  N   UNL d   1       0.336  -1.129   0.208  0.00  0.00    -0.251 N 
ATOM      3  N   UNL d   1       0.125   1.107  -0.322  0.00  0.00    -0.251 N 
ATOM      4  O   UNL d   1       2.239   0.190  -0.028  0.00  0.00    -0.244 OA
ATOM      5  H   UNL d   1      -0.672  -1.155   0.219  0.00  0.00     0.191 HD
ATOM      6  H   UNL d   1      -0.865   0.913  -0.407  0.00  0.00     0.191 HD
ENDROOT
BRANCH   2   7
ATOM      7  N   UNL d   1       1.041  -2.257   0.512  0.00  0.00    -0.307 N 
ATOM      8  C   UNL d   1       0.355  -3.331   0.753  0.00  0.00     0.118 C 
ATOM      9  HN  UNL d   1       2.061  -2.256   0.549  1.00  0.00     0.186 HD
BRANCH   8  10
ATOM     10  C   UNL d   1       1.027  -4.602   1.109  0.00  0.00    -0.019 A 
ATOM     11  C   UNL d   1       2.419  -4.659   1.200  0.00  0.00     0.013 A 
ATOM     12  C   UNL d   1       3.049  -5.851   1.561  0.00  0.00     0.008 A 
ATOM     13  C   UNL d   1       2.304  -7.008   1.835  0.00  0.00    -0.055 A 
ATOM     14  C   UNL d   1       0.905  -6.941   1.726  0.00  0.00     0.008 A 
ATOM     15  C   UNL d   1       0.267  -5.745   1.367  0.00  0.00     0.013 A 
BRANCH  13  16
ATOM     16  C   UNL d   1       2.987  -8.306   2.243  0.00  0.00     0.010 C 
ATOM     17  C   UNL d   1       3.943  -8.812   1.158  0.00  0.00     0.015 C 
ATOM     18  C   UNL d   1       3.732  -8.167   3.575  0.00  0.00     0.015 C 
ENDBRANCH  13  16
ENDBRANCH   8  10
ENDBRANCH   2   7
BRANCH   3  19
ATOM     19  N   UNL d   1       0.584   2.354  -0.649  0.00  0.00    -0.307 N 
ATOM     20  C   UNL d   1      -0.324   3.239  -0.905  0.00  0.00     0.118 C 
ATOM     21  HN  UNL d   1       1.580   2.571  -0.689  1.00  0.00     0.186 HD
BRANCH  20  22
ATOM     22  C   UNL d   1       0.009   4.618  -1.320  0.00  0.00    -0.019 A 
ATOM     23  C   UNL d   1       1.335   5.024  -1.472  0.00  0.00     0.013 A 
ATOM     24  C   UNL d   1       1.621   6.317  -1.921  0.00  0.00     0.008 A 
ATOM     25  C   UNL d   1       0.591   7.223  -2.223  0.00  0.00    -0.055 A 
ATOM     26  C   UNL d   1      -0.738   6.808  -2.040  0.00  0.00     0.008 A 
ATOM     27  C   UNL d   1      -1.029   5.514  -1.592  0.00  0.00     0.013 A 
BRANCH  25  28
ATOM     28  C   UNL d   1       0.892   8.619  -2.746  0.00  0.00     0.010 C 
ATOM     29  C   UNL d   1       1.713   9.436  -1.745  0.00  0.00     0.015 C 
ATOM     30  C   UNL d   1       1.600   8.574  -4.104  0.00  0.00     0.015 C 
ENDBRANCH  25  28
ENDBRANCH  20  22
ENDBRANCH   3  19
TORSDOF 6
