REMARK  3 active torsions:
REMARK  status: ('A' for Active; 'I' for Inactive)
REMARK    1  A    between atoms: C_8  and  C_1 
REMARK    2  A    between atoms: C_6  and  N_2 
REMARK    3  A    between atoms: N_7  and  C_8 
ROOT
ATOM      1  N   UNL d   1       0.978  -1.631   0.431  0.00  0.00    -0.266 NA
ATOM      2  N   UNL d   1      -1.585  -3.122   0.248  0.00  0.00     0.095 N 
ATOM      3  C   UNL d   1       0.601  -2.342  -0.810  0.00  0.00     0.127 C 
ATOM      4  C   UNL d   1      -0.024  -1.566   1.523  0.00  0.00     0.127 C 
ATOM      5  C   UNL d   1      -0.435  -3.471  -0.610  0.00  0.00     0.287 C 
ATOM      6  C   UNL d   1      -1.001  -2.753   1.560  0.00  0.00     0.287 C 
ENDROOT
BRANCH   2   7
ATOM      7  C   UNL d   1      -2.383  -2.037  -0.371  0.00  0.00     0.313 C 
BRANCH   7   8
ATOM      8  C   UNL d   1      -3.546  -1.671   0.502  0.00  0.00    -0.002 C 
ATOM      9  C   UNL d   1      -4.680  -2.428   0.723  0.00  0.00     0.098 C 
ATOM     10  N   UNL d   1      -5.412  -1.825   1.704  0.00  0.00    -0.365 N 
ATOM     11  C   UNL d   1      -4.788  -0.676   2.129  0.00  0.00     0.043 A 
ATOM     12  H   UNL d   1      -6.268  -2.189   2.098  0.00  0.00     0.165 HD
ATOM     13  C   UNL d   1      -3.668  -0.496   1.319  0.00  0.00    -0.000 A 
ATOM     14  C   UNL d   1      -5.117   0.199   3.173  0.00  0.00     0.030 A 
ATOM     15  C   UNL d   1      -2.895   0.669   1.502  0.00  0.00     0.014 A 
ATOM     16  C   UNL d   1      -3.200   1.549   2.546  0.00  0.00     0.001 A 
ATOM     17  C   UNL d   1      -4.285   1.303   3.381  0.00  0.00     0.002 A 
ENDBRANCH   7   8
ENDBRANCH   2   7
BRANCH   1  18
ATOM     18  C   UNL d   1       1.578  -0.364   0.208  0.00  0.00     0.082 A 
ATOM     19  N   UNL d   1       1.258   0.673   1.019  0.00  0.00    -0.357 N 
ATOM     20  C   UNL d   1       1.766   1.899   0.763  0.00  0.00     0.089 A 
ATOM     21  HN  UNL d   1       0.639   0.530   1.817  1.00  0.00     0.166 HD
ATOM     22  C   UNL d   1       2.622   2.168  -0.287  0.00  0.00     0.017 A 
ATOM     23  C   UNL d   1       2.991   1.109  -1.097  0.00  0.00     0.005 A 
ATOM     24  C   UNL d   1       2.477  -0.164  -0.842  0.00  0.00     0.042 A 
ENDBRANCH   1  18
TORSDOF 3
