REMARK  2 active torsions:
REMARK  status: ('A' for Active; 'I' for Inactive)
REMARK    1  A    between atoms: C_6  and  C_1 
REMARK    2  A    between atoms: C_5  and  C_6 
ROOT
ATOM      1  C   UNL d   1      -0.608  -2.511   0.060  0.00  0.00     0.110 C 
ENDROOT
BRANCH   1   2
ATOM      2  C   UNL d   1       0.613  -3.402   0.046  0.00  0.00    -0.030 A 
ATOM      3  C   UNL d   1       1.163  -3.933  -1.131  0.00  0.00     0.040 A 
ATOM      4 CL   UNL d   1       0.507  -3.576  -2.689  0.00  0.00    -0.084 Cl
ATOM      5  C   UNL d   1       2.280  -4.774  -1.078  0.00  0.00     0.024 A 
ATOM      6  C   UNL d   1       2.872  -5.082   0.146  0.00  0.00     0.002 A 
ATOM      7  C   UNL d   1       2.356  -4.539   1.319  0.00  0.00     0.001 A 
ATOM      8  C   UNL d   1       1.239  -3.703   1.270  0.00  0.00     0.009 A 
ENDBRANCH   1   2
BRANCH   1   9
ATOM      9  C   UNL d   1      -0.262  -1.049  -0.077  0.00  0.00     0.056 C 
ATOM     10  N   UNL d   1      -0.060  -0.291   0.973  0.00  0.00    -0.383 N 
ATOM     11  C   UNL d   1       0.252   1.048   0.393  0.00  0.00     0.135 C 
ATOM     12  HN  UNL d   1      -0.107  -0.555   1.957  1.00  0.00     0.160 HD
ATOM     13  C   UNL d   1       0.539   0.818  -1.095  0.00  0.00     0.113 C 
ATOM     14  N   UNL d   1      -0.108  -0.454  -1.306  0.00  0.00    -0.281 NA
ATOM     15  H   UNL d   1       0.222  -1.039  -2.066  0.00  0.00     0.128 HD
ENDBRANCH   1   9
TORSDOF 2
