REMARK  5 active torsions:
REMARK  status: ('A' for Active; 'I' for Inactive)
REMARK    1  A    between atoms: C_11  and  C_1 
REMARK    2  A    between atoms: O_13  and  C_1 
REMARK    3  A    between atoms: C_8  and  C_6 
REMARK    4  A    between atoms: S_12  and  C_7 
REMARK    5  A    between atoms: O_22  and  C_19 
ROOT
ATOM      1  C   UNL d   1       0.235  -1.454   0.103  0.00  0.00     0.203 C 
ATOM      2  C   UNL d   1       1.335  -0.441   0.004  0.00  0.00     0.115 C 
ATOM      3  N   UNL d   1      -1.048  -0.861  -0.123  0.00  0.00    -0.332 N 
ATOM      4  N   UNL d   1      -0.254   1.352  -0.007  0.00  0.00    -0.332 N 
ATOM      5  HN  UNL d   1      -0.436   2.354   0.048  1.00  0.00     0.168 HD
ATOM      6  C   UNL d   1      -1.243   0.503  -0.040  0.00  0.00     0.190 C 
ATOM      7  C   UNL d   1       1.044   0.880  -0.048  0.00  0.00     0.093 C 
ATOM      8  C   UNL d   1       2.676  -0.946  -0.003  0.00  0.00     0.103 C 
ATOM      9  N   UNL d   1       3.758  -1.364  -0.004  0.00  0.00    -0.191 NA
ATOM     10  H   UNL d   1      -1.838  -1.470   0.082  0.00  0.00     0.164 HD
ENDROOT
BRANCH   1  11
ATOM     11  C   UNL d   1       0.210  -2.187   1.446  0.00  0.00     0.003 A 
ATOM     12  C   UNL d   1       0.109  -1.475   2.659  0.00  0.00     0.015 A 
ATOM     13  C   UNL d   1       0.085  -2.138   3.893  0.00  0.00     0.037 A 
ATOM     14  C   UNL d   1       0.153  -3.528   3.941  0.00  0.00     0.068 A 
ATOM     15  C   UNL d   1       0.239  -4.247   2.750  0.00  0.00     0.037 A 
ATOM     16  C   UNL d   1       0.277  -3.588   1.518  0.00  0.00     0.015 A 
BRANCH  14  17
ATOM     17  O   UNL d   1       0.098  -4.289   5.074  0.00  0.00    -0.356 OA
ATOM     18  C   UNL d   1       0.563  -3.669   6.267  0.00  0.00     0.210 C 
ENDBRANCH  14  17
ENDBRANCH   1  11
BRANCH   1  19
ATOM     19  O   UNL d   1       0.365  -2.373  -0.966  0.00  0.00    -0.362 OA
ATOM     20  H   UNL d   1      -0.015  -1.905  -1.729  0.00  0.00     0.213 HD
ENDBRANCH   1  19
BRANCH   7  21
ATOM     21  S   UNL d   1       2.379   2.041  -0.131  0.00  0.00    -0.115 SA
ATOM     22  C   UNL d   1       1.524   3.629  -0.123  0.00  0.00     0.097 C 
ENDBRANCH   7  21
BRANCH   6  23
ATOM     23  C   UNL d   1      -2.708   1.044   0.004  0.00  0.00     0.449 C 
ATOM     24  F   UNL d   1      -3.608   0.018   0.023  0.00  0.00    -0.163 F 
ATOM     25  F   UNL d   1      -2.956   1.794   1.109  0.00  0.00    -0.163 F 
ATOM     26  F   UNL d   1      -3.015   1.806  -1.079  0.00  0.00    -0.163 F 
ENDBRANCH   6  23
TORSDOF 5
