REMARK  3 active torsions:
REMARK  status: ('A' for Active; 'I' for Inactive)
REMARK    1  A    between atoms: N_6  and  C_1 
REMARK    2  A    between atoms: C_7  and  C_2 
REMARK       I    between atoms: C_8  and  N_6 
REMARK    3  A    between atoms: O_11  and  C_7 
ROOT
ATOM      1  C   UNL d   1      -2.157  -0.778  -0.024  0.00  0.00     0.094 A 
ATOM      2  C   UNL d   1      -1.073  -1.651  -0.076  0.00  0.00     0.078 A 
ATOM      3  S   UNL d   1      -1.684   0.849  -0.060  0.00  0.00    -0.075 SA
ATOM      4  C   UNL d   1       0.181  -0.915  -0.061  0.00  0.00    -0.025 A 
ATOM      5  C   UNL d   1      -0.041   0.450  -0.064  0.00  0.00    -0.008 A 
ATOM      6  C   UNL d   1       1.586  -1.458  -0.022  0.00  0.00     0.041 C 
ATOM      7  C   UNL d   1       1.010   1.516  -0.007  0.00  0.00     0.047 C 
ATOM      8  C   UNL d   1       2.607  -0.401   0.431  0.00  0.00     0.005 C 
ATOM      9  C   UNL d   1       2.396   0.931  -0.300  0.00  0.00     0.005 C 
ENDROOT
BRANCH   1  10
ATOM     10  N   UNL d   1      -3.499  -1.136   0.040  0.00  0.00    -0.321 N 
ATOM     11  C   UNL d   1      -4.591  -0.287   0.069  0.00  0.00     0.218 C 
ATOM     12  O   UNL d   1      -4.591   0.939   0.044  0.00  0.00    -0.274 OA
ATOM     13  C   UNL d   1      -5.906  -1.026   0.126  0.00  0.00     0.117 C 
ATOM     14  H   UNL d   1      -3.671  -2.138   0.113  0.00  0.00     0.169 HD
ENDBRANCH   1  10
BRANCH   2  15
ATOM     15  C   UNL d   1      -1.277  -3.102  -0.101  0.00  0.00     0.179 C 
ATOM     16  O   UNL d   1      -2.291  -3.639   0.330  0.00  0.00    -0.646 OA
BRANCH  15  17
ATOM     17  O   UNL d   1      -0.304  -3.822  -0.708  0.00  0.00    -0.773 OA
ATOM     18  H   UNL d   1       0.322  -3.260  -1.196  0.00  0.00     0.167 HD
ENDBRANCH  15  17
ENDBRANCH   2  15
TORSDOF 3
