REMARK  4 active torsions:
REMARK  status: ('A' for Active; 'I' for Inactive)
REMARK    1  A    between atoms: N_2  and  C_1 
REMARK    2  A    between atoms: C_6  and  C_4 
REMARK       I    between atoms: N_5  and  C_6 
REMARK    3  A    between atoms: C_7  and  N_5 
REMARK    4  A    between atoms: C_10  and  C_7 
ROOT
ATOM      1  N   UNL d   1      -1.784  -2.168  -0.223  0.00  0.00    -0.310 N 
ATOM      2  C   UNL d   1      -1.419  -3.490  -0.426  0.00  0.00     0.280 C 
ATOM      3  O   UNL d   1      -2.223  -4.385  -0.672  0.00  0.00    -0.265 OA
ATOM      4  H   UNL d   1      -1.011  -1.528  -0.104  0.00  0.00     0.170 HD
ENDROOT
BRANCH   1   5
ATOM      5  C   UNL d   1      -3.056  -1.679  -0.025  0.00  0.00     0.085 C 
ATOM      6  N   UNL d   1      -4.094  -2.437  -0.076  0.00  0.00    -0.388 N 
ATOM      7  H   UNL d   1      -3.810  -3.410  -0.278  0.00  0.00     0.157 HD
ATOM      8  HN  UNL d   1      -5.055  -2.125   0.063  1.00  0.00     0.157 HD
BRANCH   5   9
ATOM      9  C   UNL d   1      -3.183  -0.162   0.220  0.00  0.00     0.007 C 
ATOM     10  C   UNL d   1      -2.834   0.582  -1.078  0.00  0.00     0.022 C 
ATOM     11  C   UNL d   1      -4.620   0.208   0.633  0.00  0.00     0.022 C 
ATOM     12  C   UNL d   1      -2.233   0.279   1.347  0.00  0.00     0.022 C 
ENDBRANCH   5   9
ENDBRANCH   1   5
BRANCH   2  13
ATOM     13  C   UNL d   1       0.012  -3.713  -0.343  0.00  0.00     0.146 A 
ATOM     14  O   UNL d   1       0.824  -2.692   0.085  0.00  0.00    -0.283 OA
ATOM     15  C   UNL d   1       2.087  -3.200   0.127  0.00  0.00     0.215 A 
ATOM     16  C   UNL d   1       2.122  -4.508  -0.290  0.00  0.00     0.066 A 
ATOM     17  C   UNL d   1       0.776  -4.840  -0.595  0.00  0.00     0.047 A 
BRANCH  15  18
ATOM     18  N   UNL d   1       3.111  -2.321   0.597  0.00  0.00    -0.090 N 
ATOM     19  O   UNL d   1       4.242  -2.809   0.718  0.00  0.00    -0.530 OA
ATOM     20  O   UNL d   1       2.790  -1.152   0.846  0.00  0.00    -0.530 OA
ENDBRANCH  15  18
ENDBRANCH   2  13
TORSDOF 4
