REMARK  3 active torsions:
REMARK  status: ('A' for Active; 'I' for Inactive)
REMARK    1  A    between atoms: N_6  and  C_1 
REMARK    2  A    between atoms: C_4  and  C_8 
REMARK       I    between atoms: C_5  and  N_7 
REMARK    3  A    between atoms: C_14  and  C_5 
ROOT
ATOM      1  C   UNL d   1      -1.092   6.670   0.128  0.00  0.00     0.253 C 
ATOM      2  N   UNL d   1       0.216   2.753   0.195  0.00  0.00    -0.253 NA
ATOM      3  N   UNL d   1      -0.031   5.758   0.179  0.00  0.00    -0.347 N 
ATOM      4  C   UNL d   1      -0.010   3.541  -1.031  0.00  0.00     0.118 C 
ATOM      5  C   UNL d   1       0.543   4.979  -0.927  0.00  0.00     0.141 C 
ATOM      6  O   UNL d   1      -1.529   7.202   1.158  0.00  0.00    -0.267 OA
ATOM      7  C   UNL d   1       0.179   4.238   2.189  0.00  0.00     0.035 C 
ATOM      8  C   UNL d   1      -0.566   3.200   1.363  0.00  0.00     0.100 C 
ATOM      9  C   UNL d   1       0.607   5.513   1.472  0.00  0.00     0.127 C 
ENDROOT
BRANCH   2  10
ATOM     10  C   UNL d   1       0.002   1.378  -0.007  0.00  0.00     0.160 A 
ATOM     11  N   UNL d   1       0.295   0.553   1.009  0.00  0.00    -0.329 N 
ATOM     12  C   UNL d   1       0.026  -0.771   0.881  0.00  0.00     0.120 A 
ATOM     13  HN  UNL d   1       0.714   0.915   1.866  1.00  0.00     0.168 HD
ATOM     14  C   UNL d   1      -0.531  -1.288  -0.271  0.00  0.00     0.051 A 
ATOM     15  C   UNL d   1      -0.771  -0.385  -1.273  0.00  0.00     0.093 A 
ATOM     16  N   UNL d   1      -0.508   0.931  -1.167  0.00  0.00    -0.343 N 
ATOM     17  HN  UNL d   1      -0.692   1.568  -1.942  1.00  0.00     0.167 HD
BRANCH  12  18
ATOM     18  C   UNL d   1       0.311  -1.696   2.049  0.00  0.00     0.432 C 
ATOM     19  F   UNL d   1       0.889  -1.090   3.124  0.00  0.00    -0.165 F 
ATOM     20  F   UNL d   1      -0.823  -2.290   2.524  0.00  0.00    -0.165 F 
ATOM     21  F   UNL d   1       1.143  -2.724   1.709  0.00  0.00    -0.165 F 
ENDBRANCH  12  18
ENDBRANCH   2  10
BRANCH   1  22
ATOM     22  C   UNL d   1      -1.710   7.118  -1.157  0.00  0.00     0.032 A 
ATOM     23  C   UNL d   1      -1.987   6.275  -2.236  0.00  0.00     0.017 A 
ATOM     24  C   UNL d   1      -2.525   6.778  -3.425  0.00  0.00     0.001 A 
ATOM     25  C   UNL d   1      -2.860   8.124  -3.525  0.00  0.00     0.000 A 
ATOM     26  C   UNL d   1      -2.666   8.966  -2.432  0.00  0.00     0.001 A 
ATOM     27  C   UNL d   1      -2.092   8.466  -1.258  0.00  0.00     0.017 A 
ENDBRANCH   1  22
TORSDOF 3
