REMARK  3 active torsions:
REMARK  status: ('A' for Active; 'I' for Inactive)
REMARK    1  A    between atoms: C_7  and  CA_1 
REMARK    2  A    between atoms: C_2  and  C_3 
REMARK    3  A    between atoms: OXT_15  and  C_7 
ROOT
ATOM      1  CA  UNL d   1      -0.238   1.145  -0.010  0.00  0.00     0.128 A 
ATOM      2  C   UNL d   1      -1.650  -1.220  -0.015  0.00  0.00     0.065 A 
ATOM      3  N   UNL d   1      -1.616   1.198  -0.002  0.00  0.00    -0.358 N 
ATOM      4  HN  UNL d   1      -2.114   2.088   0.006  1.00  0.00     0.165 HD
ATOM      5  C   UNL d   1       0.480  -0.046  -0.018  0.00  0.00     0.068 A 
ATOM      6  C   UNL d   1      -0.249  -1.240  -0.021  0.00  0.00     0.044 A 
ATOM      7  C   UNL d   1      -2.278   0.017  -0.004  0.00  0.00     0.105 A 
ATOM      8 CL   UNL d   1       2.195  -0.167  -0.025  0.00  0.00    -0.082 Cl
ENDROOT
BRANCH   1   9
ATOM      9  C   UNL d   1       0.403   2.501  -0.012  0.00  0.00     0.195 C 
ATOM     10  O   UNL d   1       1.592   2.752  -0.019  0.00  0.00    -0.645 OA
BRANCH   9  11
ATOM     11  OXT UNL d   1      -0.557   3.464  -0.007  0.00  0.00    -0.772 OA
ATOM     12  HXT UNL d   1      -1.446   3.036  -0.002  0.00  0.00     0.167 HD
ENDBRANCH   9  11
ENDBRANCH   1   9
BRANCH   2  13
ATOM     13  C   UNL d   1      -2.473  -2.475  -0.022  0.00  0.00     0.418 C 
ATOM     14  F   UNL d   1      -1.725  -3.611  -0.038  0.00  0.00    -0.166 F 
ATOM     15  F   UNL d   1      -3.279  -2.569   1.069  0.00  0.00    -0.166 F 
ATOM     16  F   UNL d   1      -3.293  -2.547  -1.105  0.00  0.00    -0.166 F 
ENDBRANCH   2  13
TORSDOF 3
