REMARK  0 active torsions:
REMARK  status: ('A' for Active; 'I' for Inactive)
ROOT
ATOM      1  C   UNL d   1      -3.188   0.230   0.138  0.00  0.00     0.147 A 
ATOM      2  N   UNL d   1      -2.464   0.895  -0.741  0.00  0.00    -0.336 N 
ATOM      3  HN  UNL d   1      -2.854   1.479  -1.481  1.00  0.00     0.168 HD
ATOM      4  S   UNL d   1      -2.230  -0.634   1.297  0.00  0.00    -0.052 SA
ATOM      5  C   UNL d   1      -0.782  -0.124   0.535  0.00  0.00     0.036 A 
ATOM      6  N   UNL d   1      -4.553   0.213   0.126  0.00  0.00    -0.360 N 
ATOM      7  C   UNL d   1      -1.110   0.704  -0.535  0.00  0.00     0.051 A 
ATOM      8  C   UNL d   1       0.548  -0.432   0.865  0.00  0.00     0.045 A 
ATOM      9  N   UNL d   1      -7.038   1.901   0.584  0.00  0.00     0.085 N 
ATOM     10  C   UNL d   1      -0.067   1.259  -1.305  0.00  0.00     0.032 A 
ATOM     11  C   UNL d   1       1.561   0.131   0.085  0.00  0.00     0.035 A 
ATOM     12  C   UNL d   1       1.265   0.969  -0.986  0.00  0.00     0.026 A 
ATOM     13  C   UNL d   1      -5.365  -0.445   1.138  0.00  0.00     0.127 C 
ATOM     14 CL   UNL d   1       3.205  -0.219   0.459  0.00  0.00    -0.084 Cl
ATOM     15  C   UNL d   1      -5.278   0.872  -0.965  0.00  0.00     0.154 C 
ATOM     16  C   UNL d   1      -5.731   0.497   2.280  0.00  0.00     0.050 C 
ATOM     17  C   UNL d   1      -6.396   1.824   1.894  0.00  0.00     0.271 C 
ATOM     18  C   UNL d   1      -6.054   2.118  -0.492  0.00  0.00     0.289 C 
ATOM     19  H   UNL d   1      -7.582   1.062   0.398  0.00  0.00     0.315 HD
ENDROOT
TORSDOF 0
