REMARK  3 active torsions:
REMARK  status: ('A' for Active; 'I' for Inactive)
REMARK    1  A    between atoms: C_2  and  N_1 
REMARK    2  A    between atoms: C_9  and  C_6 
REMARK    3  A    between atoms: S_8  and  C_9 
ROOT
ATOM      1  C   UNL d   1       3.227  -3.779   1.472  0.00  0.00     0.133 C 
ATOM      2  N   UNL d   1       4.290  -4.178   1.697  0.00  0.00    -0.184 NA
ATOM      3  S   UNL d   1       1.682  -3.196   1.095  0.00  0.00    -0.046 SA
ENDROOT
BRANCH   3   4
ATOM      4  C   UNL d   1       2.081  -2.543  -0.548  0.00  0.00     0.131 C 
BRANCH   4   5
ATOM      5  C   UNL d   1       0.862  -2.013  -1.266  0.00  0.00    -0.015 A 
ATOM      6  C   UNL d   1       0.344  -0.713  -1.098  0.00  0.00     0.110 A 
ATOM      7  C   UNL d   1      -0.787  -0.267  -1.800  0.00  0.00     0.037 A 
ATOM      8  C   UNL d   1      -1.424  -1.127  -2.690  0.00  0.00     0.002 A 
ATOM      9  C   UNL d   1      -0.946  -2.425  -2.861  0.00  0.00     0.001 A 
ATOM     10  C   UNL d   1       0.177  -2.866  -2.152  0.00  0.00     0.010 A 
BRANCH   6  11
ATOM     11  N   UNL d   1       0.971   0.240  -0.197  0.00  0.00    -0.115 N 
ATOM     12  O   UNL d   1       2.158   0.522  -0.407  0.00  0.00    -0.532 OA
ATOM     13  O   UNL d   1       0.264   0.721   0.698  0.00  0.00    -0.532 OA
ENDBRANCH   6  11
ENDBRANCH   4   5
ENDBRANCH   3   4
TORSDOF 3
