REMARK  8 active torsions:
REMARK  status: ('A' for Active; 'I' for Inactive)
REMARK    1  A    between atoms: C_3  and  C_1 
REMARK    2  A    between atoms: C_11  and  N_4 
REMARK    3  A    between atoms: N_5  and  O_16 
REMARK    4  A    between atoms: C_14  and  C_7 
REMARK    5  A    between atoms: N_23  and  C_7 
REMARK    6  A    between atoms: C_9  and  C_10 
REMARK    7  A    between atoms: O_16  and  C_9 
REMARK    8  A    between atoms: C_10  and  C_11 
ROOT
ATOM      1  C   UNL d   1       2.360   1.337  -0.535  0.00  0.00     0.282 C 
ATOM      2  O   UNL d   1       1.314   0.719  -0.716  0.00  0.00    -0.263 OA
ENDROOT
BRANCH   1   3
ATOM      3  C   UNL d   1       3.660   0.652  -0.202  0.00  0.00     0.133 C 
BRANCH   3   4
ATOM      4  C   UNL d   1       4.909   1.366  -0.718  0.00  0.00     0.141 C 
BRANCH   4   5
ATOM      5  N   UNL d   1       5.437   2.373   0.210  0.00  0.00    -0.324 N 
ATOM      6  C   UNL d   1       6.091   1.933   1.373  0.00  0.00     0.262 A 
ATOM      7  C   UNL d   1       6.607   2.993   2.279  0.00  0.00     0.115 A 
ATOM      8  O   UNL d   1       6.220   0.742   1.638  0.00  0.00    -0.267 OA
ATOM      9  C   UNL d   1       6.429   4.285   1.944  0.00  0.00     0.023 A 
ATOM     10  C   UNL d   1       5.765   4.660   0.726  0.00  0.00     0.018 A 
ATOM     11  C   UNL d   1       5.301   3.716  -0.096  0.00  0.00     0.094 A 
BRANCH   7  12
ATOM     12  C   UNL d   1       7.294   2.584   3.531  0.00  0.00     0.422 C 
ATOM     13  F   UNL d   1       7.482   1.258   3.720  0.00  0.00    -0.166 F 
ATOM     14  F   UNL d   1       8.528   3.157   3.611  0.00  0.00    -0.166 F 
ATOM     15  F   UNL d   1       6.611   3.034   4.622  0.00  0.00    -0.166 F 
ENDBRANCH   7  12
ENDBRANCH   4   5
ENDBRANCH   3   4
ENDBRANCH   1   3
BRANCH   1  16
ATOM     16  O   UNL d   1       2.469   2.700  -0.541  0.00  0.00    -0.198 OA
BRANCH  16  17
ATOM     17  N   UNL d   1       1.710   3.200  -1.615  0.00  0.00    -0.246 N 
ATOM     18  C   UNL d   1       1.306   4.417  -1.417  0.00  0.00     0.109 C 
ATOM     19  HN  UNL d   1       1.501   2.664  -2.458  1.00  0.00     0.196 HD
BRANCH  18  20
ATOM     20  C   UNL d   1       0.572   5.080  -2.540  0.00  0.00     0.004 A 
ATOM     21  C   UNL d   1      -0.109   4.295  -3.482  0.00  0.00     0.016 A 
ATOM     22  C   UNL d   1      -0.743   4.897  -4.571  0.00  0.00     0.024 A 
ATOM     23  C   UNL d   1      -0.690   6.283  -4.722  0.00  0.00     0.034 A 
ATOM     24  C   UNL d   1      -0.020   7.072  -3.784  0.00  0.00     0.024 A 
ATOM     25 CL   UNL d   1      -1.438   7.024  -6.081  0.00  0.00    -0.084 Cl
ATOM     26  C   UNL d   1       0.611   6.471  -2.690  0.00  0.00     0.016 A 
ENDBRANCH  18  20
BRANCH  18  27
ATOM     27  N   UNL d   1       1.514   5.114  -0.247  0.00  0.00    -0.286 NA
ATOM     28  H   UNL d   1       1.762   4.495   0.518  0.00  0.00     0.125 HD
ATOM     29  H   UNL d   1       0.750   5.730   0.017  0.00  0.00     0.125 HD
ENDBRANCH  18  27
ENDBRANCH  16  17
ENDBRANCH   1  16
TORSDOF 8
