REMARK  4 active torsions:
REMARK  status: ('A' for Active; 'I' for Inactive)
REMARK    1  A    between atoms: C_2  and  C_4 
REMARK    2  A    between atoms: C_5  and  C_2 
REMARK    3  A    between atoms: C_7  and  C_5 
REMARK    4  A    between atoms: O_15  and  C_14 
ROOT
ATOM      1  N   UNL d   1       0.782   2.345  -5.837  0.00  0.00    -0.191 NA
ATOM      2  C   UNL d   1       1.331   1.944  -4.900  0.00  0.00     0.099 C 
ATOM      3  C   UNL d   1       3.184   0.472  -1.362  0.00  0.00     0.010 A 
ATOM      4  C   UNL d   1       2.823  -0.416  -2.382  0.00  0.00     0.016 A 
ATOM      5  C   UNL d   1       2.990   1.847  -1.551  0.00  0.00     0.016 A 
ATOM      6  C   UNL d   1       2.003   1.447  -3.728  0.00  0.00     0.044 A 
ATOM      7  C   UNL d   1       2.406   2.338  -2.728  0.00  0.00     0.023 A 
ATOM      8  C   UNL d   1       2.225   0.078  -3.559  0.00  0.00     0.023 A 
ENDROOT
BRANCH   3   9
ATOM      9  C   UNL d   1       3.695   0.019  -0.032  0.00  0.00     0.163 C 
ATOM     10  O   UNL d   1       3.477   0.734   0.947  0.00  0.00    -0.292 OA
BRANCH   9  11
ATOM     11  C   UNL d   1       4.465  -1.281   0.099  0.00  0.00     0.122 C 
BRANCH  11  12
ATOM     12  C   UNL d   1       3.641  -2.529   0.323  0.00  0.00    -0.048 A 
ATOM     13  C   UNL d   1       4.213  -3.782   0.029  0.00  0.00     0.044 A 
ATOM     14  C   UNL d   1       3.476  -4.958   0.194  0.00  0.00     0.068 A 
ATOM     15  C   UNL d   1       2.154  -4.890   0.624  0.00  0.00     0.037 A 
ATOM     16  C   UNL d   1       1.597  -3.663   0.980  0.00  0.00     0.003 A 
ATOM     17  C   UNL d   1       2.344  -2.491   0.853  0.00  0.00     0.007 A 
BRANCH  14  18
ATOM     18  O   UNL d   1       3.943  -6.215  -0.081  0.00  0.00    -0.356 OA
ATOM     19  C   UNL d   1       5.315  -6.428   0.236  0.00  0.00     0.210 C 
ENDBRANCH  14  18
ENDBRANCH  11  12
ENDBRANCH   9  11
ENDBRANCH   3   9
TORSDOF 4
