REMARK  5 active torsions:
REMARK  status: ('A' for Active; 'I' for Inactive)
REMARK    1  A    between atoms: N_7  and  C_1 
REMARK    2  A    between atoms: C_2  and  N_6 
REMARK    3  A    between atoms: N_8  and  C_2 
REMARK    4  A    between atoms: C_5  and  C_9 
REMARK    5  A    between atoms: C_10  and  N_8 
ROOT
ATOM      1  N   UNL d   1       0.907   5.339   0.121  0.00  0.00    -0.355 N 
ATOM      2  N   UNL d   1       0.227   2.576   0.157  0.00  0.00    -0.214 N 
ATOM      3  C   UNL d   1      -0.392   4.910   0.660  0.00  0.00     0.145 C 
ATOM      4  C   UNL d   1       1.538   4.408  -0.821  0.00  0.00     0.145 C 
ATOM      5  C   UNL d   1       1.581   2.984  -0.242  0.00  0.00     0.161 C 
ATOM      6  C   UNL d   1      -0.406   3.449   1.155  0.00  0.00     0.161 C 
ENDROOT
BRANCH   1   7
ATOM      7  C   UNL d   1       1.460   6.576   0.354  0.00  0.00     0.174 C 
ATOM      8  S   UNL d   1       1.774   7.159   1.890  0.00  0.00    -0.041 SA
BRANCH   7   9
ATOM      9  N   UNL d   1       1.937   7.253  -0.739  0.00  0.00    -0.333 N 
ATOM     10  H   UNL d   1       2.672   7.918  -0.526  0.00  0.00     0.168 HD
BRANCH   9  11
ATOM     11  C   UNL d   1       1.179   7.612  -1.889  0.00  0.00     0.040 A 
ATOM     12  C   UNL d   1       1.835   8.156  -3.008  0.00  0.00    -0.035 A 
ATOM     13  C   UNL d   1       1.068   8.691  -4.063  0.00  0.00     0.015 A 
ATOM     14  C   UNL d   1       3.329   8.143  -3.179  0.00  0.00     0.050 C 
ATOM     15  C   UNL d   1      -0.331   8.690  -4.026  0.00  0.00    -0.061 A 
ATOM     16  C   UNL d   1      -0.969   8.104  -2.933  0.00  0.00     0.009 A 
ATOM     17  C   UNL d   1      -1.113   9.354  -5.120  0.00  0.00     0.048 C 
ATOM     18  C   UNL d   1      -0.221   7.567  -1.880  0.00  0.00     0.030 A 
ENDBRANCH   9  11
ENDBRANCH   7   9
ENDBRANCH   1   7
BRANCH   2  19
ATOM     19  C   UNL d   1      -0.001   1.218   0.252  0.00  0.00     0.680 A 
ATOM     20  N   UNL d   1       0.817   0.401  -0.425  0.00  0.00    -0.186 N 
ATOM     21  C   UNL d   1       0.553  -0.930  -0.457  0.00  0.00     0.133 A 
ATOM     22  HN  UNL d   1       1.631   0.776  -0.912  1.00  0.00     0.184 HD
ATOM     23  C   UNL d   1      -0.531  -1.464   0.198  0.00  0.00     0.052 A 
ATOM     24  C   UNL d   1      -1.312  -0.564   0.886  0.00  0.00     0.108 A 
ATOM     25  N   UNL d   1      -1.063   0.760   0.926  0.00  0.00    -0.202 N 
ATOM     26  HN  UNL d   1      -1.665   1.393   1.453  1.00  0.00     0.183 HD
BRANCH  21  27
ATOM     27  C   UNL d   1       1.471  -1.832  -1.262  0.00  0.00     0.433 C 
ATOM     28  F   UNL d   1       2.534  -1.193  -1.825  0.00  0.00    -0.165 F 
ATOM     29  F   UNL d   1       2.001  -2.840  -0.510  0.00  0.00    -0.165 F 
ATOM     30  F   UNL d   1       0.821  -2.449  -2.292  0.00  0.00    -0.165 F 
ENDBRANCH  21  27
ENDBRANCH   2  19
TORSDOF 5
