REMARK  1 active torsions:
REMARK  status: ('A' for Active; 'I' for Inactive)
REMARK    1  A    between atoms: C_2  and  C_1 
ROOT
ATOM      1  C   UNL d   1       0.598   1.408   0.257  0.00  0.00     0.050 A 
ATOM      2  C   UNL d   1      -0.699   1.691   0.713  0.00  0.00     0.048 A 
ATOM      3  C   UNL d   1      -1.149   2.995   0.880  0.00  0.00     0.059 A 
ATOM      4  N   UNL d   1      -2.405   3.207   1.316  0.00  0.00    -0.363 N 
ATOM      5  HN  UNL d   1      -3.037   2.436   1.531  1.00  0.00     0.165 HD
ATOM      6  N   UNL d   1      -0.670   5.353   0.731  0.00  0.00    -0.363 N 
ATOM      7  HN  UNL d   1      -0.048   6.134   0.521  1.00  0.00     0.165 HD
ATOM      8  C   UNL d   1      -0.277   4.073   0.585  0.00  0.00     0.059 A 
ATOM      9  C   UNL d   1       1.451   2.478  -0.030  0.00  0.00     0.018 A 
ATOM     10  C   UNL d   1       1.007   3.793   0.137  0.00  0.00     0.032 A 
ATOM     11  C   UNL d   1      -2.782   4.497   1.455  0.00  0.00     0.105 A 
ATOM     12  C   UNL d   1      -1.933   5.546   1.169  0.00  0.00     0.105 A 
ENDROOT
BRANCH   1  13
ATOM     13  C   UNL d   1       1.068  -0.013   0.078  0.00  0.00     0.417 C 
ATOM     14  F   UNL d   1       0.122  -0.944   0.381  0.00  0.00    -0.166 F 
ATOM     15  F   UNL d   1       2.144  -0.305   0.859  0.00  0.00    -0.166 F 
ATOM     16  F   UNL d   1       1.453  -0.274  -1.202  0.00  0.00    -0.166 F 
ENDBRANCH   1  13
TORSDOF 1
