REMARK  2 active torsions:
REMARK  status: ('A' for Active; 'I' for Inactive)
REMARK    1  A    between atoms: C_2  and  C_1 
REMARK       I    between atoms: N_3  and  C_1 
REMARK    2  A    between atoms: C_7  and  N_3 
ROOT
ATOM      1  C   UNL d   1       0.987   0.007   0.049  0.00  0.00     0.262 C 
ATOM      2  N   UNL d   1       0.212   1.125  -0.219  0.00  0.00    -0.323 N 
ATOM      3  O   UNL d   1       2.208  -0.031  -0.033  0.00  0.00    -0.267 OA
ATOM      4  H   UNL d   1      -0.759   1.104   0.071  0.00  0.00     0.169 HD
ENDROOT
BRANCH   1   5
ATOM      5  C   UNL d   1       0.292  -1.225   0.491  0.00  0.00     0.109 A 
ATOM      6  C   UNL d   1       0.920  -2.461   0.300  0.00  0.00     0.135 A 
ATOM      7  F   UNL d   1       2.088  -2.560  -0.353  0.00  0.00    -0.205 F 
ATOM      8  C   UNL d   1       0.342  -3.647   0.752  0.00  0.00     0.043 A 
ATOM      9  C   UNL d   1      -0.887  -3.615   1.405  0.00  0.00     0.006 A 
ATOM     10  C   UNL d   1      -1.538  -2.394   1.582  0.00  0.00     0.043 A 
ATOM     11  C   UNL d   1      -0.949  -1.212   1.123  0.00  0.00     0.135 A 
ATOM     12  F   UNL d   1      -1.613  -0.061   1.311  0.00  0.00    -0.205 F 
ENDBRANCH   1   5
BRANCH   2  13
ATOM     13  C   UNL d   1       0.665   2.317  -0.830  0.00  0.00     0.035 A 
ATOM     14  C   UNL d   1       1.925   2.438  -1.432  0.00  0.00     0.032 A 
ATOM     15  C   UNL d   1       2.308   3.623  -2.065  0.00  0.00     0.044 A 
ATOM     16  C   UNL d   1       1.431   4.696  -2.095  0.00  0.00     0.116 A 
ATOM     17  C   UNL d   1       0.179   4.604  -1.499  0.00  0.00     0.044 A 
ATOM     18  F   UNL d   1       1.792   5.828  -2.712  0.00  0.00    -0.206 F 
ATOM     19  C   UNL d   1      -0.206   3.414  -0.870  0.00  0.00     0.032 A 
ENDBRANCH   2  13
TORSDOF 2
