REMARK  3 active torsions:
REMARK  status: ('A' for Active; 'I' for Inactive)
REMARK    1  A    between atoms: C_9  and  C_1 
REMARK    2  A    between atoms: C_3  and  O_8 
REMARK    3  A    between atoms: O_8  and  C_9 
ROOT
ATOM      1  C   UNL d   1      -0.804  -0.474  -4.164  0.00  0.00     0.095 A 
ATOM      2  C   UNL d   1       0.500  -0.176  -3.786  0.00  0.00     0.163 A 
ATOM      3  C   UNL d   1      -1.881  -0.473  -3.223  0.00  0.00     0.104 C 
ATOM      4  N   UNL d   1      -2.781  -0.490  -2.487  0.00  0.00    -0.191 NA
ATOM      5  N   UNL d   1       1.545  -0.163  -4.645  0.00  0.00    -0.346 N 
ATOM      6  HN  UNL d   1       2.490   0.056  -4.329  1.00  0.00     0.167 HD
ATOM      7  C   UNL d   1      -1.035  -0.801  -5.504  0.00  0.00     0.028 A 
ATOM      8  C   UNL d   1       1.283  -0.451  -5.938  0.00  0.00     0.090 A 
ATOM      9  C   UNL d   1       0.025  -0.784  -6.410  0.00  0.00     0.019 A 
ENDROOT
BRANCH   2  10
ATOM     10  O   UNL d   1       0.748   0.160  -2.473  0.00  0.00    -0.326 OA
BRANCH  10  11
ATOM     11  C   UNL d   1       2.117  -0.046  -2.087  0.00  0.00     0.294 C 
BRANCH  11  12
ATOM     12  C   UNL d   1       3.092   1.056  -2.500  0.00  0.00     0.408 C 
ATOM     13  F   UNL d   1       2.503   2.096  -3.126  0.00  0.00    -0.169 F 
ATOM     14  F   UNL d   1       4.072   0.578  -3.302  0.00  0.00    -0.169 F 
ATOM     15  F   UNL d   1       3.709   1.562  -1.399  0.00  0.00    -0.169 F 
ENDBRANCH  11  12
ENDBRANCH  10  11
ENDBRANCH   2  10
TORSDOF 3
