REMARK  3 active torsions:
REMARK  status: ('A' for Active; 'I' for Inactive)
REMARK    1  A    between atoms: C_2  and  C_1 
REMARK       I    between atoms: N_3  and  C_1 
REMARK    2  A    between atoms: C_5  and  N_3 
REMARK    3  A    between atoms: C_8  and  C_4 
ROOT
ATOM      1  C   UNL d   1       1.069  -0.051  -0.114  0.00  0.00     0.245 C 
ATOM      2  N   UNL d   1       0.252   0.834  -0.789  0.00  0.00    -0.324 N 
ATOM      3  O   UNL d   1       2.291  -0.109  -0.172  0.00  0.00    -0.268 OA
ATOM      4  H   UNL d   1      -0.728   0.847  -0.544  0.00  0.00     0.169 HD
ENDROOT
BRANCH   1   5
ATOM      5  C   UNL d   1       0.304  -0.965   0.779  0.00  0.00     0.075 C 
ATOM      6  C   UNL d   1       0.975  -1.831   1.552  0.00  0.00     0.017 C 
BRANCH   6   7
ATOM      7  C   UNL d   1       0.301  -2.780   2.431  0.00  0.00    -0.036 A 
ATOM      8  C   UNL d   1      -0.142  -4.011   1.932  0.00  0.00     0.013 A 
ATOM      9  C   UNL d   1      -0.760  -4.933   2.780  0.00  0.00     0.024 A 
ATOM     10  C   UNL d   1      -0.938  -4.622   4.128  0.00  0.00     0.034 A 
ATOM     11  C   UNL d   1      -0.507  -3.396   4.633  0.00  0.00     0.024 A 
ATOM     12 CL   UNL d   1      -1.687  -5.762   5.176  0.00  0.00    -0.084 Cl
ATOM     13  C   UNL d   1       0.113  -2.475   3.784  0.00  0.00     0.013 A 
ENDBRANCH   6   7
ENDBRANCH   1   5
BRANCH   2  14
ATOM     14  C   UNL d   1       0.670   1.809  -1.724  0.00  0.00     0.036 A 
ATOM     15  C   UNL d   1       1.949   1.847  -2.284  0.00  0.00     0.053 A 
ATOM     16  C   UNL d   1       2.294   2.862  -3.179  0.00  0.00     0.036 A 
ATOM     17 CL   UNL d   1       3.873   2.897  -3.866  0.00  0.00    -0.084 Cl
ATOM     18  C   UNL d   1       1.373   3.846  -3.526  0.00  0.00     0.024 A 
ATOM     19  C   UNL d   1       0.088   3.804  -2.991  0.00  0.00     0.004 A 
ATOM     20  C   UNL d   1      -0.265   2.783  -2.103  0.00  0.00     0.029 A 
ENDBRANCH   2  14
TORSDOF 3
