REMARK  1 active torsions:
REMARK  status: ('A' for Active; 'I' for Inactive)
REMARK    1  A    between atoms: C_2  and  N_1 
ROOT
ATOM      1  C   UNL d   1       0.174   1.287   0.131  0.00  0.00     0.106 A 
ATOM      2  C   UNL d   1      -1.257   3.698   0.404  0.00  0.00    -0.018 A 
ATOM      3  C   UNL d   1      -1.623   2.552   1.135  0.00  0.00     0.044 A 
ATOM      4  C   UNL d   1      -0.153   3.599  -0.467  0.00  0.00     0.044 A 
ATOM      5  C   UNL d   1       0.563   2.407  -0.606  0.00  0.00     0.060 A 
ATOM      6  C   UNL d   1      -0.916   1.353   1.002  0.00  0.00     0.060 A 
ATOM      7 CL   UNL d   1       0.378   4.948  -1.413  0.00  0.00    -0.084 Cl
ATOM      8 CL   UNL d   1      -2.955   2.544   2.238  0.00  0.00    -0.084 Cl
ATOM      9  C   UNL d   1      -2.002   5.004   0.522  0.00  0.00     0.052 C 
ENDROOT
BRANCH   1  10
ATOM     10  N   UNL d   1       0.916   0.029  -0.011  0.00  0.00    -0.116 N 
ATOM     11  O   UNL d   1       1.878   0.015  -0.790  0.00  0.00    -0.532 OA
ATOM     12  O   UNL d   1       0.535  -0.941   0.658  0.00  0.00    -0.532 OA
ENDBRANCH   1  10
TORSDOF 1
