REMARK  0 active torsions:
REMARK  status: ('A' for Active; 'I' for Inactive)
ROOT
ATOM      1  C   UNL d   1      -2.601  -0.626   0.001  0.00  0.00     0.264 A 
ATOM      2  C   UNL d   1      -0.085  -0.718  -0.001  0.00  0.00     0.036 A 
ATOM      3  S   UNL d   1      -2.035   1.027   0.003  0.00  0.00    -0.043 SA
ATOM      4  C   UNL d   1      -1.329  -1.477  -0.000  0.00  0.00     0.240 A 
ATOM      5  C   UNL d   1      -0.321   0.642   0.001  0.00  0.00     0.023 A 
ATOM      6  C   UNL d   1       1.198  -1.250  -0.003  0.00  0.00     0.023 A 
ATOM      7  O   UNL d   1      -3.750  -1.009   0.002  0.00  0.00    -0.276 OA
ATOM      8  O   UNL d   1      -1.352  -2.696  -0.000  0.00  0.00    -0.283 OA
ATOM      9  C   UNL d   1       0.743   1.530   0.001  0.00  0.00     0.020 A 
ATOM     10  C   UNL d   1       2.284  -0.369  -0.004  0.00  0.00    -0.061 A 
ATOM     11  C   UNL d   1       2.048   1.020  -0.001  0.00  0.00     0.008 A 
ATOM     12  C   UNL d   1       3.691  -0.892  -0.008  0.00  0.00     0.048 C 
ENDROOT
TORSDOF 0
