REMARK  5 active torsions:
REMARK  status: ('A' for Active; 'I' for Inactive)
REMARK    1  A    between atoms: C_4  and  C_8 
REMARK    2  A    between atoms: O_9  and  C_4 
REMARK    3  A    between atoms: O_6  and  C_5 
REMARK    4  A    between atoms: C_8  and  O_6 
REMARK    5  A    between atoms: C_12  and  O_9 
ROOT
ATOM      1  N   UNL d   1      -3.110  -0.491  -0.133  0.00  0.00    -0.191 NA
ATOM      2  C   UNL d   1      -1.965  -0.320  -0.091  0.00  0.00     0.102 C 
ATOM      3  C   UNL d   1      -0.547  -0.111  -0.029  0.00  0.00     0.077 A 
ATOM      4  C   UNL d   1       0.074   1.148  -0.028  0.00  0.00     0.090 A 
ATOM      5  C   UNL d   1       0.245  -1.274   0.042  0.00  0.00     0.025 A 
ATOM      6  C   UNL d   1       1.476   1.205   0.058  0.00  0.00     0.038 A 
ATOM      7  C   UNL d   1       1.634  -1.196   0.117  0.00  0.00     0.002 A 
ATOM      8  C   UNL d   1       2.251   0.047   0.129  0.00  0.00     0.003 A 
ENDROOT
BRANCH   4   9
ATOM      9  O   UNL d   1      -0.470   2.402  -0.102  0.00  0.00    -0.340 OA
BRANCH   9  10
ATOM     10  C   UNL d   1      -1.875   2.569  -0.184  0.00  0.00     0.286 C 
BRANCH  10  11
ATOM     11  C   UNL d   1      -2.265   4.037  -0.142  0.00  0.00     0.283 C 
ATOM     12  O   UNL d   1      -1.502   4.986  -0.039  0.00  0.00    -0.263 OA
BRANCH  11  13
ATOM     13  O   UNL d   1      -3.630   4.119  -0.137  0.00  0.00    -0.320 OA
BRANCH  13  14
ATOM     14  C   UNL d   1      -4.172   5.346   0.367  0.00  0.00     0.174 C 
ATOM     15  C   UNL d   1      -4.290   5.217   1.875  0.00  0.00     0.034 C 
ENDBRANCH  13  14
ENDBRANCH  11  13
ENDBRANCH  10  11
ENDBRANCH   9  10
ENDBRANCH   4   9
TORSDOF 5
