REMARK  5 active torsions:
REMARK  status: ('A' for Active; 'I' for Inactive)
REMARK    1  A    between atoms: C_3  and  S_1 
REMARK    2  A    between atoms: O_4  and  S_1 
REMARK    3  A    between atoms: C_8  and  C_2 
REMARK    4  A    between atoms: C_5  and  O_4 
REMARK    5  A    between atoms: O_18  and  C_8 
ROOT
ATOM      1  S   UNL d   1       1.079  -0.067   0.054  0.00  0.00     0.304 S 
ATOM      2  O   UNL d   1       0.621   1.200  -0.490  0.00  0.00    -0.193 OA
ATOM      3  O   UNL d   1       2.506  -0.264   0.215  0.00  0.00    -0.193 OA
ENDROOT
BRANCH   1   4
ATOM      4  C   UNL d   1       0.400  -1.407  -0.965  0.00  0.00     0.098 A 
ATOM      5  C   UNL d   1      -0.816  -1.190  -1.670  0.00  0.00    -0.037 A 
ATOM      6  C   UNL d   1      -1.313  -2.202  -2.515  0.00  0.00     0.015 A 
ATOM      7  C   UNL d   1      -1.644   0.067  -1.607  0.00  0.00     0.050 C 
ATOM      8  C   UNL d   1      -0.677  -3.434  -2.634  0.00  0.00    -0.061 A 
ATOM      9  C   UNL d   1       0.488  -3.656  -1.902  0.00  0.00     0.015 A 
ATOM     10  C   UNL d   1      -1.258  -4.492  -3.526  0.00  0.00     0.048 C 
ATOM     11  C   UNL d   1       1.041  -2.669  -1.054  0.00  0.00    -0.037 A 
ATOM     12  C   UNL d   1       2.274  -3.118  -0.314  0.00  0.00     0.050 C 
ENDBRANCH   1   4
BRANCH   1  13
ATOM     13  O   UNL d   1       0.346  -0.345   1.482  0.00  0.00    -0.228 OA
BRANCH  13  14
ATOM     14  C   UNL d   1       0.192   0.598   2.469  0.00  0.00     0.106 A 
ATOM     15  C   UNL d   1      -0.824   0.382   3.420  0.00  0.00     0.075 A 
ATOM     16  C   UNL d   1      -0.937   1.225   4.539  0.00  0.00     0.038 A 
ATOM     17  C   UNL d   1      -0.063   2.299   4.686  0.00  0.00     0.007 A 
ATOM     18  C   UNL d   1       0.914   2.545   3.728  0.00  0.00     0.021 A 
ATOM     19  I   UNL d   1      -0.208   3.521   6.363  0.00  0.00    -0.045 I 
ATOM     20  C   UNL d   1       1.048   1.691   2.625  0.00  0.00     0.040 A 
BRANCH  15  21
ATOM     21  C   UNL d   1      -1.807  -0.727   3.332  0.00  0.00     0.295 C 
ATOM     22  O   UNL d   1      -2.312  -1.253   4.310  0.00  0.00    -0.259 OA
BRANCH  21  23
ATOM     23  O   UNL d   1      -2.122  -0.987   2.035  0.00  0.00    -0.322 OA
ATOM     24  C   UNL d   1      -3.101  -2.008   1.867  0.00  0.00     0.213 C 
ENDBRANCH  21  23
ENDBRANCH  15  21
ENDBRANCH  13  14
ENDBRANCH   1  13
TORSDOF 5
