REMARK  9 active torsions:
REMARK  status: ('A' for Active; 'I' for Inactive)
REMARK    1  A    between atoms: C_2  and  C_1 
REMARK    2  A    between atoms: N_16  and  C_5 
REMARK       I    between atoms: C_9  and  N_17 
REMARK    3  A    between atoms: C_15  and  C_9 
REMARK    4  A    between atoms: C_14  and  C_15 
REMARK    5  A    between atoms: C_24  and  N_16 
REMARK    6  A    between atoms: N_17  and  C_25 
REMARK    7  A    between atoms: O_22  and  C_20 
REMARK    8  A    between atoms: C_21  and  C_24 
REMARK    9  A    between atoms: C_25  and  C_21 
ROOT
ATOM      1  C   UNL d   1      -0.609   4.612  -6.423  0.00  0.00     0.039 C 
ENDROOT
BRANCH   1   2
ATOM      2  C   UNL d   1      -0.230   4.268  -4.986  0.00  0.00     0.123 C 
BRANCH   2   3
ATOM      3  N   UNL d   1      -0.516   2.902  -4.628  0.00  0.00    -0.375 N 
ATOM      4  H   UNL d   1      -0.667   2.209  -5.357  0.00  0.00     0.161 HD
BRANCH   3   5
ATOM      5  C   UNL d   1      -0.149   2.315  -3.439  0.00  0.00     0.123 A 
ATOM      6  N   UNL d   1      -0.316   0.969  -3.459  0.00  0.00    -0.350 N 
ATOM      7  C   UNL d   1      -0.056   0.250  -2.338  0.00  0.00     0.106 A 
ATOM      8  HN  UNL d   1      -0.634   0.502  -4.308  1.00  0.00     0.166 HD
ATOM      9  C   UNL d   1       0.390   0.802  -1.151  0.00  0.00     0.065 A 
ATOM     10  C   UNL d   1       0.577   2.182  -1.131  0.00  0.00     0.045 A 
ATOM     11  C   UNL d   1       0.305   2.951  -2.268  0.00  0.00     0.078 A 
ATOM     12 CL   UNL d   1       0.583   4.647  -2.074  0.00  0.00    -0.080 Cl
BRANCH   9  13
ATOM     13  C   UNL d   1       0.642  -0.056   0.046  0.00  0.00     0.418 C 
ATOM     14  F   UNL d   1       1.131   0.637   1.113  0.00  0.00    -0.166 F 
ATOM     15  F   UNL d   1       1.542  -1.045  -0.199  0.00  0.00    -0.166 F 
ATOM     16  F   UNL d   1      -0.486  -0.674   0.491  0.00  0.00    -0.166 F 
ENDBRANCH   9  13
ENDBRANCH   3   5
ENDBRANCH   2   3
ENDBRANCH   1   2
BRANCH   1  17
ATOM     17  C   UNL d   1      -0.379   6.112  -6.604  0.00  0.00     0.124 C 
BRANCH  17  18
ATOM     18  N   UNL d   1      -0.599   6.576  -7.952  0.00  0.00    -0.361 N 
ATOM     19  C   UNL d   1      -0.042   7.776  -8.357  0.00  0.00     0.221 C 
ATOM     20  O   UNL d   1       0.712   8.444  -7.655  0.00  0.00    -0.273 OA
ATOM     21  H   UNL d   1      -1.359   6.187  -8.495  0.00  0.00     0.162 HD
BRANCH  19  22
ATOM     22  C   UNL d   1      -0.405   8.196  -9.769  0.00  0.00     0.141 C 
BRANCH  22  23
ATOM     23  C   UNL d   1       0.425   7.469 -10.797  0.00  0.00    -0.047 A 
ATOM     24  C   UNL d   1       1.821   7.644 -10.824  0.00  0.00     0.044 A 
ATOM     25  C   UNL d   1       2.609   6.935 -11.731  0.00  0.00     0.068 A 
ATOM     26  C   UNL d   1       1.995   6.060 -12.627  0.00  0.00     0.037 A 
ATOM     27  C   UNL d   1       0.610   5.892 -12.621  0.00  0.00     0.003 A 
ATOM     28  C   UNL d   1      -0.175   6.595 -11.710  0.00  0.00     0.007 A 
BRANCH  25  29
ATOM     29  O   UNL d   1       3.972   7.000 -11.834  0.00  0.00    -0.356 OA
ATOM     30  C   UNL d   1       4.645   7.859 -10.922  0.00  0.00     0.210 C 
ENDBRANCH  25  29
ENDBRANCH  22  23
ENDBRANCH  19  22
ENDBRANCH  17  18
ENDBRANCH   1  17
TORSDOF 9
