REMARK  3 active torsions:
REMARK  status: ('A' for Active; 'I' for Inactive)
REMARK    1  A    between atoms: N_6  and  C_2 
REMARK    2  A    between atoms: S_15  and  C_3 
REMARK    3  A    between atoms: C_14  and  N_10 
ROOT
ATOM      1  C   UNL d   1      -0.586   1.210   0.126  0.00  0.00     0.086 A 
ATOM      2  C   UNL d   1       1.415  -0.143  -0.194  0.00  0.00     0.077 A 
ATOM      3  C   UNL d   1      -1.331   0.032   0.198  0.00  0.00     0.088 A 
ATOM      4  N   UNL d   1      -0.754  -1.190   0.115  0.00  0.00    -0.351 N 
ATOM      5  HN  UNL d   1      -1.319  -2.035   0.196  1.00  0.00     0.166 HD
ATOM      6  C   UNL d   1       0.813   1.126  -0.063  0.00  0.00    -0.008 A 
ATOM      7  C   UNL d   1       0.589  -1.272  -0.080  0.00  0.00     0.035 A 
ATOM      8  C   UNL d   1      -1.235   2.485   0.215  0.00  0.00     0.103 C 
ATOM      9  N   UNL d   1      -1.765   3.514   0.268  0.00  0.00    -0.191 NA
ATOM     10  C   UNL d   1       1.637   2.389  -0.153  0.00  0.00     0.052 C 
ATOM     11  C   UNL d   1       1.118  -2.672  -0.207  0.00  0.00     0.070 C 
ENDROOT
BRANCH   3  12
ATOM     12  S   UNL d   1      -3.100  -0.035   0.423  0.00  0.00    -0.124 SA
ATOM     13  H   UNL d   1      -3.407   1.155  -0.114  0.00  0.00     0.108 HD
ENDBRANCH   3  12
BRANCH   2  14
ATOM     14  N   UNL d   1       2.773  -0.269  -0.545  0.00  0.00    -0.298 N 
ATOM     15  N   UNL d   1       3.481  -0.516   0.455  0.00  0.00    -0.300 N 
ATOM     16  HN  UNL d   1       3.119  -0.558   1.407  1.00  0.00     0.187 HD
ATOM     17  HN  UNL d   1       3.133  -0.171  -1.495  1.00  0.00     0.187 HD
BRANCH  15  18
ATOM     18  C   UNL d   1       4.845  -0.732   0.121  0.00  0.00     0.054 A 
ATOM     19  C   UNL d   1       5.674  -1.428   1.025  0.00  0.00    -0.034 A 
ATOM     20  C   UNL d   1       5.155  -1.985   2.323  0.00  0.00     0.050 C 
ATOM     21  C   UNL d   1       7.045  -1.587   0.741  0.00  0.00     0.009 A 
ATOM     22  C   UNL d   1       7.591  -1.098  -0.444  0.00  0.00     0.001 A 
ATOM     23  C   UNL d   1       6.777  -0.442  -1.358  0.00  0.00     0.002 A 
ATOM     24  C   UNL d   1       5.421  -0.255  -1.073  0.00  0.00     0.031 A 
ENDBRANCH  15  18
ENDBRANCH   2  14
TORSDOF 3
