REMARK  4 active torsions:
REMARK  status: ('A' for Active; 'I' for Inactive)
REMARK    1  A    between atoms: O_6  and  C_1 
REMARK    2  A    between atoms: O_10  and  C_5 
REMARK    3  A    between atoms: C_8  and  O_6 
REMARK    4  A    between atoms: C_14  and  C_8 
ROOT
ATOM      1  C   UNL d   1       1.523  -1.242  -0.188  0.00  0.00     0.096 A 
ATOM      2  C   UNL d   1       0.199  -0.738  -0.093  0.00  0.00     0.011 A 
ATOM      3  C   UNL d   1       2.647  -0.398  -0.205  0.00  0.00    -0.024 A 
ATOM      4  C   UNL d   1       0.009   0.660   0.012  0.00  0.00     0.010 A 
ATOM      5  C   UNL d   1       1.145   1.494   0.045  0.00  0.00     0.077 A 
ATOM      6  C   UNL d   1       2.437   0.979  -0.053  0.00  0.00     0.047 A 
ATOM      7  C   UNL d   1      -0.950  -1.566  -0.116  0.00  0.00     0.015 A 
ATOM      8  C   UNL d   1       4.057  -0.890  -0.346  0.00  0.00     0.051 C 
ATOM      9  C   UNL d   1      -1.301   1.175   0.071  0.00  0.00     0.015 A 
ATOM     10  C   UNL d   1      -2.236  -1.035  -0.055  0.00  0.00     0.001 A 
ATOM     11  C   UNL d   1      -2.413   0.339   0.034  0.00  0.00     0.001 A 
ENDROOT
BRANCH   1  12
ATOM     12  O   UNL d   1       1.651  -2.633  -0.431  0.00  0.00    -0.278 OA
BRANCH  12  13
ATOM     13  C   UNL d   1       2.315  -3.437   0.491  0.00  0.00     0.263 C 
ATOM     14  O   UNL d   1       2.896  -3.054   1.498  0.00  0.00    -0.265 OA
BRANCH  13  15
ATOM     15  C   UNL d   1       2.138  -4.900   0.133  0.00  0.00     0.107 C 
ATOM     16  C   UNL d   1       2.067  -5.181  -1.359  0.00  0.00     0.015 C 
ENDBRANCH  13  15
ENDBRANCH  12  13
ENDBRANCH   1  12
BRANCH   5  17
ATOM     17  O   UNL d   1       0.970   2.851   0.160  0.00  0.00    -0.360 OA
ATOM     18  H   UNL d   1       1.840   3.280   0.189  0.00  0.00     0.217 HD
ENDBRANCH   5  17
TORSDOF 4
