REMARK  5 active torsions:
REMARK  status: ('A' for Active; 'I' for Inactive)
REMARK    1  A    between atoms: O_5  and  C_1 
REMARK       I    between atoms: C_2  and  N_3 
REMARK    2  A    between atoms: C_7  and  C_2 
REMARK    3  A    between atoms: N_3  and  N_4 
REMARK    4  A    between atoms: N_4  and  C_11 
REMARK    5  A    between atoms: C_12  and  O_5 
ROOT
ATOM      1  N   UNL d   1       1.994  -2.804  -5.742  0.00  0.00    -0.203 NA
ATOM      2  H   UNL d   1       1.307  -2.978  -6.490  0.00  0.00     0.153 HD
ENDROOT
BRANCH   1   3
ATOM      3  N   UNL d   1       3.230  -2.431  -6.313  0.00  0.00    -0.287 N 
ATOM      4  C   UNL d   1       3.491  -2.904  -7.589  0.00  0.00     0.236 C 
ATOM      5  O   UNL d   1       2.637  -3.475  -8.263  0.00  0.00    -0.272 OA
ATOM      6  H   UNL d   1       3.990  -2.317  -5.648  0.00  0.00     0.184 HD
BRANCH   4   7
ATOM      7  C   UNL d   1       4.919  -2.618  -8.068  0.00  0.00     0.079 C 
ATOM      8  C   UNL d   1       5.209  -1.111  -8.133  0.00  0.00     0.014 C 
ATOM      9  C   UNL d   1       4.457  -0.427  -9.274  0.00  0.00     0.001 C 
ATOM     10  C   UNL d   1       4.751  -1.088 -10.618  0.00  0.00     0.000 C 
ATOM     11  C   UNL d   1       4.497  -2.592 -10.589  0.00  0.00     0.001 C 
ATOM     12  C   UNL d   1       5.216  -3.275  -9.424  0.00  0.00     0.014 C 
ENDBRANCH   4   7
ENDBRANCH   1   3
BRANCH   1  13
ATOM     13  C   UNL d   1       1.499  -1.832  -4.841  0.00  0.00     0.027 C 
ATOM     14  C   UNL d   1       1.707  -0.459  -5.002  0.00  0.00     0.028 C 
ATOM     15  C   UNL d   1       1.236   0.457  -4.055  0.00  0.00     0.039 C 
ATOM     16  C   UNL d   1       0.565   0.005  -2.919  0.00  0.00     0.078 C 
ATOM     17  C   UNL d   1       0.241  -1.350  -2.821  0.00  0.00     0.039 C 
ATOM     18  C   UNL d   1       0.689  -2.258  -3.785  0.00  0.00     0.028 C 
BRANCH  16  19
ATOM     19  O   UNL d   1       0.118   0.791  -1.902  0.00  0.00    -0.255 OA
BRANCH  19  20
ATOM     20  C   UNL d   1       0.897   1.913  -1.498  0.00  0.00     0.530 C 
ATOM     21  F   UNL d   1       2.019   2.114  -2.221  0.00  0.00    -0.144 F 
ATOM     22  F   UNL d   1       1.264   1.750  -0.207  0.00  0.00    -0.144 F 
ATOM     23  F   UNL d   1       0.134   3.025  -1.580  0.00  0.00    -0.144 F 
ENDBRANCH  19  20
ENDBRANCH  16  19
ENDBRANCH   1  13
TORSDOF 5
