REMARK  2 active torsions:
REMARK  status: ('A' for Active; 'I' for Inactive)
REMARK    1  A    between atoms: C_6  and  C_1 
REMARK    2  A    between atoms: N_9  and  C_5 
ROOT
ATOM      1  C   UNL d   1       1.048   0.672  -0.124  0.00  0.00     0.069 A 
ATOM      2  C   UNL d   1      -0.359   1.121  -0.052  0.00  0.00     0.261 A 
ATOM      3  N   UNL d   1      -1.131   0.014  -0.021  0.00  0.00    -0.288 N 
ATOM      4  C   UNL d   1      -0.369  -1.097   0.028  0.00  0.00     0.270 A 
ATOM      5  C   UNL d   1       1.060  -0.664  -0.020  0.00  0.00     0.091 A 
ATOM      6  O   UNL d   1      -0.746   2.272  -0.002  0.00  0.00    -0.267 OA
ATOM      7  O   UNL d   1      -0.751  -2.253   0.083  0.00  0.00    -0.266 OA
ATOM      8  H   UNL d   1      -2.135   0.022   0.041  0.00  0.00     0.172 HD
ENDROOT
BRANCH   1   9
ATOM      9  C   UNL d   1       2.203   1.553  -0.225  0.00  0.00    -0.018 A 
ATOM     10  C   UNL d   1       2.754   1.864  -1.475  0.00  0.00     0.012 A 
ATOM     11  C   UNL d   1       3.826   2.754  -1.568  0.00  0.00     0.001 A 
ATOM     12  C   UNL d   1       4.358   3.329  -0.414  0.00  0.00     0.000 A 
ATOM     13  C   UNL d   1       3.836   2.996   0.835  0.00  0.00     0.001 A 
ATOM     14  C   UNL d   1       2.765   2.107   0.930  0.00  0.00     0.012 A 
ENDBRANCH   1   9
BRANCH   5  15
ATOM     15  N   UNL d   1       2.091  -1.567   0.031  0.00  0.00    -0.297 NA
ATOM     16  H   UNL d   1       1.821  -2.501  -0.276  0.00  0.00     0.124 HD
ATOM     17  H   UNL d   1       2.972  -1.230  -0.346  0.00  0.00     0.124 HD
ENDBRANCH   5  15
TORSDOF 2
