REMARK  5 active torsions:
REMARK  status: ('A' for Active; 'I' for Inactive)
REMARK    1  A    between atoms: S_10  and  C_1 
REMARK    2  A    between atoms: C_2  and  C_3 
REMARK    3  A    between atoms: C_3  and  C_12 
REMARK    4  A    between atoms: C_15  and  S_10 
REMARK    5  A    between atoms: C_12  and  C_15 
ROOT
ATOM      1  S   UNL d   1       0.081   2.495   0.008  0.00  0.00    -0.126 SA
ENDROOT
BRANCH   1   2
ATOM      2  C   UNL d   1      -0.091   0.719  -0.281  0.00  0.00     0.044 A 
ATOM      3  C   UNL d   1       0.417   0.137  -1.462  0.00  0.00     0.052 A 
ATOM      4 CL   UNL d   1       1.152   1.069  -2.727  0.00  0.00    -0.083 Cl
ATOM      5  C   UNL d   1       0.360  -1.250  -1.673  0.00  0.00     0.025 A 
ATOM      6  C   UNL d   1      -0.207  -2.085  -0.717  0.00  0.00     0.003 A 
ATOM      7  C   UNL d   1      -0.711  -1.534   0.457  0.00  0.00     0.025 A 
ATOM      8  C   UNL d   1      -0.645  -0.150   0.683  0.00  0.00     0.052 A 
ATOM      9 CL   UNL d   1      -1.230   0.392   2.222  0.00  0.00    -0.083 Cl
ENDBRANCH   1   2
BRANCH   1  10
ATOM     10  C   UNL d   1      -1.666   3.032  -0.054  0.00  0.00     0.087 C 
BRANCH  10  11
ATOM     11  C   UNL d   1      -1.743   4.558  -0.013  0.00  0.00     0.096 C 
BRANCH  11  12
ATOM     12  C   UNL d   1      -3.187   5.028   0.074  0.00  0.00     0.183 C 
ATOM     13  O   UNL d   1      -4.120   4.224   0.116  0.00  0.00    -0.290 OA
BRANCH  12  14
ATOM     14  C   UNL d   1      -3.406   6.462   0.110  0.00  0.00     0.120 A 
ATOM     15  O   UNL d   1      -2.345   7.320   0.010  0.00  0.00    -0.319 OA
ATOM     16  C   UNL d   1      -2.844   8.584   0.063  0.00  0.00     0.142 A 
ATOM     17  C   UNL d   1      -4.210   8.559   0.200  0.00  0.00     0.027 A 
ATOM     18  C   UNL d   1      -4.574   7.192   0.233  0.00  0.00     0.043 A 
ENDBRANCH  12  14
ENDBRANCH  11  12
ENDBRANCH  10  11
ENDBRANCH   1  10
TORSDOF 5
