REMARK  8 active torsions:
REMARK  status: ('A' for Active; 'I' for Inactive)
REMARK    1  A    between atoms: C_10  and  C_1 
REMARK    2  A    between atoms: C_11  and  C_2 
REMARK    3  A    between atoms: C_13  and  C_5 
REMARK    4  A    between atoms: C_12  and  C_6 
REMARK    5  A    between atoms: O_21  and  C_10 
REMARK    6  A    between atoms: O_20  and  C_11 
REMARK    7  A    between atoms: O_23  and  C_12 
REMARK    8  A    between atoms: O_22  and  C_13 
ROOT
ATOM      1  C   UNL d   1      -0.006  -1.257   0.568  0.00  0.00     0.112 C 
ATOM      2  C   UNL d   1      -0.014   1.259   0.587  0.00  0.00     0.112 C 
ATOM      3  C   UNL d   1       1.122  -1.272  -0.452  0.00  0.00     0.159 C 
ATOM      4  C   UNL d   1      -1.302   1.282  -0.234  0.00  0.00     0.159 C 
ATOM      5  C   UNL d   1      -1.836  -0.001  -0.837  0.00  0.00     0.158 C 
ATOM      6  C   UNL d   1       1.893  -0.001  -0.739  0.00  0.00     0.158 C 
ATOM      7  C   UNL d   1       0.043  -0.008   1.445  0.00  0.00     0.055 C 
ATOM      8  C   UNL d   1      -1.353  -1.303  -0.193  0.00  0.00     0.050 C 
ATOM      9  C   UNL d   1       1.199   1.323  -0.376  0.00  0.00     0.050 C 
ATOM     10  O   UNL d   1       1.394  -2.309  -1.065  0.00  0.00    -0.296 OA
ATOM     11  O   UNL d   1      -1.870   2.349  -0.494  0.00  0.00    -0.296 OA
ENDROOT
BRANCH   1  12
ATOM     12  C   UNL d   1       0.079  -2.495   1.469  0.00  0.00     0.274 C 
ATOM     13  O   UNL d   1      -0.823  -3.311   1.613  0.00  0.00    -0.264 OA
BRANCH  12  14
ATOM     14  O   UNL d   1       1.264  -2.539   2.134  0.00  0.00    -0.326 OA
ATOM     15  C   UNL d   1       1.425  -3.687   2.971  0.00  0.00     0.213 C 
ENDBRANCH  12  14
ENDBRANCH   1  12
BRANCH   6  16
ATOM     16  C   UNL d   1       3.268  -0.050  -0.109  0.00  0.00     0.270 C 
ATOM     17  O   UNL d   1       3.527  -0.613   0.944  0.00  0.00    -0.264 OA
BRANCH  16  18
ATOM     18  O   UNL d   1       4.146   0.689  -0.846  0.00  0.00    -0.326 OA
ATOM     19  C   UNL d   1       5.475   0.752  -0.324  0.00  0.00     0.213 C 
ENDBRANCH  16  18
ENDBRANCH   6  16
BRANCH   2  20
ATOM     20  C   UNL d   1       0.003   2.476   1.529  0.00  0.00     0.274 C 
ATOM     21  O   UNL d   1       0.865   3.345   1.540  0.00  0.00    -0.264 OA
BRANCH  20  22
ATOM     22  O   UNL d   1      -1.062   2.447   2.381  0.00  0.00    -0.326 OA
ATOM     23  C   UNL d   1      -1.155   3.586   3.239  0.00  0.00     0.213 C 
ENDBRANCH  20  22
ENDBRANCH   2  20
BRANCH   5  24
ATOM     24  C   UNL d   1      -1.632  -0.040  -2.331  0.00  0.00     0.270 C 
ATOM     25  O   UNL d   1      -0.653   0.417  -2.903  0.00  0.00    -0.264 OA
BRANCH  24  26
ATOM     26  O   UNL d   1      -2.656  -0.714  -2.924  0.00  0.00    -0.326 OA
ATOM     27  C   UNL d   1      -2.578  -0.799  -4.348  0.00  0.00     0.213 C 
ENDBRANCH  24  26
ENDBRANCH   5  24
TORSDOF 8
