REMARK  4 active torsions:
REMARK  status: ('A' for Active; 'I' for Inactive)
REMARK    1  A    between atoms: N_2  and  C_1 
REMARK    2  A    between atoms: N_3  and  C_1 
REMARK    3  A    between atoms: C_5  and  N_3 
REMARK    4  A    between atoms: C_8  and  C_5 
ROOT
ATOM      1  C   UNL d   1       0.864  -0.063   0.239  0.00  0.00     0.169 C 
ATOM      2  S   UNL d   1       0.147  -1.585   0.216  0.00  0.00    -0.041 SA
ENDROOT
BRANCH   1   3
ATOM      3  N   UNL d   1       2.142   0.176   0.739  0.00  0.00    -0.358 N 
ATOM      4  C   UNL d   1       2.926  -0.817   1.478  0.00  0.00     0.125 C 
ATOM      5  C   UNL d   1       3.800   0.025   2.393  0.00  0.00     0.021 C 
ATOM      6  C   UNL d   1       4.139   1.219   1.517  0.00  0.00     0.021 C 
ATOM      7  C   UNL d   1       2.854   1.453   0.729  0.00  0.00     0.125 C 
ENDBRANCH   1   3
BRANCH   1   8
ATOM      8  N   UNL d   1       0.218   1.073  -0.215  0.00  0.00    -0.367 N 
ATOM      9  H   UNL d   1       0.728   1.939  -0.158  0.00  0.00     0.161 HD
BRANCH   8  10
ATOM     10  C   UNL d   1      -1.231   1.213  -0.303  0.00  0.00     0.126 C 
BRANCH  10  11
ATOM     11  C   UNL d   1      -1.667   2.564  -0.886  0.00  0.00    -0.005 C 
ATOM     12  C   UNL d   1      -1.288   2.684  -2.362  0.00  0.00     0.011 C 
ATOM     13  C   UNL d   1      -3.177   2.734  -0.714  0.00  0.00     0.011 C 
ENDBRANCH  10  11
ENDBRANCH   8  10
ENDBRANCH   1   8
TORSDOF 4
