REMARK  6 active torsions:
REMARK  status: ('A' for Active; 'I' for Inactive)
REMARK    1  A    between atoms: C_6  and  C_1 
REMARK    2  A    between atoms: C_11  and  C_4 
REMARK    3  A    between atoms: O_8  and  C_6 
REMARK    4  A    between atoms: C_13  and  O_8 
REMARK    5  A    between atoms: C_9  and  C_13 
REMARK    6  A    between atoms: C_10  and  C_9 
ROOT
ATOM      1  C   UNL d   1      -0.110  -1.253  -0.091  0.00  0.00     0.100 A 
ATOM      2  N   UNL d   1      -1.199   0.741   0.116  0.00  0.00    -0.259 N 
ATOM      3  HN  UNL d   1      -1.930   1.447   0.199  1.00  0.00     0.195 HD
ATOM      4  C   UNL d   1      -1.375  -0.595   0.114  0.00  0.00     0.084 A 
ATOM      5  O   UNL d   1       0.139   0.972  -0.013  0.00  0.00    -0.241 OA
ATOM      6  C   UNL d   1       0.797  -0.204  -0.110  0.00  0.00     0.091 A 
ATOM      7  C   UNL d   1       2.269  -0.086  -0.160  0.00  0.00     0.080 C 
ENDROOT
BRANCH   1   8
ATOM      8  C   UNL d   1       0.234  -2.663  -0.202  0.00  0.00     0.298 C 
ATOM      9  O   UNL d   1      -0.519  -3.583   0.088  0.00  0.00    -0.259 OA
BRANCH   8  10
ATOM     10  O   UNL d   1       1.529  -2.856  -0.595  0.00  0.00    -0.310 OA
BRANCH  10  11
ATOM     11  C   UNL d   1       2.068  -4.171  -0.456  0.00  0.00     0.263 C 
BRANCH  11  12
ATOM     12  C   UNL d   1       2.231  -4.957  -1.760  0.00  0.00     0.183 C 
ATOM     13  O   UNL d   1       1.877  -4.519  -2.849  0.00  0.00    -0.290 OA
BRANCH  12  14
ATOM     14  C   UNL d   1       2.847  -6.323  -1.674  0.00  0.00     0.012 A 
ATOM     15  C   UNL d   1       2.602  -7.242  -2.705  0.00  0.00     0.017 A 
ATOM     16  C   UNL d   1       3.145  -8.532  -2.651  0.00  0.00     0.025 A 
ATOM     17  C   UNL d   1       3.947  -8.902  -1.574  0.00  0.00     0.034 A 
ATOM     18  C   UNL d   1       4.213  -7.994  -0.552  0.00  0.00     0.025 A 
ATOM     19 CL   UNL d   1       4.620 -10.484  -1.504  0.00  0.00    -0.084 Cl
ATOM     20  C   UNL d   1       3.663  -6.707  -0.600  0.00  0.00     0.017 A 
ENDBRANCH  12  14
ENDBRANCH  11  12
ENDBRANCH  10  11
ENDBRANCH   8  10
ENDBRANCH   1   8
BRANCH   4  21
ATOM     21  C   UNL d   1      -2.738  -1.095   0.336  0.00  0.00    -0.006 A 
ATOM     22  C   UNL d   1      -3.833  -0.359  -0.157  0.00  0.00     0.014 A 
ATOM     23  C   UNL d   1      -5.148  -0.724   0.146  0.00  0.00     0.001 A 
ATOM     24  C   UNL d   1      -5.391  -1.841   0.938  0.00  0.00     0.000 A 
ATOM     25  C   UNL d   1      -4.321  -2.589   1.427  0.00  0.00     0.001 A 
ATOM     26  C   UNL d   1      -3.002  -2.212   1.136  0.00  0.00     0.014 A 
ENDBRANCH   4  21
TORSDOF 6
