REMARK  4 active torsions:
REMARK  status: ('A' for Active; 'I' for Inactive)
REMARK    1  A    between atoms: S_9  and  C_3 
REMARK    2  A    between atoms: O_15  and  C_5 
REMARK    3  A    between atoms: C_13  and  S_9 
REMARK    4  A    between atoms: C_16  and  C_13 
ROOT
ATOM      1  N   UNL d   1       6.247  -6.618   3.465  0.00  0.00    -0.191 NA
ATOM      2  C   UNL d   1       5.886  -6.147   2.469  0.00  0.00     0.099 C 
ATOM      3  C   UNL d   1       5.445  -5.563   1.234  0.00  0.00     0.045 A 
ATOM      4  C   UNL d   1       4.738  -4.353   1.241  0.00  0.00     0.030 A 
ATOM      5  C   UNL d   1       4.307  -3.769   0.038  0.00  0.00    -0.047 A 
ATOM      6  C   UNL d   1       5.290  -5.636  -1.177  0.00  0.00     0.002 A 
ATOM      7  C   UNL d   1       5.721  -6.202   0.022  0.00  0.00     0.022 A 
ATOM      8  C   UNL d   1       4.587  -4.429  -1.169  0.00  0.00     0.008 A 
ENDROOT
BRANCH   5   9
ATOM      9  C   UNL d   1       3.517  -2.475   0.044  0.00  0.00     0.121 C 
BRANCH   9  10
ATOM     10  S   UNL d   1       1.733  -2.818   0.122  0.00  0.00    -0.089 SA
BRANCH  10  11
ATOM     11  C   UNL d   1       1.058  -1.175   0.128  0.00  0.00     0.146 A 
ATOM     12  N   UNL d   1      -0.283  -1.107   0.183  0.00  0.00    -0.318 N 
ATOM     13  C   UNL d   1      -0.795   0.124   0.195  0.00  0.00     0.142 A 
ATOM     14  HN  UNL d   1      -0.869  -1.941   0.213  1.00  0.00     0.170 HD
ATOM     15  C   UNL d   1      -0.077   1.284   0.156  0.00  0.00     0.073 A 
ATOM     16  C   UNL d   1       1.282   1.105   0.098  0.00  0.00     0.094 A 
ATOM     17  N   UNL d   1       1.877  -0.109   0.083  0.00  0.00    -0.347 N 
ATOM     18  HN  UNL d   1       2.891  -0.210   0.039  1.00  0.00     0.167 HD
BRANCH  13  19
ATOM     19  O   UNL d   1      -2.151   0.161   0.252  0.00  0.00    -0.346 OA
ATOM     20  H   UNL d   1      -2.357  -0.792   0.271  0.00  0.00     0.219 HD
ENDBRANCH  13  19
ENDBRANCH  10  11
ENDBRANCH   9  10
ENDBRANCH   5   9
TORSDOF 4
