REMARK  14 active torsions:
REMARK  status: ('A' for Active; 'I' for Inactive)
REMARK    1  A    between atoms: C_2  and  C_1 
REMARK    2  A    between atoms: C_3  and  C_1 
REMARK    3  A    between atoms: C_4  and  C_1 
REMARK    4  A    between atoms: C_5  and  C_1 
REMARK    5  A    between atoms: O_15  and  C_2 
REMARK    6  A    between atoms: O_14  and  C_3 
REMARK    7  A    between atoms: C_12  and  C_4 
REMARK    8  A    between atoms: C_13  and  C_5 
REMARK    9  A    between atoms: C_6  and  C_12 
REMARK   10  A    between atoms: O_17  and  C_6 
REMARK   11  A    between atoms: C_7  and  C_13 
REMARK   12  A    between atoms: O_16  and  C_7 
REMARK   13  A    between atoms: C_19  and  O_14 
REMARK   14  A    between atoms: C_18  and  O_15 
ROOT
ATOM      1  C   UNL d   1       0.860   0.085  -0.115  0.00  0.00     0.136 C 
ENDROOT
BRANCH   1   2
ATOM      2  C   UNL d   1       0.376   0.989  -1.247  0.00  0.00     0.277 C 
ATOM      3  O   UNL d   1      -0.362   1.954  -1.089  0.00  0.00    -0.264 OA
BRANCH   2   4
ATOM      4  O   UNL d   1       0.898   0.622  -2.450  0.00  0.00    -0.321 OA
BRANCH   4   5
ATOM      5  C   UNL d   1       0.436   1.363  -3.589  0.00  0.00     0.174 C 
ATOM      6  C   UNL d   1       1.279   2.610  -3.775  0.00  0.00     0.034 C 
ENDBRANCH   4   5
ENDBRANCH   2   4
ENDBRANCH   1   2
BRANCH   1   7
ATOM      7  C   UNL d   1       0.457  -1.373  -0.297  0.00  0.00     0.277 C 
ATOM      8  O   UNL d   1       0.783  -2.263   0.483  0.00  0.00    -0.264 OA
BRANCH   7   9
ATOM      9  O   UNL d   1      -0.256  -1.587  -1.431  0.00  0.00    -0.321 OA
BRANCH   9  10
ATOM     10  C   UNL d   1      -0.262  -2.936  -1.924  0.00  0.00     0.174 C 
ATOM     11  C   UNL d   1       0.970  -3.139  -2.790  0.00  0.00     0.034 C 
ENDBRANCH   9  10
ENDBRANCH   7   9
ENDBRANCH   1   7
BRANCH   1  12
ATOM     12  C   UNL d   1       0.318   0.587   1.251  0.00  0.00     0.041 C 
BRANCH  12  13
ATOM     13  C   UNL d   1      -1.204   0.485   1.446  0.00  0.00     0.111 C 
BRANCH  13  14
ATOM     14  C   UNL d   1      -1.623   1.127   2.752  0.00  0.00     0.139 C 
ATOM     15  O   UNL d   1      -0.858   1.515   3.621  0.00  0.00    -0.650 OA
BRANCH  14  16
ATOM     16  O   UNL d   1      -2.967   1.226   2.874  0.00  0.00    -0.776 OA
ATOM     17  H   UNL d   1      -3.461   0.890   2.103  0.00  0.00     0.167 HD
ENDBRANCH  14  16
ENDBRANCH  13  14
ENDBRANCH  12  13
ENDBRANCH   1  12
BRANCH   1  18
ATOM     18  C   UNL d   1       2.420   0.090  -0.106  0.00  0.00     0.041 C 
BRANCH  18  19
ATOM     19  C   UNL d   1       3.078   1.462   0.083  0.00  0.00     0.111 C 
BRANCH  19  20
ATOM     20  C   UNL d   1       4.586   1.367   0.003  0.00  0.00     0.139 C 
ATOM     21  O   UNL d   1       5.216   0.353  -0.246  0.00  0.00    -0.650 OA
BRANCH  20  22
ATOM     22  O   UNL d   1       5.188   2.558   0.226  0.00  0.00    -0.776 OA
ATOM     23  H   UNL d   1       4.571   3.287   0.420  0.00  0.00     0.167 HD
ENDBRANCH  20  22
ENDBRANCH  19  20
ENDBRANCH  18  19
ENDBRANCH   1  18
TORSDOF 14
