REMARK  0 active torsions:
REMARK  status: ('A' for Active; 'I' for Inactive)
ROOT
ATOM      1  S   UNL d   1      -1.486   0.016  -0.137  0.00  0.00     0.152 S 
ATOM      2  C   UNL d   1      -0.327   1.367   0.031  0.00  0.00     0.191 C 
ATOM      3  C   UNL d   1       0.986   0.665   0.020  0.00  0.00     0.022 C 
ATOM      4  C   UNL d   1       1.003  -0.672   0.028  0.00  0.00     0.008 C 
ATOM      5  O   UNL d   1      -2.383   0.023   1.003  0.00  0.00    -0.227 OA
ATOM      6  O   UNL d   1      -1.993   0.009  -1.497  0.00  0.00    -0.227 OA
ATOM      7  C   UNL d   1      -0.331  -1.343   0.045  0.00  0.00     0.169 C 
ATOM      8 CL   UNL d   1       2.411   1.611  -0.009  0.00  0.00    -0.088 Cl
ENDROOT
TORSDOF 0
