REMARK  2 active torsions:
REMARK  status: ('A' for Active; 'I' for Inactive)
REMARK    1  A    between atoms: N_7  and  C_2 
REMARK    2  A    between atoms: C_12  and  C_3 
ROOT
ATOM      1  C   UNL d   1       0.173   1.025  -0.006  0.00  0.00     0.048 A 
ATOM      2  C   UNL d   1       1.538   1.423   0.086  0.00  0.00     0.097 A 
ATOM      3  C   UNL d   1      -1.115   1.720  -0.095  0.00  0.00    -0.003 A 
ATOM      4  C   UNL d   1      -0.024  -0.353  -0.060  0.00  0.00     0.089 A 
ATOM      5  C   UNL d   1      -2.161   0.806  -0.132  0.00  0.00     0.065 A 
ATOM      6  S   UNL d   1      -1.656  -0.818  -0.080  0.00  0.00    -0.082 SA
ATOM      7  N   UNL d   1       2.496   0.466  -0.001  0.00  0.00    -0.342 N 
ATOM      8  HN  UNL d   1       3.482   0.729   0.006  1.00  0.00     0.167 HD
ATOM      9  N   UNL d   1       0.913  -1.313  -0.097  0.00  0.00    -0.346 N 
ATOM     10  HN  UNL d   1       0.702  -2.311  -0.123  1.00  0.00     0.167 HD
ATOM     11  C   UNL d   1       2.147  -0.819  -0.095  0.00  0.00     0.182 A 
ENDROOT
BRANCH   3  12
ATOM     12  C   UNL d   1      -1.432   3.152  -0.280  0.00  0.00    -0.024 A 
ATOM     13  C   UNL d   1      -0.591   3.986  -1.023  0.00  0.00     0.013 A 
ATOM     14  C   UNL d   1      -0.964   5.299  -1.340  0.00  0.00     0.007 A 
ATOM     15  C   UNL d   1      -2.216   5.792  -0.967  0.00  0.00    -0.062 A 
ATOM     16  C   UNL d   1      -3.051   4.985  -0.193  0.00  0.00     0.007 A 
ATOM     17  C   UNL d   1      -2.653   7.152  -1.424  0.00  0.00     0.048 C 
ATOM     18  C   UNL d   1      -2.654   3.689   0.162  0.00  0.00     0.013 A 
ENDBRANCH   3  12
BRANCH   2  19
ATOM     19  N   UNL d   1       1.944   2.758   0.256  0.00  0.00    -0.265 NA
ATOM     20  C   UNL d   1       3.312   3.026  -0.241  0.00  0.00     0.123 C 
ATOM     21  C   UNL d   1       3.620   4.522  -0.067  0.00  0.00     0.182 C 
ATOM     22  O   UNL d   1       3.515   4.915   1.312  0.00  0.00    -0.389 OA
ATOM     23  C   UNL d   1       2.189   4.655   1.806  0.00  0.00     0.182 C 
ATOM     24  C   UNL d   1       1.810   3.169   1.671  0.00  0.00     0.123 C 
ENDBRANCH   2  19
TORSDOF 2
