REMARK  7 active torsions:
REMARK  status: ('A' for Active; 'I' for Inactive)
REMARK    1  A    between atoms: N_2  and  C_1 
REMARK    2  A    between atoms: C_5  and  C_3 
REMARK       I    between atoms: N_12  and  C_5 
REMARK    3  A    between atoms: O_23  and  C_6 
REMARK    4  A    between atoms: C_7  and  N_13 
REMARK    5  A    between atoms: N_10  and  C_7 
REMARK    6  A    between atoms: C_11  and  N_10 
REMARK    7  A    between atoms: N_13  and  N_12 
ROOT
ATOM      1  C   UNL d   1       1.047  -4.054  -2.109  0.00  0.00     0.271 C 
ATOM      2  N   UNL d   1       0.729  -3.883  -0.774  0.00  0.00    -0.264 N 
ATOM      3  O   UNL d   1       0.260  -4.461  -2.961  0.00  0.00    -0.266 OA
ATOM      4  H   UNL d   1       1.406  -3.627  -0.064  0.00  0.00     0.190 HD
ENDROOT
BRANCH   2   5
ATOM      5  N   UNL d   1      -0.548  -4.191  -0.298  0.00  0.00    -0.273 N 
ATOM      6  H   UNL d   1      -1.238  -3.444  -0.280  0.00  0.00     0.189 HD
BRANCH   5   7
ATOM      7  C   UNL d   1      -0.942  -5.459   0.082  0.00  0.00     0.191 C 
ATOM      8  S   UNL d   1      -0.167  -6.893  -0.285  0.00  0.00    -0.039 SA
BRANCH   7   9
ATOM      9  N   UNL d   1      -2.099  -5.500   0.828  0.00  0.00    -0.332 N 
ATOM     10  H   UNL d   1      -2.558  -6.404   0.828  0.00  0.00     0.168 HD
BRANCH   9  11
ATOM     11  C   UNL d   1      -2.411  -4.671   1.941  0.00  0.00     0.040 A 
ATOM     12  C   UNL d   1      -3.682  -4.728   2.540  0.00  0.00    -0.035 A 
ATOM     13  C   UNL d   1      -3.933  -3.938   3.684  0.00  0.00     0.015 A 
ATOM     14  C   UNL d   1      -4.836  -5.532   2.004  0.00  0.00     0.050 C 
ATOM     15  C   UNL d   1      -2.941  -3.132   4.254  0.00  0.00    -0.061 A 
ATOM     16  C   UNL d   1      -1.681  -3.102   3.665  0.00  0.00     0.009 A 
ATOM     17  C   UNL d   1      -3.236  -2.306   5.470  0.00  0.00     0.048 C 
ATOM     18  C   UNL d   1      -1.422  -3.865   2.526  0.00  0.00     0.030 A 
ENDBRANCH   9  11
ENDBRANCH   7   9
ENDBRANCH   5   7
ENDBRANCH   2   5
BRANCH   1  19
ATOM     19  C   UNL d   1       2.433  -3.711  -2.526  0.00  0.00     0.051 A 
ATOM     20  C   UNL d   1       2.924  -4.206  -3.734  0.00  0.00     0.059 A 
ATOM     21  C   UNL d   1       4.223  -3.853  -4.142  0.00  0.00     0.154 A 
ATOM     22  C   UNL d   1       5.001  -3.007  -3.369  0.00  0.00     0.175 A 
ATOM     23  N   UNL d   1       4.528  -2.531  -2.188  0.00  0.00    -0.344 N 
ATOM     24  C   UNL d   1       3.274  -2.882  -1.796  0.00  0.00     0.107 A 
ATOM     25  HN  UNL d   1       5.103  -1.922  -1.605  1.00  0.00     0.167 HD
BRANCH  21  26
ATOM     26  N   UNL d   1       4.711  -4.441  -5.350  0.00  0.00    -0.111 N 
ATOM     27  O   UNL d   1       4.177  -4.080  -6.407  0.00  0.00    -0.532 OA
ATOM     28  O   UNL d   1       5.623  -5.276  -5.250  0.00  0.00    -0.532 OA
ENDBRANCH  21  26
BRANCH  22  29
ATOM     29  O   UNL d   1       6.278  -2.600  -3.594  0.00  0.00    -0.339 OA
ATOM     30  C   UNL d   1       6.645  -2.240  -4.920  0.00  0.00     0.211 C 
ENDBRANCH  22  29
ENDBRANCH   1  19
TORSDOF 7
