REMARK  5 active torsions:
REMARK  status: ('A' for Active; 'I' for Inactive)
REMARK    1  A    between atoms: C_11  and  C_5 
REMARK    2  A    between atoms: S_10  and  C_8 
REMARK    3  A    between atoms: O_12  and  C_9 
REMARK    4  A    between atoms: C_13  and  S_10 
REMARK    5  A    between atoms: C_15  and  C_13 
ROOT
ATOM      1  N   UNL d   1      -0.625   1.240  -0.005  0.00  0.00    -0.322 N 
ATOM      2  HN  UNL d   1      -1.102   2.142  -0.034  1.00  0.00     0.169 HD
ATOM      3  N   UNL d   1      -0.701  -1.117   0.125  0.00  0.00    -0.307 N 
ATOM      4  HN  UNL d   1      -1.225  -1.989   0.192  1.00  0.00     0.171 HD
ATOM      5  C   UNL d   1      -1.286   0.078   0.069  0.00  0.00     0.120 A 
ATOM      6  N   UNL d   1       1.385  -0.009   0.003  0.00  0.00    -0.302 N 
ATOM      7  HN  UNL d   1       2.404  -0.055  -0.027  1.00  0.00     0.171 HD
ATOM      8  C   UNL d   1       0.703   1.131  -0.039  0.00  0.00     0.149 A 
ATOM      9  C   UNL d   1       0.615  -1.073   0.087  0.00  0.00     0.224 A 
ENDROOT
BRANCH   8  10
ATOM     10  S   UNL d   1       1.687   2.594  -0.238  0.00  0.00    -0.089 SA
BRANCH  10  11
ATOM     11  C   UNL d   1       0.691   3.790   0.699  0.00  0.00     0.121 C 
BRANCH  11  12
ATOM     12  C   UNL d   1       1.428   5.106   0.824  0.00  0.00    -0.048 A 
ATOM     13  C   UNL d   1       1.340   6.071  -0.192  0.00  0.00     0.009 A 
ATOM     14  C   UNL d   1       2.059   7.265  -0.102  0.00  0.00     0.024 A 
ATOM     15  C   UNL d   1       2.873   7.502   1.003  0.00  0.00     0.034 A 
ATOM     16  C   UNL d   1       2.973   6.555   2.020  0.00  0.00     0.024 A 
ATOM     17 CL   UNL d   1       3.767   8.968   1.109  0.00  0.00    -0.084 Cl
ATOM     18  C   UNL d   1       2.255   5.359   1.930  0.00  0.00     0.009 A 
ENDBRANCH  11  12
ENDBRANCH  10  11
ENDBRANCH   8  10
BRANCH   9  19
ATOM     19  O   UNL d   1       1.279  -2.258   0.124  0.00  0.00    -0.332 OA
ATOM     20  H   UNL d   1       2.194  -1.938   0.059  0.00  0.00     0.221 HD
ENDBRANCH   9  19
BRANCH   5  21
ATOM     21  C   UNL d   1      -2.766   0.105   0.071  0.00  0.00     0.008 A 
ATOM     22  C   UNL d   1      -3.518  -1.087   0.132  0.00  0.00     0.015 A 
ATOM     23  C   UNL d   1      -4.916  -1.077   0.124  0.00  0.00     0.001 A 
ATOM     24  C   UNL d   1      -5.601   0.131   0.057  0.00  0.00     0.000 A 
ATOM     25  C   UNL d   1      -4.889   1.325  -0.005  0.00  0.00     0.001 A 
ATOM     26  C   UNL d   1      -3.489   1.312   0.002  0.00  0.00     0.015 A 
ENDBRANCH   5  21
TORSDOF 5
