REMARK  7 active torsions:
REMARK  status: ('A' for Active; 'I' for Inactive)
REMARK    1  A    between atoms: C_20  and  C_7 
REMARK    2  A    between atoms: C_16  and  O_17 
REMARK    3  A    between atoms: C_18  and  O_17 
REMARK    4  A    between atoms: C_26  and  C_20 
REMARK    5  A    between atoms: C_24  and  C_26 
REMARK    6  A    between atoms: C_28  and  C_24 
REMARK    7  A    between atoms: C_29  and  C_28 
ROOT
ATOM      1  C   UNL d   1      -1.595  -2.600  -1.644  0.00  0.00    -0.036 C 
ATOM      2  C   UNL d   1      -0.331  -0.458   2.065  0.00  0.00    -0.017 C 
ATOM      3  C   UNL d   1       1.506   0.046   1.730  0.00  0.00    -0.072 C 
ATOM      4  C   UNL d   1      -0.889  -1.565  -2.504  0.00  0.00    -0.001 C 
ATOM      5  C   UNL d   1      -1.413  -0.762   0.415  0.00  0.00     0.003 C 
ATOM      6  C   UNL d   1      -0.477  -0.458  -1.395  0.00  0.00    -0.001 C 
ATOM      7  C   UNL d   1      -0.335  -2.831  -0.648  0.00  0.00    -0.002 C 
ATOM      8  C   UNL d   1       2.153   0.309   0.419  0.00  0.00    -0.023 C 
ATOM      9  C   UNL d   1      -2.861  -2.063  -0.990  0.00  0.00     0.010 C 
ATOM     10  C   UNL d   1       1.365   0.224  -1.301  0.00  0.00     0.033 C 
ATOM     11  C   UNL d   1      -2.543  -1.797   0.448  0.00  0.00     0.007 C 
ATOM     12  C   UNL d   1       0.394  -2.471  -2.965  0.00  0.00     0.006 C 
ATOM     13  C   UNL d   1      -0.788   0.743   3.084  0.00  0.00     0.016 C 
ATOM     14  C   UNL d   1       0.709  -3.346  -1.700  0.00  0.00     0.006 C 
ATOM     15  C   UNL d   1       2.281   0.353   2.990  0.00  0.00     0.067 C 
ATOM     16  C   UNL d   1       1.615   1.541   3.667  0.00  0.00     0.136 C 
ATOM     17  C   UNL d   1       0.232   1.120   4.189  0.00  0.00     0.034 C 
ATOM     18  C   UNL d   1      -2.050  -3.828  -2.484  0.00  0.00     0.016 C 
ATOM     19  C   UNL d   1      -0.681  -1.673   2.995  0.00  0.00     0.020 C 
ENDROOT
BRANCH   7  20
ATOM     20  C   UNL d   1       0.506  -1.378   0.257  0.00  0.00    -0.014 C 
ATOM     21  C   UNL d   1       1.388  -2.401   1.318  0.00  0.00     0.010 C 
BRANCH  20  22
ATOM     22  C   UNL d   1      -0.066   0.697   0.245  0.00  0.00     0.005 C 
BRANCH  22  23
ATOM     23  C   UNL d   1      -1.491   1.667  -0.356  0.00  0.00     0.001 C 
BRANCH  23  24
ATOM     24  C   UNL d   1      -2.332   2.366   0.792  0.00  0.00     0.004 C 
BRANCH  24  25
ATOM     25  C   UNL d   1      -3.723   2.966   0.471  0.00  0.00    -0.023 C 
ATOM     26  C   UNL d   1      -4.822   1.891   0.492  0.00  0.00     0.009 C 
ATOM     27  C   UNL d   1      -4.109   4.018   1.535  0.00  0.00     0.009 C 
ENDBRANCH  24  25
ENDBRANCH  23  24
ENDBRANCH  22  23
ENDBRANCH  20  22
ENDBRANCH   7  20
BRANCH  16  28
ATOM     28  O   UNL d   1       1.498   2.563   2.650  0.00  0.00    -0.316 OA
BRANCH  28  29
ATOM     29  C   UNL d   1       1.724   3.868   2.942  0.00  0.00     0.255 C 
ATOM     30  O   UNL d   1       1.936   4.303   4.071  0.00  0.00    -0.266 OA
ATOM     31  C   UNL d   1       1.649   4.685   1.698  0.00  0.00     0.126 C 
ENDBRANCH  28  29
ENDBRANCH  16  28
TORSDOF 7
