REMARK  8 active torsions:
REMARK  status: ('A' for Active; 'I' for Inactive)
REMARK    1  A    between atoms: C_10  and  C_2 
REMARK    2  A    between atoms: S_12  and  C_5 
REMARK    3  A    between atoms: O_11  and  C_6 
REMARK    4  A    between atoms: C_9  and  C_7 
REMARK    5  A    between atoms: O_19  and  C_10 
REMARK    6  A    between atoms: C_17  and  O_11 
REMARK    7  A    between atoms: C_29  and  O_19 
REMARK    8  A    between atoms: O_26  and  C_21 
ROOT
ATOM      1  C   UNL d   1      -0.069   0.737  -0.044  0.00  0.00     0.061 A 
ATOM      2  C   UNL d   1      -2.411  -0.765  -0.003  0.00  0.00     0.107 A 
ATOM      3  N   UNL d   1      -1.261   1.331   0.066  0.00  0.00    -0.348 N 
ATOM      4  HN  UNL d   1      -1.303   2.345   0.172  1.00  0.00     0.166 HD
ATOM      5  C   UNL d   1      -2.416   0.621   0.040  0.00  0.00     0.089 A 
ATOM      6  C   UNL d   1      -1.165  -1.426  -0.085  0.00  0.00     0.107 A 
ATOM      7  C   UNL d   1       1.083   1.528  -0.040  0.00  0.00     0.075 C 
ATOM      8  C   UNL d   1       0.042  -0.666  -0.186  0.00  0.00     0.026 A 
ATOM      9  C   UNL d   1       2.360   0.943  -0.145  0.00  0.00     0.018 C 
ATOM     10  C   UNL d   1       1.338  -1.193  -0.436  0.00  0.00     0.017 C 
ATOM     11  C   UNL d   1       2.487  -0.415  -0.364  0.00  0.00     0.002 C 
ENDROOT
BRANCH   6  12
ATOM     12  O   UNL d   1      -1.248  -2.809  -0.141  0.00  0.00    -0.309 OA
BRANCH  12  13
ATOM     13  C   UNL d   1      -0.292  -3.646   0.383  0.00  0.00     0.076 A 
ATOM     14  C   UNL d   1       0.480  -3.384   1.516  0.00  0.00     0.040 A 
ATOM     15  C   UNL d   1       1.548  -4.233   1.843  0.00  0.00     0.039 A 
ATOM     16  C   UNL d   1       1.797  -5.380   1.085  0.00  0.00     0.068 A 
ATOM     17  C   UNL d   1       0.938  -5.698   0.032  0.00  0.00     0.039 A 
ATOM     18  C   UNL d   1      -0.102  -4.835  -0.318  0.00  0.00     0.040 A 
BRANCH  16  19
ATOM     19  O   UNL d   1       2.826  -6.261   1.268  0.00  0.00    -0.356 OA
ATOM     20  C   UNL d   1       3.838  -5.887   2.193  0.00  0.00     0.210 C 
ENDBRANCH  16  19
ENDBRANCH  12  13
ENDBRANCH   6  12
BRANCH   2  21
ATOM     21  C   UNL d   1      -3.663  -1.553  -0.066  0.00  0.00     0.299 C 
ATOM     22  O   UNL d   1      -3.849  -2.478  -0.833  0.00  0.00    -0.259 OA
BRANCH  21  23
ATOM     23  O   UNL d   1      -4.536  -1.119   0.878  0.00  0.00    -0.318 OA
BRANCH  23  24
ATOM     24  C   UNL d   1      -5.837  -1.732   0.875  0.00  0.00     0.174 C 
ATOM     25  C   UNL d   1      -5.864  -2.801   1.945  0.00  0.00     0.034 C 
ENDBRANCH  23  24
ENDBRANCH  21  23
ENDBRANCH   2  21
BRANCH   5  26
ATOM     26  S   UNL d   1      -3.904   1.627  -0.034  0.00  0.00    -0.116 SA
ATOM     27  C   UNL d   1      -3.233   3.300   0.155  0.00  0.00     0.097 C 
ENDBRANCH   5  26
BRANCH   7  28
ATOM     28  C   UNL d   1       1.035   3.032   0.051  0.00  0.00     0.419 C 
ATOM     29  F   UNL d   1      -0.187   3.624   0.070  0.00  0.00    -0.166 F 
ATOM     30  F   UNL d   1       1.676   3.492   1.169  0.00  0.00    -0.166 F 
ATOM     31  F   UNL d   1       1.695   3.613  -0.995  0.00  0.00    -0.166 F 
ENDBRANCH   7  28
TORSDOF 8
