REMARK  3 active torsions:
REMARK  status: ('A' for Active; 'I' for Inactive)
REMARK       I    between atoms: N_2  and  C_1 
REMARK    1  A    between atoms: C_3  and  C_1 
REMARK    2  A    between atoms: C_4  and  N_2 
REMARK    3  A    between atoms: C_10  and  C_7 
ROOT
ATOM      1  C   UNL d   1       0.990  -0.594   2.443  0.00  0.00     0.056 A 
ATOM      2  C   UNL d   1       2.504  -1.621   4.635  0.00  0.00    -0.049 A 
ATOM      3  C   UNL d   1       2.173   0.033   2.853  0.00  0.00     0.061 A 
ATOM      4  C   UNL d   1       2.906  -0.462   3.943  0.00  0.00     0.034 A 
ATOM      5  C   UNL d   1       0.599  -1.756   3.106  0.00  0.00     0.032 A 
ATOM      6  C   UNL d   1       1.343  -2.263   4.180  0.00  0.00     0.010 A 
ATOM      7 CL   UNL d   1       2.746   1.462   2.062  0.00  0.00    -0.082 Cl
ENDROOT
BRANCH   1   8
ATOM      8  N   UNL d   1       0.244  -0.056   1.365  0.00  0.00    -0.325 N 
ATOM      9  C   UNL d   1      -1.079  -0.322   1.097  0.00  0.00     0.226 C 
ATOM     10  O   UNL d   1      -1.855  -0.964   1.793  0.00  0.00    -0.273 OA
ATOM     11  H   UNL d   1       0.693   0.681   0.835  0.00  0.00     0.169 HD
BRANCH   9  12
ATOM     12  C   UNL d   1      -1.562   0.286  -0.175  0.00  0.00     0.078 A 
ATOM     13  C   UNL d   1      -2.229   1.639  -0.189  0.00  0.00     0.015 A 
ATOM     14  C   UNL d   1      -3.050   0.406  -0.424  0.00  0.00     0.015 A 
ENDBRANCH   9  12
ENDBRANCH   1   8
BRANCH   2  15
ATOM     15  C   UNL d   1       3.310  -2.134   5.841  0.00  0.00    -0.024 C 
ATOM     16  C   UNL d   1       2.773  -3.458   6.433  0.00  0.00     0.019 C 
ATOM     17  C   UNL d   1       4.775  -2.384   5.426  0.00  0.00     0.019 C 
ATOM     18  C   UNL d   1       3.269  -1.079   6.967  0.00  0.00     0.019 C 
ENDBRANCH   2  15
TORSDOF 3
