REMARK  3 active torsions:
REMARK  status: ('A' for Active; 'I' for Inactive)
REMARK    1  A    between atoms: C_10  and  N_3 
REMARK    2  A    between atoms: C_7  and  C_4 
REMARK    3  A    between atoms: C_9  and  C_5 
ROOT
ATOM      1  N   UNL d   1       1.122  -0.179   0.167  0.00  0.00    -0.301 N 
ATOM      2  HN  UNL d   1       2.115  -0.366   0.311  1.00  0.00     0.187 HD
ATOM      3  N   UNL d   1       0.129  -1.106   0.083  0.00  0.00    -0.283 N 
ATOM      4  C   UNL d   1       0.570   0.987   0.029  0.00  0.00     0.039 A 
ATOM      5  C   UNL d   1      -1.209  -0.530  -0.031  0.00  0.00     0.147 A 
ATOM      6  C   UNL d   1      -0.934   0.974  -0.066  0.00  0.00     0.091 A 
ENDROOT
BRANCH   4   7
ATOM      7  C   UNL d   1       1.331   2.259  -0.063  0.00  0.00    -0.006 A 
ATOM      8  C   UNL d   1       2.606   2.336  -0.657  0.00  0.00    -0.049 A 
ATOM      9  C   UNL d   1       3.270   3.580  -0.675  0.00  0.00     0.014 A 
ATOM     10  C   UNL d   1       3.330   1.179  -1.292  0.00  0.00     0.049 C 
ATOM     11  C   UNL d   1       2.679   4.737  -0.154  0.00  0.00    -0.061 A 
ATOM     12  C   UNL d   1       1.401   4.652   0.396  0.00  0.00     0.007 A 
ATOM     13  C   UNL d   1       3.418   6.042  -0.203  0.00  0.00     0.048 C 
ATOM     14  C   UNL d   1       0.736   3.425   0.446  0.00  0.00     0.014 A 
ENDBRANCH   4   7
BRANCH   3  15
ATOM     15  C   UNL d   1       0.415  -2.470   0.061  0.00  0.00     0.051 A 
ATOM     16  C   UNL d   1       1.590  -2.965   0.652  0.00  0.00     0.031 A 
ATOM     17  C   UNL d   1       1.863  -4.336   0.693  0.00  0.00     0.002 A 
ATOM     18  C   UNL d   1       0.982  -5.240   0.112  0.00  0.00     0.000 A 
ATOM     19  C   UNL d   1      -0.173  -4.776  -0.504  0.00  0.00     0.002 A 
ATOM     20  C   UNL d   1      -0.454  -3.404  -0.523  0.00  0.00     0.031 A 
ENDBRANCH   3  15
BRANCH   5  21
ATOM     21  C   UNL d   1      -2.103  -0.904   1.145  0.00  0.00    -0.033 A 
ATOM     22  C   UNL d   1      -1.570  -1.160   2.423  0.00  0.00     0.011 A 
ATOM     23  C   UNL d   1      -2.397  -1.516   3.489  0.00  0.00     0.024 A 
ATOM     24  C   UNL d   1      -3.771  -1.599   3.294  0.00  0.00     0.034 A 
ATOM     25  C   UNL d   1      -4.322  -1.332   2.043  0.00  0.00     0.024 A 
ATOM     26 CL   UNL d   1      -4.795  -2.026   4.609  0.00  0.00    -0.084 Cl
ATOM     27  C   UNL d   1      -3.493  -0.988   0.970  0.00  0.00     0.011 A 
ENDBRANCH   5  21
TORSDOF 3
