REMARK  2 active torsions:
REMARK  status: ('A' for Active; 'I' for Inactive)
REMARK    1  A    between atoms: C_8  and  C_3 
REMARK    2  A    between atoms: C_15  and  C_6 
ROOT
ATOM      1  N   UNL d   1       1.268   0.193  -0.131  0.00  0.00    -0.323 N 
ATOM      2  HN  UNL d   1       2.267   0.341  -0.280  1.00  0.00     0.169 HD
ATOM      3  C   UNL d   1       0.265   1.133  -0.009  0.00  0.00     0.137 A 
ATOM      4  N   UNL d   1      -0.956   0.602   0.173  0.00  0.00    -0.242 N 
ATOM      5  HN  UNL d   1      -1.844   1.091   0.283  1.00  0.00     0.196 HD
ATOM      6  C   UNL d   1       0.614  -0.938  -0.009  0.00  0.00     0.148 A 
ATOM      7  O   UNL d   1      -0.726  -0.771   0.174  0.00  0.00    -0.223 OA
ENDROOT
BRANCH   3   8
ATOM      8  C   UNL d   1       0.533   2.566  -0.065  0.00  0.00     0.010 A 
ATOM      9  C   UNL d   1       1.844   3.033  -0.252  0.00  0.00     0.017 A 
ATOM     10  C   UNL d   1       2.113   4.405  -0.308  0.00  0.00     0.025 A 
ATOM     11  C   UNL d   1       1.071   5.319  -0.177  0.00  0.00     0.034 A 
ATOM     12  C   UNL d   1      -0.236   4.876   0.012  0.00  0.00     0.025 A 
ATOM     13 CL   UNL d   1       1.400   7.006  -0.251  0.00  0.00    -0.084 Cl
ATOM     14  C   UNL d   1      -0.503   3.503   0.068  0.00  0.00     0.017 A 
ENDBRANCH   3   8
BRANCH   6  15
ATOM     15  C   UNL d   1       1.123  -2.326  -0.011  0.00  0.00     0.082 C 
ATOM     16  C   UNL d   1       1.518  -2.764   1.389  0.00  0.00     0.013 C 
ENDBRANCH   6  15
TORSDOF 2
