REMARK  5 active torsions:
REMARK  status: ('A' for Active; 'I' for Inactive)
REMARK    1  A    between atoms: C_8  and  C_1 
REMARK    2  A    between atoms: C_9  and  C_2 
REMARK    3  A    between atoms: N_4  and  C_10 
REMARK    4  A    between atoms: O_16  and  C_8 
REMARK    5  A    between atoms: C_21  and  O_16 
ROOT
ATOM      1  C   UNL d   1       1.433   1.042   0.083  0.00  0.00     0.066 C 
ATOM      2  C   UNL d   1       0.187   1.882  -0.076  0.00  0.00     0.161 C 
ATOM      3  C   UNL d   1       1.368  -0.306   0.031  0.00  0.00     0.024 C 
ATOM      4  C   UNL d   1      -1.068  -0.259  -0.049  0.00  0.00     0.321 C 
ATOM      5  N   UNL d   1       0.129  -0.901  -0.088  0.00  0.00    -0.312 N 
ATOM      6  N   UNL d   1      -1.017   1.085   0.084  0.00  0.00    -0.330 N 
ATOM      7  O   UNL d   1      -2.134  -0.861  -0.096  0.00  0.00    -0.247 OA
ATOM      8  C   UNL d   1       2.504  -1.298   0.048  0.00  0.00     0.069 C 
ATOM      9  H   UNL d   1       0.055  -1.912  -0.142  0.00  0.00     0.170 HD
ATOM     10  H   UNL d   1      -1.918   1.542   0.077  0.00  0.00     0.165 HD
ENDROOT
BRANCH   2  11
ATOM     11  C   UNL d   1       0.042   3.090   0.841  0.00  0.00    -0.028 A 
ATOM     12  C   UNL d   1      -0.154   4.367   0.285  0.00  0.00     0.045 A 
ATOM     13  C   UNL d   1      -0.367   5.475   1.121  0.00  0.00     0.103 A 
ATOM     14  C   UNL d   1      -0.388   5.321   2.512  0.00  0.00     0.036 A 
ATOM     15  C   UNL d   1      -0.190   4.056   3.066  0.00  0.00     0.003 A 
ATOM     16  C   UNL d   1       0.023   2.950   2.239  0.00  0.00     0.010 A 
BRANCH  13  17
ATOM     17  N   UNL d   1      -0.583   6.801   0.530  0.00  0.00    -0.116 N 
ATOM     18  O   UNL d   1      -0.540   6.894  -0.705  0.00  0.00    -0.532 OA
ATOM     19  O   UNL d   1      -0.795   7.749   1.299  0.00  0.00    -0.532 OA
ENDBRANCH  13  17
ENDBRANCH   2  11
BRANCH   1  20
ATOM     20  C   UNL d   1       2.740   1.734   0.230  0.00  0.00     0.293 C 
ATOM     21  O   UNL d   1       3.712   1.258   0.798  0.00  0.00    -0.259 OA
BRANCH  20  22
ATOM     22  O   UNL d   1       2.703   2.966  -0.339  0.00  0.00    -0.318 OA
BRANCH  22  23
ATOM     23  C   UNL d   1       3.916   3.734  -0.236  0.00  0.00     0.174 C 
ATOM     24  C   UNL d   1       4.143   4.255   1.175  0.00  0.00     0.034 C 
ENDBRANCH  22  23
ENDBRANCH  20  22
ENDBRANCH   1  20
TORSDOF 5
