REMARK  3 active torsions:
REMARK  status: ('A' for Active; 'I' for Inactive)
REMARK    1  A    between atoms: N_2  and  C_1 
REMARK    2  A    between atoms: N_5  and  C_3 
REMARK    3  A    between atoms: C_10  and  C_6 
ROOT
ATOM      1  C   UNL d   1       1.400  -0.137   0.007  0.00  0.00     0.130 A 
ATOM      2  C   UNL d   1       0.644  -1.327  -0.009  0.00  0.00     0.063 A 
ATOM      3  C   UNL d   1       0.820   1.144   0.040  0.00  0.00     0.053 A 
ATOM      4  C   UNL d   1      -0.570   1.281   0.072  0.00  0.00     0.012 A 
ATOM      5  C   UNL d   1      -0.750  -1.145  -0.011  0.00  0.00     0.033 A 
ATOM      6  C   UNL d   1      -1.352   0.126   0.035  0.00  0.00     0.017 A 
ENDROOT
BRANCH   2   7
ATOM      7  N   UNL d   1       1.199  -2.599   0.045  0.00  0.00    -0.375 N 
ATOM      8  C   UNL d   1       0.438  -3.726   0.624  0.00  0.00     0.149 C 
ATOM      9  C   UNL d   1       1.421  -4.799   1.122  0.00  0.00     0.187 C 
ATOM     10  O   UNL d   1       2.293  -5.243   0.069  0.00  0.00    -0.388 OA
ATOM     11  C   UNL d   1       3.050  -4.135  -0.451  0.00  0.00     0.187 C 
ATOM     12  C   UNL d   1       2.120  -3.049  -1.024  0.00  0.00     0.149 C 
ENDBRANCH   2   7
BRANCH   1  13
ATOM     13  N   UNL d   1       2.849  -0.170   0.076  0.00  0.00    -0.113 N 
ATOM     14  O   UNL d   1       3.372  -0.655   1.090  0.00  0.00    -0.532 OA
ATOM     15  O   UNL d   1       3.463   0.322  -0.881  0.00  0.00    -0.532 OA
ENDBRANCH   1  13
BRANCH   4  16
ATOM     16  C   UNL d   1      -1.132   2.663   0.177  0.00  0.00     0.155 C 
ATOM     17  O   UNL d   1      -0.356   3.619   0.203  0.00  0.00    -0.293 OA
ATOM     18  C   UNL d   1      -2.616   2.893   0.305  0.00  0.00     0.096 C 
ENDBRANCH   4  16
TORSDOF 3
