REMARK  5 active torsions:
REMARK  status: ('A' for Active; 'I' for Inactive)
REMARK    1  A    between atoms: N_3  and  C_1 
REMARK    2  A    between atoms: N_9  and  C_1 
REMARK    3  A    between atoms: C_2  and  N_3 
REMARK    4  A    between atoms: N_5  and  N_9 
REMARK    5  A    between atoms: C_13  and  C_12 
ROOT
ATOM      1  C   UNL d   1       1.347  -0.029  -0.119  0.00  0.00     0.191 C 
ATOM      2  S   UNL d   1       0.764  -0.425  -1.637  0.00  0.00    -0.039 SA
ENDROOT
BRANCH   1   3
ATOM      3  N   UNL d   1       0.658   0.484   0.957  0.00  0.00    -0.331 N 
ATOM      4  H   UNL d   1       1.061   0.192   1.842  0.00  0.00     0.168 HD
BRANCH   3   5
ATOM      5  C   UNL d   1      -0.645   1.036   0.984  0.00  0.00     0.057 A 
ATOM      6  C   UNL d   1      -1.098   1.860  -0.054  0.00  0.00     0.055 A 
ATOM      7  C   UNL d   1      -2.383   2.403  -0.017  0.00  0.00     0.036 A 
ATOM      8 CL   UNL d   1      -2.913   3.424  -1.297  0.00  0.00    -0.084 Cl
ATOM      9  C   UNL d   1      -3.232   2.138   1.053  0.00  0.00     0.026 A 
ATOM     10  C   UNL d   1      -2.779   1.349   2.113  0.00  0.00     0.028 A 
ATOM     11  C   UNL d   1      -1.482   0.819   2.089  0.00  0.00     0.060 A 
ATOM     12 CL   UNL d   1      -0.973  -0.149   3.427  0.00  0.00    -0.082 Cl
ENDBRANCH   3   5
ENDBRANCH   1   3
BRANCH   1  13
ATOM     13  N   UNL d   1       2.678  -0.278   0.125  0.00  0.00    -0.276 N 
ATOM     14  H   UNL d   1       3.216  -0.647  -0.655  0.00  0.00     0.189 HD
BRANCH  13  15
ATOM     15  N   UNL d   1       3.308   0.096   1.278  0.00  0.00    -0.309 N 
ATOM     16  C   UNL d   1       4.593  -0.087   1.244  0.00  0.00     0.118 C 
ATOM     17  HN  UNL d   1       2.817   0.481   2.085  1.00  0.00     0.186 HD
BRANCH  16  18
ATOM     18  C   UNL d   1       5.485   0.266   2.363  0.00  0.00    -0.019 A 
ATOM     19  C   UNL d   1       4.997   0.899   3.509  0.00  0.00     0.014 A 
ATOM     20  C   UNL d   1       5.871   1.214   4.553  0.00  0.00     0.024 A 
ATOM     21  C   UNL d   1       7.226   0.894   4.445  0.00  0.00     0.034 A 
ATOM     22  C   UNL d   1       7.718   0.270   3.300  0.00  0.00     0.024 A 
ATOM     23 CL   UNL d   1       8.299   1.272   5.736  0.00  0.00    -0.084 Cl
ATOM     24  C   UNL d   1       6.846  -0.044   2.253  0.00  0.00     0.014 A 
ENDBRANCH  16  18
ENDBRANCH  13  15
ENDBRANCH   1  13
TORSDOF 5
