REMARK  4 active torsions:
REMARK  status: ('A' for Active; 'I' for Inactive)
REMARK    1  A    between atoms: C_2  and  C_1 
REMARK       I    between atoms: N_10  and  C_1 
REMARK       I    between atoms: N_3  and  C_2 
REMARK    2  A    between atoms: C_11  and  N_3 
REMARK    3  A    between atoms: C_4  and  C_12 
REMARK    4  A    between atoms: N_5  and  N_10 
ROOT
ATOM      1  C   UNL d   1       0.457  -0.095  -0.843  0.00  0.00     0.328 C 
ATOM      2  N   UNL d   1       1.536   0.151  -1.683  0.00  0.00    -0.262 N 
ATOM      3  O   UNL d   1      -0.686  -0.389  -1.191  0.00  0.00    -0.261 OA
ATOM      4  H   UNL d   1       2.328   0.640  -1.265  0.00  0.00     0.190 HD
ENDROOT
BRANCH   1   5
ATOM      5  C   UNL d   1       0.688   0.179   0.645  0.00  0.00     0.315 C 
ATOM      6  N   UNL d   1      -0.404   0.838   1.176  0.00  0.00    -0.319 N 
ATOM      7  H   UNL d   1      -1.060   1.192   0.482  0.00  0.00     0.169 HD
ATOM      8  O   UNL d   1       1.716  -0.177   1.191  0.00  0.00    -0.262 OA
BRANCH   6   9
ATOM      9  C   UNL d   1      -0.937   0.682   2.464  0.00  0.00     0.036 A 
ATOM     10  C   UNL d   1      -0.442  -0.234   3.392  0.00  0.00     0.055 A 
ATOM     11  C   UNL d   1      -1.187  -0.532   4.541  0.00  0.00     0.058 A 
ATOM     12 CL   UNL d   1      -0.582  -1.764   5.592  0.00  0.00    -0.082 Cl
ATOM     13  C   UNL d   1      -2.405   0.117   4.780  0.00  0.00     0.055 A 
ATOM     14  C   UNL d   1      -2.856   1.094   3.891  0.00  0.00     0.028 A 
ATOM     15 CL   UNL d   1      -3.418  -0.268   6.125  0.00  0.00    -0.083 Cl
ATOM     16  C   UNL d   1      -2.125   1.372   2.736  0.00  0.00     0.031 A 
ENDBRANCH   6   9
ENDBRANCH   1   5
BRANCH   2  17
ATOM     17  N   UNL d   1       1.267   0.494  -2.996  0.00  0.00    -0.308 N 
ATOM     18  C   UNL d   1       0.542  -0.366  -3.651  0.00  0.00     0.126 C 
ATOM     19  HN  UNL d   1       1.611   1.356  -3.419  1.00  0.00     0.186 HD
BRANCH  18  20
ATOM     20  C   UNL d   1      -0.108  -0.002  -4.886  0.00  0.00     0.021 A 
ATOM     21  S   UNL d   1      -0.927  -1.200  -5.788  0.00  0.00    -0.101 SA
ATOM     22  C   UNL d   1      -1.527  -0.040  -6.896  0.00  0.00     0.050 A 
ATOM     23  C   UNL d   1      -1.098   1.233  -6.593  0.00  0.00     0.008 A 
ATOM     24  C   UNL d   1      -0.259   1.252  -5.441  0.00  0.00     0.021 A 
ENDBRANCH  18  20
ENDBRANCH   2  17
TORSDOF 4
