REMARK  2 active torsions:
REMARK  status: ('A' for Active; 'I' for Inactive)
REMARK    1  A    between atoms: C_4  and  C_1 
REMARK       I    between atoms: N_13  and  C_4 
REMARK    2  A    between atoms: N_14  and  N_13 
ROOT
ATOM      1  C   UNL d   1       0.749   0.784   1.154  0.00  0.00     0.044 C 
ATOM      2  C   UNL d   1       0.265  -1.515   0.151  0.00  0.00    -0.042 C 
ATOM      3  C   UNL d   1      -1.523   0.293   0.108  0.00  0.00    -0.042 C 
ATOM      4  C   UNL d   1      -0.775   1.042   1.234  0.00  0.00     0.028 C 
ATOM      5  C   UNL d   1       0.992  -0.742   1.274  0.00  0.00     0.028 C 
ATOM      6  C   UNL d   1       1.265   1.250  -0.226  0.00  0.00     0.024 C 
ATOM      7  C   UNL d   1       0.535   0.499  -1.353  0.00  0.00    -0.012 C 
ATOM      8  C   UNL d   1      -1.249  -1.221   0.249  0.00  0.00     0.018 C 
ATOM      9  C   UNL d   1       0.784  -1.010  -1.212  0.00  0.00     0.014 C 
ATOM     10  C   UNL d   1      -0.975   0.773  -1.255  0.00  0.00     0.014 C 
ATOM     11  C   UNL d   1      -3.028   0.567   0.201  0.00  0.00     0.015 C 
ATOM     12  C   UNL d   1       0.520  -3.019   0.291  0.00  0.00     0.015 C 
ENDROOT
BRANCH   1  13
ATOM     13  C   UNL d   1       1.471   1.513   2.302  0.00  0.00     0.240 C 
ATOM     14  O   UNL d   1       2.127   0.933   3.165  0.00  0.00    -0.271 OA
ATOM     15  N   UNL d   1       1.293   2.894   2.325  0.00  0.00    -0.293 N 
ATOM     16  H   UNL d   1       0.920   3.384   1.517  0.00  0.00     0.183 HD
BRANCH  15  17
ATOM     17  N   UNL d   1       1.907   3.650   3.348  0.00  0.00    -0.247 NA
ATOM     18  H   UNL d   1       2.456   2.985   3.915  0.00  0.00     0.143 HD
ATOM     19  H   UNL d   1       1.175   3.971   3.987  0.00  0.00     0.143 HD
ENDBRANCH  15  17
ENDBRANCH   1  13
TORSDOF 2
