REMARK  3 active torsions:
REMARK  status: ('A' for Active; 'I' for Inactive)
REMARK    1  A    between atoms: N_5  and  C_1 
REMARK       I    between atoms: C_2  and  N_5 
REMARK       I    between atoms: N_8  and  C_2 
REMARK    2  A    between atoms: C_14  and  N_8 
REMARK    3  A    between atoms: N_11  and  C_9 
ROOT
ATOM      1  C   UNL d   1      -0.166  -3.917   0.691  0.00  0.00     0.325 C 
ATOM      2  N   UNL d   1       0.263  -5.206   0.751  0.00  0.00    -0.307 N 
ATOM      3  N   UNL d   1      -1.487  -3.697   0.445  0.00  0.00    -0.309 N 
ATOM      4  O   UNL d   1       0.697  -3.037   0.704  0.00  0.00    -0.247 OA
ATOM      5  H   UNL d   1       1.266  -5.218   0.590  0.00  0.00     0.170 HD
ATOM      6  H   UNL d   1      -1.934  -4.435  -0.080  0.00  0.00     0.170 HD
ENDROOT
BRANCH   2   7
ATOM      7  C   UNL d   1      -0.204  -6.340   1.419  0.00  0.00     0.054 A 
ATOM      8  C   UNL d   1      -1.411  -6.637   2.183  0.00  0.00     0.008 A 
ATOM      9  C   UNL d   1      -1.284  -7.873   2.853  0.00  0.00     0.017 A 
ATOM     10  C   UNL d   1      -2.621  -5.935   2.421  0.00  0.00     0.015 A 
ATOM     11  C   UNL d   1      -2.253  -8.360   3.747  0.00  0.00     0.020 A 
ATOM     12  S   UNL d   1       0.170  -8.688   2.442  0.00  0.00    -0.099 SA
ATOM     13  C   UNL d   1      -3.416  -7.628   3.961  0.00  0.00     0.001 A 
ATOM     14  C   UNL d   1      -3.611  -6.438   3.283  0.00  0.00     0.001 A 
ATOM     15  C   UNL d   1       0.670  -7.414   1.448  0.00  0.00     0.081 A 
ENDBRANCH   2   7
BRANCH   3  16
ATOM     16  C   UNL d   1      -2.063  -2.406   0.377  0.00  0.00     0.036 A 
ATOM     17  C   UNL d   1      -3.098  -2.180  -0.519  0.00  0.00     0.032 A 
ATOM     18  C   UNL d   1      -3.715  -0.917  -0.591  0.00  0.00     0.031 A 
ATOM     19  C   UNL d   1      -3.386   0.148   0.266  0.00  0.00     0.029 A 
ATOM     20  C   UNL d   1      -2.316  -0.110   1.143  0.00  0.00     0.031 A 
ATOM     21  C   UNL d   1      -1.658  -1.357   1.196  0.00  0.00     0.032 A 
BRANCH  19  22
ATOM     22  N   UNL d   1      -4.112   1.336   0.291  0.00  0.00    -0.390 N 
ATOM     23  C   UNL d   1      -3.624   2.548   0.951  0.00  0.00     0.149 C 
ATOM     24  C   UNL d   1      -5.224   1.578  -0.628  0.00  0.00     0.149 C 
ENDBRANCH  19  22
ENDBRANCH   3  16
TORSDOF 3
