REMARK  5 active torsions:
REMARK  status: ('A' for Active; 'I' for Inactive)
REMARK    1  A    between atoms: C_11  and  C_3 
REMARK    2  A    between atoms: C_18  and  C_10 
REMARK       I    between atoms: N_14  and  C_11 
REMARK    3  A    between atoms: C_12  and  C_16 
REMARK       I    between atoms: C_13  and  N_15 
REMARK    4  A    between atoms: C_17  and  C_13 
REMARK    5  A    between atoms: N_15  and  N_14 
ROOT
ATOM      1  C   UNL d   1       0.444   0.485  -0.054  0.00  0.00     0.172 A 
ATOM      2  N   UNL d   1       0.020  -0.810  -0.086  0.00  0.00    -0.235 N 
ATOM      3  C   UNL d   1      -1.994   0.188   0.034  0.00  0.00     0.102 A 
ATOM      4  N   UNL d   1       1.746   0.571  -0.007  0.00  0.00    -0.319 N 
ATOM      5  HN  UNL d   1       2.338   1.401   0.037  1.00  0.00     0.169 HD
ATOM      6  N   UNL d   1       1.074  -1.630  -0.115  0.00  0.00    -0.276 N 
ATOM      7  HN  UNL d   1       1.092  -2.648  -0.182  1.00  0.00     0.189 HD
ATOM      8  C   UNL d   1      -1.348  -0.998  -0.030  0.00  0.00     0.055 A 
ATOM      9  S   UNL d   1      -0.895   1.586   0.012  0.00  0.00    -0.044 SA
ATOM     10  C   UNL d   1       2.110  -0.768  -0.033  0.00  0.00     0.132 A 
ATOM     11  C   UNL d   1      -1.895  -2.384   0.005  0.00  0.00     0.072 C 
ENDROOT
BRANCH   3  12
ATOM     12  C   UNL d   1      -3.470   0.351   0.174  0.00  0.00     0.279 C 
ATOM     13  N   UNL d   1      -3.962   1.632   0.091  0.00  0.00    -0.262 N 
ATOM     14  H   UNL d   1      -3.396   2.459  -0.091  0.00  0.00     0.190 HD
ATOM     15  O   UNL d   1      -4.212  -0.611   0.373  0.00  0.00    -0.265 OA
BRANCH  13  16
ATOM     16  N   UNL d   1      -5.326   1.829   0.350  0.00  0.00    -0.263 N 
ATOM     17  C   UNL d   1      -5.929   2.999  -0.065  0.00  0.00     0.270 C 
ATOM     18  O   UNL d   1      -5.333   3.890  -0.662  0.00  0.00    -0.266 OA
ATOM     19  H   UNL d   1      -5.854   1.000   0.623  0.00  0.00     0.190 HD
BRANCH  17  20
ATOM     20  C   UNL d   1      -7.378   3.138   0.262  0.00  0.00     0.034 A 
ATOM     21  C   UNL d   1      -8.196   3.917  -0.569  0.00  0.00     0.033 A 
ATOM     22  C   UNL d   1      -9.554   4.109  -0.260  0.00  0.00     0.048 A 
ATOM     23  C   UNL d   1     -10.077   3.515   0.900  0.00  0.00     0.016 A 
ATOM     24  C   UNL d   1      -9.264   2.749   1.735  0.00  0.00     0.002 A 
ATOM     25  C   UNL d   1      -7.917   2.561   1.420  0.00  0.00     0.017 A 
BRANCH  22  26
ATOM     26  C   UNL d   1     -10.455   4.948  -1.135  0.00  0.00     0.417 C 
ATOM     27  F   UNL d   1      -9.839   5.446  -2.241  0.00  0.00    -0.166 F 
ATOM     28  F   UNL d   1     -11.531   4.248  -1.590  0.00  0.00    -0.166 F 
ATOM     29  F   UNL d   1     -10.965   6.023  -0.473  0.00  0.00    -0.166 F 
ENDBRANCH  22  26
ENDBRANCH  17  20
ENDBRANCH  13  16
ENDBRANCH   3  12
BRANCH  10  30
ATOM     30  C   UNL d   1       3.487  -1.247   0.088  0.00  0.00     0.009 A 
ATOM     31  C   UNL d   1       4.566  -0.364   0.223  0.00  0.00     0.017 A 
ATOM     32  C   UNL d   1       5.866  -0.859   0.394  0.00  0.00     0.025 A 
ATOM     33  C   UNL d   1       6.092  -2.235   0.430  0.00  0.00     0.034 A 
ATOM     34  C   UNL d   1       5.035  -3.126   0.281  0.00  0.00     0.025 A 
ATOM     35 CL   UNL d   1       7.683  -2.842   0.672  0.00  0.00    -0.084 Cl
ATOM     36  C   UNL d   1       3.741  -2.631   0.107  0.00  0.00     0.017 A 
ENDBRANCH  10  30
TORSDOF 5
