REMARK  3 active torsions:
REMARK  status: ('A' for Active; 'I' for Inactive)
REMARK    1  A    between atoms: C_3  and  C_13 
REMARK    2  A    between atoms: C_13  and  C_4 
REMARK    3  A    between atoms: C_14  and  C_13 
ROOT
ATOM      1  C   UNL d   1       1.142   3.826  -0.210  0.00  0.00     0.065 C 
ENDROOT
BRANCH   1   2
ATOM      2  C   UNL d   1       2.025   3.817  -1.451  0.00  0.00    -0.001 C 
ATOM      3  C   UNL d   1       3.296   3.383  -1.587  0.00  0.00    -0.017 C 
ATOM      4  C   UNL d   1       4.180   2.716  -0.597  0.00  0.00    -0.014 C 
ATOM      5  C   UNL d   1       4.142   3.776  -2.749  0.00  0.00    -0.014 A 
ATOM      6  C   UNL d   1       5.503   2.955  -1.022  0.00  0.00    -0.014 C 
ATOM      7  C   UNL d   1       3.939   1.881   0.473  0.00  0.00     0.013 C 
ATOM      8  C   UNL d   1       6.585   2.540  -0.253  0.00  0.00     0.013 C 
ATOM      9  C   UNL d   1       5.484   3.557  -2.348  0.00  0.00    -0.014 A 
ATOM     10  C   UNL d   1       6.333   1.799   0.903  0.00  0.00     0.001 C 
ATOM     11  C   UNL d   1       5.021   1.434   1.239  0.00  0.00     0.001 C 
ATOM     12  C   UNL d   1       6.532   3.816  -3.218  0.00  0.00     0.013 A 
ATOM     13  C   UNL d   1       6.232   4.296  -4.496  0.00  0.00     0.001 A 
ATOM     14  C   UNL d   1       4.900   4.509  -4.890  0.00  0.00     0.001 A 
ATOM     15  C   UNL d   1       3.842   4.250  -4.015  0.00  0.00     0.013 A 
ENDBRANCH   1   2
BRANCH   1  16
ATOM     16  C   UNL d   1       0.066   2.766  -0.267  0.00  0.00    -0.001 C 
ATOM     17  C   UNL d   1      -0.277   1.811   0.620  0.00  0.00    -0.017 A 
ATOM     18  C   UNL d   1       0.355   1.393   1.905  0.00  0.00    -0.014 A 
ATOM     19  C   UNL d   1      -1.424   0.895   0.352  0.00  0.00    -0.014 A 
ATOM     20  C   UNL d   1      -0.304   0.198   2.288  0.00  0.00    -0.014 A 
ATOM     21  C   UNL d   1       1.369   1.906   2.699  0.00  0.00     0.013 A 
ATOM     22  C   UNL d   1       0.111  -0.523   3.400  0.00  0.00     0.013 A 
ATOM     23  C   UNL d   1      -1.401  -0.079   1.373  0.00  0.00    -0.014 A 
ATOM     24  C   UNL d   1       1.185  -0.040   4.149  0.00  0.00     0.001 A 
ATOM     25  C   UNL d   1       1.800   1.171   3.808  0.00  0.00     0.001 A 
ATOM     26  C   UNL d   1      -2.373  -1.069   1.426  0.00  0.00     0.013 A 
ATOM     27  C   UNL d   1      -3.381  -1.070   0.459  0.00  0.00     0.001 A 
ATOM     28  C   UNL d   1      -3.410  -0.092  -0.547  0.00  0.00     0.001 A 
ATOM     29  C   UNL d   1      -2.427   0.900  -0.607  0.00  0.00     0.013 A 
ENDBRANCH   1  16
BRANCH   1  30
ATOM     30  C   UNL d   1       0.459   5.191   0.019  0.00  0.00    -0.047 A 
ATOM     31  C   UNL d   1      -0.387   5.771  -0.945  0.00  0.00     0.008 A 
ATOM     32  C   UNL d   1      -1.092   6.947  -0.673  0.00  0.00     0.001 A 
ATOM     33  C   UNL d   1      -0.968   7.563   0.569  0.00  0.00     0.000 A 
ATOM     34  C   UNL d   1      -0.128   7.011   1.534  0.00  0.00     0.001 A 
ATOM     35  C   UNL d   1       0.581   5.834   1.262  0.00  0.00     0.008 A 
ENDBRANCH   1  30
TORSDOF 3
