REMARK  2 active torsions:
REMARK  status: ('A' for Active; 'I' for Inactive)
REMARK    1  A    between atoms: N_7  and  C_1 
REMARK    2  A    between atoms: S_2  and  N_6 
ROOT
ATOM      1  C   UNL d   1      -3.067   0.038   0.088  0.00  0.00     0.148 A 
ATOM      2  N   UNL d   1      -2.361   0.858  -0.660  0.00  0.00    -0.336 N 
ATOM      3  HN  UNL d   1      -2.761   1.516  -1.329  1.00  0.00     0.168 HD
ATOM      4  S   UNL d   1      -2.099  -0.968   1.117  0.00  0.00    -0.052 SA
ATOM      5  C   UNL d   1      -0.666  -0.258   0.514  0.00  0.00     0.036 A 
ATOM      6  C   UNL d   1      -1.003   0.712  -0.425  0.00  0.00     0.051 A 
ATOM      7  C   UNL d   1       0.667  -0.547   0.851  0.00  0.00     0.045 A 
ATOM      8  C   UNL d   1       0.034   1.437  -1.049  0.00  0.00     0.032 A 
ATOM      9  C   UNL d   1       1.672   0.179   0.215  0.00  0.00     0.035 A 
ATOM     10  C   UNL d   1       1.369   1.164  -0.720  0.00  0.00     0.026 A 
ATOM     11 CL   UNL d   1       3.318  -0.152   0.597  0.00  0.00    -0.084 Cl
ENDROOT
BRANCH   1  12
ATOM     12  N   UNL d   1      -4.426  -0.089   0.015  0.00  0.00    -0.359 N 
ATOM     13  C   UNL d   1      -5.169   0.766  -0.927  0.00  0.00     0.140 C 
ATOM     14  C   UNL d   1      -6.422   0.012  -1.415  0.00  0.00     0.127 C 
ATOM     15  N   UNL d   1      -7.291  -0.448  -0.277  0.00  0.00    -0.208 NA
ATOM     16  C   UNL d   1      -6.493  -1.244   0.712  0.00  0.00     0.127 C 
ATOM     17  C   UNL d   1      -5.221  -0.506   1.179  0.00  0.00     0.140 C 
BRANCH  15  18
ATOM     18  S   UNL d   1      -8.354   0.709   0.360  0.00  0.00     0.207 S 
ATOM     19  O   UNL d   1      -7.734   1.306   1.522  0.00  0.00    -0.212 OA
ATOM     20  O   UNL d   1      -8.845   1.521  -0.731  0.00  0.00    -0.212 OA
ATOM     21  C   UNL d   1      -9.700  -0.325   0.904  0.00  0.00     0.180 C 
ENDBRANCH  15  18
ENDBRANCH   1  12
TORSDOF 2
