REMARK  3 active torsions:
REMARK  status: ('A' for Active; 'I' for Inactive)
REMARK    1  A    between atoms: C_4  and  C_2 
REMARK    2  A    between atoms: C_8  and  C_3 
REMARK       I    between atoms: N_7  and  C_4 
REMARK    3  A    between atoms: C_10  and  N_7 
ROOT
ATOM      1  C   UNL d   1      -0.115   2.714  -0.134  0.00  0.00     0.263 C 
ATOM      2  N   UNL d   1      -1.423   3.065  -0.441  0.00  0.00    -0.323 N 
ATOM      3  O   UNL d   1       0.764   3.535   0.131  0.00  0.00    -0.267 OA
ATOM      4  H   UNL d   1      -2.078   2.297  -0.540  0.00  0.00     0.169 HD
ENDROOT
BRANCH   1   5
ATOM      5  C   UNL d   1       0.200   1.289  -0.120  0.00  0.00     0.073 A 
ATOM      6  S   UNL d   1      -0.929   0.045  -0.421  0.00  0.00    -0.088 SA
ATOM      7  C   UNL d   1       0.229  -1.206  -0.121  0.00  0.00    -0.009 A 
ATOM      8  C   UNL d   1       1.475  -0.654   0.112  0.00  0.00     0.017 A 
ATOM      9  C   UNL d   1       1.453   0.766   0.131  0.00  0.00     0.025 A 
BRANCH   7  10
ATOM     10  C   UNL d   1      -0.167  -2.691  -0.120  0.00  0.00    -0.018 C 
ATOM     11  C   UNL d   1      -0.500  -3.167  -1.544  0.00  0.00     0.020 C 
ATOM     12  C   UNL d   1       0.993  -3.568   0.410  0.00  0.00     0.020 C 
ATOM     13  C   UNL d   1      -1.376  -2.927   0.806  0.00  0.00     0.020 C 
ENDBRANCH   7  10
ENDBRANCH   1   5
BRANCH   2  14
ATOM     14  C   UNL d   1      -1.925   4.376  -0.619  0.00  0.00     0.035 A 
ATOM     15  C   UNL d   1      -1.113   5.519  -0.640  0.00  0.00     0.032 A 
ATOM     16  C   UNL d   1      -1.660   6.788  -0.856  0.00  0.00     0.044 A 
ATOM     17  C   UNL d   1      -3.025   6.920  -1.049  0.00  0.00     0.116 A 
ATOM     18  C   UNL d   1      -3.854   5.804  -1.027  0.00  0.00     0.044 A 
ATOM     19  F   UNL d   1      -3.548   8.133  -1.265  0.00  0.00    -0.206 F 
ATOM     20  C   UNL d   1      -3.304   4.534  -0.816  0.00  0.00     0.032 A 
ENDBRANCH   2  14
TORSDOF 3
