REMARK  3 active torsions:
REMARK  status: ('A' for Active; 'I' for Inactive)
REMARK    1  A    between atoms: C_3  and  C_1 
REMARK    2  A    between atoms: C_16  and  N_2 
REMARK    3  A    between atoms: C_18  and  C_10 
ROOT
ATOM      1  C   UNL d   1      -0.272  -1.306   0.235  0.00  0.00     0.158 A 
ATOM      2  N   UNL d   1       0.871  -0.691   0.753  0.00  0.00    -0.222 N 
ATOM      3  N   UNL d   1       0.595   0.625   0.921  0.00  0.00    -0.219 N 
ATOM      4  HN  UNL d   1       1.198   1.327   1.351  1.00  0.00     0.210 HD
ATOM      5  N   UNL d   1      -0.610   0.819   0.417  0.00  0.00    -0.226 N 
ATOM      6  HN  UNL d   1      -1.066   1.729   0.346  1.00  0.00     0.210 HD
ATOM      7  N   UNL d   1      -1.163  -0.356   0.005  0.00  0.00    -0.267 N 
ATOM      8  HN  UNL d   1      -2.089  -0.480  -0.404  1.00  0.00     0.190 HD
ENDROOT
BRANCH   1   9
ATOM      9  C   UNL d   1      -0.514  -2.736   0.080  0.00  0.00     0.054 A 
ATOM     10  C   UNL d   1      -1.087  -3.345  -1.034  0.00  0.00     0.059 A 
ATOM     11  N   UNL d   1      -1.225  -4.699  -1.109  0.00  0.00    -0.345 N 
ATOM     12  C   UNL d   1      -0.837  -5.444  -0.061  0.00  0.00     0.077 A 
ATOM     13  HN  UNL d   1      -1.615  -5.138  -1.943  1.00  0.00     0.167 HD
ATOM     14  N   UNL d   1      -0.354  -4.941   1.081  0.00  0.00    -0.355 N 
ATOM     15  C   UNL d   1      -0.984  -6.930  -0.165  0.00  0.00     0.089 C 
ATOM     16  C   UNL d   1      -0.226  -3.602   1.126  0.00  0.00     0.107 A 
ATOM     17  HN  UNL d   1      -0.099  -5.536   1.870  1.00  0.00     0.166 HD
BRANCH  10  18
ATOM     18  C   UNL d   1      -1.666  -2.641  -2.208  0.00  0.00    -0.008 A 
ATOM     19  C   UNL d   1      -1.053  -1.548  -2.842  0.00  0.00     0.014 A 
ATOM     20  C   UNL d   1      -1.681  -0.874  -3.898  0.00  0.00     0.001 A 
ATOM     21  C   UNL d   1      -2.921  -1.299  -4.366  0.00  0.00     0.000 A 
ATOM     22  C   UNL d   1      -3.529  -2.409  -3.790  0.00  0.00     0.001 A 
ATOM     23  C   UNL d   1      -2.907  -3.068  -2.725  0.00  0.00     0.014 A 
ENDBRANCH  10  18
ENDBRANCH   1   9
BRANCH   2  24
ATOM     24  C   UNL d   1       2.137  -1.214   1.134  0.00  0.00     0.060 A 
ATOM     25  C   UNL d   1       2.647  -2.400   0.586  0.00  0.00     0.033 A 
ATOM     26  C   UNL d   1       3.846  -2.936   1.071  0.00  0.00     0.026 A 
ATOM     27  C   UNL d   1       4.544  -2.284   2.084  0.00  0.00     0.034 A 
ATOM     28  C   UNL d   1       4.074  -1.078   2.597  0.00  0.00     0.026 A 
ATOM     29 CL   UNL d   1       5.992  -2.972   2.707  0.00  0.00    -0.084 Cl
ATOM     30  C   UNL d   1       2.881  -0.533   2.113  0.00  0.00     0.033 A 
ENDBRANCH   2  24
TORSDOF 3
