REMARK  4 active torsions:
REMARK  status: ('A' for Active; 'I' for Inactive)
REMARK    1  A    between atoms: N_4  and  C_1 
REMARK    2  A    between atoms: N_7  and  C_2 
REMARK    3  A    between atoms: C_8  and  C_6 
REMARK    4  A    between atoms: C_12  and  N_7 
ROOT
ATOM      1  C   UNL d   1       1.557   0.668   0.173  0.00  0.00     0.138 C 
ATOM      2  C   UNL d   1       0.283   1.206   0.056  0.00  0.00     0.108 C 
ATOM      3  C   UNL d   1       1.550  -0.774   0.158  0.00  0.00     0.061 C 
ATOM      4  S   UNL d   1      -0.886  -0.065   0.167  0.00  0.00    -0.066 SA
ATOM      5  C   UNL d   1       0.279  -1.308   0.093  0.00  0.00     0.054 C 
ENDROOT
BRANCH   2   6
ATOM      6  N   UNL d   1      -0.090   2.517  -0.037  0.00  0.00    -0.349 N 
ATOM      7  H   UNL d   1       0.595   3.252   0.157  0.00  0.00     0.166 HD
BRANCH   6   8
ATOM      8  C   UNL d   1      -1.240   3.016  -0.695  0.00  0.00     0.033 A 
ATOM      9  C   UNL d   1      -1.882   4.152  -0.188  0.00  0.00     0.029 A 
ATOM     10  C   UNL d   1      -3.100   4.583  -0.725  0.00  0.00     0.002 A 
ATOM     11  C   UNL d   1      -3.687   3.890  -1.782  0.00  0.00     0.000 A 
ATOM     12  C   UNL d   1      -3.041   2.785  -2.325  0.00  0.00     0.002 A 
ATOM     13  C   UNL d   1      -1.824   2.361  -1.791  0.00  0.00     0.029 A 
ENDBRANCH   6   8
ENDBRANCH   2   6
BRANCH   1  14
ATOM     14  N   UNL d   1       2.770   1.456   0.241  0.00  0.00    -0.113 N 
ATOM     15  O   UNL d   1       2.655   2.687   0.357  0.00  0.00    -0.532 OA
ATOM     16  O   UNL d   1       3.842   0.837   0.193  0.00  0.00    -0.532 OA
ENDBRANCH   1  14
BRANCH   5  17
ATOM     17  C   UNL d   1      -0.191  -2.688  -0.000  0.00  0.00     0.162 C 
ATOM     18  O   UNL d   1      -1.384  -2.993  -0.087  0.00  0.00    -0.292 OA
ATOM     19  C   UNL d   1       0.824  -3.802   0.004  0.00  0.00     0.097 C 
ENDBRANCH   5  17
TORSDOF 4
