REMARK  4 active torsions:
REMARK  status: ('A' for Active; 'I' for Inactive)
REMARK    1  A    between atoms: C_2  and  S_1 
REMARK    2  A    between atoms: N_14  and  S_1 
REMARK    3  A    between atoms: C_9  and  C_3 
REMARK    4  A    between atoms: C_5  and  C_10 
ROOT
ATOM      1  C   UNL d   1       0.482   1.587   0.688  0.00  0.00     0.121 A 
ATOM      2  S   UNL d   1       1.084   3.067   0.082  0.00  0.00    -0.074 SA
ATOM      3  C   UNL d   1       0.195   3.982   1.216  0.00  0.00     0.035 A 
ATOM      4  C   UNL d   1      -0.429   1.796   1.708  0.00  0.00     0.034 A 
ATOM      5  C   UNL d   1      -0.595   3.179   2.013  0.00  0.00     0.023 A 
ENDROOT
BRANCH   3   6
ATOM      6  C   UNL d   1       0.278   5.474   1.328  0.00  0.00     0.074 A 
ATOM      7  C   UNL d   1       1.078   6.329   0.538  0.00  0.00     0.077 A 
ATOM      8  C   UNL d   1       0.818   7.588   1.023  0.00  0.00     0.184 A 
ATOM      9  O   UNL d   1      -0.079   7.497   2.039  0.00  0.00    -0.233 OA
ATOM     10  N   UNL d   1      -0.424   6.169   2.232  0.00  0.00    -0.260 N 
ATOM     11  HN  UNL d   1      -1.078   5.798   2.920  1.00  0.00     0.195 HD
BRANCH   8  12
ATOM     12  C   UNL d   1       1.291   8.938   0.674  0.00  0.00     0.441 C 
ATOM     13  F   UNL d   1       2.152   8.908  -0.378  0.00  0.00    -0.164 F 
ATOM     14  F   UNL d   1       0.274   9.762   0.317  0.00  0.00    -0.164 F 
ATOM     15  F   UNL d   1       1.950   9.535   1.698  0.00  0.00    -0.164 F 
ENDBRANCH   8  12
ENDBRANCH   3   6
BRANCH   1  16
ATOM     16  S   UNL d   1       1.098   0.089  -0.071  0.00  0.00     0.266 S 
ATOM     17  O   UNL d   1       0.942  -0.911   0.963  0.00  0.00    -0.200 OA
ATOM     18  O   UNL d   1       2.401   0.414  -0.614  0.00  0.00    -0.200 OA
BRANCH  16  19
ATOM     19  N   UNL d   1       0.055  -0.306  -1.352  0.00  0.00    -0.315 N 
ATOM     20  C   UNL d   1      -1.291  -0.765  -0.973  0.00  0.00     0.162 C 
ATOM     21  C   UNL d   1       0.065   0.598  -2.514  0.00  0.00     0.162 C 
ENDBRANCH  16  19
ENDBRANCH   1  16
TORSDOF 4
