REMARK  2 active torsions:
REMARK  status: ('A' for Active; 'I' for Inactive)
REMARK       I    between atoms: N_2  and  C_1 
REMARK    1  A    between atoms: C_8  and  C_1 
REMARK    2  A    between atoms: C_5  and  N_2 
ROOT
ATOM      1  C   UNL d   1      -3.299   0.411   0.560  0.00  0.00     0.157 A 
ATOM      2  C   UNL d   1      -1.934   0.138   0.510  0.00  0.00     0.075 A 
ATOM      3  C   UNL d   1      -1.002   1.169   0.669  0.00  0.00     0.037 A 
ATOM      4  C   UNL d   1      -3.752   1.704   0.773  0.00  0.00     0.154 A 
ATOM      5  C   UNL d   1      -2.844   2.739   0.958  0.00  0.00     0.048 A 
ATOM      6  F   UNL d   1      -4.176  -0.591   0.398  0.00  0.00    -0.203 F 
ATOM      7  C   UNL d   1      -1.470   2.471   0.915  0.00  0.00     0.032 A 
ATOM      8  F   UNL d   1      -5.065   1.965   0.803  0.00  0.00    -0.203 F 
ENDROOT
BRANCH   3   9
ATOM      9  N   UNL d   1       0.398   0.981   0.591  0.00  0.00    -0.327 N 
ATOM     10  C   UNL d   1       1.054  -0.170   0.182  0.00  0.00     0.226 C 
ATOM     11  O   UNL d   1       0.484  -1.196  -0.205  0.00  0.00    -0.273 OA
ATOM     12  H   UNL d   1       0.974   1.788   0.792  0.00  0.00     0.169 HD
BRANCH  10  13
ATOM     13  C   UNL d   1       2.595  -0.090   0.199  0.00  0.00     0.078 C 
ATOM     14  C   UNL d   1       3.322  -1.318   0.826  0.00  0.00     0.014 C 
ATOM     15  C   UNL d   1       4.423  -0.350   1.286  0.00  0.00     0.002 C 
ATOM     16  C   UNL d   1       3.357   0.764   1.248  0.00  0.00     0.014 C 
ENDBRANCH  10  13
ENDBRANCH   3   9
TORSDOF 2
