REMARK  6 active torsions:
REMARK  status: ('A' for Active; 'I' for Inactive)
REMARK    1  A    between atoms: C_3  and  C_1 
REMARK    2  A    between atoms: C_6  and  C_2 
REMARK       I    between atoms: N_7  and  C_3 
REMARK    3  A    between atoms: C_13  and  N_7 
REMARK    4  A    between atoms: C_16  and  N_7 
REMARK    5  A    between atoms: C_19  and  C_13 
REMARK    6  A    between atoms: N_15  and  C_14 
ROOT
ATOM      1  C   UNL d   1      -0.023  -2.504  -0.360  0.00  0.00     0.259 C 
ATOM      2  N   UNL d   1      -0.757  -3.718  -0.343  0.00  0.00    -0.340 N 
ATOM      3  O   UNL d   1       1.200  -2.461  -0.221  0.00  0.00    -0.267 OA
ENDROOT
BRANCH   1   4
ATOM      4  C   UNL d   1      -0.765  -1.261  -0.490  0.00  0.00     0.092 C 
ATOM      5  C   UNL d   1      -0.566  -0.117  -1.340  0.00  0.00     0.086 C 
ATOM      6  N   UNL d   1      -1.590   0.740  -1.165  0.00  0.00    -0.259 N 
ATOM      7  O   UNL d   1      -2.289   0.313  -0.064  0.00  0.00    -0.241 OA
ATOM      8  HN  UNL d   1      -1.805   1.553  -1.742  1.00  0.00     0.195 HD
ATOM      9  C   UNL d   1      -1.760  -0.850   0.380  0.00  0.00     0.090 C 
ATOM     10  C   UNL d   1      -2.336  -1.387   1.633  0.00  0.00     0.080 C 
BRANCH   5  11
ATOM     11  C   UNL d   1       0.511   0.247  -2.284  0.00  0.00     0.037 A 
ATOM     12  C   UNL d   1       1.002  -0.624  -3.275  0.00  0.00     0.048 A 
ATOM     13 CL   UNL d   1       0.384  -2.207  -3.566  0.00  0.00    -0.083 Cl
ATOM     14  C   UNL d   1       2.021  -0.225  -4.162  0.00  0.00     0.025 A 
ATOM     15  C   UNL d   1       2.555   1.056  -4.109  0.00  0.00     0.003 A 
ATOM     16  C   UNL d   1       2.078   1.944  -3.157  0.00  0.00     0.025 A 
ATOM     17  C   UNL d   1       1.083   1.546  -2.246  0.00  0.00     0.048 A 
ATOM     18 CL   UNL d   1       0.655   2.759  -1.075  0.00  0.00    -0.083 Cl
ENDBRANCH   5  11
ENDBRANCH   1   4
BRANCH   2  19
ATOM     19  C   UNL d   1       0.019  -4.944  -0.063  0.00  0.00     0.165 C 
BRANCH  19  20
ATOM     20  C   UNL d   1       0.613  -5.592  -1.289  0.00  0.00    -0.040 C 
ATOM     21  C   UNL d   1       1.915  -5.278  -1.688  0.00  0.00     0.011 C 
ATOM     22  C   UNL d   1       2.405  -5.709  -2.925  0.00  0.00     0.030 C 
ATOM     23  C   UNL d   1       1.615  -6.450  -3.812  0.00  0.00     0.029 C 
ATOM     24  C   UNL d   1       0.357  -6.864  -3.343  0.00  0.00     0.030 C 
ATOM     25  C   UNL d   1      -0.127  -6.460  -2.095  0.00  0.00     0.011 C 
BRANCH  23  26
ATOM     26  N   UNL d   1       1.976  -6.685  -5.137  0.00  0.00    -0.390 N 
ATOM     27  C   UNL d   1       2.977  -5.815  -5.742  0.00  0.00     0.149 C 
ATOM     28  C   UNL d   1       1.977  -8.071  -5.597  0.00  0.00     0.149 C 
ENDBRANCH  23  26
ENDBRANCH  19  20
ENDBRANCH   2  19
BRANCH   2  29
ATOM     29  C   UNL d   1      -2.184  -3.835  -0.767  0.00  0.00     0.079 C 
ATOM     30  C   UNL d   1      -2.399  -3.885  -2.280  0.00  0.00     0.032 C 
ATOM     31  C   UNL d   1      -2.965  -4.938  -0.050  0.00  0.00     0.032 C 
ENDBRANCH   2  29
TORSDOF 6
