REMARK  3 active torsions:
REMARK  status: ('A' for Active; 'I' for Inactive)
REMARK    1  A    between atoms: C_11  and  C_2 
REMARK    2  A    between atoms: C_13  and  C_9 
REMARK    3  A    between atoms: C_14  and  C_12 
ROOT
ATOM      1  N   UNL d   1       0.303   0.637   0.063  0.00  0.00    -0.235 N 
ATOM      2  C   UNL d   1      -0.821   1.453   0.061  0.00  0.00     0.144 A 
ATOM      3  C   UNL d   1       0.165  -0.757   0.010  0.00  0.00     0.130 A 
ATOM      4  N   UNL d   1       1.607   0.990   0.115  0.00  0.00    -0.289 N 
ATOM      5  HN  UNL d   1       1.990   1.929   0.217  1.00  0.00     0.188 HD
ATOM      6  N   UNL d   1      -1.054  -1.373   0.025  0.00  0.00    -0.340 N 
ATOM      7  HN  UNL d   1      -1.137  -2.390   0.024  1.00  0.00     0.167 HD
ATOM      8  C   UNL d   1       1.439  -1.270  -0.072  0.00  0.00     0.084 A 
ATOM      9  C   UNL d   1       2.288  -0.154   0.004  0.00  0.00     0.086 A 
ATOM     10  C   UNL d   1      -2.046   0.892   0.044  0.00  0.00     0.067 A 
ATOM     11  C   UNL d   1      -2.105  -0.603   0.041  0.00  0.00     0.046 A 
ENDROOT
BRANCH  11  12
ATOM     12  C   UNL d   1      -3.462  -1.224   0.103  0.00  0.00    -0.009 A 
ATOM     13  C   UNL d   1      -3.609  -2.435   0.795  0.00  0.00     0.015 A 
ATOM     14  C   UNL d   1      -4.866  -3.037   0.906  0.00  0.00     0.024 A 
ATOM     15  C   UNL d   1      -5.975  -2.434   0.319  0.00  0.00     0.034 A 
ATOM     16  C   UNL d   1      -5.837  -1.241  -0.390  0.00  0.00     0.024 A 
ATOM     17 CL   UNL d   1      -7.524  -3.167   0.463  0.00  0.00    -0.084 Cl
ATOM     18  C   UNL d   1      -4.580  -0.637  -0.503  0.00  0.00     0.015 A 
ENDBRANCH  11  12
BRANCH   2  19
ATOM     19  C   UNL d   1      -0.646   2.926   0.063  0.00  0.00     0.434 C 
ATOM     20  F   UNL d   1       0.621   3.396   0.030  0.00  0.00    -0.165 F 
ATOM     21  F   UNL d   1      -1.283   3.478  -1.008  0.00  0.00    -0.165 F 
ATOM     22  F   UNL d   1      -1.234   3.477   1.161  0.00  0.00    -0.165 F 
ENDBRANCH   2  19
BRANCH   9  23
ATOM     23  C   UNL d   1       3.777  -0.188  -0.035  0.00  0.00     0.103 A 
ATOM     24  O   UNL d   1       4.529  -1.313  -0.240  0.00  0.00    -0.320 OA
ATOM     25  C   UNL d   1       5.832  -0.932  -0.235  0.00  0.00     0.142 A 
ATOM     26  C   UNL d   1       5.940   0.420  -0.008  0.00  0.00     0.027 A 
ATOM     27  C   UNL d   1       4.615   0.900   0.120  0.00  0.00     0.041 A 
ENDBRANCH   9  23
TORSDOF 3
