REMARK  7 active torsions:
REMARK  status: ('A' for Active; 'I' for Inactive)
REMARK    1  A    between atoms: C_3  and  S_1 
REMARK    2  A    between atoms: C_5  and  S_1 
REMARK    3  A    between atoms: C_6  and  N_2 
REMARK    4  A    between atoms: C_11  and  C_3 
REMARK    5  A    between atoms: N_4  and  C_11 
REMARK    6  A    between atoms: C_12  and  C_6 
REMARK    7  A    between atoms: C_13  and  C_6 
ROOT
ATOM      1  N   UNL d   1      -0.673  -5.280  -1.434  0.00  0.00     0.105 N 
ATOM      2  N   UNL d   1       0.392  -3.724   0.957  0.00  0.00     0.092 N 
ATOM      3  C   UNL d   1       0.748  -5.320  -1.012  0.00  0.00     0.304 C 
ATOM      4  C   UNL d   1      -1.226  -3.977  -0.980  0.00  0.00     0.304 C 
ATOM      5  C   UNL d   1      -1.024  -3.712   0.532  0.00  0.00     0.302 C 
ATOM      6  C   UNL d   1       1.009  -4.989   0.480  0.00  0.00     0.302 C 
ENDROOT
BRANCH   1   7
ATOM      7  C   UNL d   1      -1.495  -6.415  -0.906  0.00  0.00     0.289 C 
BRANCH   7   8
ATOM      8  C   UNL d   1      -2.945  -6.321  -1.403  0.00  0.00    -0.021 A 
ATOM      9  C   UNL d   1      -3.238  -6.341  -2.777  0.00  0.00     0.010 A 
ATOM     10  C   UNL d   1      -4.553  -6.248  -3.228  0.00  0.00     0.001 A 
ATOM     11  C   UNL d   1      -5.594  -6.119  -2.312  0.00  0.00     0.000 A 
ATOM     12  C   UNL d   1      -5.321  -6.069  -0.947  0.00  0.00     0.001 A 
ATOM     13  C   UNL d   1      -4.005  -6.171  -0.491  0.00  0.00     0.010 A 
ENDBRANCH   7   8
BRANCH   7  14
ATOM     14  C   UNL d   1      -0.947  -7.821  -1.177  0.00  0.00    -0.021 A 
ATOM     15  C   UNL d   1      -1.156  -8.832  -0.220  0.00  0.00     0.010 A 
ATOM     16  C   UNL d   1      -0.678 -10.127  -0.428  0.00  0.00     0.001 A 
ATOM     17  C   UNL d   1       0.009 -10.434  -1.598  0.00  0.00     0.000 A 
ATOM     18  C   UNL d   1       0.200  -9.454  -2.570  0.00  0.00     0.001 A 
ATOM     19  C   UNL d   1      -0.285  -8.161  -2.368  0.00  0.00     0.010 A 
ENDBRANCH   7  14
ENDBRANCH   1   7
BRANCH   2  20
ATOM     20  C   UNL d   1       1.153  -2.557   0.453  0.00  0.00     0.287 C 
BRANCH  20  21
ATOM     21  C   UNL d   1       0.589  -1.223   0.928  0.00  0.00     0.176 C 
BRANCH  21  22
ATOM     22  S   UNL d   1       1.531   0.125   0.257  0.00  0.00     0.177 S 
ATOM     23  O   UNL d   1       1.387   0.113  -1.185  0.00  0.00    -0.223 OA
ATOM     24  O   UNL d   1       2.844   0.129   0.877  0.00  0.00    -0.223 OA
BRANCH  22  25
ATOM     25  C   UNL d   1       0.655   1.554   0.862  0.00  0.00     0.059 A 
ATOM     26  C   UNL d   1       1.034   2.132   2.076  0.00  0.00     0.026 A 
ATOM     27  C   UNL d   1       0.379   3.282   2.518  0.00  0.00     0.044 A 
ATOM     28  C   UNL d   1      -0.636   3.837   1.743  0.00  0.00     0.116 A 
ATOM     29  C   UNL d   1      -1.018   3.260   0.535  0.00  0.00     0.044 A 
ATOM     30  F   UNL d   1      -1.250   4.951   2.162  0.00  0.00    -0.206 F 
ATOM     31  C   UNL d   1      -0.369   2.110   0.085  0.00  0.00     0.026 A 
ENDBRANCH  22  25
ENDBRANCH  21  22
ENDBRANCH  20  21
ENDBRANCH   2  20
TORSDOF 7
