REMARK  2 active torsions:
REMARK  status: ('A' for Active; 'I' for Inactive)
REMARK    1  A    between atoms: C_2  and  C_1 
REMARK       I    between atoms: N_5  and  C_2 
REMARK    2  A    between atoms: C_8  and  C_10 
ROOT
ATOM      1  C   UNL d   1      -0.221  -2.565  -0.223  0.00  0.00     0.263 C 
ATOM      2  N   UNL d   1       0.796  -3.495   0.085  0.00  0.00    -0.347 N 
ATOM      3  C   UNL d   1       2.272  -5.910   0.847  0.00  0.00     0.096 C 
ATOM      4  O   UNL d   1      -0.924  -2.740  -1.221  0.00  0.00    -0.267 OA
ATOM      5  C   UNL d   1       1.163  -4.476  -0.937  0.00  0.00     0.127 C 
ATOM      6  C   UNL d   1       1.647  -3.469   1.277  0.00  0.00     0.127 C 
ATOM      7  C   UNL d   1       1.305  -5.873  -0.344  0.00  0.00     0.033 C 
ATOM      8  C   UNL d   1       1.837  -4.863   1.881  0.00  0.00     0.033 C 
ENDROOT
BRANCH   1   9
ATOM      9  C   UNL d   1      -0.475  -1.446   0.649  0.00  0.00     0.110 C 
ATOM     10  C   UNL d   1      -1.687  -0.925   1.094  0.00  0.00     0.043 C 
ATOM     11  N   UNL d   1      -1.566   0.197   1.912  0.00  0.00    -0.296 N 
ATOM     12  C   UNL d   1      -3.057  -1.412   0.802  0.00  0.00     0.071 C 
ATOM     13  N   UNL d   1      -0.312   0.599   2.019  0.00  0.00    -0.061 NA
ATOM     14  HN  UNL d   1      -2.353   0.654   2.373  1.00  0.00     0.183 HD
ATOM     15  S   UNL d   1       0.738  -0.321   1.105  0.00  0.00     0.007 SA
ENDBRANCH   1   9
BRANCH   3  16
ATOM     16  C   UNL d   1       3.739  -5.759   0.437  0.00  0.00     0.391 C 
ATOM     17  F   UNL d   1       3.903  -5.789  -0.902  0.00  0.00    -0.171 F 
ATOM     18  F   UNL d   1       4.287  -4.611   0.887  0.00  0.00    -0.171 F 
ATOM     19  F   UNL d   1       4.470  -6.775   0.952  0.00  0.00    -0.171 F 
ENDBRANCH   3  16
TORSDOF 2
