REMARK  2 active torsions:
REMARK  status: ('A' for Active; 'I' for Inactive)
REMARK    1  A    between atoms: C_7  and  C_2 
REMARK    2  A    between atoms: N_8  and  C_3 
ROOT
ATOM      1  C   UNL d   1      -0.441  -1.213   0.133  0.00  0.00     0.108 A 
ATOM      2  C   UNL d   1       0.857  -0.732  -0.020  0.00  0.00     0.058 A 
ATOM      3  C   UNL d   1      -1.435  -0.190  -0.107  0.00  0.00     0.132 A 
ATOM      4  N   UNL d   1      -0.930   1.016  -0.356  0.00  0.00    -0.311 N 
ATOM      5  HN  UNL d   1      -1.478   1.869  -0.470  1.00  0.00     0.176 HD
ATOM      6  S   UNL d   1       0.712   0.925  -0.451  0.00  0.00    -0.011 SA
ATOM      7  C   UNL d   1      -0.745  -2.562   0.492  0.00  0.00     0.104 C 
ATOM      8  N   UNL d   1      -0.979  -3.679   0.725  0.00  0.00    -0.191 NA
ENDROOT
BRANCH   2   9
ATOM      9  C   UNL d   1       2.174  -1.413   0.040  0.00  0.00     0.006 A 
ATOM     10  C   UNL d   1       3.333  -0.888   0.653  0.00  0.00     0.045 A 
ATOM     11 CL   UNL d   1       3.363   0.604   1.532  0.00  0.00    -0.083 Cl
ATOM     12  C   UNL d   1       4.548  -1.596   0.625  0.00  0.00     0.024 A 
ATOM     13  C   UNL d   1       4.627  -2.849   0.027  0.00  0.00     0.002 A 
ATOM     14  C   UNL d   1       3.494  -3.400  -0.556  0.00  0.00     0.001 A 
ATOM     15  C   UNL d   1       2.291  -2.685  -0.562  0.00  0.00     0.014 A 
ENDBRANCH   2   9
BRANCH   3  16
ATOM     16  N   UNL d   1      -2.781  -0.434  -0.026  0.00  0.00    -0.364 N 
ATOM     17  C   UNL d   1      -3.676   0.616   0.502  0.00  0.00     0.134 C 
ATOM     18  C   UNL d   1      -4.352   1.460  -0.582  0.00  0.00     0.093 C 
ATOM     19  S   UNL d   1      -5.361   0.444  -1.710  0.00  0.00    -0.166 SA
ATOM     20  C   UNL d   1      -4.054  -0.734  -2.171  0.00  0.00     0.093 C 
ATOM     21  C   UNL d   1      -3.413  -1.399  -0.948  0.00  0.00     0.134 C 
ENDBRANCH   3  16
TORSDOF 2
