REMARK  5 active torsions:
REMARK  status: ('A' for Active; 'I' for Inactive)
REMARK    1  A    between atoms: C_4  and  C_1 
REMARK       I    between atoms: N_7  and  C_4 
REMARK    2  A    between atoms: N_12  and  N_7 
REMARK       I    between atoms: C_8  and  N_12 
REMARK    3  A    between atoms: C_9  and  C_8 
REMARK    4  A    between atoms: C_10  and  C_11 
REMARK    5  A    between atoms: O_17  and  C_10 
ROOT
ATOM      1  C   UNL d   1       3.836  -0.037   0.026  0.00  0.00     0.278 C 
ATOM      2  N   UNL d   1       4.619  -1.146  -0.257  0.00  0.00    -0.263 N 
ATOM      3  O   UNL d   1       4.382   1.033   0.307  0.00  0.00    -0.265 OA
ATOM      4  H   UNL d   1       4.230  -2.059  -0.483  0.00  0.00     0.190 HD
ENDROOT
BRANCH   1   5
ATOM      5  C   UNL d   1       2.392  -0.234  -0.026  0.00  0.00     0.097 A 
ATOM      6  S   UNL d   1       1.725  -1.803  -0.195  0.00  0.00    -0.082 SA
ATOM      7  C   UNL d   1       0.107  -1.235  -0.101  0.00  0.00     0.017 A 
ATOM      8  C   UNL d   1      -1.065  -2.017  -0.144  0.00  0.00     0.020 A 
ATOM      9  C   UNL d   1       0.061   0.154   0.031  0.00  0.00     0.004 A 
ATOM     10  C   UNL d   1      -2.306  -1.386  -0.052  0.00  0.00     0.001 A 
ATOM     11  C   UNL d   1      -2.386  -0.008   0.074  0.00  0.00     0.001 A 
ATOM     12  C   UNL d   1      -1.220   0.763   0.113  0.00  0.00     0.014 A 
ATOM     13  C   UNL d   1       1.390   0.715   0.066  0.00  0.00     0.068 A 
ATOM     14 CL   UNL d   1       1.631   2.414   0.217  0.00  0.00    -0.082 Cl
ENDBRANCH   1   5
BRANCH   2  15
ATOM     15  N   UNL d   1       6.012  -1.043  -0.161  0.00  0.00    -0.264 N 
ATOM     16  C   UNL d   1       6.769  -2.175  -0.330  0.00  0.00     0.260 C 
ATOM     17  O   UNL d   1       6.301  -3.284  -0.570  0.00  0.00    -0.267 OA
ATOM     18  H   UNL d   1       6.382  -0.125   0.085  0.00  0.00     0.190 HD
BRANCH  16  19
ATOM     19  C   UNL d   1       8.223  -1.935  -0.198  0.00  0.00     0.082 C 
ATOM     20  C   UNL d   1       9.069  -2.974  -0.273  0.00  0.00     0.086 C 
BRANCH  20  21
ATOM     21  C   UNL d   1      10.514  -2.718  -0.169  0.00  0.00     0.165 C 
ATOM     22  O   UNL d   1      11.005  -1.611  -0.036  0.00  0.00    -0.647 OA
BRANCH  21  23
ATOM     23  O   UNL d   1      11.241  -3.849  -0.238  0.00  0.00    -0.773 OA
ATOM     24  H   UNL d   1      10.734  -4.675  -0.344  0.00  0.00     0.167 HD
ENDBRANCH  21  23
ENDBRANCH  20  21
ENDBRANCH  16  19
ENDBRANCH   2  15
TORSDOF 5
