REMARK  5 active torsions:
REMARK  status: ('A' for Active; 'I' for Inactive)
REMARK    1  A    between atoms: N_2  and  S_1 
REMARK    2  A    between atoms: C_3  and  S_1 
REMARK    3  A    between atoms: C_6  and  N_2 
REMARK    4  A    between atoms: O_15  and  C_10 
REMARK    5  A    between atoms: O_16  and  C_12 
ROOT
ATOM      1  N   UNL d   1       3.397  -3.120  -1.896  0.00  0.00    -0.191 NA
ATOM      2  C   UNL d   1       3.377  -0.892   0.902  0.00  0.00     0.063 A 
ATOM      3  C   UNL d   1       3.477  -2.684  -0.823  0.00  0.00     0.102 C 
ATOM      4  C   UNL d   1       3.667  -2.211   0.519  0.00  0.00     0.071 A 
ATOM      5  C   UNL d   1       4.248  -3.086   1.451  0.00  0.00     0.025 A 
ATOM      6  C   UNL d   1       3.676  -0.467   2.204  0.00  0.00     0.031 A 
ATOM      7  C   UNL d   1       4.540  -2.654   2.747  0.00  0.00     0.002 A 
ATOM      8  C   UNL d   1       4.254  -1.345   3.121  0.00  0.00     0.002 A 
ENDROOT
BRANCH   2   9
ATOM      9  N   UNL d   1       2.748   0.043   0.020  0.00  0.00    -0.279 N 
ATOM     10  H   UNL d   1       3.115   0.995   0.022  0.00  0.00     0.179 HD
BRANCH   9  11
ATOM     11  S   UNL d   1       1.053   0.054  -0.083  0.00  0.00     0.263 S 
ATOM     12  O   UNL d   1       0.589  -1.292  -0.343  0.00  0.00    -0.200 OA
ATOM     13  O   UNL d   1       0.701   1.167  -0.936  0.00  0.00    -0.200 OA
BRANCH  11  14
ATOM     14  C   UNL d   1       0.561   0.481   1.573  0.00  0.00     0.082 A 
ATOM     15  C   UNL d   1       0.247  -0.534   2.484  0.00  0.00     0.065 A 
ATOM     16  C   UNL d   1      -0.061  -0.225   3.817  0.00  0.00     0.102 A 
ATOM     17  C   UNL d   1      -0.091   1.128   4.212  0.00  0.00     0.101 A 
ATOM     18  C   UNL d   1       0.180   2.134   3.268  0.00  0.00     0.041 A 
ATOM     19  C   UNL d   1       0.505   1.821   1.950  0.00  0.00     0.028 A 
BRANCH  16  20
ATOM     20  O   UNL d   1      -0.319  -1.183   4.758  0.00  0.00    -0.353 OA
ATOM     21  C   UNL d   1      -0.290  -2.550   4.365  0.00  0.00     0.210 C 
ENDBRANCH  16  20
BRANCH  17  22
ATOM     22  O   UNL d   1      -0.359   1.654   5.449  0.00  0.00    -0.353 OA
ATOM     23  C   UNL d   1      -0.619   0.776   6.534  0.00  0.00     0.210 C 
ENDBRANCH  17  22
ENDBRANCH  11  14
ENDBRANCH   9  11
ENDBRANCH   2   9
TORSDOF 5
