REMARK  9 active torsions:
REMARK  status: ('A' for Active; 'I' for Inactive)
REMARK    1  A    between atoms: C_2  and  C_1 
REMARK       I    between atoms: N_9  and  C_2 
REMARK    2  A    between atoms: C_4  and  O_14 
REMARK       I    between atoms: C_5  and  N_12 
REMARK       I    between atoms: N_13  and  C_5 
REMARK    3  A    between atoms: C_8  and  C_6 
REMARK    4  A    between atoms: N_12  and  N_9 
REMARK    5  A    between atoms: C_26  and  C_10 
REMARK    6  A    between atoms: C_20  and  N_13 
REMARK    7  A    between atoms: O_14  and  C_21 
REMARK    8  A    between atoms: C_27  and  C_26 
REMARK    9  A    between atoms: C_28  and  C_27 
ROOT
ATOM      1  C   UNL d   1       1.221  -5.506   0.837  0.00  0.00     0.339 C 
ATOM      2  N   UNL d   1       0.098  -4.712   0.675  0.00  0.00    -0.248 N 
ATOM      3  N   UNL d   1       0.922  -6.841   1.023  0.00  0.00    -0.308 N 
ATOM      4  O   UNL d   1       2.340  -4.994   0.837  0.00  0.00    -0.245 OA
ATOM      5  H   UNL d   1      -0.767  -5.085   0.295  0.00  0.00     0.192 HD
ATOM      6  H   UNL d   1      -0.055  -7.080   1.113  0.00  0.00     0.170 HD
ENDROOT
BRANCH   2   7
ATOM      7  N   UNL d   1       0.346  -3.348   0.388  0.00  0.00    -0.260 N 
ATOM      8  C   UNL d   1      -0.707  -2.488   0.166  0.00  0.00     0.293 C 
ATOM      9  O   UNL d   1      -1.862  -2.908   0.062  0.00  0.00    -0.264 OA
ATOM     10  H   UNL d   1       1.303  -3.017   0.513  0.00  0.00     0.190 HD
BRANCH   8  11
ATOM     11  C   UNL d   1      -0.357  -1.082   0.075  0.00  0.00     0.146 A 
ATOM     12  O   UNL d   1       0.954  -0.661   0.170  0.00  0.00    -0.296 OA
ATOM     13  C   UNL d   1       0.938   0.697   0.066  0.00  0.00     0.129 A 
ATOM     14  C   UNL d   1      -0.341   1.164  -0.093  0.00  0.00     0.050 A 
ATOM     15  C   UNL d   1      -1.178   0.022  -0.094  0.00  0.00     0.046 A 
BRANCH  13  16
ATOM     16  C   UNL d   1       2.162   1.415   0.138  0.00  0.00    -0.041 C 
ATOM     17  C   UNL d   1       3.141   2.109   0.195  0.00  0.00    -0.099 C 
BRANCH  17  18
ATOM     18  C   UNL d   1       4.311   2.994   0.271  0.00  0.00     0.094 C 
BRANCH  18  19
ATOM     19  C   UNL d   1       5.009   2.921   1.631  0.00  0.00     0.012 C 
BRANCH  19  20
ATOM     20  C   UNL d   1       5.587   1.534   1.923  0.00  0.00    -0.004 C 
ATOM     21  C   UNL d   1       6.296   1.494   3.267  0.00  0.00     0.005 C 
ENDBRANCH  19  20
ENDBRANCH  18  19
ENDBRANCH  17  18
ENDBRANCH  13  16
ENDBRANCH   8  11
ENDBRANCH   2   7
BRANCH   3  22
ATOM     22  C   UNL d   1       1.858  -7.892   1.193  0.00  0.00     0.036 A 
ATOM     23  C   UNL d   1       3.240  -7.706   1.129  0.00  0.00     0.032 A 
ATOM     24  C   UNL d   1       4.133  -8.773   1.303  0.00  0.00     0.039 A 
ATOM     25  C   UNL d   1       3.657 -10.046   1.583  0.00  0.00     0.078 A 
ATOM     26  C   UNL d   1       2.273 -10.249   1.618  0.00  0.00     0.039 A 
ATOM     27  C   UNL d   1       1.379  -9.184   1.428  0.00  0.00     0.032 A 
BRANCH  25  28
ATOM     28  O   UNL d   1       4.405 -11.155   1.842  0.00  0.00    -0.255 OA
BRANCH  28  29
ATOM     29  C   UNL d   1       5.797 -11.011   2.091  0.00  0.00     0.530 C 
ATOM     30  F   UNL d   1       6.101  -9.885   2.769  0.00  0.00    -0.144 F 
ATOM     31  F   UNL d   1       6.204 -12.059   2.844  0.00  0.00    -0.144 F 
ATOM     32  F   UNL d   1       6.485 -11.036   0.930  0.00  0.00    -0.144 F 
ENDBRANCH  28  29
ENDBRANCH  25  28
ENDBRANCH   3  22
TORSDOF 9
