REMARK  5 active torsions:
REMARK  status: ('A' for Active; 'I' for Inactive)
REMARK    1  A    between atoms: C_5  and  C_1 
REMARK    2  A    between atoms: C_9  and  C_4 
REMARK       I    between atoms: N_10  and  C_5 
REMARK    3  A    between atoms: C_8  and  O_12 
REMARK       I    between atoms: N_11  and  C_8 
REMARK    4  A    between atoms: O_12  and  N_10 
REMARK    5  A    between atoms: C_19  and  N_11 
ROOT
ATOM      1  C   UNL d   1       1.266   0.867   0.082  0.00  0.00     0.110 A 
ATOM      2  N   UNL d   1      -0.011   1.415   0.273  0.00  0.00    -0.345 N 
ATOM      3  HN  UNL d   1      -0.197   2.395   0.485  1.00  0.00     0.167 HD
ATOM      4  C   UNL d   1      -0.940   0.482   0.140  0.00  0.00     0.086 A 
ATOM      5  S   UNL d   1      -0.330  -1.089  -0.234  0.00  0.00    -0.081 SA
ATOM      6  C   UNL d   1       1.265  -0.485  -0.204  0.00  0.00     0.087 A 
ENDROOT
BRANCH   1   7
ATOM      7  C   UNL d   1       2.494   1.669   0.158  0.00  0.00     0.292 C 
ATOM      8  N   UNL d   1       2.262   2.987   0.445  0.00  0.00    -0.219 N 
ATOM      9  H   UNL d   1       1.382   3.287   0.862  0.00  0.00     0.198 HD
ATOM     10  O   UNL d   1       3.606   1.180  -0.020  0.00  0.00    -0.264 OA
BRANCH   8  11
ATOM     11  O   UNL d   1       3.413   3.770   0.722  0.00  0.00    -0.178 OA
BRANCH  11  12
ATOM     12  C   UNL d   1       3.143   4.780   1.598  0.00  0.00     0.383 C 
ATOM     13  N   UNL d   1       4.195   5.606   1.867  0.00  0.00    -0.331 N 
ATOM     14  H   UNL d   1       3.957   6.353   2.502  0.00  0.00     0.165 HD
ATOM     15  O   UNL d   1       2.040   4.962   2.104  0.00  0.00    -0.236 OA
BRANCH  13  16
ATOM     16  C   UNL d   1       5.554   5.571   1.332  0.00  0.00     0.078 C 
ATOM     17  C   UNL d   1       6.311   4.305   1.725  0.00  0.00     0.032 C 
ATOM     18  C   UNL d   1       5.599   5.816  -0.173  0.00  0.00     0.032 C 
ENDBRANCH  13  16
ENDBRANCH  11  12
ENDBRANCH   8  11
ENDBRANCH   1   7
BRANCH   4  19
ATOM     19  C   UNL d   1      -2.389   0.722   0.228  0.00  0.00     0.013 A 
ATOM     20  C   UNL d   1      -3.308  -0.261   0.596  0.00  0.00     0.101 A 
ATOM     21  N   UNL d   1      -4.653  -0.081   0.663  0.00  0.00    -0.374 N 
ATOM     22  C   UNL d   1      -5.115   1.147   0.353  0.00  0.00     0.087 A 
ATOM     23  HN  UNL d   1      -5.281  -0.837   0.934  1.00  0.00     0.164 HD
ATOM     24  C   UNL d   1      -4.296   2.202  -0.012  0.00  0.00     0.018 A 
ATOM     25  C   UNL d   1      -2.918   1.984  -0.068  0.00  0.00     0.017 A 
ENDBRANCH   4  19
TORSDOF 5
