REMARK  6 active torsions:
REMARK  status: ('A' for Active; 'I' for Inactive)
REMARK    1  A    between atoms: N_3  and  C_1 
REMARK    2  A    between atoms: C_6  and  N_3 
REMARK    3  A    between atoms: C_7  and  N_4 
REMARK    4  A    between atoms: O_5  and  C_8 
REMARK    5  A    between atoms: C_8  and  C_6 
REMARK    6  A    between atoms: C_9  and  C_7 
ROOT
ATOM      1  C   UNL d   1       0.860  -0.037   0.179  0.00  0.00     0.167 C 
ATOM      2  S   UNL d   1      -0.040   0.856  -0.905  0.00  0.00    -0.041 SA
ATOM      3  N   UNL d   1       2.220   0.015   0.082  0.00  0.00    -0.367 N 
ATOM      4  H   UNL d   1       2.536   0.595  -0.687  0.00  0.00     0.161 HD
ENDROOT
BRANCH   1   5
ATOM      5  N   UNL d   1       0.362  -0.839   1.159  0.00  0.00    -0.365 N 
ATOM      6  H   UNL d   1       1.035  -1.323   1.738  0.00  0.00     0.161 HD
BRANCH   5   7
ATOM      7  C   UNL d   1      -0.933  -1.506   1.130  0.00  0.00     0.148 C 
BRANCH   7   8
ATOM      8  C   UNL d   1      -1.192  -2.241   2.442  0.00  0.00     0.183 C 
BRANCH   8   9
ATOM      9  O   UNL d   1      -0.109  -3.135   2.713  0.00  0.00    -0.399 OA
ATOM     10  H   UNL d   1      -0.339  -3.610   3.532  0.00  0.00     0.209 HD
ENDBRANCH   8   9
ENDBRANCH   7   8
ENDBRANCH   5   7
ENDBRANCH   1   5
BRANCH   3  11
ATOM     11  C   UNL d   1       3.175  -0.963   0.585  0.00  0.00     0.121 C 
BRANCH  11  12
ATOM     12  C   UNL d   1       3.032  -2.327  -0.099  0.00  0.00     0.015 C 
ATOM     13  C   UNL d   1       3.303  -2.265  -1.595  0.00  0.00     0.006 C 
ENDBRANCH  11  12
ENDBRANCH   3  11
TORSDOF 6
