REMARK  6 active torsions:
REMARK  status: ('A' for Active; 'I' for Inactive)
REMARK    1  A    between atoms: S_15  and  C_2 
REMARK    2  A    between atoms: N_7  and  C_3 
REMARK    3  A    between atoms: C_21  and  N_11 
REMARK       I    between atoms: N_14  and  C_16 
REMARK    4  A    between atoms: C_17  and  N_14 
REMARK    5  A    between atoms: C_20  and  S_15 
REMARK    6  A    between atoms: C_16  and  C_20 
ROOT
ATOM      1  C   UNL d   1       0.640   0.219   0.450  0.00  0.00     0.086 A 
ATOM      2  C   UNL d   1      -0.224   1.299   0.611  0.00  0.00     0.092 A 
ATOM      3  C   UNL d   1      -1.291  -1.192  -0.102  0.00  0.00     0.077 A 
ATOM      4  N   UNL d   1      -1.555   1.177   0.422  0.00  0.00    -0.351 N 
ATOM      5  HN  UNL d   1      -2.165   1.989   0.515  1.00  0.00     0.166 HD
ATOM      6  C   UNL d   1       0.107  -1.050   0.077  0.00  0.00    -0.008 A 
ATOM      7  C   UNL d   1      -2.077  -0.042   0.106  0.00  0.00     0.035 A 
ATOM      8  C   UNL d   1       2.051   0.365   0.700  0.00  0.00     0.103 C 
ATOM      9  N   UNL d   1       3.183   0.443   0.914  0.00  0.00    -0.191 NA
ATOM     10  C   UNL d   1       1.044  -2.226  -0.104  0.00  0.00     0.052 C 
ATOM     11  C   UNL d   1      -3.577  -0.043   0.008  0.00  0.00     0.070 C 
ENDROOT
BRANCH   2  12
ATOM     12  S   UNL d   1       0.324   2.946   1.092  0.00  0.00    -0.101 SA
BRANCH  12  13
ATOM     13  C   UNL d   1      -1.196   3.563   1.895  0.00  0.00     0.184 C 
BRANCH  13  14
ATOM     14  C   UNL d   1      -1.073   4.908   2.606  0.00  0.00     0.231 C 
ATOM     15  N   UNL d   1       0.097   5.618   2.434  0.00  0.00    -0.325 N 
ATOM     16  H   UNL d   1       0.595   5.447   1.565  0.00  0.00     0.169 HD
ATOM     17  O   UNL d   1      -2.027   5.333   3.263  0.00  0.00    -0.272 OA
BRANCH  15  18
ATOM     18  C   UNL d   1       0.371   6.845   3.089  0.00  0.00     0.056 A 
ATOM     19  C   UNL d   1       0.903   7.926   2.371  0.00  0.00     0.060 A 
ATOM     20 CL   UNL d   1       1.046   7.861   0.649  0.00  0.00    -0.082 Cl
ATOM     21  C   UNL d   1       1.265   9.108   3.025  0.00  0.00     0.026 A 
ATOM     22  C   UNL d   1       1.133   9.207   4.410  0.00  0.00     0.002 A 
ATOM     23  C   UNL d   1       0.596   8.142   5.132  0.00  0.00     0.002 A 
ATOM     24  C   UNL d   1       0.195   6.973   4.473  0.00  0.00     0.031 A 
ENDBRANCH  15  18
ENDBRANCH  13  14
ENDBRANCH  12  13
ENDBRANCH   2  12
BRANCH   3  25
ATOM     25  N   UNL d   1      -1.850  -2.475  -0.337  0.00  0.00    -0.298 N 
ATOM     26  N   UNL d   1      -2.693  -2.459  -1.258  0.00  0.00    -0.300 N 
ATOM     27  HN  UNL d   1      -2.830  -1.654  -1.870  1.00  0.00     0.187 HD
ATOM     28  HN  UNL d   1      -1.594  -3.313   0.186  1.00  0.00     0.187 HD
BRANCH  26  29
ATOM     29  C   UNL d   1      -3.440  -3.654  -1.380  0.00  0.00     0.048 A 
ATOM     30  C   UNL d   1      -3.479  -4.683  -0.425  0.00  0.00     0.031 A 
ATOM     31  C   UNL d   1      -4.202  -5.858  -0.663  0.00  0.00     0.002 A 
ATOM     32  C   UNL d   1      -4.917  -6.011  -1.849  0.00  0.00     0.000 A 
ATOM     33  C   UNL d   1      -4.949  -4.972  -2.775  0.00  0.00     0.002 A 
ATOM     34  C   UNL d   1      -4.224  -3.801  -2.533  0.00  0.00     0.031 A 
ENDBRANCH  26  29
ENDBRANCH   3  25
TORSDOF 6
