REMARK  4 active torsions:
REMARK  status: ('A' for Active; 'I' for Inactive)
REMARK    1  A    between atoms: C_12  and  C_3 
REMARK    2  A    between atoms: N_4  and  C_13 
REMARK    3  A    between atoms: C_20  and  C_5 
REMARK    4  A    between atoms: C_6  and  C_18 
ROOT
ATOM      1  N   UNL d   1       1.385  -0.630  -0.026  0.00  0.00    -0.349 N 
ATOM      2  HN  UNL d   1       2.266  -1.145  -0.037  1.00  0.00     0.166 HD
ATOM      3  C   UNL d   1       0.192  -1.188  -0.054  0.00  0.00     0.086 A 
ATOM      4  C   UNL d   1       1.279   0.751   0.019  0.00  0.00     0.050 A 
ATOM      5  S   UNL d   1      -1.123  -0.072  -0.006  0.00  0.00    -0.081 SA
ATOM      6  C   UNL d   1      -0.015   1.231   0.027  0.00  0.00     0.082 A 
ENDROOT
BRANCH   3   7
ATOM      7  C   UNL d   1      -0.040  -2.636  -0.077  0.00  0.00     0.013 A 
ATOM      8  C   UNL d   1      -1.149  -3.219  -0.683  0.00  0.00     0.104 A 
ATOM      9  N   UNL d   1      -1.400  -4.553  -0.717  0.00  0.00    -0.350 N 
ATOM     10  C   UNL d   1      -0.497  -5.368  -0.109  0.00  0.00     0.128 A 
ATOM     11  HN  UNL d   1      -2.230  -4.927  -1.178  1.00  0.00     0.166 HD
ATOM     12  C   UNL d   1       0.654  -4.887   0.508  0.00  0.00     0.051 A 
ATOM     13  C   UNL d   1       0.881  -3.508   0.513  0.00  0.00     0.019 A 
BRANCH  10  14
ATOM     14  N   UNL d   1      -0.763  -6.762  -0.099  0.00  0.00    -0.235 N 
ATOM     15  N   UNL d   1       0.019  -7.677   0.532  0.00  0.00    -0.287 N 
ATOM     16  C   UNL d   1      -0.650  -8.809   0.305  0.00  0.00     0.199 A 
ATOM     17  HN  UNL d   1       0.890  -7.536   1.044  1.00  0.00     0.188 HD
ATOM     18  N   UNL d   1      -1.786  -8.687  -0.439  0.00  0.00    -0.346 N 
ATOM     19  C   UNL d   1      -1.832  -7.396  -0.681  0.00  0.00     0.209 A 
ATOM     20  HN  UNL d   1      -2.437  -9.415  -0.734  1.00  0.00     0.167 HD
ENDBRANCH  10  14
ENDBRANCH   3   7
BRANCH   4  21
ATOM     21  C   UNL d   1       2.467   1.595   0.025  0.00  0.00    -0.008 A 
ATOM     22  C   UNL d   1       3.630   1.147  -0.620  0.00  0.00     0.029 A 
ATOM     23  C   UNL d   1       4.797   1.928  -0.637  0.00  0.00     0.048 A 
ATOM     24  C   UNL d   1       4.788   3.173   0.010  0.00  0.00     0.016 A 
ATOM     25  C   UNL d   1       3.640   3.624   0.661  0.00  0.00     0.002 A 
ATOM     26  C   UNL d   1       2.485   2.839   0.669  0.00  0.00     0.014 A 
BRANCH  23  27
ATOM     27  C   UNL d   1       6.045   1.449  -1.335  0.00  0.00     0.417 C 
ATOM     28  F   UNL d   1       5.913   0.226  -1.921  0.00  0.00    -0.166 F 
ATOM     29  F   UNL d   1       6.442   2.295  -2.326  0.00  0.00    -0.166 F 
ATOM     30  F   UNL d   1       7.106   1.344  -0.487  0.00  0.00    -0.166 F 
ENDBRANCH  23  27
ENDBRANCH   4  21
TORSDOF 4
