REMARK  1 active torsions:
REMARK  status: ('A' for Active; 'I' for Inactive)
REMARK    1  A    between atoms: C_8  and  N_5 
ROOT
ATOM      1  C   UNL d   1      -0.580  -1.020  -0.211  0.00  0.00     0.146 C 
ATOM      2  S   UNL d   1       1.098  -1.164   0.299  0.00  0.00    -0.057 SA
ATOM      3  N   UNL d   1      -0.989   0.282  -0.084  0.00  0.00    -0.357 N 
ATOM      4  C   UNL d   1       1.352   0.553   0.113  0.00  0.00     0.004 C 
ATOM      5  N   UNL d   1      -1.348  -1.928  -0.721  0.00  0.00    -0.335 N 
ATOM      6  HN  UNL d   1      -2.304  -1.679  -0.974  1.00  0.00     0.168 HD
ATOM      7  C   UNL d   1       0.060   1.289  -0.247  0.00  0.00     0.058 C 
ATOM      8  C   UNL d   1       2.567   1.093   0.272  0.00  0.00     0.029 C 
ATOM      9  C   UNL d   1      -0.224   2.469   0.685  0.00  0.00     0.044 C 
ATOM     10  C   UNL d   1       0.062   1.744  -1.714  0.00  0.00     0.044 C 
ATOM     11  H   UNL d   1      -1.875   0.464  -0.540  0.00  0.00     0.162 HD
ENDROOT
BRANCH   5  12
ATOM     12  C   UNL d   1      -0.909  -3.249  -0.937  0.00  0.00     0.056 A 
ATOM     13  C   UNL d   1      -1.610  -4.342  -0.402  0.00  0.00     0.060 A 
ATOM     14 CL   UNL d   1      -3.021  -4.114   0.574  0.00  0.00    -0.082 Cl
ATOM     15  C   UNL d   1      -1.198  -5.656  -0.658  0.00  0.00     0.026 A 
ATOM     16  C   UNL d   1      -0.081  -5.895  -1.456  0.00  0.00     0.002 A 
ATOM     17  C   UNL d   1       0.606  -4.826  -2.024  0.00  0.00     0.002 A 
ATOM     18  C   UNL d   1       0.177  -3.518  -1.786  0.00  0.00     0.031 A 
ENDBRANCH   5  12
TORSDOF 1
