REMARK  3 active torsions:
REMARK  status: ('A' for Active; 'I' for Inactive)
REMARK    1  A    between atoms: C_2  and  C_1 
REMARK       I    between atoms: N_9  and  C_2 
REMARK    2  A    between atoms: O_8  and  C_4 
REMARK    3  A    between atoms: C_7  and  O_8 
ROOT
ATOM      1  C   UNL d   1      -0.135   1.125   0.017  0.00  0.00     0.146 A 
ATOM      2  O   UNL d   1      -0.926   0.009   0.003  0.00  0.00    -0.282 OA
ATOM      3  C   UNL d   1      -0.109  -1.081  -0.029  0.00  0.00     0.191 A 
ATOM      4  C   UNL d   1       1.194   0.723   0.029  0.00  0.00     0.048 A 
ATOM      5  C   UNL d   1       1.210  -0.687   0.026  0.00  0.00     0.067 A 
ENDROOT
BRANCH   3   6
ATOM      6  O   UNL d   1      -0.750  -2.245  -0.119  0.00  0.00    -0.288 OA
BRANCH   6   7
ATOM      7  C   UNL d   1      -0.158  -3.320  -0.747  0.00  0.00     0.081 A 
ATOM      8  C   UNL d   1      -0.429  -4.591  -0.239  0.00  0.00     0.061 A 
ATOM      9  C   UNL d   1       0.109  -5.714  -0.870  0.00  0.00     0.038 A 
ATOM     10 CL   UNL d   1      -0.226  -7.285  -0.251  0.00  0.00    -0.084 Cl
ATOM     11  C   UNL d   1       0.913  -5.582  -2.001  0.00  0.00     0.048 A 
ATOM     12  C   UNL d   1       1.164  -4.312  -2.509  0.00  0.00     0.038 A 
ATOM     13  C   UNL d   1       0.621  -3.182  -1.901  0.00  0.00     0.061 A 
ATOM     14 CL   UNL d   1       2.151  -4.128  -3.907  0.00  0.00    -0.084 Cl
ENDBRANCH   6   7
ENDBRANCH   3   6
BRANCH   1  15
ATOM     15  C   UNL d   1      -0.641   2.494   0.006  0.00  0.00     0.276 C 
ATOM     16  N   UNL d   1      -2.008   2.809  -0.016  0.00  0.00    -0.355 N 
ATOM     17  C   UNL d   1      -2.382   4.219  -0.022  0.00  0.00     0.152 C 
ATOM     18  C   UNL d   1      -3.138   1.891  -0.025  0.00  0.00     0.152 C 
ATOM     19  O   UNL d   1       0.182   3.419   0.013  0.00  0.00    -0.265 OA
ENDBRANCH   1  15
TORSDOF 3
