REMARK  3 active torsions:
REMARK  status: ('A' for Active; 'I' for Inactive)
REMARK    1  A    between atoms: C_5  and  C_1 
REMARK       I    between atoms: N_10  and  C_5 
REMARK    2  A    between atoms: C_7  and  C_12 
REMARK    3  A    between atoms: C_12  and  N_10 
ROOT
ATOM      1  C   UNL d   1       3.770  -0.412  -0.023  0.00  0.00     0.260 C 
ATOM      2  N   UNL d   1       4.627  -1.501  -0.004  0.00  0.00    -0.352 N 
ATOM      3  O   UNL d   1       2.554  -0.603  -0.030  0.00  0.00    -0.267 OA
ATOM      4  H   UNL d   1       5.632  -1.383   0.044  0.00  0.00     0.163 HD
ENDROOT
BRANCH   2   5
ATOM      5  C   UNL d   1       4.084  -2.840   0.016  0.00  0.00     0.164 C 
BRANCH   5   6
ATOM      6  C   UNL d   1       5.039  -4.018   0.039  0.00  0.00    -0.004 A 
ATOM      7  C   UNL d   1       6.444  -3.967   0.071  0.00  0.00     0.088 A 
ATOM      8  C   UNL d   1       7.208  -5.150   0.107  0.00  0.00     0.003 A 
ATOM      9  O   UNL d   1       7.054  -2.742   0.105  0.00  0.00    -0.325 OA
ATOM     10  C   UNL d   1       8.702  -5.075   0.151  0.00  0.00     0.212 C 
ATOM     11  C   UNL d   1       6.575  -6.397   0.087  0.00  0.00     0.054 A 
ATOM     12  O   UNL d   1       9.091  -3.845   0.739  0.00  0.00    -0.362 OA
ATOM     13  C   UNL d   1       8.484  -2.776   0.031  0.00  0.00     0.345 C 
ATOM     14  C   UNL d   1       5.193  -6.456   0.064  0.00  0.00     0.117 A 
ATOM     15  C   UNL d   1       4.431  -5.293   0.042  0.00  0.00     0.054 A 
ATOM     16  F   UNL d   1       4.584  -7.648   0.071  0.00  0.00    -0.206 F 
ENDBRANCH   5   6
ENDBRANCH   2   5
BRANCH   1  17
ATOM     17  C   UNL d   1       4.366   0.928  -0.032  0.00  0.00     0.096 A 
ATOM     18  S   UNL d   1       3.284   2.269  -0.039  0.00  0.00    -0.082 SA
ATOM     19  C   UNL d   1       4.546   3.431  -0.070  0.00  0.00     0.017 A 
ATOM     20  C   UNL d   1       4.409   4.835  -0.096  0.00  0.00     0.020 A 
ATOM     21  C   UNL d   1       5.797   2.818  -0.067  0.00  0.00     0.004 A 
ATOM     22  C   UNL d   1       5.556   5.632  -0.120  0.00  0.00     0.001 A 
ATOM     23  C   UNL d   1       6.814   5.051  -0.117  0.00  0.00     0.001 A 
ATOM     24  C   UNL d   1       6.944   3.660  -0.090  0.00  0.00     0.014 A 
ATOM     25  C   UNL d   1       5.672   1.378  -0.046  0.00  0.00     0.068 A 
ATOM     26 CL   UNL d   1       7.083   0.404  -0.051  0.00  0.00    -0.082 Cl
ENDBRANCH   1  17
TORSDOF 3
