REMARK  4 active torsions:
REMARK  status: ('A' for Active; 'I' for Inactive)
REMARK    1  A    between atoms: C_3  and  C_1 
REMARK    2  A    between atoms: C_8  and  C_2 
REMARK    3  A    between atoms: C_17  and  C_9 
REMARK    4  A    between atoms: C_15  and  C_17 
ROOT
ATOM      1  C   UNL d   1      -0.048  -1.276  -0.074  0.00  0.00     0.052 A 
ATOM      2  C   UNL d   1       0.803  -0.175   0.257  0.00  0.00     0.083 A 
ATOM      3  N   UNL d   1       0.173   0.979  -0.036  0.00  0.00    -0.259 N 
ATOM      4  HN  UNL d   1       0.554   1.920   0.062  1.00  0.00     0.195 HD
ATOM      5  O   UNL d   1      -1.079   0.648  -0.494  0.00  0.00    -0.241 OA
ATOM      6  C   UNL d   1      -1.213  -0.700  -0.527  0.00  0.00     0.087 A 
ATOM      7  C   UNL d   1      -2.505  -1.208  -1.026  0.00  0.00     0.080 C 
ENDROOT
BRANCH   1   8
ATOM      8  C   UNL d   1       0.265  -2.701  -0.019  0.00  0.00     0.054 A 
ATOM      9  N   UNL d   1       1.085  -3.188   0.983  0.00  0.00    -0.352 N 
ATOM     10  C   UNL d   1       1.314  -4.474   0.782  0.00  0.00     0.055 A 
ATOM     11  HN  UNL d   1       1.455  -2.639   1.758  1.00  0.00     0.166 HD
ATOM     12  S   UNL d   1       0.567  -5.149  -0.614  0.00  0.00    -0.086 SA
ATOM     13  C   UNL d   1      -0.136  -3.633  -0.956  0.00  0.00     0.082 A 
BRANCH  10  14
ATOM     14  C   UNL d   1       2.168  -5.339   1.665  0.00  0.00     0.105 C 
BRANCH  14  15
ATOM     15  C   UNL d   1       1.377  -5.933   2.812  0.00  0.00    -0.030 A 
ATOM     16  C   UNL d   1       0.731  -7.176   2.732  0.00  0.00     0.042 A 
ATOM     17  C   UNL d   1      -0.064  -7.635   3.794  0.00  0.00     0.048 A 
ATOM     18 CL   UNL d   1       0.873  -8.208   1.356  0.00  0.00    -0.084 Cl
ATOM     19  C   UNL d   1      -0.200  -6.860   4.940  0.00  0.00     0.035 A 
ATOM     20  C   UNL d   1       0.451  -5.633   5.045  0.00  0.00     0.024 A 
ATOM     21 CL   UNL d   1      -1.190  -7.414   6.230  0.00  0.00    -0.084 Cl
ATOM     22  C   UNL d   1       1.232  -5.170   3.986  0.00  0.00     0.011 A 
ENDBRANCH  14  15
ENDBRANCH  10  14
ENDBRANCH   1   8
BRANCH   2  23
ATOM     23  C   UNL d   1       2.174  -0.134   0.785  0.00  0.00     0.037 A 
ATOM     24  C   UNL d   1       3.232  -0.842   0.178  0.00  0.00     0.048 A 
ATOM     25 CL   UNL d   1       3.073  -1.708  -1.317  0.00  0.00    -0.083 Cl
ATOM     26  C   UNL d   1       4.529  -0.808   0.715  0.00  0.00     0.025 A 
ATOM     27  C   UNL d   1       4.819  -0.012   1.816  0.00  0.00     0.003 A 
ATOM     28  C   UNL d   1       3.807   0.743   2.395  0.00  0.00     0.025 A 
ATOM     29  C   UNL d   1       2.494   0.668   1.905  0.00  0.00     0.048 A 
ATOM     30 CL   UNL d   1       1.322   1.609   2.775  0.00  0.00    -0.083 Cl
ENDBRANCH   2  23
TORSDOF 4
