REMARK  2 active torsions:
REMARK  status: ('A' for Active; 'I' for Inactive)
REMARK    1  A    between atoms: C_9  and  C_4 
REMARK    2  A    between atoms: C_10  and  C_5 
ROOT
ATOM      1  C   UNL d   1       0.767  -0.210   0.170  0.00  0.00    -0.006 A 
ATOM      2  C   UNL d   1       0.286   2.109  -0.100  0.00  0.00    -0.006 A 
ATOM      3  C   UNL d   1       1.381   1.113  -0.088  0.00  0.00     0.184 A 
ATOM      4  C   UNL d   1       1.523  -1.310   0.297  0.00  0.00     0.022 C 
ATOM      5  C   UNL d   1       0.544   3.418  -0.229  0.00  0.00     0.022 C 
ATOM      6  C   UNL d   1      -1.029   1.417   0.069  0.00  0.00     0.047 A 
ATOM      7  C   UNL d   1      -0.717  -0.066   0.285  0.00  0.00     0.047 A 
ATOM      8  O   UNL d   1       2.567   1.340  -0.247  0.00  0.00    -0.287 OA
ENDROOT
BRANCH   4   9
ATOM      9  C   UNL d   1       0.976  -2.636   0.578  0.00  0.00    -0.035 A 
ATOM     10  C   UNL d   1       0.610  -3.483  -0.475  0.00  0.00     0.013 A 
ATOM     11  C   UNL d   1       0.117  -4.763  -0.209  0.00  0.00     0.024 A 
ATOM     12  C   UNL d   1      -0.011  -5.196   1.110  0.00  0.00     0.034 A 
ATOM     13  C   UNL d   1       0.337  -4.355   2.165  0.00  0.00     0.024 A 
ATOM     14 CL   UNL d   1      -0.595  -6.781   1.436  0.00  0.00    -0.084 Cl
ATOM     15  C   UNL d   1       0.826  -3.073   1.899  0.00  0.00     0.013 A 
ENDBRANCH   4   9
BRANCH   5  16
ATOM     16  C   UNL d   1      -0.493   4.448  -0.206  0.00  0.00    -0.035 A 
ATOM     17  C   UNL d   1      -0.859   5.045   1.007  0.00  0.00     0.013 A 
ATOM     18  C   UNL d   1      -1.831   6.049   1.030  0.00  0.00     0.024 A 
ATOM     19  C   UNL d   1      -2.434   6.457  -0.158  0.00  0.00     0.034 A 
ATOM     20  C   UNL d   1      -2.087   5.857  -1.367  0.00  0.00     0.024 A 
ATOM     21 CL   UNL d   1      -3.611   7.711  -0.133  0.00  0.00    -0.084 Cl
ATOM     22  C   UNL d   1      -1.119   4.848  -1.391  0.00  0.00     0.013 A 
ENDBRANCH   5  16
TORSDOF 2
