REMARK  4 active torsions:
REMARK  status: ('A' for Active; 'I' for Inactive)
REMARK    1  A    between atoms: S_9  and  C_5 
REMARK    2  A    between atoms: C_17  and  S_9 
REMARK    3  A    between atoms: C_10  and  C_17 
REMARK       I    between atoms: N_12  and  C_10 
REMARK    4  A    between atoms: C_19  and  N_12 
ROOT
ATOM      1  N   UNL d   1      -0.275  -0.069   1.544  0.00  0.00    -0.314 N 
ATOM      2  C   UNL d   1      -0.320   1.125   0.862  0.00  0.00     0.158 A 
ATOM      3  N   UNL d   1       0.519   1.065  -0.156  0.00  0.00    -0.281 N 
ATOM      4  HN  UNL d   1       0.691   1.809  -0.831  1.00  0.00     0.188 HD
ATOM      5  C   UNL d   1       0.625  -0.845   0.860  0.00  0.00     0.163 A 
ATOM      6  N   UNL d   1       1.119  -0.169  -0.149  0.00  0.00    -0.278 N 
ATOM      7  HN  UNL d   1       1.822  -0.500  -0.810  1.00  0.00     0.189 HD
ATOM      8  C   UNL d   1      -1.150   2.258   1.137  0.00  0.00     0.120 A 
ATOM      9  O   UNL d   1      -1.768   2.489   2.340  0.00  0.00    -0.319 OA
ATOM     10  C   UNL d   1      -1.482   3.291   0.273  0.00  0.00     0.043 A 
ATOM     11  C   UNL d   1      -2.489   3.633   2.227  0.00  0.00     0.142 A 
ATOM     12  C   UNL d   1      -2.354   4.162   0.968  0.00  0.00     0.027 A 
ATOM     13  C   UNL d   1      -1.031  -0.454   2.706  0.00  0.00     0.160 C 
ENDROOT
BRANCH   5  14
ATOM     14  S   UNL d   1       1.009  -2.490   1.261  0.00  0.00    -0.083 SA
BRANCH  14  15
ATOM     15  C   UNL d   1       2.324  -2.790   0.044  0.00  0.00     0.185 C 
BRANCH  15  16
ATOM     16  C   UNL d   1       2.844  -4.220  -0.027  0.00  0.00     0.231 C 
ATOM     17  N   UNL d   1       2.067  -5.196   0.566  0.00  0.00    -0.327 N 
ATOM     18  H   UNL d   1       1.199  -4.886   0.988  0.00  0.00     0.169 HD
ATOM     19  O   UNL d   1       3.880  -4.429  -0.660  0.00  0.00    -0.272 OA
BRANCH  17  20
ATOM     20  C   UNL d   1       2.314  -6.590   0.569  0.00  0.00     0.034 A 
ATOM     21  C   UNL d   1       3.500  -7.171   0.112  0.00  0.00     0.029 A 
ATOM     22  C   UNL d   1       3.660  -8.561   0.096  0.00  0.00     0.002 A 
ATOM     23  C   UNL d   1       2.635  -9.387   0.546  0.00  0.00     0.000 A 
ATOM     24  C   UNL d   1       1.459  -8.822   1.029  0.00  0.00     0.002 A 
ATOM     25  C   UNL d   1       1.302  -7.431   1.052  0.00  0.00     0.029 A 
ENDBRANCH  17  20
ENDBRANCH  15  16
ENDBRANCH  14  15
ENDBRANCH   5  14
TORSDOF 4
