REMARK  4 active torsions:
REMARK  status: ('A' for Active; 'I' for Inactive)
REMARK    1  A    between atoms: C_2  and  S_1 
REMARK    2  A    between atoms: N_5  and  S_1 
REMARK    3  A    between atoms: C_13  and  N_5 
REMARK    4  A    between atoms: C_14  and  C_13 
ROOT
ATOM      1  S   UNL d   1       1.101   0.067   0.023  0.00  0.00     0.260 S 
ATOM      2  O   UNL d   1       0.213  -1.036   0.298  0.00  0.00    -0.200 OA
ATOM      3  O   UNL d   1       2.464  -0.158  -0.407  0.00  0.00    -0.200 OA
ENDROOT
BRANCH   1   4
ATOM      4  C   UNL d   1       1.176   1.084   1.476  0.00  0.00     0.102 A 
ATOM      5  C   UNL d   1       2.443   1.386   2.002  0.00  0.00     0.052 A 
ATOM      6  C   UNL d   1       2.562   2.213   3.121  0.00  0.00     0.057 A 
ATOM      7 CL   UNL d   1       4.152   2.565   3.695  0.00  0.00    -0.083 Cl
ATOM      8  C   UNL d   1       1.413   2.733   3.724  0.00  0.00     0.057 A 
ATOM      9  C   UNL d   1       0.152   2.417   3.208  0.00  0.00     0.051 A 
ATOM     10 CL   UNL d   1       1.482   3.779   5.096  0.00  0.00    -0.082 Cl
ATOM     11  C   UNL d   1       0.025   1.592   2.083  0.00  0.00     0.059 A 
ATOM     12 CL   UNL d   1      -1.575   1.302   1.510  0.00  0.00    -0.083 Cl
ENDBRANCH   1   4
BRANCH   1  13
ATOM     13  N   UNL d   1       0.399   1.046  -1.117  0.00  0.00    -0.310 N 
ATOM     14  H   UNL d   1      -0.605   0.950  -1.292  0.00  0.00     0.172 HD
BRANCH  13  15
ATOM     15  C   UNL d   1       0.999   2.333  -1.459  0.00  0.00     0.189 C 
BRANCH  15  16
ATOM     16  C   UNL d   1       0.278   3.024  -2.599  0.00  0.00     0.027 A 
ATOM     17  N   UNL d   1      -1.046   2.753  -2.761  0.00  0.00    -0.368 N 
ATOM     18  C   UNL d   1      -1.694   3.409  -3.750  0.00  0.00     0.088 A 
ATOM     19  HN  UNL d   1      -1.530   2.085  -2.161  1.00  0.00     0.165 HD
ATOM     20  C   UNL d   1      -1.093   4.341  -4.580  0.00  0.00     0.017 A 
ATOM     21  C   UNL d   1       0.254   4.619  -4.389  0.00  0.00     0.003 A 
ATOM     22  C   UNL d   1       0.953   3.957  -3.384  0.00  0.00     0.027 A 
ENDBRANCH  15  16
ENDBRANCH  13  15
ENDBRANCH   1  13
TORSDOF 4
