REMARK  10 active torsions:
REMARK  status: ('A' for Active; 'I' for Inactive)
REMARK    1  A    between atoms: C_7  and  C_1 
REMARK    2  A    between atoms: C_6  and  O_8 
REMARK       I    between atoms: N_10  and  C_6 
REMARK    3  A    between atoms: O_8  and  C_7 
REMARK    4  A    between atoms: C_16  and  N_10 
REMARK    5  A    between atoms: O_15  and  C_17 
REMARK    6  A    between atoms: C_18  and  C_16 
REMARK    7  A    between atoms: C_17  and  C_19 
REMARK    8  A    between atoms: C_21  and  C_18 
REMARK    9  A    between atoms: C_19  and  C_20 
REMARK   10  A    between atoms: C_20  and  C_21 
ROOT
ATOM      1  C   UNL d   1      -0.116   2.824   1.209  0.00  0.00     0.194 C 
ENDROOT
BRANCH   1   2
ATOM      2  C   UNL d   1      -0.442   1.659   2.155  0.00  0.00     0.078 A 
ATOM      3  C   UNL d   1      -1.639   0.836   1.684  0.00  0.00    -0.036 A 
ATOM      4  C   UNL d   1      -1.254  -0.512   1.491  0.00  0.00    -0.018 A 
ATOM      5  C   UNL d   1      -2.938   1.252   1.474  0.00  0.00     0.009 A 
ATOM      6  C   UNL d   1      -2.185  -1.447   1.071  0.00  0.00     0.013 A 
ATOM      7  C   UNL d   1       0.152  -0.649   1.796  0.00  0.00    -0.018 A 
ATOM      8  C   UNL d   1      -3.499  -1.030   0.846  0.00  0.00     0.001 A 
ATOM      9  C   UNL d   1      -3.877   0.305   1.044  0.00  0.00     0.001 A 
ATOM     10  C   UNL d   1       0.666   0.611   2.179  0.00  0.00    -0.036 A 
ATOM     11  C   UNL d   1       0.976  -1.762   1.754  0.00  0.00     0.013 A 
ATOM     12  C   UNL d   1       2.000   0.766   2.521  0.00  0.00     0.009 A 
ATOM     13  C   UNL d   1       2.830  -0.358   2.473  0.00  0.00     0.001 A 
ATOM     14  C   UNL d   1       2.320  -1.613   2.097  0.00  0.00     0.001 A 
ENDBRANCH   1   2
BRANCH   1  15
ATOM     15  O   UNL d   1      -1.175   3.805   1.133  0.00  0.00    -0.303 OA
BRANCH  15  16
ATOM     16  C   UNL d   1      -1.133   4.750   2.102  0.00  0.00     0.360 C 
ATOM     17  O   UNL d   1      -0.447   4.692   3.113  0.00  0.00    -0.239 OA
ATOM     18  N   UNL d   1      -1.855   5.864   1.790  0.00  0.00    -0.337 N 
ATOM     19  H   UNL d   1      -1.643   6.642   2.399  0.00  0.00     0.164 HD
BRANCH  18  20
ATOM     20  C   UNL d   1      -3.147   5.869   1.134  0.00  0.00     0.125 C 
BRANCH  20  21
ATOM     21  C   UNL d   1      -4.252   6.031   2.185  0.00  0.00     0.020 C 
BRANCH  21  22
ATOM     22  C   UNL d   1      -5.642   6.079   1.552  0.00  0.00     0.002 C 
BRANCH  22  23
ATOM     23  C   UNL d   1      -6.742   6.256   2.604  0.00  0.00     0.002 C 
BRANCH  23  24
ATOM     24  C   UNL d   1      -8.126   6.295   1.956  0.00  0.00     0.026 C 
BRANCH  24  25
ATOM     25  C   UNL d   1      -9.233   6.466   2.987  0.00  0.00     0.164 C 
BRANCH  25  26
ATOM     26  O   UNL d   1     -10.486   6.494   2.317  0.00  0.00    -0.401 OA
ATOM     27  H   UNL d   1     -11.174   6.597   2.999  0.00  0.00     0.209 HD
ENDBRANCH  25  26
ENDBRANCH  24  25
ENDBRANCH  23  24
ENDBRANCH  22  23
ENDBRANCH  21  22
ENDBRANCH  20  21
ENDBRANCH  18  20
ENDBRANCH  15  16
ENDBRANCH   1  15
TORSDOF 10
