REMARK  8 active torsions:
REMARK  status: ('A' for Active; 'I' for Inactive)
REMARK    1  A    between atoms: C_2  and  C_1 
REMARK    2  A    between atoms: N_6  and  C_1 
REMARK    3  A    between atoms: O_8  and  N_3 
REMARK    4  A    between atoms: C_5  and  O_12 
REMARK    5  A    between atoms: C_14  and  N_6 
REMARK    6  A    between atoms: C_7  and  O_8 
REMARK    7  A    between atoms: C_9  and  C_7 
REMARK    8  A    between atoms: O_12  and  C_18 
ROOT
ATOM      1  C   UNL d   1       1.007   0.119  -0.055  0.00  0.00     0.140 C 
ATOM      2  N   UNL d   1       0.409   1.228   0.279  0.00  0.00    -0.240 N 
ATOM      3  HN  UNL d   1       0.896   2.099   0.489  1.00  0.00     0.196 HD
ENDROOT
BRANCH   1   4
ATOM      4  C   UNL d   1       2.501   0.175  -0.001  0.00  0.00     0.053 A 
ATOM      5  C   UNL d   1       3.140   0.437   1.224  0.00  0.00     0.049 A 
ATOM      6 CL   UNL d   1       2.282   0.608   2.717  0.00  0.00    -0.083 Cl
ATOM      7  C   UNL d   1       4.535   0.525   1.288  0.00  0.00     0.025 A 
ATOM      8  C   UNL d   1       5.306   0.330   0.144  0.00  0.00     0.003 A 
ATOM      9  C   UNL d   1       4.680   0.075  -1.074  0.00  0.00     0.025 A 
ATOM     10  C   UNL d   1       3.282   0.023  -1.157  0.00  0.00     0.049 A 
ATOM     11 CL   UNL d   1       2.606  -0.165  -2.738  0.00  0.00    -0.083 Cl
ENDBRANCH   1   4
BRANCH   1  12
ATOM     12  N   UNL d   1       0.321  -1.010  -0.463  0.00  0.00    -0.340 N 
ATOM     13  H   UNL d   1      -0.618  -0.820  -0.789  0.00  0.00     0.167 HD
BRANCH  12  14
ATOM     14  C   UNL d   1       0.814  -2.292  -0.758  0.00  0.00     0.033 A 
ATOM     15  C   UNL d   1       1.736  -2.946   0.059  0.00  0.00     0.032 A 
ATOM     16  C   UNL d   1       2.305  -4.169  -0.328  0.00  0.00     0.039 A 
ATOM     17  C   UNL d   1       1.992  -4.722  -1.567  0.00  0.00     0.078 A 
ATOM     18  C   UNL d   1       1.032  -4.099  -2.365  0.00  0.00     0.039 A 
ATOM     19  C   UNL d   1       0.446  -2.896  -1.966  0.00  0.00     0.032 A 
BRANCH  17  20
ATOM     20  O   UNL d   1       2.531  -5.851  -2.106  0.00  0.00    -0.255 OA
BRANCH  20  21
ATOM     21  C   UNL d   1       3.832  -6.234  -1.685  0.00  0.00     0.530 C 
ATOM     22  F   UNL d   1       4.605  -5.184  -1.335  0.00  0.00    -0.144 F 
ATOM     23  F   UNL d   1       3.748  -7.091  -0.646  0.00  0.00    -0.144 F 
ATOM     24  F   UNL d   1       4.443  -6.869  -2.711  0.00  0.00    -0.144 F 
ENDBRANCH  20  21
ENDBRANCH  17  20
ENDBRANCH  12  14
ENDBRANCH   1  12
BRANCH   2  25
ATOM     25  O   UNL d   1      -0.992   1.081   0.314  0.00  0.00    -0.197 OA
BRANCH  25  26
ATOM     26  C   UNL d   1      -1.545   2.090   1.070  0.00  0.00     0.288 C 
ATOM     27  O   UNL d   1      -0.933   3.023   1.583  0.00  0.00    -0.262 OA
BRANCH  26  28
ATOM     28  C   UNL d   1      -3.061   1.915   1.229  0.00  0.00     0.039 C 
ATOM     29  C   UNL d   1      -3.620   0.683   0.502  0.00  0.00     0.025 C 
ATOM     30  C   UNL d   1      -3.368   1.786   2.729  0.00  0.00     0.025 C 
ATOM     31  C   UNL d   1      -3.733   3.176   0.667  0.00  0.00     0.025 C 
ENDBRANCH  26  28
ENDBRANCH  25  26
ENDBRANCH   2  25
TORSDOF 8
