REMARK  3 active torsions:
REMARK  status: ('A' for Active; 'I' for Inactive)
REMARK    1  A    between atoms: C_2  and  C_1 
REMARK       I    between atoms: N_3  and  C_1 
REMARK    2  A    between atoms: C_4  and  N_3 
REMARK    3  A    between atoms: N_12  and  C_6 
ROOT
ATOM      1  C   UNL d   1       1.652  -1.551  -0.568  0.00  0.00     0.253 C 
ATOM      2  N   UNL d   1       0.588  -0.819  -0.090  0.00  0.00    -0.352 N 
ATOM      3  O   UNL d   1       1.552  -2.680  -1.024  0.00  0.00    -0.268 OA
ATOM      4  H   UNL d   1       0.799   0.093   0.283  0.00  0.00     0.163 HD
ENDROOT
BRANCH   1   5
ATOM      5  C   UNL d   1       2.982  -0.846  -0.513  0.00  0.00     0.053 A 
ATOM      6  C   UNL d   1       4.182  -1.574  -0.332  0.00  0.00     0.023 A 
ATOM      7  C   UNL d   1       5.382  -0.840  -0.278  0.00  0.00     0.024 A 
ATOM      8  C   UNL d   1       5.409   0.548  -0.447  0.00  0.00     0.002 A 
ATOM      9  C   UNL d   1       4.229   1.246  -0.661  0.00  0.00     0.001 A 
ATOM     10  C   UNL d   1       3.022   0.552  -0.704  0.00  0.00     0.019 A 
BRANCH   6  11
ATOM     11  N   UNL d   1       4.157  -2.954  -0.053  0.00  0.00    -0.296 NA
ATOM     12  C   UNL d   1       5.324  -3.761  -0.358  0.00  0.00     0.113 C 
ATOM     13  H   UNL d   1       3.291  -3.366  -0.427  0.00  0.00     0.127 HD
ENDBRANCH   6  11
ENDBRANCH   1   5
BRANCH   2  14
ATOM     14  C   UNL d   1      -0.822  -1.151  -0.242  0.00  0.00     0.085 C 
ATOM     15  C   UNL d   1      -1.667   0.095   0.072  0.00  0.00     0.034 C 
ATOM     16  C   UNL d   1      -1.784   0.429   1.583  0.00  0.00    -0.045 C 
ATOM     17  C   UNL d   1      -0.447   0.845   2.233  0.00  0.00     0.015 C 
ATOM     18  C   UNL d   1      -2.742   1.625   1.741  0.00  0.00     0.015 C 
ATOM     19  C   UNL d   1      -2.362  -0.803   2.306  0.00  0.00     0.013 C 
ATOM     20  C   UNL d   1      -1.544  -2.085   2.070  0.00  0.00    -0.016 C 
ATOM     21  C   UNL d   1      -1.301  -2.361   0.576  0.00  0.00     0.029 C 
ATOM     22  C   UNL d   1      -2.261  -3.272   2.721  0.00  0.00     0.010 C 
ENDBRANCH   2  14
TORSDOF 3
