REMARK  2 active torsions:
REMARK  status: ('A' for Active; 'I' for Inactive)
REMARK       I    between atoms: N_2  and  C_1 
REMARK    1  A    between atoms: C_9  and  C_1 
REMARK    2  A    between atoms: C_3  and  N_2 
ROOT
ATOM      1  C   UNL d   1       1.068  -0.092  -0.298  0.00  0.00     0.222 C 
ATOM      2  N   UNL d   1       0.198  -1.133  -0.528  0.00  0.00    -0.356 N 
ATOM      3  O   UNL d   1       2.281  -0.241  -0.412  0.00  0.00    -0.273 OA
ATOM      4  H   UNL d   1      -0.798  -0.968  -0.499  0.00  0.00     0.162 HD
ENDROOT
BRANCH   2   5
ATOM      5  C   UNL d   1       0.669  -2.504  -0.717  0.00  0.00     0.092 C 
ATOM      6  C   UNL d   1       1.147  -2.846  -2.151  0.00  0.00     0.064 C 
ATOM      7  C   UNL d   1       0.866  -4.322  -2.220  0.00  0.00    -0.050 A 
ATOM      8  C   UNL d   1       1.338  -5.251  -3.129  0.00  0.00     0.007 A 
ATOM      9  C   UNL d   1      -0.031  -4.707  -1.220  0.00  0.00    -0.050 A 
ATOM     10  C   UNL d   1       0.909  -6.579  -3.025  0.00  0.00     0.001 A 
ATOM     11  C   UNL d   1      -0.002  -6.954  -2.029  0.00  0.00     0.001 A 
ATOM     12  C   UNL d   1      -0.482  -6.014  -1.117  0.00  0.00     0.007 A 
ATOM     13  C   UNL d   1      -0.422  -3.541  -0.371  0.00  0.00     0.064 C 
ENDBRANCH   2   5
BRANCH   1  14
ATOM     14  C   UNL d   1       0.436   1.273   0.044  0.00  0.00     0.078 C 
ATOM     15  C   UNL d   1       1.477   2.207   0.694  0.00  0.00     0.014 C 
ATOM     16  C   UNL d   1       1.835   1.775   2.120  0.00  0.00     0.001 C 
ATOM     17  C   UNL d   1       0.607   1.599   3.010  0.00  0.00     0.000 C 
ATOM     18  C   UNL d   1      -0.473   0.742   2.356  0.00  0.00     0.001 C 
ATOM     19  C   UNL d   1      -0.804   1.230   0.950  0.00  0.00     0.014 C 
ENDBRANCH   1  14
TORSDOF 2
