REMARK  5 active torsions:
REMARK  status: ('A' for Active; 'I' for Inactive)
REMARK    1  A    between atoms: C_13  and  C_1 
REMARK    2  A    between atoms: C_2  and  N_5 
REMARK       I    between atoms: N_5  and  C_6 
REMARK    3  A    between atoms: C_6  and  C_16 
REMARK    4  A    between atoms: S_12  and  C_13 
REMARK    5  A    between atoms: C_16  and  S_12 
ROOT
ATOM      1  N   UNL d   1      -3.562   4.842   0.381  0.00  0.00    -0.355 N 
ATOM      2  C   UNL d   1      -2.532   5.630  -0.086  0.00  0.00     0.227 C 
ATOM      3  O   UNL d   1      -2.679   6.820  -0.361  0.00  0.00    -0.273 OA
ATOM      4  H   UNL d   1      -3.395   3.840   0.361  0.00  0.00     0.162 HD
ENDROOT
BRANCH   2   5
ATOM      5  C   UNL d   1      -1.158   4.979  -0.150  0.00  0.00     0.176 C 
BRANCH   5   6
ATOM      6  S   UNL d   1      -1.208   3.197  -0.531  0.00  0.00    -0.155 SA
BRANCH   6   7
ATOM      7  C   UNL d   1       0.592   2.920  -0.607  0.00  0.00     0.117 C 
BRANCH   7   8
ATOM      8  C   UNL d   1       0.953   1.485  -0.879  0.00  0.00     0.011 A 
ATOM      9  C   UNL d   1       1.279   1.098  -2.185  0.00  0.00     0.125 A 
ATOM     10  F   UNL d   1       1.260   2.005  -3.173  0.00  0.00    -0.205 F 
ATOM     11  C   UNL d   1       1.651  -0.208  -2.498  0.00  0.00     0.043 A 
ATOM     12  C   UNL d   1       1.697  -1.171  -1.495  0.00  0.00     0.005 A 
ATOM     13  C   UNL d   1       1.369  -0.816  -0.187  0.00  0.00     0.024 A 
ATOM     14  C   UNL d   1       1.000   0.501   0.120  0.00  0.00     0.044 A 
ATOM     15 CL   UNL d   1       0.631   0.858   1.771  0.00  0.00    -0.084 Cl
ENDBRANCH   7   8
ENDBRANCH   6   7
ENDBRANCH   5   6
ENDBRANCH   2   5
BRANCH   1  16
ATOM     16  C   UNL d   1      -4.931   5.333   0.380  0.00  0.00     0.092 C 
ATOM     17  C   UNL d   1      -5.198   6.454   1.416  0.00  0.00     0.064 C 
ATOM     18  C   UNL d   1      -6.680   6.324   1.600  0.00  0.00    -0.050 A 
ATOM     19  C   UNL d   1      -7.561   7.255   2.124  0.00  0.00     0.007 A 
ATOM     20  C   UNL d   1      -7.124   5.066   1.178  0.00  0.00    -0.050 A 
ATOM     21  C   UNL d   1      -8.914   6.915   2.202  0.00  0.00     0.001 A 
ATOM     22  C   UNL d   1      -9.359   5.653   1.774  0.00  0.00     0.001 A 
ATOM     23  C   UNL d   1      -8.460   4.714   1.265  0.00  0.00     0.007 A 
ATOM     24  C   UNL d   1      -5.977   4.239   0.684  0.00  0.00     0.064 C 
ENDBRANCH   1  16
TORSDOF 5
