REMARK  4 active torsions:
REMARK  status: ('A' for Active; 'I' for Inactive)
REMARK    1  A    between atoms: C_4  and  C_1 
REMARK       I    between atoms: C_2  and  N_5 
REMARK    2  A    between atoms: C_3  and  C_2 
REMARK    3  A    between atoms: C_11  and  C_4 
REMARK    4  A    between atoms: N_5  and  C_6 
ROOT
ATOM      1  C   UNL d   1       1.335   1.089  -0.465  0.00  0.00     0.043 A 
ATOM      2  C   UNL d   1       2.262   0.063  -0.190  0.00  0.00     0.049 A 
ATOM      3  C   UNL d   1      -0.046   0.815  -0.365  0.00  0.00     0.041 A 
ATOM      4  C   UNL d   1       1.774  -1.218   0.135  0.00  0.00     0.032 A 
ATOM      5  C   UNL d   1      -0.498  -0.446   0.013  0.00  0.00     0.035 A 
ATOM      6  C   UNL d   1       0.406  -1.469   0.252  0.00  0.00     0.026 A 
ATOM      7 CL   UNL d   1      -2.186  -0.745   0.144  0.00  0.00    -0.084 Cl
ENDROOT
BRANCH   2   8
ATOM      8  N   UNL d   1       3.672   0.160  -0.206  0.00  0.00    -0.322 N 
ATOM      9  C   UNL d   1       4.432   1.252   0.161  0.00  0.00     0.257 C 
ATOM     10  O   UNL d   1       3.993   2.322   0.569  0.00  0.00    -0.267 OA
ATOM     11  H   UNL d   1       4.171  -0.721  -0.249  0.00  0.00     0.169 HD
BRANCH   9  12
ATOM     12  C   UNL d   1       5.918   1.054   0.116  0.00  0.00     0.054 A 
ATOM     13  C   UNL d   1       6.581  -0.131   0.479  0.00  0.00     0.049 A 
ATOM     14 CL   UNL d   1       5.767  -1.551   1.042  0.00  0.00    -0.083 Cl
ATOM     15  C   UNL d   1       7.981  -0.201   0.434  0.00  0.00     0.025 A 
ATOM     16  C   UNL d   1       8.731   0.902   0.033  0.00  0.00     0.002 A 
ATOM     17  C   UNL d   1       8.086   2.084  -0.323  0.00  0.00     0.001 A 
ATOM     18  C   UNL d   1       6.689   2.160  -0.280  0.00  0.00     0.019 A 
ENDBRANCH   9  12
ENDBRANCH   2   8
BRANCH   1  19
ATOM     19  C   UNL d   1       1.706   2.382  -1.110  0.00  0.00     0.194 C 
ATOM     20  O   UNL d   1       2.527   2.378  -2.026  0.00  0.00    -0.287 OA
BRANCH  19  21
ATOM     21  C   UNL d   1       0.947   3.634  -0.807  0.00  0.00     0.015 A 
ATOM     22  C   UNL d   1       0.730   4.545  -1.850  0.00  0.00     0.015 A 
ATOM     23  C   UNL d   1      -0.083   5.664  -1.652  0.00  0.00     0.001 A 
ATOM     24  C   UNL d   1      -0.677   5.882  -0.410  0.00  0.00     0.000 A 
ATOM     25  C   UNL d   1      -0.437   4.999   0.643  0.00  0.00     0.001 A 
ATOM     26  C   UNL d   1       0.384   3.883   0.452  0.00  0.00     0.015 A 
ENDBRANCH  19  21
ENDBRANCH   1  19
TORSDOF 4
