REMARK  6 active torsions:
REMARK  status: ('A' for Active; 'I' for Inactive)
REMARK    1  A    between atoms: C_2  and  S_1 
REMARK    2  A    between atoms: C_3  and  S_1 
REMARK    3  A    between atoms: C_7  and  C_5 
REMARK    4  A    between atoms: O_13  and  C_7 
REMARK    5  A    between atoms: C_22  and  C_10 
REMARK    6  A    between atoms: O_17  and  C_22 
ROOT
ATOM      1  S   UNL d   1       0.478   0.242  -0.085  0.00  0.00     0.086 S 
ATOM      2  O   UNL d   1       1.959   0.316   0.142  0.00  0.00    -0.247 OA
ENDROOT
BRANCH   1   3
ATOM      3  C   UNL d   1       0.025  -1.544  -0.108  0.00  0.00     0.048 C 
ATOM      4  C   UNL d   1       0.956  -2.636  -0.354  0.00  0.00     0.011 A 
ATOM      5  C   UNL d   1       2.316  -2.621  -0.843  0.00  0.00     0.050 A 
ATOM      6  C   UNL d   1       0.458  -3.946  -0.068  0.00  0.00    -0.024 A 
ATOM      7  C   UNL d   1       3.120  -3.780  -0.891  0.00  0.00     0.019 A 
ATOM      8  C   UNL d   1       2.604  -5.008  -0.527  0.00  0.00     0.002 A 
ATOM      9  C   UNL d   1       1.275  -5.088  -0.143  0.00  0.00     0.012 A 
ATOM     10  C   UNL d   1      -0.879  -4.157   0.295  0.00  0.00     0.012 C 
ATOM     11  C   UNL d   1      -1.779  -3.108   0.383  0.00  0.00     0.002 C 
ATOM     12  C   UNL d   1      -1.332  -1.813   0.180  0.00  0.00     0.022 C 
BRANCH   5  13
ATOM     13  C   UNL d   1       2.991  -1.460  -1.464  0.00  0.00     0.177 C 
ATOM     14  O   UNL d   1       4.159  -1.155  -1.331  0.00  0.00    -0.646 OA
BRANCH  13  15
ATOM     15  O   UNL d   1       2.195  -0.867  -2.375  0.00  0.00    -0.773 OA
ATOM     16  H   UNL d   1       2.718  -0.071  -2.614  0.00  0.00     0.167 HD
ENDBRANCH  13  15
ENDBRANCH   5  13
ENDBRANCH   1   3
BRANCH   1  17
ATOM     17  C   UNL d   1      -0.157   0.715   1.582  0.00  0.00     0.048 C 
ATOM     18  C   UNL d   1      -0.512   2.091   1.856  0.00  0.00     0.002 C 
ATOM     19  C   UNL d   1      -0.866   3.135   0.924  0.00  0.00    -0.022 C 
ATOM     20  C   UNL d   1      -0.484   2.475   3.229  0.00  0.00    -0.024 C 
ATOM     21  C   UNL d   1      -0.931   4.483   1.341  0.00  0.00     0.010 C 
ATOM     22  C   UNL d   1      -0.768   4.825   2.672  0.00  0.00     0.002 C 
ATOM     23  C   UNL d   1      -0.596   3.820   3.611  0.00  0.00     0.012 C 
ATOM     24  C   UNL d   1      -0.317   1.526   4.247  0.00  0.00     0.012 C 
ATOM     25  C   UNL d   1      -0.092   0.190   3.959  0.00  0.00     0.002 C 
ATOM     26  C   UNL d   1       0.042  -0.200   2.637  0.00  0.00     0.022 C 
BRANCH  19  27
ATOM     27  C   UNL d   1      -1.308   2.876  -0.500  0.00  0.00     0.203 C 
BRANCH  27  28
ATOM     28  O   UNL d   1      -0.260   3.054  -1.436  0.00  0.00    -0.396 OA
ATOM     29  H   UNL d   1       0.378   3.682  -1.054  0.00  0.00     0.209 HD
ENDBRANCH  27  28
ENDBRANCH  19  27
ENDBRANCH   1  17
TORSDOF 6
