REMARK  3 active torsions:
REMARK  status: ('A' for Active; 'I' for Inactive)
REMARK    1  A    between atoms: C_7  and  C_1 
REMARK    2  A    between atoms: C_8  and  C_5 
REMARK    3  A    between atoms: C_9  and  C_6 
ROOT
ATOM      1  C   UNL d   1      -0.321   1.003  -0.011  0.00  0.00     0.118 A 
ATOM      2  N   UNL d   1      -1.166  -0.006   0.064  0.00  0.00    -0.339 N 
ATOM      3  HN  UNL d   1      -2.183   0.053   0.103  1.00  0.00     0.167 HD
ATOM      4  N   UNL d   1       0.965   0.517  -0.062  0.00  0.00    -0.339 N 
ATOM      5  C   UNL d   1      -0.408  -1.159   0.077  0.00  0.00     0.072 A 
ATOM      6  C   UNL d   1       0.948  -0.860  -0.010  0.00  0.00     0.072 A 
ATOM      7  H   UNL d   1       1.789   1.093  -0.144  0.00  0.00     0.167 HD
ENDROOT
BRANCH   1   8
ATOM      8  C   UNL d   1      -0.670   2.432   0.025  0.00  0.00     0.030 A 
ATOM      9  C   UNL d   1       0.123   3.470  -0.498  0.00  0.00     0.048 A 
ATOM     10 CL   UNL d   1       1.625   3.196  -1.318  0.00  0.00    -0.083 Cl
ATOM     11  C   UNL d   1      -0.285   4.808  -0.389  0.00  0.00     0.025 A 
ATOM     12  C   UNL d   1      -1.486   5.132   0.239  0.00  0.00     0.002 A 
ATOM     13  C   UNL d   1      -2.289   4.120   0.752  0.00  0.00     0.001 A 
ATOM     14  C   UNL d   1      -1.887   2.785   0.640  0.00  0.00     0.017 A 
ENDBRANCH   1   8
BRANCH   5  15
ATOM     15  C   UNL d   1      -1.018  -2.477   0.155  0.00  0.00    -0.007 A 
ATOM     16  C   UNL d   1      -2.185  -2.741  -0.576  0.00  0.00     0.015 A 
ATOM     17  C   UNL d   1      -2.746  -4.022  -0.584  0.00  0.00     0.024 A 
ATOM     18  C   UNL d   1      -2.143  -5.046   0.142  0.00  0.00     0.034 A 
ATOM     19  C   UNL d   1      -1.005  -4.793   0.903  0.00  0.00     0.024 A 
ATOM     20 CL   UNL d   1      -2.803  -6.634   0.098  0.00  0.00    -0.084 Cl
ATOM     21  C   UNL d   1      -0.459  -3.507   0.927  0.00  0.00     0.015 A 
ENDBRANCH   5  15
BRANCH   6  22
ATOM     22  C   UNL d   1       2.171  -1.665  -0.044  0.00  0.00    -0.007 A 
ATOM     23  C   UNL d   1       3.315  -1.255   0.658  0.00  0.00     0.015 A 
ATOM     24  C   UNL d   1       4.445  -2.078   0.728  0.00  0.00     0.024 A 
ATOM     25  C   UNL d   1       4.436  -3.322   0.103  0.00  0.00     0.034 A 
ATOM     26  C   UNL d   1       3.327  -3.729  -0.631  0.00  0.00     0.024 A 
ATOM     27 CL   UNL d   1       5.793  -4.367   0.255  0.00  0.00    -0.084 Cl
ATOM     28  C   UNL d   1       2.211  -2.892  -0.724  0.00  0.00     0.015 A 
ENDBRANCH   6  22
TORSDOF 3
