REMARK  4 active torsions:
REMARK  status: ('A' for Active; 'I' for Inactive)
REMARK    1  A    between atoms: C_4  and  C_1 
REMARK    2  A    between atoms: S_5  and  C_2 
REMARK    3  A    between atoms: N_3  and  C_4 
REMARK    4  A    between atoms: C_11  and  S_5 
ROOT
ATOM      1  C   UNL d   1       0.282   1.098  -0.139  0.00  0.00    -0.001 A 
ATOM      2  C   UNL d   1       1.689   1.244  -0.044  0.00  0.00     0.015 A 
ATOM      3  C   UNL d   1      -0.229  -0.213  -0.268  0.00  0.00     0.043 A 
ATOM      4 CL   UNL d   1      -1.924  -0.551  -0.365  0.00  0.00    -0.084 Cl
ATOM      5  C   UNL d   1       2.520   0.108  -0.036  0.00  0.00     0.019 A 
ATOM      6  C   UNL d   1       1.989  -1.171  -0.159  0.00  0.00     0.003 A 
ATOM      7  C   UNL d   1       0.616  -1.330  -0.282  0.00  0.00     0.024 A 
ENDROOT
BRANCH   2   8
ATOM      8  S   UNL d   1       2.493   2.834   0.175  0.00  0.00    -0.090 SA
BRANCH   8   9
ATOM      9  C   UNL d   1       3.614   2.951  -1.213  0.00  0.00     0.005 A 
ATOM     10  C   UNL d   1       3.327   2.430  -2.480  0.00  0.00     0.020 A 
ATOM     11  C   UNL d   1       4.243   2.572  -3.531  0.00  0.00     0.025 A 
ATOM     12  C   UNL d   1       5.439   3.256  -3.324  0.00  0.00     0.034 A 
ATOM     13  C   UNL d   1       5.730   3.794  -2.074  0.00  0.00     0.025 A 
ATOM     14 CL   UNL d   1       6.558   3.440  -4.616  0.00  0.00    -0.084 Cl
ATOM     15  C   UNL d   1       4.820   3.643  -1.022  0.00  0.00     0.020 A 
ENDBRANCH   8   9
ENDBRANCH   2   8
BRANCH   1  16
ATOM     16  C   UNL d   1      -0.652   2.289  -0.054  0.00  0.00     0.169 C 
BRANCH  16  17
ATOM     17  N   UNL d   1      -0.924   2.921  -1.344  0.00  0.00    -0.362 N 
ATOM     18  C   UNL d   1      -1.947   2.586  -2.197  0.00  0.00     0.090 A 
ATOM     19  C   UNL d   1      -1.975   3.506  -3.223  0.00  0.00     0.019 A 
ATOM     20  C   UNL d   1      -0.948   4.443  -2.976  0.00  0.00     0.019 A 
ATOM     21  C   UNL d   1      -0.327   4.070  -1.805  0.00  0.00     0.090 A 
ENDBRANCH  16  17
ENDBRANCH   1  16
TORSDOF 4
