REMARK  3 active torsions:
REMARK  status: ('A' for Active; 'I' for Inactive)
REMARK    1  A    between atoms: N_11  and  C_3 
REMARK    2  A    between atoms: C_13  and  C_10 
REMARK       I    between atoms: C_12  and  N_11 
REMARK       I    between atoms: N_14  and  C_12 
REMARK    3  A    between atoms: C_20  and  N_14 
ROOT
ATOM      1  C   UNL d   1       0.376   0.073   0.926  0.00  0.00     0.174 A 
ATOM      2  N   UNL d   1      -0.125  -1.067   0.375  0.00  0.00    -0.234 N 
ATOM      3  C   UNL d   1      -2.059   0.066   0.661  0.00  0.00     0.106 A 
ATOM      4  N   UNL d   1       1.675   0.081   0.957  0.00  0.00    -0.319 N 
ATOM      5  HN  UNL d   1       2.308   0.793   1.321  1.00  0.00     0.169 HD
ATOM      6  S   UNL d   1      -0.873   1.201   1.321  0.00  0.00    -0.032 SA
ATOM      7  N   UNL d   1       0.893  -1.879   0.029  0.00  0.00    -0.276 N 
ATOM      8  HN  UNL d   1       0.859  -2.812  -0.382  1.00  0.00     0.189 HD
ATOM      9  C   UNL d   1      -1.505  -1.094   0.239  0.00  0.00     0.067 A 
ATOM     10  C   UNL d   1       1.970  -1.138   0.366  0.00  0.00     0.132 A 
ATOM     11  C   UNL d   1      -2.186  -2.282  -0.342  0.00  0.00     0.073 C 
ENDROOT
BRANCH   3  12
ATOM     12  N   UNL d   1      -3.388   0.348   0.510  0.00  0.00    -0.301 N 
ATOM     13  C   UNL d   1      -4.185   1.429   0.751  0.00  0.00     0.325 C 
ATOM     14  N   UNL d   1      -3.649   2.486   1.422  0.00  0.00    -0.309 N 
ATOM     15  O   UNL d   1      -5.337   1.351   0.323  0.00  0.00    -0.247 OA
ATOM     16  H   UNL d   1      -2.695   2.369   1.736  0.00  0.00     0.170 HD
ATOM     17  H   UNL d   1      -3.940  -0.346   0.017  0.00  0.00     0.171 HD
BRANCH  14  18
ATOM     18  C   UNL d   1      -4.238   3.746   1.662  0.00  0.00     0.036 A 
ATOM     19  C   UNL d   1      -5.538   4.083   1.277  0.00  0.00     0.029 A 
ATOM     20  C   UNL d   1      -6.025   5.380   1.468  0.00  0.00     0.002 A 
ATOM     21  C   UNL d   1      -5.219   6.351   2.056  0.00  0.00     0.000 A 
ATOM     22  C   UNL d   1      -3.935   6.017   2.478  0.00  0.00     0.002 A 
ATOM     23  C   UNL d   1      -3.450   4.719   2.288  0.00  0.00     0.029 A 
ENDBRANCH  14  18
ENDBRANCH   3  12
BRANCH  10  24
ATOM     24  C   UNL d   1       3.348  -1.535   0.083  0.00  0.00     0.009 A 
ATOM     25  C   UNL d   1       4.417  -0.809   0.630  0.00  0.00     0.017 A 
ATOM     26  C   UNL d   1       5.739  -1.157   0.338  0.00  0.00     0.025 A 
ATOM     27  C   UNL d   1       6.002  -2.231  -0.509  0.00  0.00     0.034 A 
ATOM     28  C   UNL d   1       4.954  -2.963  -1.061  0.00  0.00     0.025 A 
ATOM     29 CL   UNL d   1       7.629  -2.651  -0.878  0.00  0.00    -0.084 Cl
ATOM     30  C   UNL d   1       3.631  -2.618  -0.765  0.00  0.00     0.017 A 
ENDBRANCH  10  24
TORSDOF 3
