REMARK  6 active torsions:
REMARK  status: ('A' for Active; 'I' for Inactive)
REMARK    1  A    between atoms: C_10  and  C_1 
REMARK    2  A    between atoms: N_13  and  C_3 
REMARK    3  A    between atoms: C_12  and  C_6 
REMARK    4  A    between atoms: C_15  and  C_9 
REMARK    5  A    between atoms: O_16  and  C_10 
REMARK    6  A    between atoms: C_21  and  O_16 
ROOT
ATOM      1  C   UNL d   1       2.382   0.050   0.083  0.00  0.00     0.179 A 
ATOM      2  C   UNL d   1       0.272   0.884   0.082  0.00  0.00     0.056 A 
ATOM      3  C   UNL d   1       1.657   1.224   0.188  0.00  0.00     0.082 A 
ATOM      4  C   UNL d   1       0.256  -0.512   0.052  0.00  0.00     0.162 A 
ATOM      5  O   UNL d   1       1.520  -1.008   0.048  0.00  0.00    -0.284 OA
ATOM      6  C   UNL d   1      -0.980   1.541  -0.002  0.00  0.00    -0.007 A 
ATOM      7  N   UNL d   1      -0.812  -1.325   0.002  0.00  0.00    -0.335 N 
ATOM      8  HN  UNL d   1      -0.731  -2.341   0.012  1.00  0.00     0.168 HD
ATOM      9  C   UNL d   1      -1.998  -0.690  -0.064  0.00  0.00     0.045 A 
ATOM     10  C   UNL d   1      -2.114   0.703  -0.066  0.00  0.00     0.043 A 
ENDROOT
BRANCH   6  11
ATOM     11  C   UNL d   1      -1.117   3.008  -0.070  0.00  0.00    -0.025 A 
ATOM     12  C   UNL d   1      -0.300   3.793  -0.901  0.00  0.00     0.012 A 
ATOM     13  C   UNL d   1      -0.421   5.186  -0.943  0.00  0.00     0.001 A 
ATOM     14  C   UNL d   1      -1.408   5.821  -0.198  0.00  0.00     0.000 A 
ATOM     15  C   UNL d   1      -2.269   5.065   0.591  0.00  0.00     0.001 A 
ATOM     16  C   UNL d   1      -2.118   3.676   0.661  0.00  0.00     0.012 A 
ENDBRANCH   6  11
BRANCH   3  17
ATOM     17  N   UNL d   1       2.199   2.453   0.317  0.00  0.00    -0.396 N 
ATOM     18  H   UNL d   1       1.656   3.244   0.655  0.00  0.00     0.156 HD
ATOM     19  H   UNL d   1       3.205   2.573   0.444  0.00  0.00     0.156 HD
ENDBRANCH   3  17
BRANCH   9  20
ATOM     20  C   UNL d   1      -3.184  -1.572  -0.153  0.00  0.00    -0.009 A 
ATOM     21  C   UNL d   1      -3.217  -2.810   0.516  0.00  0.00     0.013 A 
ATOM     22  C   UNL d   1      -4.334  -3.651   0.441  0.00  0.00     0.001 A 
ATOM     23  C   UNL d   1      -5.442  -3.273  -0.309  0.00  0.00     0.000 A 
ATOM     24  C   UNL d   1      -5.434  -2.060  -0.989  0.00  0.00     0.001 A 
ATOM     25  C   UNL d   1      -4.316  -1.222  -0.914  0.00  0.00     0.013 A 
ENDBRANCH   9  20
BRANCH   1  26
ATOM     26  C   UNL d   1       3.801  -0.176  -0.030  0.00  0.00     0.319 C 
ATOM     27  O   UNL d   1       4.662   0.703  -0.021  0.00  0.00    -0.257 OA
BRANCH  26  28
ATOM     28  O   UNL d   1       4.051  -1.500  -0.242  0.00  0.00    -0.316 OA
BRANCH  28  29
ATOM     29  C   UNL d   1       5.347  -1.820  -0.761  0.00  0.00     0.175 C 
ATOM     30  C   UNL d   1       5.261  -1.837  -2.276  0.00  0.00     0.034 C 
ENDBRANCH  28  29
ENDBRANCH  26  28
ENDBRANCH   1  26
TORSDOF 6
