REMARK  3 active torsions:
REMARK  status: ('A' for Active; 'I' for Inactive)
REMARK    1  A    between atoms: C_10  and  N_1 
REMARK    2  A    between atoms: C_5  and  N_3 
REMARK    3  A    between atoms: C_11  and  C_10 
ROOT
ATOM      1  N   UNL d   1       0.241   2.994   0.546  0.00  0.00    -0.291 N 
ATOM      2  C   UNL d   1       1.560   2.637   0.479  0.00  0.00     0.150 C 
ATOM      3  N   UNL d   1       1.926   1.422   0.252  0.00  0.00    -0.336 N 
ATOM      4  HN  UNL d   1       1.202   0.723   0.083  1.00  0.00     0.168 HD
ATOM      5  C   UNL d   1      -0.046   4.188   1.171  0.00  0.00     0.235 C 
ATOM      6  S   UNL d   1       2.550   4.046   0.766  0.00  0.00    -0.084 SA
ATOM      7  C   UNL d   1       1.206   4.878   1.640  0.00  0.00     0.185 C 
ATOM      8  O   UNL d   1      -1.168   4.621   1.402  0.00  0.00    -0.272 OA
ENDROOT
BRANCH   1   9
ATOM      9  C   UNL d   1      -0.816   2.193  -0.043  0.00  0.00     0.199 C 
BRANCH   9  10
ATOM     10  C   UNL d   1      -1.074   2.705  -1.423  0.00  0.00     0.070 A 
ATOM     11  O   UNL d   1      -2.332   3.169  -1.679  0.00  0.00    -0.325 OA
ATOM     12  C   UNL d   1      -2.337   3.627  -2.957  0.00  0.00     0.142 A 
ATOM     13  C   UNL d   1      -1.103   3.455  -3.536  0.00  0.00     0.027 A 
ATOM     14  C   UNL d   1      -0.285   2.859  -2.547  0.00  0.00     0.036 A 
ENDBRANCH   9  10
ENDBRANCH   1   9
BRANCH   3  15
ATOM     15  C   UNL d   1       3.273   1.010   0.226  0.00  0.00     0.046 A 
ATOM     16  C   UNL d   1       4.120   1.070   1.358  0.00  0.00    -0.034 A 
ATOM     17  C   UNL d   1       5.452   0.623   1.262  0.00  0.00     0.015 A 
ATOM     18  C   UNL d   1       3.683   1.588   2.703  0.00  0.00     0.050 C 
ATOM     19  C   UNL d   1       5.937   0.026   0.098  0.00  0.00    -0.061 A 
ATOM     20  C   UNL d   1       5.079  -0.104  -0.994  0.00  0.00     0.015 A 
ATOM     21  C   UNL d   1       7.347  -0.480   0.044  0.00  0.00     0.048 C 
ATOM     22  C   UNL d   1       3.757   0.376  -0.940  0.00  0.00    -0.034 A 
ATOM     23  C   UNL d   1       2.867   0.080  -2.118  0.00  0.00     0.050 C 
ENDBRANCH   3  15
TORSDOF 3
