REMARK  4 active torsions:
REMARK  status: ('A' for Active; 'I' for Inactive)
REMARK    1  A    between atoms: C_3  and  C_1 
REMARK    2  A    between atoms: C_6  and  C_2 
REMARK       I    between atoms: N_5  and  C_3 
REMARK    3  A    between atoms: C_4  and  N_5 
REMARK    4  A    between atoms: O_15  and  C_6 
ROOT
ATOM      1  C   UNL d   1       1.341   2.668  -1.006  0.00  0.00     0.070 A 
ATOM      2  C   UNL d   1       0.562   3.510  -0.178  0.00  0.00     0.052 A 
ATOM      3  C   UNL d   1       2.751   2.725  -0.975  0.00  0.00    -0.043 A 
ATOM      4  C   UNL d   1       1.213   4.416   0.666  0.00  0.00     0.030 A 
ATOM      5  C   UNL d   1       2.605   4.476   0.709  0.00  0.00     0.003 A 
ATOM      6  C   UNL d   1       3.366   3.637  -0.101  0.00  0.00     0.008 A 
ATOM      7  C   UNL d   1       3.657   1.894  -1.842  0.00  0.00     0.049 C 
ENDROOT
BRANCH   2   8
ATOM      8  N   UNL d   1      -0.854   3.406  -0.167  0.00  0.00    -0.320 N 
ATOM      9  C   UNL d   1      -1.734   4.432   0.137  0.00  0.00     0.282 C 
ATOM     10  O   UNL d   1      -1.392   5.608   0.245  0.00  0.00    -0.265 OA
ATOM     11  H   UNL d   1      -1.271   2.541  -0.507  0.00  0.00     0.169 HD
BRANCH   9  12
ATOM     12  C   UNL d   1      -3.114   4.034   0.230  0.00  0.00     0.167 A 
ATOM     13  O   UNL d   1      -3.430   2.715   0.372  0.00  0.00    -0.233 OA
ATOM     14  N   UNL d   1      -4.804   2.579   0.489  0.00  0.00    -0.272 N 
ATOM     15  C   UNL d   1      -5.293   3.818   0.405  0.00  0.00     0.117 A 
ATOM     16  HN  UNL d   1      -5.331   1.714   0.614  1.00  0.00     0.194 HD
ATOM     17  C   UNL d   1      -4.278   4.772   0.235  0.00  0.00     0.064 A 
ENDBRANCH   9  12
ENDBRANCH   2   8
BRANCH   1  18
ATOM     18  C   UNL d   1       0.655   1.773  -1.970  0.00  0.00     0.179 C 
ATOM     19  O   UNL d   1       0.835   0.572  -2.034  0.00  0.00    -0.646 OA
BRANCH  18  20
ATOM     20  O   UNL d   1      -0.216   2.446  -2.754  0.00  0.00    -0.773 OA
ATOM     21  H   UNL d   1      -0.198   3.417  -2.635  0.00  0.00     0.167 HD
ENDBRANCH  18  20
ENDBRANCH   1  18
TORSDOF 4
