REMARK  4 active torsions:
REMARK  status: ('A' for Active; 'I' for Inactive)
REMARK    1  A    between atoms: C_2  and  S_1 
REMARK    2  A    between atoms: N_7  and  S_1 
REMARK       I    between atoms: C_3  and  N_6 
REMARK       I    between atoms: N_10  and  C_3 
REMARK    3  A    between atoms: N_6  and  C_4 
REMARK    4  A    between atoms: C_15  and  N_10 
ROOT
ATOM      1  C   UNL d   1       0.538  -1.468  -0.489  0.00  0.00     0.081 C 
ATOM      2  C   UNL d   1      -1.131  -3.046  -1.312  0.00  0.00     0.043 C 
ATOM      3  C   UNL d   1      -0.791  -1.796  -0.777  0.00  0.00     0.055 C 
ATOM      4  C   UNL d   1      -0.090  -3.928  -1.675  0.00  0.00    -0.035 C 
ATOM      5  C   UNL d   1       1.556  -2.384  -0.734  0.00  0.00     0.026 C 
ATOM      6  C   UNL d   1       1.242  -3.598  -1.344  0.00  0.00     0.010 C 
ATOM      7  C   UNL d   1      -0.305  -5.159  -2.515  0.00  0.00     0.050 C 
ENDROOT
BRANCH   2   8
ATOM      8  N   UNL d   1      -2.487  -3.433  -1.490  0.00  0.00    -0.308 N 
ATOM      9  C   UNL d   1      -3.584  -2.843  -0.874  0.00  0.00     0.325 C 
ATOM     10  N   UNL d   1      -4.765  -3.515  -1.172  0.00  0.00    -0.309 N 
ATOM     11  O   UNL d   1      -3.520  -1.874  -0.130  0.00  0.00    -0.247 OA
ATOM     12  H   UNL d   1      -4.682  -4.435  -1.570  0.00  0.00     0.170 HD
ATOM     13  H   UNL d   1      -2.654  -4.315  -1.945  0.00  0.00     0.170 HD
BRANCH  10  14
ATOM     14  C   UNL d   1      -6.059  -3.137  -0.739  0.00  0.00     0.036 A 
ATOM     15  C   UNL d   1      -6.369  -1.869  -0.237  0.00  0.00     0.029 A 
ATOM     16  C   UNL d   1      -7.663  -1.562   0.191  0.00  0.00     0.002 A 
ATOM     17  C   UNL d   1      -8.669  -2.520   0.117  0.00  0.00     0.000 A 
ATOM     18  C   UNL d   1      -8.380  -3.782  -0.399  0.00  0.00     0.002 A 
ATOM     19  C   UNL d   1      -7.086  -4.087  -0.832  0.00  0.00     0.029 A 
ENDBRANCH  10  14
ENDBRANCH   2   8
BRANCH   1  20
ATOM     20  S   UNL d   1       0.938   0.198   0.005  0.00  0.00     0.260 S 
ATOM     21  O   UNL d   1       0.039   1.082  -0.706  0.00  0.00    -0.200 OA
ATOM     22  O   UNL d   1       2.374   0.346  -0.127  0.00  0.00    -0.200 OA
BRANCH  20  23
ATOM     23  N   UNL d   1       0.561   0.254   1.658  0.00  0.00    -0.315 N 
ATOM     24  C   UNL d   1      -0.863   0.232   2.032  0.00  0.00     0.162 C 
ATOM     25  C   UNL d   1       1.423  -0.511   2.569  0.00  0.00     0.162 C 
ENDBRANCH  20  23
ENDBRANCH   1  20
TORSDOF 4
