REMARK  7 active torsions:
REMARK  status: ('A' for Active; 'I' for Inactive)
REMARK    1  A    between atoms: N_11  and  C_3 
REMARK    2  A    between atoms: C_6  and  C_4 
REMARK    3  A    between atoms: C_8  and  C_6 
REMARK    4  A    between atoms: O_16  and  C_8 
REMARK    5  A    between atoms: N_9  and  N_11 
REMARK    6  A    between atoms: C_14  and  C_13 
REMARK    7  A    between atoms: C_22  and  O_16 
ROOT
ATOM      1  N   UNL d   1       1.457  -0.713  -0.009  0.00  0.00    -0.338 N 
ATOM      2  HN  UNL d   1       2.351  -1.198  -0.090  1.00  0.00     0.168 HD
ATOM      3  C   UNL d   1       0.288  -1.314   0.068  0.00  0.00     0.163 A 
ATOM      4  C   UNL d   1       1.317   0.660   0.035  0.00  0.00     0.027 A 
ATOM      5  S   UNL d   1      -1.056  -0.242   0.189  0.00  0.00    -0.062 SA
ATOM      6  C   UNL d   1       0.006   1.096   0.081  0.00  0.00     0.078 A 
ENDROOT
BRANCH   3   7
ATOM      7  N   UNL d   1       0.099  -2.658   0.039  0.00  0.00    -0.280 N 
ATOM      8  H   UNL d   1      -0.866  -2.981   0.089  0.00  0.00     0.189 HD
BRANCH   7   9
ATOM      9  N   UNL d   1       1.046  -3.469  -0.498  0.00  0.00    -0.309 N 
ATOM     10  C   UNL d   1       0.806  -4.736  -0.494  0.00  0.00     0.118 C 
ATOM     11  HN  UNL d   1       1.911  -3.093  -0.887  1.00  0.00     0.186 HD
BRANCH  10  12
ATOM     12  C   UNL d   1       1.773  -5.666  -1.112  0.00  0.00    -0.019 A 
ATOM     13  C   UNL d   1       2.895  -5.165  -1.784  0.00  0.00     0.014 A 
ATOM     14  C   UNL d   1       3.799  -6.043  -2.382  0.00  0.00     0.024 A 
ATOM     15  C   UNL d   1       3.577  -7.417  -2.303  0.00  0.00     0.034 A 
ATOM     16  C   UNL d   1       2.459  -7.918  -1.633  0.00  0.00     0.024 A 
ATOM     17 CL   UNL d   1       4.691  -8.502  -3.040  0.00  0.00    -0.084 Cl
ATOM     18  C   UNL d   1       1.551  -7.042  -1.034  0.00  0.00     0.014 A 
ENDBRANCH  10  12
ENDBRANCH   7   9
ENDBRANCH   3   7
BRANCH   4  19
ATOM     19  C   UNL d   1       2.558   1.485  -0.019  0.00  0.00     0.168 C 
BRANCH  19  20
ATOM     20  C   UNL d   1       2.628   2.512   1.084  0.00  0.00     0.264 C 
ATOM     21  O   UNL d   1       1.770   2.736   1.927  0.00  0.00    -0.265 OA
BRANCH  20  22
ATOM     22  O   UNL d   1       3.772   3.247   0.931  0.00  0.00    -0.322 OA
BRANCH  22  23
ATOM     23  C   UNL d   1       3.801   4.478   1.666  0.00  0.00     0.174 C 
ATOM     24  C   UNL d   1       3.121   5.546   0.827  0.00  0.00     0.034 C 
ENDBRANCH  22  23
ENDBRANCH  20  22
ENDBRANCH  19  20
ENDBRANCH   4  19
TORSDOF 7
