REMARK  7 active torsions:
REMARK  status: ('A' for Active; 'I' for Inactive)
REMARK    1  A    between atoms: C_4  and  S_1 
REMARK    2  A    between atoms: N_9  and  S_1 
REMARK       I    between atoms: C_2  and  N_3 
REMARK    3  A    between atoms: O_5  and  C_2 
REMARK    4  A    between atoms: C_13  and  O_5 
REMARK    5  A    between atoms: N_6  and  C_22 
REMARK    6  A    between atoms: C_16  and  N_9 
REMARK    7  A    between atoms: C_22  and  C_16 
ROOT
ATOM      1  C   UNL d   1       4.802  -0.868   0.824  0.00  0.00     0.292 C 
ENDROOT
BRANCH   1   2
ATOM      2  N   UNL d   1       5.535  -2.005   1.439  0.00  0.00     0.093 N 
ATOM      3  C   UNL d   1       4.994  -3.332   1.049  0.00  0.00     0.292 C 
ATOM      4  C   UNL d   1       5.163  -3.627  -0.461  0.00  0.00     0.158 C 
ATOM      5  N   UNL d   1       6.600  -3.587  -0.835  0.00  0.00    -0.325 N 
ATOM      6  C   UNL d   1       7.230  -4.594  -1.586  0.00  0.00     0.363 C 
ATOM      7  C   UNL d   1       7.274  -2.365  -0.421  0.00  0.00     0.158 C 
ATOM      8  O   UNL d   1       6.666  -5.593  -1.948  0.00  0.00    -0.238 OA
ATOM      9  C   UNL d   1       6.974  -2.003   1.056  0.00  0.00     0.292 C 
BRANCH   6  10
ATOM     10  O   UNL d   1       8.559  -4.325  -1.867  0.00  0.00    -0.294 OA
BRANCH  10  11
ATOM     11  C   UNL d   1       9.421  -5.226  -2.661  0.00  0.00     0.061 C 
ATOM     12  C   UNL d   1       8.873  -5.369  -4.100  0.00  0.00     0.046 C 
ATOM     13  C   UNL d   1      10.868  -4.654  -2.537  0.00  0.00     0.046 C 
ATOM     14  C   UNL d   1       9.514  -6.647  -2.088  0.00  0.00     0.046 C 
ENDBRANCH  10  11
ENDBRANCH   6  10
ENDBRANCH   1   2
BRANCH   1  15
ATOM     15  C   UNL d   1       3.300  -0.833   1.186  0.00  0.00     0.162 C 
BRANCH  15  16
ATOM     16  N   UNL d   1       2.598   0.339   0.641  0.00  0.00    -0.314 N 
ATOM     17  H   UNL d   1       3.056   1.250   0.647  0.00  0.00     0.172 HD
BRANCH  16  18
ATOM     18  S   UNL d   1       0.933   0.454   0.916  0.00  0.00     0.258 S 
ATOM     19  O   UNL d   1       0.541   1.782   0.527  0.00  0.00    -0.201 OA
ATOM     20  O   UNL d   1       0.300  -0.729   0.354  0.00  0.00    -0.201 OA
BRANCH  18  21
ATOM     21  C   UNL d   1       0.792   0.348   2.696  0.00  0.00     0.079 A 
ATOM     22  C   UNL d   1       0.891   1.512   3.470  0.00  0.00     0.027 A 
ATOM     23  C   UNL d   1       0.827   1.421   4.865  0.00  0.00     0.025 A 
ATOM     24  C   UNL d   1       0.596   0.187   5.472  0.00  0.00     0.034 A 
ATOM     25  C   UNL d   1       0.425  -0.960   4.697  0.00  0.00     0.025 A 
ATOM     26 CL   UNL d   1       0.496   0.087   7.187  0.00  0.00    -0.084 Cl
ATOM     27  C   UNL d   1       0.533  -0.885   3.305  0.00  0.00     0.027 A 
ENDBRANCH  18  21
ENDBRANCH  16  18
ENDBRANCH  15  16
ENDBRANCH   1  15
TORSDOF 7
