REMARK  3 active torsions:
REMARK  status: ('A' for Active; 'I' for Inactive)
REMARK    1  A    between atoms: N_9  and  C_3 
REMARK       I    between atoms: C_4  and  N_8 
REMARK       I    between atoms: N_14  and  C_4 
REMARK    2  A    between atoms: C_10  and  C_5 
REMARK    3  A    between atoms: N_8  and  N_9 
ROOT
ATOM      1  N   UNL d   1       1.148   0.626  -0.090  0.00  0.00    -0.331 N 
ATOM      2  HN  UNL d   1       2.066   1.069  -0.132  1.00  0.00     0.168 HD
ATOM      3  C   UNL d   1       0.026   1.363  -0.108  0.00  0.00     0.176 A 
ATOM      4  C   UNL d   1       1.030  -0.720  -0.015  0.00  0.00     0.047 A 
ATOM      5  N   UNL d   1      -1.213   0.841  -0.054  0.00  0.00    -0.341 N 
ATOM      6  HN  UNL d   1      -2.044   1.432  -0.061  1.00  0.00     0.167 HD
ATOM      7  C   UNL d   1      -0.209  -1.329   0.029  0.00  0.00     0.047 A 
ATOM      8  C   UNL d   1      -1.300  -0.497   0.009  0.00  0.00     0.093 A 
ENDROOT
BRANCH   3   9
ATOM      9  N   UNL d   1       0.182   2.751  -0.241  0.00  0.00    -0.171 NA
ATOM     10  H   UNL d   1       1.135   2.991   0.038  0.00  0.00     0.156 HD
BRANCH   9  11
ATOM     11  N   UNL d   1      -0.798   3.498   0.451  0.00  0.00    -0.266 N 
ATOM     12  C   UNL d   1      -0.402   4.744   0.896  0.00  0.00     0.330 C 
ATOM     13  O   UNL d   1       0.767   5.118   0.890  0.00  0.00    -0.246 OA
ATOM     14  N   UNL d   1      -1.452   5.491   1.365  0.00  0.00    -0.346 N 
ATOM     15  C   UNL d   1      -1.259   6.796   1.950  0.00  0.00     0.151 C 
ATOM     16  H   UNL d   1      -2.333   5.025   1.513  0.00  0.00     0.163 HD
ATOM     17  H   UNL d   1      -1.738   3.361   0.097  0.00  0.00     0.186 HD
ENDBRANCH   9  11
ENDBRANCH   3   9
BRANCH   4  18
ATOM     18  C   UNL d   1       2.295  -1.483  -0.024  0.00  0.00     0.006 A 
ATOM     19  C   UNL d   1       2.421  -2.745   0.562  0.00  0.00     0.101 A 
ATOM     20  N   UNL d   1       3.540  -3.513   0.544  0.00  0.00    -0.374 N 
ATOM     21  C   UNL d   1       4.617  -2.996  -0.078  0.00  0.00     0.087 A 
ATOM     22  HN  UNL d   1       3.565  -4.435   0.981  1.00  0.00     0.164 HD
ATOM     23  C   UNL d   1       4.627  -1.748  -0.673  0.00  0.00     0.018 A 
ATOM     24  C   UNL d   1       3.456  -0.989  -0.639  0.00  0.00     0.016 A 
ENDBRANCH   4  18
TORSDOF 3
