REMARK  5 active torsions:
REMARK  status: ('A' for Active; 'I' for Inactive)
REMARK    1  A    between atoms: S_8  and  C_2 
REMARK    2  A    between atoms: S_10  and  C_3 
REMARK    3  A    between atoms: C_12  and  S_8 
REMARK    4  A    between atoms: C_9  and  C_12 
REMARK    5  A    between atoms: O_13  and  C_9 
ROOT
ATOM      1  S   UNL d   1       0.699  -1.006  -0.668  0.00  0.00    -0.038 SA
ATOM      2  C   UNL d   1      -0.451   0.097  -0.051  0.00  0.00     0.129 A 
ATOM      3  C   UNL d   1       1.899   0.141  -0.247  0.00  0.00     0.126 A 
ATOM      4  N   UNL d   1       0.060   1.204   0.449  0.00  0.00    -0.287 N 
ATOM      5  HN  UNL d   1      -0.492   1.947   0.877  1.00  0.00     0.188 HD
ATOM      6  N   UNL d   1       1.435   1.235   0.321  0.00  0.00    -0.287 N 
ATOM      7  HN  UNL d   1       2.020   2.012   0.630  1.00  0.00     0.188 HD
ENDROOT
BRANCH   2   8
ATOM      8  S   UNL d   1      -2.173  -0.176  -0.102  0.00  0.00    -0.093 SA
BRANCH   8   9
ATOM      9  C   UNL d   1      -2.787   1.526   0.010  0.00  0.00     0.191 C 
BRANCH   9  10
ATOM     10  C   UNL d   1      -2.412   2.328  -1.215  0.00  0.00     0.149 C 
ATOM     11  O   UNL d   1      -3.086   2.364  -2.235  0.00  0.00    -0.649 OA
BRANCH  10  12
ATOM     12  O   UNL d   1      -1.245   3.005  -1.109  0.00  0.00    -0.776 OA
ATOM     13  H   UNL d   1      -0.715   2.797  -0.306  0.00  0.00     0.167 HD
ENDBRANCH  10  12
ENDBRANCH   9  10
ENDBRANCH   8   9
ENDBRANCH   2   8
BRANCH   3  14
ATOM     14  S   UNL d   1       3.598  -0.099  -0.549  0.00  0.00    -0.117 SA
ATOM     15  H   UNL d   1       3.491  -1.275  -1.183  0.00  0.00     0.109 HD
ENDBRANCH   3  14
TORSDOF 5
