REMARK  4 active torsions:
REMARK  status: ('A' for Active; 'I' for Inactive)
REMARK       I    between atoms: N_2  and  C_1 
REMARK       I    between atoms: N_4  and  C_1 
REMARK    1  A    between atoms: C_3  and  C_6 
REMARK    2  A    between atoms: C_13  and  N_4 
REMARK    3  A    between atoms: C_19  and  N_5 
REMARK    4  A    between atoms: C_18  and  C_19 
ROOT
ATOM      1  C   UNL d   1       1.129  -0.048   0.005  0.00  0.00     0.323 C 
ATOM      2  N   UNL d   1       0.556  -0.515  -1.174  0.00  0.00    -0.331 N 
ATOM      3  N   UNL d   1       0.802   1.252   0.324  0.00  0.00    -0.309 N 
ATOM      4  N   UNL d   1      -0.426  -1.641  -3.715  0.00  0.00     0.095 N 
ATOM      5  O   UNL d   1       1.876  -0.757   0.667  0.00  0.00    -0.247 OA
ATOM      6  C   UNL d   1       0.879  -1.898  -1.547  0.00  0.00     0.158 C 
ATOM      7  C   UNL d   1      -0.658   0.016  -1.799  0.00  0.00     0.158 C 
ATOM      8  C   UNL d   1      -0.674  -0.240  -3.319  0.00  0.00     0.292 C 
ATOM      9  C   UNL d   1       0.825  -2.108  -3.070  0.00  0.00     0.292 C 
ATOM     10  H   UNL d   1       0.486   1.826  -0.439  0.00  0.00     0.170 HD
ENDROOT
BRANCH   3  11
ATOM     11  C   UNL d   1       1.119   1.942   1.512  0.00  0.00     0.037 A 
ATOM     12  C   UNL d   1       1.643   1.325   2.648  0.00  0.00     0.045 A 
ATOM     13  C   UNL d   1       1.930   2.065   3.807  0.00  0.00     0.050 A 
ATOM     14  C   UNL d   1       1.677   3.444   3.815  0.00  0.00     0.016 A 
ATOM     15  C   UNL d   1       1.141   4.067   2.688  0.00  0.00     0.003 A 
ATOM     16  C   UNL d   1       0.860   3.318   1.544  0.00  0.00     0.029 A 
BRANCH  13  17
ATOM     17  C   UNL d   1       2.487   1.391   5.035  0.00  0.00     0.417 C 
ATOM     18  F   UNL d   1       2.679   0.050   4.896  0.00  0.00    -0.166 F 
ATOM     19  F   UNL d   1       3.693   1.903   5.409  0.00  0.00    -0.166 F 
ATOM     20  F   UNL d   1       1.671   1.537   6.117  0.00  0.00    -0.166 F 
ENDBRANCH  13  17
ENDBRANCH   3  11
BRANCH   4  21
ATOM     21  C   UNL d   1      -1.535  -2.528  -3.346  0.00  0.00     0.311 C 
BRANCH  21  22
ATOM     22  C   UNL d   1      -2.792  -2.399  -4.178  0.00  0.00    -0.027 A 
ATOM     23  C   UNL d   1      -3.984  -2.882  -3.612  0.00  0.00     0.048 A 
ATOM     24  C   UNL d   1      -5.019  -3.170  -4.466  0.00  0.00     0.105 A 
ATOM     25  O   UNL d   1      -6.139  -3.871  -4.133  0.00  0.00    -0.323 OA
ATOM     26  C   UNL d   1      -4.948  -2.909  -5.816  0.00  0.00     0.105 A 
ATOM     27  C   UNL d   1      -6.542  -4.292  -5.452  0.00  0.00     0.352 C 
ATOM     28  O   UNL d   1      -6.012  -3.435  -6.486  0.00  0.00    -0.323 OA
ATOM     29  C   UNL d   1      -3.854  -2.297  -6.384  0.00  0.00     0.040 A 
ATOM     30  C   UNL d   1      -2.752  -2.066  -5.555  0.00  0.00     0.012 A 
ENDBRANCH  21  22
ENDBRANCH   4  21
TORSDOF 4
