REMARK  7 active torsions:
REMARK  status: ('A' for Active; 'I' for Inactive)
REMARK    1  A    between atoms: C_3  and  C_9 
REMARK    2  A    between atoms: C_4  and  C_11 
REMARK    3  A    between atoms: C_5  and  C_10 
REMARK    4  A    between atoms: O_12  and  C_5 
REMARK    5  A    between atoms: N_6  and  O_12 
REMARK    6  A    between atoms: C_13  and  C_8 
REMARK    7  A    between atoms: N_22  and  C_8 
ROOT
ATOM      1  N   UNL d   1      -3.423  -1.312   0.231  0.00  0.00    -0.246 N 
ATOM      2  HN  UNL d   1      -2.902  -2.159   0.459  1.00  0.00     0.196 HD
ATOM      3  C   UNL d   1      -4.698  -1.302   0.007  0.00  0.00     0.109 C 
ENDROOT
BRANCH   1   4
ATOM      4  O   UNL d   1      -2.818  -0.034   0.128  0.00  0.00    -0.192 OA
BRANCH   4   5
ATOM      5  C   UNL d   1      -1.472  -0.190   0.337  0.00  0.00     0.331 C 
ATOM      6  O   UNL d   1      -0.888  -1.235   0.610  0.00  0.00    -0.256 OA
BRANCH   5   7
ATOM      7  C   UNL d   1      -0.718   1.092   0.206  0.00  0.00     0.110 A 
ATOM      8  N   UNL d   1      -1.377   2.242  -0.109  0.00  0.00    -0.347 N 
ATOM      9  C   UNL d   1      -0.625   3.385  -0.222  0.00  0.00     0.117 A 
ATOM     10  HN  UNL d   1      -2.387   2.254  -0.255  1.00  0.00     0.166 HD
ATOM     11  C   UNL d   1       0.760   3.393  -0.016  0.00  0.00     0.034 A 
ATOM     12  C   UNL d   1       1.407   2.208   0.307  0.00  0.00     0.005 A 
ATOM     13  C   UNL d   1       0.661   1.042   0.418  0.00  0.00     0.036 A 
BRANCH   9  14
ATOM     14  C   UNL d   1      -1.286   4.713  -0.584  0.00  0.00     0.432 C 
ATOM     15  F   UNL d   1      -2.630   4.639  -0.786  0.00  0.00    -0.165 F 
ATOM     16  F   UNL d   1      -1.104   5.661   0.382  0.00  0.00    -0.165 F 
ATOM     17  F   UNL d   1      -0.764   5.255  -1.724  0.00  0.00    -0.165 F 
ENDBRANCH   9  14
ENDBRANCH   5   7
ENDBRANCH   4   5
ENDBRANCH   1   4
BRANCH   3  18
ATOM     18  C   UNL d   1      -5.406  -2.626   0.056  0.00  0.00     0.004 A 
ATOM     19  C   UNL d   1      -4.900  -3.663   0.855  0.00  0.00     0.030 A 
ATOM     20  C   UNL d   1      -5.532  -4.918   0.887  0.00  0.00     0.048 A 
ATOM     21  C   UNL d   1      -6.676  -5.121   0.099  0.00  0.00     0.016 A 
ATOM     22  C   UNL d   1      -7.178  -4.095  -0.703  0.00  0.00     0.002 A 
ATOM     23  C   UNL d   1      -6.547  -2.848  -0.723  0.00  0.00     0.015 A 
BRANCH  20  24
ATOM     24  C   UNL d   1      -5.006  -6.042   1.747  0.00  0.00     0.417 C 
ATOM     25  F   UNL d   1      -3.903  -5.713   2.474  0.00  0.00    -0.166 F 
ATOM     26  F   UNL d   1      -5.929  -6.477   2.650  0.00  0.00    -0.166 F 
ATOM     27  F   UNL d   1      -4.659  -7.138   1.015  0.00  0.00    -0.166 F 
ENDBRANCH  20  24
ENDBRANCH   3  18
BRANCH   3  28
ATOM     28  N   UNL d   1      -5.427  -0.168  -0.260  0.00  0.00    -0.286 NA
ATOM     29  H   UNL d   1      -4.913   0.680  -0.036  0.00  0.00     0.125 HD
ATOM     30  H   UNL d   1      -6.370  -0.156   0.113  0.00  0.00     0.125 HD
ENDBRANCH   3  28
TORSDOF 7
