REMARK  6 active torsions:
REMARK  status: ('A' for Active; 'I' for Inactive)
REMARK    1  A    between atoms: C_16  and  C_1 
REMARK    2  A    between atoms: C_17  and  C_2 
REMARK    3  A    between atoms: N_8  and  C_3 
REMARK    4  A    between atoms: C_4  and  C_12 
REMARK    5  A    between atoms: C_18  and  C_5 
REMARK    6  A    between atoms: O_20  and  C_11 
ROOT
ATOM      1  C   UNL d   1       1.395  -0.303   0.161  0.00  0.00    -0.047 A 
ATOM      2  C   UNL d   1       0.539  -1.414  -0.015  0.00  0.00    -0.046 A 
ATOM      3  C   UNL d   1      -1.414   0.125  -0.103  0.00  0.00     0.039 A 
ATOM      4  C   UNL d   1      -0.581   1.223   0.120  0.00  0.00    -0.028 A 
ATOM      5  C   UNL d   1       0.799   0.986   0.248  0.00  0.00     0.017 A 
ATOM      6  C   UNL d   1      -0.850  -1.158  -0.146  0.00  0.00     0.038 A 
ENDROOT
BRANCH   3   7
ATOM      7  N   UNL d   1      -2.773   0.312  -0.401  0.00  0.00    -0.365 N 
ATOM      8  C   UNL d   1      -3.682  -0.301   0.290  0.00  0.00     0.102 C 
ATOM      9  HN  UNL d   1      -3.045   0.933  -1.163  1.00  0.00     0.165 HD
BRANCH   8  10
ATOM     10  C   UNL d   1      -5.109  -0.123  -0.059  0.00  0.00     0.016 A 
ATOM     11  C   UNL d   1      -6.123  -0.615   0.764  0.00  0.00     0.099 A 
ATOM     12  C   UNL d   1      -7.462  -0.404   0.410  0.00  0.00     0.069 A 
ATOM     13 CL   UNL d   1      -8.733  -0.983   1.426  0.00  0.00    -0.081 Cl
ATOM     14  C   UNL d   1      -7.792   0.281  -0.760  0.00  0.00     0.050 A 
ATOM     15  C   UNL d   1      -6.774   0.755  -1.581  0.00  0.00     0.036 A 
ATOM     16  C   UNL d   1      -5.438   0.560  -1.239  0.00  0.00     0.039 A 
ATOM     17 CL   UNL d   1      -7.168   1.592  -3.032  0.00  0.00    -0.084 Cl
BRANCH  11  18
ATOM     18  O   UNL d   1      -5.803  -1.290   1.913  0.00  0.00    -0.358 OA
ATOM     19  H   UNL d   1      -6.638  -1.536   2.357  0.00  0.00     0.217 HD
ENDBRANCH  11  18
ENDBRANCH   8  10
ENDBRANCH   3   7
BRANCH   4  20
ATOM     20  C   UNL d   1      -1.146   2.628   0.273  0.00  0.00     0.013 C 
ATOM     21  C   UNL d   1      -1.242   2.987   1.760  0.00  0.00     0.015 C 
ATOM     22  C   UNL d   1      -0.351   3.700  -0.484  0.00  0.00     0.015 C 
ENDBRANCH   4  20
BRANCH   2  23
ATOM     23  C   UNL d   1       0.987  -2.874  -0.025  0.00  0.00     0.011 C 
ATOM     24  C   UNL d   1       1.061  -3.423   1.402  0.00  0.00     0.015 C 
ATOM     25  C   UNL d   1       0.127  -3.819  -0.886  0.00  0.00     0.015 C 
ENDBRANCH   2  23
BRANCH   1  26
ATOM     26  C   UNL d   1       2.921  -0.276   0.306  0.00  0.00     0.011 C 
ATOM     27  C   UNL d   1       3.329  -0.193   1.781  0.00  0.00     0.015 C 
ATOM     28  C   UNL d   1       3.768  -1.314  -0.426  0.00  0.00     0.015 C 
ENDBRANCH   1  26
TORSDOF 6
