REMARK  8 active torsions:
REMARK  status: ('A' for Active; 'I' for Inactive)
REMARK    1  A    between atoms: S_8  and  C_2 
REMARK    2  A    between atoms: S_9  and  C_3 
REMARK    3  A    between atoms: C_13  and  S_8 
REMARK    4  A    between atoms: C_12  and  S_9 
REMARK    5  A    between atoms: C_10  and  C_13 
REMARK    6  A    between atoms: C_17  and  C_10 
REMARK    7  A    between atoms: C_11  and  C_12 
REMARK    8  A    between atoms: C_16  and  C_11 
ROOT
ATOM      1  S   UNL d   1       1.201  -0.016  -0.036  0.00  0.00    -0.038 SA
ATOM      2  C   UNL d   1      -0.030   1.171   0.022  0.00  0.00     0.129 A 
ATOM      3  C   UNL d   1      -0.047  -1.189  -0.012  0.00  0.00     0.129 A 
ATOM      4  N   UNL d   1      -1.255   0.689   0.060  0.00  0.00    -0.287 N 
ATOM      5  HN  UNL d   1      -2.095   1.266   0.096  1.00  0.00     0.188 HD
ATOM      6  N   UNL d   1      -1.265  -0.693   0.046  0.00  0.00    -0.287 N 
ATOM      7  HN  UNL d   1      -2.113  -1.260   0.078  1.00  0.00     0.188 HD
ENDROOT
BRANCH   2   8
ATOM      8  S   UNL d   1       0.299   2.890   0.019  0.00  0.00    -0.096 SA
BRANCH   8   9
ATOM      9  C   UNL d   1      -1.182   3.497   0.884  0.00  0.00     0.165 C 
BRANCH   9  10
ATOM     10  C   UNL d   1      -1.239   3.000   2.320  0.00  0.00     0.169 C 
ATOM     11  O   UNL d   1      -0.225   2.758   2.976  0.00  0.00    -0.291 OA
BRANCH  10  12
ATOM     12  C   UNL d   1      -2.571   2.847   2.987  0.00  0.00     0.010 A 
ATOM     13  C   UNL d   1      -3.775   3.240   2.390  0.00  0.00     0.015 A 
ATOM     14  C   UNL d   1      -4.988   3.052   3.063  0.00  0.00     0.001 A 
ATOM     15  C   UNL d   1      -5.005   2.485   4.337  0.00  0.00     0.000 A 
ATOM     16  C   UNL d   1      -3.811   2.108   4.945  0.00  0.00     0.001 A 
ATOM     17  C   UNL d   1      -2.600   2.288   4.274  0.00  0.00     0.015 A 
ENDBRANCH  10  12
ENDBRANCH   9  10
ENDBRANCH   8   9
ENDBRANCH   2   8
BRANCH   3  18
ATOM     18  S   UNL d   1       0.266  -2.911  -0.029  0.00  0.00    -0.096 SA
BRANCH  18  19
ATOM     19  C   UNL d   1      -1.201  -3.508  -0.923  0.00  0.00     0.165 C 
BRANCH  19  20
ATOM     20  C   UNL d   1      -1.256  -3.011  -2.360  0.00  0.00     0.169 C 
ATOM     21  O   UNL d   1      -0.390  -2.296  -2.866  0.00  0.00    -0.291 OA
BRANCH  20  22
ATOM     22  C   UNL d   1      -2.414  -3.429  -3.212  0.00  0.00     0.010 A 
ATOM     23  C   UNL d   1      -3.380  -4.351  -2.784  0.00  0.00     0.015 A 
ATOM     24  C   UNL d   1      -4.428  -4.715  -3.638  0.00  0.00     0.001 A 
ATOM     25  C   UNL d   1      -4.520  -4.163  -4.915  0.00  0.00     0.000 A 
ATOM     26  C   UNL d   1      -3.566  -3.245  -5.346  0.00  0.00     0.001 A 
ATOM     27  C   UNL d   1      -2.518  -2.881  -4.500  0.00  0.00     0.015 A 
ENDBRANCH  20  22
ENDBRANCH  19  20
ENDBRANCH  18  19
ENDBRANCH   3  18
TORSDOF 8
