REMARK  3 active torsions:
REMARK  status: ('A' for Active; 'I' for Inactive)
REMARK    1  A    between atoms: C_2  and  N_1 
REMARK    2  A    between atoms: C_7  and  O_9 
REMARK    3  A    between atoms: O_9  and  C_13 
ROOT
ATOM      1  C   UNL d   1      -4.743   2.473  -0.219  0.00  0.00     0.103 A 
ATOM      2  C   UNL d   1      -4.925   3.714   0.404  0.00  0.00     0.039 A 
ATOM      3  C   UNL d   1      -3.778   1.571   0.251  0.00  0.00     0.039 A 
ATOM      4  C   UNL d   1      -3.146   3.169   1.960  0.00  0.00     0.076 A 
ATOM      5  C   UNL d   1      -2.984   1.924   1.343  0.00  0.00     0.040 A 
ATOM      6  C   UNL d   1      -4.141   4.046   1.511  0.00  0.00     0.040 A 
ENDROOT
BRANCH   4   7
ATOM      7  O   UNL d   1      -2.327   3.422   3.039  0.00  0.00    -0.311 OA
BRANCH   7   8
ATOM      8  C   UNL d   1      -1.895   4.708   3.279  0.00  0.00     0.076 A 
ATOM      9  C   UNL d   1      -1.616   5.637   2.274  0.00  0.00     0.044 A 
ATOM     10  C   UNL d   1      -1.207   6.941   2.590  0.00  0.00    -0.053 A 
ATOM     11  C   UNL d   1      -0.947   7.911   1.470  0.00  0.00     0.049 C 
ATOM     12  C   UNL d   1      -1.032   7.301   3.940  0.00  0.00    -0.056 A 
ATOM     13  C   UNL d   1      -1.249   6.339   4.940  0.00  0.00     0.010 A 
ATOM     14  C   UNL d   1      -0.624   8.695   4.330  0.00  0.00     0.049 C 
ATOM     15  C   UNL d   1      -1.672   5.050   4.610  0.00  0.00     0.038 A 
ENDBRANCH   7   8
ENDBRANCH   4   7
BRANCH   1  16
ATOM     16  N   UNL d   1      -5.585   2.112  -1.369  0.00  0.00    -0.116 N 
ATOM     17  O   UNL d   1      -6.424   2.942  -1.751  0.00  0.00    -0.532 OA
ATOM     18  O   UNL d   1      -5.406   1.002  -1.886  0.00  0.00    -0.532 OA
ENDBRANCH   1  16
TORSDOF 3
