REMARK  0 active torsions:
REMARK  status: ('A' for Active; 'I' for Inactive)
ROOT
ATOM      1  C   UNL d   1       0.289  -0.751   0.004  0.00  0.00     0.068 A 
ATOM      2  C   UNL d   1       0.265   0.750   0.002  0.00  0.00     0.067 A 
ATOM      3  C   UNL d   1      -0.910  -1.496   0.004  0.00  0.00     0.056 A 
ATOM      4  S   UNL d   1       2.569   0.039   0.004  0.00  0.00     0.068 SA
ATOM      5  C   UNL d   1      -2.107  -0.751   0.003  0.00  0.00     0.042 A 
ATOM      6  C   UNL d   1      -0.962   1.453   0.001  0.00  0.00     0.040 A 
ATOM      7  N   UNL d   1       1.531  -1.259   0.005  0.00  0.00    -0.310 N 
ATOM      8  HN  UNL d   1       1.787  -2.247   0.007  1.00  0.00     0.176 HD
ATOM      9  N   UNL d   1       1.488   1.301   0.001  0.00  0.00    -0.310 N 
ATOM     10  HN  UNL d   1       1.711   2.297  -0.000  1.00  0.00     0.176 HD
ATOM     11  C   UNL d   1      -2.150   0.676   0.002  0.00  0.00    -0.038 A 
ATOM     12 CL   UNL d   1      -3.566  -1.690   0.002  0.00  0.00    -0.084 Cl
ATOM     13  C   UNL d   1      -3.444   1.455   0.002  0.00  0.00     0.050 C 
ENDROOT
TORSDOF 0
