REMARK  3 active torsions:
REMARK  status: ('A' for Active; 'I' for Inactive)
REMARK    1  A    between atoms: C_4  and  C_1 
REMARK    2  A    between atoms: C_6  and  C_4 
REMARK    3  A    between atoms: C_7  and  C_6 
ROOT
ATOM      1  C   UNL d   1      -3.792  -0.067   0.011  0.00  0.00     0.236 C 
ATOM      2  C   UNL d   1      -4.290  -1.448   0.010  0.00  0.00     0.080 C 
ATOM      3  N   UNL d   1      -4.648  -2.554   0.009  0.00  0.00    -0.196 NA
ENDROOT
BRANCH   1   4
ATOM      4  C   UNL d   1      -2.291  -0.013   0.007  0.00  0.00     0.108 A 
ATOM      5  N   UNL d   1      -1.560   0.960   0.522  0.00  0.00    -0.343 N 
ATOM      6  C   UNL d   1      -0.250   0.608   0.299  0.00  0.00     0.060 A 
ATOM      7  HN  UNL d   1      -1.899   1.800   0.990  1.00  0.00     0.167 HD
ATOM      8  C   UNL d   1       0.932   1.284   0.632  0.00  0.00     0.032 A 
ATOM      9  C   UNL d   1      -0.174  -0.613  -0.358  0.00  0.00     0.060 A 
ATOM     10  C   UNL d   1       2.159   0.696   0.296  0.00  0.00     0.002 A 
ATOM     11  C   UNL d   1       2.206  -0.540  -0.353  0.00  0.00     0.002 A 
ATOM     12  C   UNL d   1       1.035  -1.227  -0.696  0.00  0.00     0.032 A 
ATOM     13  N   UNL d   1      -1.481  -0.980  -0.552  0.00  0.00    -0.343 N 
ATOM     14  H   UNL d   1      -1.787  -1.823  -1.021  0.00  0.00     0.167 HD
ENDBRANCH   1   4
BRANCH   1  15
ATOM     15  C   UNL d   1      -4.297   0.646  -1.232  0.00  0.00     0.207 C 
ATOM     16  O   UNL d   1      -4.037   0.215  -2.361  0.00  0.00    -0.288 OA
BRANCH  15  17
ATOM     17  C   UNL d   1      -5.106   1.835  -1.037  0.00  0.00     0.122 A 
ATOM     18  O   UNL d   1      -5.389   2.267   0.230  0.00  0.00    -0.319 OA
ATOM     19  C   UNL d   1      -6.130   3.399   0.117  0.00  0.00     0.142 A 
ATOM     20  C   UNL d   1      -6.348   3.700  -1.206  0.00  0.00     0.027 A 
ATOM     21  C   UNL d   1      -5.699   2.687  -1.951  0.00  0.00     0.043 A 
ENDBRANCH  15  17
ENDBRANCH   1  15
TORSDOF 3
