REMARK  6 active torsions:
REMARK  status: ('A' for Active; 'I' for Inactive)
REMARK    1  A    between atoms: S_10  and  C_3 
REMARK    2  A    between atoms: C_4  and  C_5 
REMARK    3  A    between atoms: C_9  and  C_14 
REMARK    4  A    between atoms: C_11  and  C_9 
REMARK    5  A    between atoms: C_14  and  S_10 
REMARK    6  A    between atoms: O_24  and  C_21 
ROOT
ATOM      1  N   UNL d   1      -1.272   0.859  -0.051  0.00  0.00    -0.336 N 
ATOM      2  HN  UNL d   1      -2.017   1.536  -0.217  1.00  0.00     0.168 HD
ATOM      3  C   UNL d   1      -0.064   1.236   0.392  0.00  0.00     0.144 A 
ATOM      4  C   UNL d   1      -1.455  -0.463  -0.266  0.00  0.00     0.052 A 
ATOM      5  N   UNL d   1       0.961   0.399   0.622  0.00  0.00    -0.347 N 
ATOM      6  HN  UNL d   1       1.860   0.736   0.964  1.00  0.00     0.167 HD
ATOM      7  C   UNL d   1      -0.455  -1.395  -0.076  0.00  0.00     0.048 A 
ATOM      8  C   UNL d   1       0.743  -0.903   0.378  0.00  0.00     0.092 A 
ENDROOT
BRANCH   3   9
ATOM      9  S   UNL d   1       0.249   2.954   0.695  0.00  0.00    -0.086 SA
BRANCH   9  10
ATOM     10  C   UNL d   1      -1.335   3.678   0.169  0.00  0.00     0.166 C 
BRANCH  10  11
ATOM     11  C   UNL d   1      -1.309   5.198   0.242  0.00  0.00     0.169 C 
ATOM     12  O   UNL d   1      -0.359   5.848   0.671  0.00  0.00    -0.291 OA
BRANCH  11  13
ATOM     13  C   UNL d   1      -2.507   5.952  -0.253  0.00  0.00     0.011 A 
ATOM     14  C   UNL d   1      -3.664   5.319  -0.724  0.00  0.00     0.018 A 
ATOM     15  C   UNL d   1      -4.732   6.079  -1.223  0.00  0.00     0.037 A 
ATOM     16  C   UNL d   1      -4.653   7.472  -1.254  0.00  0.00     0.068 A 
ATOM     17  C   UNL d   1      -3.524   8.106  -0.739  0.00  0.00     0.037 A 
ATOM     18  C   UNL d   1      -2.453   7.353  -0.250  0.00  0.00     0.018 A 
BRANCH  16  19
ATOM     19  O   UNL d   1      -5.634   8.304  -1.717  0.00  0.00    -0.356 OA
ATOM     20  C   UNL d   1      -6.402   7.794  -2.803  0.00  0.00     0.210 C 
ENDBRANCH  16  19
ENDBRANCH  11  13
ENDBRANCH  10  11
ENDBRANCH   9  10
ENDBRANCH   3   9
BRANCH   4  21
ATOM     21  C   UNL d   1      -2.805  -0.809  -0.735  0.00  0.00     0.031 A 
ATOM     22  S   UNL d   1      -3.490  -2.357  -0.428  0.00  0.00    -0.100 SA
ATOM     23  C   UNL d   1      -4.952  -1.953  -1.212  0.00  0.00     0.050 A 
ATOM     24  C   UNL d   1      -4.938  -0.667  -1.698  0.00  0.00     0.008 A 
ATOM     25  C   UNL d   1      -3.707  -0.007  -1.417  0.00  0.00     0.021 A 
ENDBRANCH   4  21
TORSDOF 6
