REMARK  4 active torsions:
REMARK  status: ('A' for Active; 'I' for Inactive)
REMARK    1  A    between atoms: C_7  and  N_1 
REMARK    2  A    between atoms: C_2  and  C_3 
REMARK       I    between atoms: C_3  and  N_6 
REMARK    3  A    between atoms: C_4  and  C_5 
REMARK    4  A    between atoms: N_6  and  C_9 
ROOT
ATOM      1  C   UNL d   1      -1.601   3.753  -4.727  0.00  0.00     0.258 C 
ATOM      2  N   UNL d   1      -1.573   3.862  -3.353  0.00  0.00    -0.321 N 
ATOM      3  O   UNL d   1      -2.455   4.186  -5.490  0.00  0.00    -0.267 OA
ATOM      4  H   UNL d   1      -0.728   3.585  -2.858  0.00  0.00     0.169 HD
ENDROOT
BRANCH   1   5
ATOM      5  C   UNL d   1      -0.507   2.983  -5.350  0.00  0.00     0.062 A 
ATOM      6  C   UNL d   1       0.129   3.400  -6.522  0.00  0.00     0.066 A 
ATOM      7  C   UNL d   1       0.951   2.477  -7.193  0.00  0.00     0.034 A 
ATOM      8  C   UNL d   1       1.136   1.217  -6.647  0.00  0.00     0.088 A 
ATOM      9  N   UNL d   1       0.575   0.821  -5.487  0.00  0.00    -0.374 N 
ATOM     10  C   UNL d   1      -0.250   1.702  -4.873  0.00  0.00     0.105 A 
ATOM     11  HN  UNL d   1       0.764  -0.099  -5.089  1.00  0.00     0.164 HD
BRANCH   6  12
ATOM     12  C   UNL d   1      -0.031   4.780  -7.104  0.00  0.00     0.418 C 
ATOM     13  F   UNL d   1      -0.477   5.726  -6.238  0.00  0.00    -0.166 F 
ATOM     14  F   UNL d   1       1.171   5.262  -7.546  0.00  0.00    -0.166 F 
ATOM     15  F   UNL d   1      -0.848   4.807  -8.190  0.00  0.00    -0.166 F 
ENDBRANCH   6  12
ENDBRANCH   1   5
BRANCH   2  16
ATOM     16  C   UNL d   1      -2.633   4.317  -2.522  0.00  0.00     0.057 A 
ATOM     17  C   UNL d   1      -3.893   4.658  -3.026  0.00  0.00     0.034 A 
ATOM     18  C   UNL d   1      -4.941   5.011  -2.169  0.00  0.00     0.038 A 
ATOM     19  C   UNL d   1      -4.732   5.030  -0.788  0.00  0.00     0.104 A 
ATOM     20  C   UNL d   1      -3.474   4.724  -0.258  0.00  0.00     0.062 A 
ATOM     21  C   UNL d   1      -2.435   4.371  -1.127  0.00  0.00     0.063 A 
ATOM     22 CL   UNL d   1      -0.896   3.979  -0.435  0.00  0.00    -0.082 Cl
BRANCH  19  23
ATOM     23  N   UNL d   1      -5.848   5.351   0.110  0.00  0.00    -0.116 N 
ATOM     24  O   UNL d   1      -5.637   5.300   1.329  0.00  0.00    -0.532 OA
ATOM     25  O   UNL d   1      -6.936   5.643  -0.405  0.00  0.00    -0.532 OA
ENDBRANCH  19  23
ENDBRANCH   2  16
TORSDOF 4
