REMARK  5 active torsions:
REMARK  status: ('A' for Active; 'I' for Inactive)
REMARK    1  A    between atoms: C_2  and  S_1 
REMARK    2  A    between atoms: N_3  and  S_1 
REMARK    3  A    between atoms: C_11  and  N_3 
REMARK    4  A    between atoms: C_12  and  N_5 
REMARK    5  A    between atoms: C_17  and  C_12 
ROOT
ATOM      1  N   UNL d   1       0.288   3.786  -1.490  0.00  0.00     0.092 N 
ATOM      2  C   UNL d   1       0.954   0.963  -2.137  0.00  0.00     0.074 C 
ATOM      3  C   UNL d   1       2.022   1.941  -1.668  0.00  0.00     0.050 C 
ATOM      4  C   UNL d   1      -0.070   1.762  -2.945  0.00  0.00     0.050 C 
ATOM      5  C   UNL d   1      -0.694   2.867  -2.090  0.00  0.00     0.274 C 
ATOM      6  C   UNL d   1       1.431   3.095  -0.866  0.00  0.00     0.274 C 
ENDROOT
BRANCH   2   7
ATOM      7  N   UNL d   1       0.232   0.262  -1.040  0.00  0.00    -0.210 NA
ATOM      8  H   UNL d   1      -0.601  -0.241  -1.352  0.00  0.00     0.140 HD
BRANCH   7   9
ATOM      9  S   UNL d   1       1.052  -0.722   0.049  0.00  0.00     0.248 S 
ATOM     10  O   UNL d   1       0.091  -1.708   0.494  0.00  0.00    -0.205 OA
ATOM     11  O   UNL d   1       2.318  -1.105  -0.534  0.00  0.00    -0.205 OA
BRANCH   9  12
ATOM     12  C   UNL d   1       1.459   0.230   1.496  0.00  0.00     0.115 A 
ATOM     13  S   UNL d   1       0.142   0.908   2.358  0.00  0.00    -0.089 SA
ATOM     14  C   UNL d   1       1.181   1.603   3.528  0.00  0.00     0.051 A 
ATOM     15  C   UNL d   1       2.506   1.331   3.269  0.00  0.00     0.009 A 
ATOM     16  C   UNL d   1       2.666   0.541   2.093  0.00  0.00     0.033 A 
ENDBRANCH   9  12
ENDBRANCH   7   9
ENDBRANCH   2   7
BRANCH   1  17
ATOM     17  C   UNL d   1      -0.350   4.614  -0.434  0.00  0.00     0.311 C 
BRANCH  17  18
ATOM     18  C   UNL d   1      -1.579   5.383  -0.857  0.00  0.00    -0.030 A 
ATOM     19  C   UNL d   1      -2.839   5.050  -0.330  0.00  0.00     0.009 A 
ATOM     20  C   UNL d   1      -3.972   5.769  -0.705  0.00  0.00     0.001 A 
ATOM     21  C   UNL d   1      -3.862   6.827  -1.603  0.00  0.00     0.000 A 
ATOM     22  C   UNL d   1      -2.618   7.161  -2.137  0.00  0.00     0.001 A 
ATOM     23  C   UNL d   1      -1.482   6.443  -1.768  0.00  0.00     0.009 A 
ENDBRANCH  17  18
ENDBRANCH   1  17
TORSDOF 5
