REMARK  3 active torsions:
REMARK  status: ('A' for Active; 'I' for Inactive)
REMARK    1  A    between atoms: N_13  and  C_4 
REMARK       I    between atoms: C_9  and  N_12 
REMARK    2  A    between atoms: C_15  and  C_9 
REMARK    3  A    between atoms: N_12  and  N_13 
ROOT
ATOM      1  N   UNL d   1      -1.045  -2.899  -0.509  0.00  0.00    -0.187 NA
ATOM      2  H   UNL d   1      -0.307  -3.581  -0.658  0.00  0.00     0.154 HD
ENDROOT
BRANCH   1   3
ATOM      3  N   UNL d   1      -2.224  -3.516  -0.049  0.00  0.00    -0.281 N 
ATOM      4  C   UNL d   1      -2.186  -4.893   0.055  0.00  0.00     0.266 C 
ATOM      5  O   UNL d   1      -1.196  -5.539  -0.293  0.00  0.00    -0.266 OA
ATOM      6  H   UNL d   1      -2.874  -2.905   0.443  0.00  0.00     0.184 HD
BRANCH   4   7
ATOM      7  C   UNL d   1      -3.372  -5.584   0.632  0.00  0.00     0.033 A 
ATOM      8  C   UNL d   1      -4.622  -4.969   0.759  0.00  0.00     0.017 A 
ATOM      9  C   UNL d   1      -5.700  -5.679   1.302  0.00  0.00     0.007 A 
ATOM     10  C   UNL d   1      -5.547  -7.009   1.716  0.00  0.00    -0.062 A 
ATOM     11  C   UNL d   1      -4.301  -7.627   1.571  0.00  0.00     0.007 A 
ATOM     12  C   UNL d   1      -6.708  -7.751   2.310  0.00  0.00     0.048 C 
ATOM     13  C   UNL d   1      -3.224  -6.921   1.029  0.00  0.00     0.017 A 
ENDBRANCH   4   7
ENDBRANCH   1   3
BRANCH   1  14
ATOM     14  C   UNL d   1      -0.667  -1.767   0.232  0.00  0.00     0.113 A 
ATOM     15  C   UNL d   1       0.674  -1.320   0.373  0.00  0.00     0.044 A 
ATOM     16  C   UNL d   1       0.814  -0.098   1.025  0.00  0.00     0.088 A 
ATOM     17  C   UNL d   1       1.990  -1.840  -0.001  0.00  0.00    -0.039 A 
ATOM     18  S   UNL d   1       2.422   0.451   1.111  0.00  0.00    -0.083 SA
ATOM     19  N   UNL d   1      -0.159   0.659   1.555  0.00  0.00    -0.346 N 
ATOM     20  C   UNL d   1       2.994  -0.942   0.326  0.00  0.00     0.059 A 
ATOM     21  C   UNL d   1      -1.363   0.121   1.408  0.00  0.00     0.182 A 
ATOM     22  HN  UNL d   1       0.009   1.552   2.020  1.00  0.00     0.167 HD
ATOM     23  N   UNL d   1      -1.667  -1.028   0.793  0.00  0.00    -0.341 N 
ATOM     24  HN  UNL d   1      -2.635  -1.347   0.745  1.00  0.00     0.167 HD
ATOM     25  C   UNL d   1       2.324  -3.148  -0.643  0.00  0.00     0.050 C 
ENDBRANCH   1  14
TORSDOF 3
