REMARK  6 active torsions:
REMARK  status: ('A' for Active; 'I' for Inactive)
REMARK    1  A    between atoms: N_3  and  C_1 
REMARK    2  A    between atoms: N_4  and  C_1 
REMARK    3  A    between atoms: C_2  and  C_5 
REMARK    4  A    between atoms: C_9  and  N_3 
REMARK    5  A    between atoms: C_13  and  N_3 
REMARK    6  A    between atoms: C_7  and  N_4 
ROOT
ATOM      1  N   UNL d   1       2.038  -0.146  -0.093  0.00  0.00    -0.333 N 
ATOM      2  H   UNL d   1       2.336  -0.642   0.738  0.00  0.00     0.168 HD
ENDROOT
BRANCH   1   3
ATOM      3  C   UNL d   1       0.664   0.141  -0.095  0.00  0.00     0.179 C 
ATOM      4  S   UNL d   1      -0.316   0.069  -1.473  0.00  0.00    -0.040 SA
BRANCH   3   5
ATOM      5  N   UNL d   1       0.189   0.499   1.201  0.00  0.00    -0.324 N 
BRANCH   5   6
ATOM      6  C   UNL d   1      -1.195   0.340   1.568  0.00  0.00     0.036 A 
ATOM      7  C   UNL d   1      -1.875  -0.849   1.252  0.00  0.00     0.029 A 
ATOM      8  C   UNL d   1      -3.230  -1.008   1.554  0.00  0.00     0.002 A 
ATOM      9  C   UNL d   1      -3.923   0.014   2.194  0.00  0.00     0.000 A 
ATOM     10  C   UNL d   1      -3.257   1.185   2.547  0.00  0.00     0.002 A 
ATOM     11  C   UNL d   1      -1.901   1.343   2.247  0.00  0.00     0.029 A 
ENDBRANCH   5   6
BRANCH   5  12
ATOM     12  C   UNL d   1       1.078   1.153   2.183  0.00  0.00     0.127 C 
ATOM     13  C   UNL d   1       1.449   0.223   3.330  0.00  0.00     0.027 C 
ENDBRANCH   5  12
ENDBRANCH   3   5
ENDBRANCH   1   3
BRANCH   1  14
ATOM     14  C   UNL d   1       2.902  -0.256  -1.207  0.00  0.00     0.035 A 
ATOM     15  C   UNL d   1       2.783   0.568  -2.329  0.00  0.00     0.045 A 
ATOM     16  C   UNL d   1       3.586   0.370  -3.461  0.00  0.00     0.050 A 
ATOM     17  C   UNL d   1       4.560  -0.635  -3.431  0.00  0.00     0.016 A 
ATOM     18  C   UNL d   1       4.740  -1.407  -2.281  0.00  0.00     0.003 A 
ATOM     19  C   UNL d   1       3.923  -1.208  -1.167  0.00  0.00     0.029 A 
BRANCH  16  20
ATOM     20  C   UNL d   1       3.383   1.203  -4.703  0.00  0.00     0.417 C 
ATOM     21  F   UNL d   1       2.468   2.201  -4.556  0.00  0.00    -0.166 F 
ATOM     22  F   UNL d   1       4.531   1.813  -5.113  0.00  0.00    -0.166 F 
ATOM     23  F   UNL d   1       2.958   0.460  -5.762  0.00  0.00    -0.166 F 
ENDBRANCH  16  20
ENDBRANCH   1  14
TORSDOF 6
