REMARK  4 active torsions:
REMARK  status: ('A' for Active; 'I' for Inactive)
REMARK    1  A    between atoms: C_2  and  C_1 
REMARK    2  A    between atoms: O_9  and  C_2 
REMARK    3  A    between atoms: C_12  and  C_5 
REMARK    4  A    between atoms: C_13  and  O_9 
ROOT
ATOM      1  C   UNL d   1       1.059  -1.724  -0.303  0.00  0.00     0.081 A 
ATOM      2  N   UNL d   1       2.246   0.292  -0.628  0.00  0.00    -0.298 N 
ATOM      3  HN  UNL d   1       3.119   0.785  -0.812  1.00  0.00     0.187 HD
ATOM      4  C   UNL d   1       2.272  -1.056  -0.495  0.00  0.00     0.075 A 
ATOM      5  N   UNL d   1       1.090   1.016  -0.524  0.00  0.00    -0.299 N 
ATOM      6  HN  UNL d   1       1.120   2.031  -0.625  1.00  0.00     0.187 HD
ATOM      7  C   UNL d   1      -0.159  -0.985  -0.187  0.00  0.00     0.011 A 
ATOM      8  C   UNL d   1      -0.071   0.413  -0.294  0.00  0.00     0.059 A 
ATOM      9  C   UNL d   1      -1.450  -1.538   0.029  0.00  0.00     0.015 A 
ATOM     10  C   UNL d   1      -1.202   1.206  -0.165  0.00  0.00     0.032 A 
ATOM     11  C   UNL d   1      -2.582  -0.728   0.161  0.00  0.00     0.001 A 
ATOM     12  C   UNL d   1      -2.457   0.648   0.070  0.00  0.00     0.002 A 
ENDROOT
BRANCH   1  13
ATOM     13  C   UNL d   1       0.982  -3.195  -0.303  0.00  0.00     0.301 C 
ATOM     14  O   UNL d   1       1.135  -3.849  -1.323  0.00  0.00    -0.259 OA
BRANCH  13  15
ATOM     15  O   UNL d   1       0.652  -3.659   0.958  0.00  0.00    -0.275 OA
BRANCH  15  16
ATOM     16  C   UNL d   1       0.737  -5.055   1.046  0.00  0.00     0.079 A 
ATOM     17  C   UNL d   1       1.935  -5.602   1.495  0.00  0.00     0.038 A 
ATOM     18  C   UNL d   1       2.072  -6.988   1.580  0.00  0.00     0.009 A 
ATOM     19  C   UNL d   1       1.007  -7.834   1.244  0.00  0.00    -0.062 A 
ATOM     20  C   UNL d   1      -0.207  -7.267   0.825  0.00  0.00     0.009 A 
ATOM     21  C   UNL d   1       1.202  -9.324   1.258  0.00  0.00     0.048 C 
ATOM     22  C   UNL d   1      -0.351  -5.875   0.738  0.00  0.00     0.038 A 
ENDBRANCH  15  16
ENDBRANCH  13  15
ENDBRANCH   1  13
BRANCH   4  23
ATOM     23  C   UNL d   1       3.671  -1.571  -0.461  0.00  0.00    -0.007 A 
ATOM     24  C   UNL d   1       4.697  -0.711   0.012  0.00  0.00     0.014 A 
ATOM     25  C   UNL d   1       6.035  -1.102   0.107  0.00  0.00     0.001 A 
ATOM     26  C   UNL d   1       6.395  -2.383  -0.270  0.00  0.00     0.000 A 
ATOM     27  C   UNL d   1       5.429  -3.253  -0.772  0.00  0.00     0.001 A 
ATOM     28  C   UNL d   1       4.088  -2.843  -0.879  0.00  0.00     0.014 A 
ENDBRANCH   4  23
TORSDOF 4
