REMARK  2 active torsions:
REMARK  status: ('A' for Active; 'I' for Inactive)
REMARK    1  A    between atoms: C_7  and  N_1 
REMARK    2  A    between atoms: C_9  and  C_7 
ROOT
ATOM      1  N   UNL d   1      -0.073   0.027   1.365  0.00  0.00     0.102 N 
ATOM      2  C   UNL d   1      -0.066  -1.218   0.580  0.00  0.00     0.231 C 
ATOM      3  C   UNL d   1      -0.000   1.185   0.457  0.00  0.00     0.231 C 
ATOM      4  C   UNL d   1      -1.604  -0.059  -1.094  0.00  0.00     0.131 C 
ATOM      5  C   UNL d   1      -1.182   1.269  -0.513  0.00  0.00     0.114 C 
ATOM      6  C   UNL d   1      -1.250  -1.340  -0.379  0.00  0.00     0.114 C 
ATOM      7  O   UNL d   1      -2.361  -0.088  -2.069  0.00  0.00    -0.298 OA
ATOM      8  C   UNL d   1       1.357   1.176  -0.272  0.00  0.00     0.036 C 
ATOM      9  C   UNL d   1       1.294  -1.346  -0.137  0.00  0.00     0.036 C 
ATOM     10  C   UNL d   1       1.661  -0.135  -0.988  0.00  0.00     0.004 C 
ENDROOT
BRANCH   1  11
ATOM     11  C   UNL d   1      -1.194   0.146   2.317  0.00  0.00     0.312 C 
BRANCH  11  12
ATOM     12  C   UNL d   1      -1.249  -0.943   3.367  0.00  0.00    -0.030 A 
ATOM     13  C   UNL d   1      -0.167  -1.159   4.232  0.00  0.00     0.009 A 
ATOM     14  C   UNL d   1      -0.237  -2.148   5.220  0.00  0.00     0.001 A 
ATOM     15  C   UNL d   1      -1.387  -2.922   5.348  0.00  0.00     0.000 A 
ATOM     16  C   UNL d   1      -2.468  -2.717   4.496  0.00  0.00     0.001 A 
ATOM     17  C   UNL d   1      -2.401  -1.731   3.511  0.00  0.00     0.009 A 
ENDBRANCH  11  12
ENDBRANCH   1  11
TORSDOF 2
