REMARK  3 active torsions:
REMARK  status: ('A' for Active; 'I' for Inactive)
REMARK    1  A    between atoms: C_2  and  C_1 
REMARK       I    between atoms: N_3  and  C_1 
REMARK    2  A    between atoms: N_5  and  N_3 
REMARK    3  A    between atoms: C_6  and  N_5 
ROOT
ATOM      1  N   UNL d   1      -1.010  -1.331   0.201  0.00  0.00    -0.203 NA
ATOM      2  H   UNL d   1      -1.554  -0.481  -0.006  0.00  0.00     0.153 HD
ENDROOT
BRANCH   1   3
ATOM      3  N   UNL d   1       0.266  -0.970   0.685  0.00  0.00    -0.282 N 
ATOM      4  C   UNL d   1       0.651   0.358   0.532  0.00  0.00     0.273 C 
ATOM      5  O   UNL d   1      -0.149   1.202   0.116  0.00  0.00    -0.266 OA
ATOM      6  H   UNL d   1       0.982  -1.689   0.689  0.00  0.00     0.184 HD
BRANCH   4   7
ATOM      7  C   UNL d   1       2.029   0.674   0.882  0.00  0.00     0.073 A 
ATOM      8  S   UNL d   1       3.050  -0.445   1.688  0.00  0.00    -0.097 SA
ATOM      9  C   UNL d   1       4.327   0.686   1.794  0.00  0.00     0.050 A 
ATOM     10  C   UNL d   1       4.006   1.884   1.198  0.00  0.00     0.009 A 
ATOM     11  C   UNL d   1       2.683   1.875   0.668  0.00  0.00     0.025 A 
ENDBRANCH   4   7
ENDBRANCH   1   3
BRANCH   1  12
ATOM     12  C   UNL d   1      -1.722  -2.212   1.055  0.00  0.00     0.030 A 
ATOM     13  C   UNL d   1      -3.124  -2.148   1.083  0.00  0.00     0.049 A 
ATOM     14  C   UNL d   1      -3.867  -3.072   1.822  0.00  0.00     0.037 A 
ATOM     15 CL   UNL d   1      -5.585  -2.958   1.849  0.00  0.00    -0.084 Cl
ATOM     16  C   UNL d   1      -3.237  -4.093   2.524  0.00  0.00     0.047 A 
ATOM     17  C   UNL d   1      -1.851  -4.183   2.477  0.00  0.00     0.037 A 
ATOM     18  C   UNL d   1      -1.097  -3.261   1.745  0.00  0.00     0.049 A 
ATOM     19 CL   UNL d   1      -1.052  -5.462   3.309  0.00  0.00    -0.084 Cl
ENDBRANCH   1  12
TORSDOF 3
