REMARK  1 active torsions:
REMARK  status: ('A' for Active; 'I' for Inactive)
REMARK    1  A    between atoms: S_7  and  C_1 
ROOT
ATOM      1  C   UNL d   1      -1.913  -0.899  -0.017  0.00  0.00     0.146 A 
ATOM      2  N   UNL d   1      -0.879  -1.708  -0.011  0.00  0.00    -0.335 N 
ATOM      3  HN  UNL d   1      -0.890  -2.728  -0.012  1.00  0.00     0.168 HD
ATOM      4  N   UNL d   1      -1.534   0.419  -0.011  0.00  0.00    -0.330 N 
ATOM      5  C   UNL d   1      -0.154   0.453  -0.003  0.00  0.00     0.063 A 
ATOM      6  C   UNL d   1       0.221  -0.887  -0.004  0.00  0.00     0.061 A 
ATOM      7  C   UNL d   1      -2.365   1.598  -0.023  0.00  0.00     0.158 C 
ATOM      8  C   UNL d   1       0.776   1.500   0.004  0.00  0.00     0.032 A 
ATOM      9  C   UNL d   1       1.584  -1.220  -0.001  0.00  0.00     0.032 A 
ATOM     10  C   UNL d   1       2.131   1.148   0.008  0.00  0.00     0.002 A 
ATOM     11  C   UNL d   1       2.531  -0.189   0.005  0.00  0.00     0.002 A 
ENDROOT
BRANCH   1  12
ATOM     12  S   UNL d   1      -3.569  -1.413  -0.036  0.00  0.00    -0.098 SA
ATOM     13  C   UNL d   1      -3.366  -3.209  -0.035  0.00  0.00     0.099 C 
ENDBRANCH   1  12
TORSDOF 1
