REMARK  5 active torsions:
REMARK  status: ('A' for Active; 'I' for Inactive)
REMARK    1  A    between atoms: C_8  and  C_1 
REMARK    2  A    between atoms: S_7  and  C_2 
REMARK    3  A    between atoms: C_6  and  C_4 
REMARK    4  A    between atoms: O_11  and  C_6 
REMARK    5  A    between atoms: O_12  and  C_8 
ROOT
ATOM      1  C   UNL d   1       1.297   0.040   0.068  0.00  0.00     0.001 A 
ATOM      2  C   UNL d   1       0.346  -0.970  -0.009  0.00  0.00     0.051 A 
ATOM      3  C   UNL d   1       0.631   1.355   0.090  0.00  0.00    -0.028 A 
ATOM      4  C   UNL d   1      -0.752   1.257   0.115  0.00  0.00     0.086 A 
ATOM      5  S   UNL d   1      -1.256  -0.369   0.086  0.00  0.00    -0.075 SA
ATOM      6  C   UNL d   1       1.351   2.679   0.071  0.00  0.00     0.050 C 
ENDROOT
BRANCH   1   7
ATOM      7  C   UNL d   1       2.818  -0.048   0.083  0.00  0.00     0.149 C 
ATOM      8  C   UNL d   1       3.498  -1.401  -0.004  0.00  0.00     0.044 C 
BRANCH   7   9
ATOM      9  O   UNL d   1       3.324   0.580   1.270  0.00  0.00    -0.391 OA
ATOM     10  H   UNL d   1       2.812   0.225   2.017  0.00  0.00     0.210 HD
ENDBRANCH   7   9
ENDBRANCH   1   7
BRANCH   2  11
ATOM     11  S   UNL d   1       0.545  -2.702  -0.273  0.00  0.00    -0.126 SA
ATOM     12  C   UNL d   1       0.663  -3.330   1.415  0.00  0.00     0.096 C 
ENDBRANCH   2  11
BRANCH   4  13
ATOM     13  C   UNL d   1      -1.723   2.351   0.151  0.00  0.00     0.183 C 
ATOM     14  O   UNL d   1      -1.454   3.543   0.231  0.00  0.00    -0.646 OA
BRANCH  13  15
ATOM     15  O   UNL d   1      -3.014   1.931   0.081  0.00  0.00    -0.772 OA
ATOM     16  H   UNL d   1      -3.070   0.960   0.006  0.00  0.00     0.167 HD
ENDBRANCH  13  15
ENDBRANCH   4  13
TORSDOF 5
