REMARK  2 active torsions:
REMARK  status: ('A' for Active; 'I' for Inactive)
REMARK    1  A    between atoms: C_8  and  C_2 
REMARK    2  A    between atoms: S_19  and  C_5 
ROOT
ATOM      1  C   UNL d   1       2.150  -2.419  -0.147  0.00  0.00     0.012 A 
ATOM      2  C   UNL d   1       3.426  -4.284  -0.894  0.00  0.00     0.086 A 
ATOM      3  C   UNL d   1       2.538  -3.244  -1.226  0.00  0.00     0.049 A 
ATOM      4  C   UNL d   1       3.912  -4.499   0.462  0.00  0.00     0.085 A 
ATOM      5  O   UNL d   1       4.753  -6.003  -0.860  0.00  0.00    -0.156 OA
ATOM      6  N   UNL d   1       3.963  -5.219  -1.686  0.00  0.00    -0.240 N 
ATOM      7  HN  UNL d   1       3.821  -5.331  -2.690  1.00  0.00     0.197 HD
ATOM      8  N   UNL d   1       4.728  -5.558   0.452  0.00  0.00    -0.240 N 
ATOM      9  HN  UNL d   1       5.228  -5.957   1.246  1.00  0.00     0.197 HD
ATOM     10  C   UNL d   1       2.631  -2.647   1.182  0.00  0.00     0.018 A 
ATOM     11  C   UNL d   1       3.524  -3.681   1.535  0.00  0.00     0.035 A 
ENDROOT
BRANCH   1  12
ATOM     12  C   UNL d   1       1.172  -1.345  -0.348  0.00  0.00     0.134 A 
ATOM     13  N   UNL d   1       1.143  -0.408  -1.364  0.00  0.00    -0.315 N 
ATOM     14  C   UNL d   1      -0.007   0.309  -1.171  0.00  0.00     0.159 A 
ATOM     15  C   UNL d   1       2.154  -0.176  -2.362  0.00  0.00     0.160 C 
ATOM     16  N   UNL d   1      -0.596  -0.085  -0.070  0.00  0.00    -0.278 N 
ATOM     17  N   UNL d   1       0.149  -1.111   0.454  0.00  0.00    -0.283 N 
ATOM     18  HN  UNL d   1      -1.453   0.300   0.326  1.00  0.00     0.189 HD
ATOM     19  HN  UNL d   1      -0.054  -1.611   1.320  1.00  0.00     0.188 HD
BRANCH  14  20
ATOM     20  S   UNL d   1      -0.602   1.554  -2.213  0.00  0.00    -0.105 SA
ATOM     21  H   UNL d   1       0.147   1.332  -3.299  0.00  0.00     0.110 HD
ENDBRANCH  14  20
ENDBRANCH   1  12
TORSDOF 2
