REMARK  7 active torsions:
REMARK  status: ('A' for Active; 'I' for Inactive)
REMARK    1  A    between atoms: C_16  and  C_1 
REMARK    2  A    between atoms: C_7  and  C_17 
REMARK       I    between atoms: N_10  and  C_7 
REMARK    3  A    between atoms: N_8  and  N_10 
REMARK    4  A    between atoms: C_12  and  C_15 
REMARK    5  A    between atoms: C_18  and  C_13 
REMARK    6  A    between atoms: S_14  and  C_16 
REMARK    7  A    between atoms: C_17  and  S_14 
ROOT
ATOM      1  C   UNL d   1      -4.870   3.933   0.669  0.00  0.00     0.245 C 
ATOM      2  N   UNL d   1      -4.049   4.451   1.662  0.00  0.00    -0.270 N 
ATOM      3  O   UNL d   1      -6.057   3.644   0.834  0.00  0.00    -0.271 OA
ATOM      4  H   UNL d   1      -3.072   4.654   1.478  0.00  0.00     0.190 HD
ENDROOT
BRANCH   1   5
ATOM      5  C   UNL d   1      -4.254   3.819  -0.712  0.00  0.00     0.178 C 
BRANCH   5   6
ATOM      6  S   UNL d   1      -2.529   3.259  -0.755  0.00  0.00    -0.155 SA
BRANCH   6   7
ATOM      7  C   UNL d   1      -2.683   1.638   0.099  0.00  0.00     0.114 C 
BRANCH   7   8
ATOM      8  C   UNL d   1      -1.376   0.832   0.121  0.00  0.00    -0.036 C 
ATOM      9  C   UNL d   1      -0.187   1.397   0.663  0.00  0.00    -0.048 C 
ATOM     10  C   UNL d   1       1.046   0.715   0.528  0.00  0.00    -0.049 C 
ATOM     11  C   UNL d   1      -0.206   2.731   1.378  0.00  0.00     0.049 C 
ATOM     12  C   UNL d   1       2.355   1.393   0.880  0.00  0.00     0.049 C 
ATOM     13  C   UNL d   1       1.066  -0.629   0.077  0.00  0.00    -0.049 C 
ATOM     14  C   UNL d   1      -0.140  -1.270  -0.309  0.00  0.00    -0.049 C 
ATOM     15  C   UNL d   1       2.400  -1.353   0.036  0.00  0.00     0.049 C 
ATOM     16  C   UNL d   1      -1.353  -0.523  -0.344  0.00  0.00    -0.048 C 
ATOM     17  C   UNL d   1      -0.074  -2.737  -0.678  0.00  0.00     0.049 C 
ATOM     18  C   UNL d   1      -2.642  -1.138  -0.850  0.00  0.00     0.049 C 
ENDBRANCH   7   8
ENDBRANCH   6   7
ENDBRANCH   5   6
ENDBRANCH   1   5
BRANCH   2  19
ATOM     19  N   UNL d   1      -4.588   4.666   2.893  0.00  0.00    -0.309 N 
ATOM     20  C   UNL d   1      -3.820   5.089   3.840  0.00  0.00     0.107 C 
ATOM     21  HN  UNL d   1      -5.580   4.498   3.064  1.00  0.00     0.186 HD
BRANCH  20  22
ATOM     22  C   UNL d   1      -4.415   5.362   5.167  0.00  0.00     0.019 C 
ATOM     23  C   UNL d   1      -3.699   5.761   6.228  0.00  0.00     0.013 C 
BRANCH  23  24
ATOM     24  C   UNL d   1      -4.320   6.073   7.533  0.00  0.00    -0.036 A 
ATOM     25  C   UNL d   1      -5.486   5.438   7.987  0.00  0.00     0.011 A 
ATOM     26  C   UNL d   1      -6.061   5.782   9.214  0.00  0.00     0.001 A 
ATOM     27  C   UNL d   1      -5.470   6.754  10.015  0.00  0.00     0.000 A 
ATOM     28  C   UNL d   1      -4.293   7.368   9.595  0.00  0.00     0.001 A 
ATOM     29  C   UNL d   1      -3.718   7.027   8.366  0.00  0.00     0.011 A 
ENDBRANCH  23  24
ENDBRANCH  20  22
ENDBRANCH   2  19
TORSDOF 7
