REMARK  4 active torsions:
REMARK  status: ('A' for Active; 'I' for Inactive)
REMARK    1  A    between atoms: O_4  and  C_1 
REMARK    2  A    between atoms: N_2  and  C_9 
REMARK    3  A    between atoms: C_10  and  O_4 
REMARK    4  A    between atoms: C_11  and  C_5 
ROOT
ATOM      1  C   UNL d   1       1.696  -5.010   0.131  0.00  0.00     0.032 A 
ATOM      2  C   UNL d   1       0.914  -2.409   0.884  0.00  0.00     0.078 A 
ATOM      3  C   UNL d   1       0.433  -4.777   0.671  0.00  0.00     0.032 A 
ATOM      4  C   UNL d   1       2.545  -3.918  -0.081  0.00  0.00     0.032 A 
ATOM      5  C   UNL d   1       0.042  -3.489   1.043  0.00  0.00     0.039 A 
ATOM      6  C   UNL d   1       2.161  -2.625   0.298  0.00  0.00     0.039 A 
ENDROOT
BRANCH   1   7
ATOM      7  N   UNL d   1       2.034  -6.322  -0.230  0.00  0.00    -0.365 N 
ATOM      8  C   UNL d   1       3.163  -6.801   0.190  0.00  0.00     0.099 C 
ATOM      9  HN  UNL d   1       1.409  -6.885  -0.807  1.00  0.00     0.165 HD
BRANCH   8  10
ATOM     10  C   UNL d   1       3.581  -8.181  -0.128  0.00  0.00    -0.021 A 
ATOM     11  C   UNL d   1       2.675  -9.091  -0.681  0.00  0.00     0.014 A 
ATOM     12  C   UNL d   1       3.086 -10.395  -0.969  0.00  0.00     0.024 A 
ATOM     13  C   UNL d   1       4.402 -10.778  -0.711  0.00  0.00     0.034 A 
ATOM     14  C   UNL d   1       5.309  -9.871  -0.161  0.00  0.00     0.024 A 
ATOM     15 CL   UNL d   1       4.912 -12.380  -1.075  0.00  0.00    -0.084 Cl
ATOM     16  C   UNL d   1       4.898  -8.569   0.138  0.00  0.00     0.014 A 
ENDBRANCH   8  10
ENDBRANCH   1   7
BRANCH   2  17
ATOM     17  O   UNL d   1       0.422  -1.214   1.325  0.00  0.00    -0.255 OA
BRANCH  17  18
ATOM     18  C   UNL d   1       1.345  -0.152   1.497  0.00  0.00     0.530 C 
ATOM     19  F   UNL d   1       2.418  -0.537   2.222  0.00  0.00    -0.144 F 
ATOM     20  F   UNL d   1       0.731   0.851   2.162  0.00  0.00    -0.144 F 
ATOM     21  F   UNL d   1       1.758   0.324   0.303  0.00  0.00    -0.144 F 
ENDBRANCH  17  18
ENDBRANCH   2  17
TORSDOF 4
