REMARK  5 active torsions:
REMARK  status: ('A' for Active; 'I' for Inactive)
REMARK       I    between atoms: N_2  and  C_1 
REMARK    1  A    between atoms: C_11  and  C_1 
REMARK    2  A    between atoms: C_12  and  N_2 
REMARK    3  A    between atoms: C_3  and  S_7 
REMARK    4  A    between atoms: C_13  and  C_6 
REMARK    5  A    between atoms: S_7  and  C_11 
ROOT
ATOM      1  C   UNL d   1      -0.968  -0.343   1.114  0.00  0.00     0.231 C 
ATOM      2  N   UNL d   1       0.078   0.560   1.044  0.00  0.00    -0.327 N 
ATOM      3  O   UNL d   1      -1.727  -0.475   2.077  0.00  0.00    -0.272 OA
ATOM      4  H   UNL d   1       0.516   0.662   0.137  0.00  0.00     0.169 HD
ENDROOT
BRANCH   2   5
ATOM      5  C   UNL d   1       0.677   1.250   2.116  0.00  0.00     0.034 A 
ATOM      6  C   UNL d   1       0.382   1.006   3.453  0.00  0.00     0.030 A 
ATOM      7  C   UNL d   1       1.107   1.639   4.469  0.00  0.00     0.010 A 
ATOM      8  C   UNL d   1       2.154   2.529   4.182  0.00  0.00    -0.054 A 
ATOM      9  C   UNL d   1       2.372   2.839   2.833  0.00  0.00     0.010 A 
ATOM     10  C   UNL d   1       1.664   2.190   1.813  0.00  0.00     0.030 A 
BRANCH   8  11
ATOM     11  C   UNL d   1       2.985   3.103   5.330  0.00  0.00     0.018 C 
ATOM     12  C   UNL d   1       4.159   4.026   4.938  0.00  0.00     0.009 C 
ATOM     13  C   UNL d   1       5.340   3.283   4.303  0.00  0.00     0.001 C 
ATOM     14  C   UNL d   1       5.809   2.091   5.130  0.00  0.00     0.000 C 
ATOM     15  C   UNL d   1       4.663   1.196   5.590  0.00  0.00     0.001 C 
ATOM     16  C   UNL d   1       3.549   2.000   6.258  0.00  0.00     0.009 C 
ENDBRANCH   8  11
ENDBRANCH   2   5
BRANCH   1  17
ATOM     17  C   UNL d   1      -1.246  -1.110  -0.174  0.00  0.00     0.184 C 
BRANCH  17  18
ATOM     18  S   UNL d   1       0.237  -1.464  -1.178  0.00  0.00    -0.103 SA
BRANCH  18  19
ATOM     19  C   UNL d   1       1.067  -2.649  -0.133  0.00  0.00     0.069 A 
ATOM     20  N   UNL d   1       0.627  -2.795   1.133  0.00  0.00    -0.361 N 
ATOM     21  C   UNL d   1       1.294  -3.654   1.933  0.00  0.00     0.089 A 
ATOM     22  HN  UNL d   1      -0.181  -2.275   1.474  1.00  0.00     0.165 HD
ATOM     23  C   UNL d   1       2.389  -4.393   1.522  0.00  0.00     0.017 A 
ATOM     24  C   UNL d   1       2.824  -4.241   0.211  0.00  0.00     0.004 A 
ATOM     25  C   UNL d   1       2.156  -3.354  -0.631  0.00  0.00     0.037 A 
ENDBRANCH  18  19
ENDBRANCH  17  18
ENDBRANCH   1  17
TORSDOF 5
