REMARK  5 active torsions:
REMARK  status: ('A' for Active; 'I' for Inactive)
REMARK    1  A    between atoms: N_5  and  C_1 
REMARK    2  A    between atoms: O_8  and  C_2 
REMARK    3  A    between atoms: C_9  and  N_5 
REMARK    4  A    between atoms: C_11  and  O_8 
REMARK    5  A    between atoms: C_10  and  C_9 
ROOT
ATOM      1  C   UNL d   1       0.586  -1.555  -0.052  0.00  0.00     0.101 A 
ATOM      2  C   UNL d   1      -0.085  -0.787  -0.974  0.00  0.00     0.148 A 
ATOM      3  C   UNL d   1      -0.122  -0.907   1.080  0.00  0.00     0.248 A 
ATOM      4  C   UNL d   1      -0.798  -0.042   0.089  0.00  0.00     0.258 A 
ATOM      5  O   UNL d   1      -0.107  -0.940   2.285  0.00  0.00    -0.282 OA
ATOM      6  O   UNL d   1      -1.600   0.853   0.205  0.00  0.00    -0.281 OA
ENDROOT
BRANCH   1   7
ATOM      7  N   UNL d   1       1.499  -2.513   0.007  0.00  0.00    -0.283 NA
ATOM      8  H   UNL d   1       1.438  -3.134   0.820  0.00  0.00     0.128 HD
BRANCH   7   9
ATOM      9  C   UNL d   1       2.920  -2.144  -0.142  0.00  0.00     0.131 C 
BRANCH   9  10
ATOM     10  C   UNL d   1       3.725  -2.710   1.010  0.00  0.00    -0.045 A 
ATOM     11  C   UNL d   1       4.722  -3.668   0.784  0.00  0.00     0.008 A 
ATOM     12  C   UNL d   1       5.454  -4.196   1.851  0.00  0.00     0.001 A 
ATOM     13  C   UNL d   1       5.194  -3.776   3.155  0.00  0.00     0.000 A 
ATOM     14  C   UNL d   1       4.205  -2.825   3.393  0.00  0.00     0.001 A 
ATOM     15  C   UNL d   1       3.478  -2.290   2.328  0.00  0.00     0.008 A 
ENDBRANCH   9  10
ENDBRANCH   7   9
ENDBRANCH   1   7
BRANCH   2  16
ATOM     16  O   UNL d   1      -0.126  -0.678  -2.256  0.00  0.00    -0.346 OA
BRANCH  16  17
ATOM     17  C   UNL d   1       0.172  -1.886  -2.951  0.00  0.00     0.171 C 
ATOM     18  C   UNL d   1      -0.073  -1.651  -4.432  0.00  0.00     0.034 C 
ENDBRANCH  16  17
ENDBRANCH   2  16
TORSDOF 5
