REMARK  5 active torsions:
REMARK  status: ('A' for Active; 'I' for Inactive)
REMARK    1  A    between atoms: CB_5  and  CA_1 
REMARK    2  A    between atoms: CA_1  and  N_3 
REMARK    3  A    between atoms: CA_1  and  C_2 
REMARK    4  A    between atoms: OXT_6  and  C_2 
REMARK       I    between atoms: C3_12  and  N_3 
REMARK    5  A    between atoms: CG1_7  and  CB_5 
ROOT
ATOM      1  CA  ILE d   1       0.908  -0.202   0.047  0.00  0.00     0.186 C 
ENDROOT
BRANCH   1   2
ATOM      2  CB  ILE d   1       0.504   1.308   0.048  0.00  0.00     0.014 C 
ATOM      3  CG2 ILE d   1       0.868   2.002  -1.279  0.00  0.00     0.012 C 
BRANCH   2   4
ATOM      4  CG1 ILE d   1       1.069   2.156   1.215  0.00  0.00     0.002 C 
ATOM      5  CD1 ILE d   1       2.586   2.189   1.329  0.00  0.00     0.005 C 
ENDBRANCH   2   4
ENDBRANCH   1   2
BRANCH   1   6
ATOM      6  N   ILE d   1       0.232  -0.904  -1.068  0.00  0.00    -0.347 N 
ATOM      7  C3  <1> d   1       0.580  -2.154  -1.508  0.00  0.00     0.214 C 
ATOM      8  O2  <1> d   1       1.426  -2.832  -0.937  0.00  0.00    -0.274 OA
ATOM      9  C5  <1> d   1      -0.233  -2.656  -2.672  0.00  0.00     0.117 C 
ATOM     10  H   ILE d   1      -0.397  -0.364  -1.649  0.00  0.00     0.163 HD
ENDBRANCH   1   6
BRANCH   1  11
ATOM     11  C   ILE d   1       0.563  -0.909   1.388  0.00  0.00     0.163 C 
ATOM     12  O   ILE d   1      -0.009  -0.380   2.338  0.00  0.00    -0.648 OA
BRANCH  11  13
ATOM     13  OXT ILE d   1       0.984  -2.192   1.475  0.00  0.00    -0.775 OA
ATOM     14  HXT ILE d   1       1.375  -2.536   0.634  0.00  0.00     0.167 HD
ENDBRANCH  11  13
ENDBRANCH   1  11
TORSDOF 5
