REMARK  3 active torsions:
REMARK  status: ('A' for Active; 'I' for Inactive)
REMARK    1  A    between atoms: N_11  and  C_1 
REMARK    2  A    between atoms: N_7  and  C_2 
REMARK       I    between atoms: C_6  and  N_7 
REMARK       I    between atoms: N_10  and  C_6 
REMARK    3  A    between atoms: C_13  and  N_10 
ROOT
ATOM      1  C   UNL d   1      -2.529   0.698   0.072  0.00  0.00     0.105 A 
ATOM      2  C   UNL d   1      -1.093  -1.226  -0.204  0.00  0.00     0.052 A 
ATOM      3  N   UNL d   1      -1.439   1.498   0.064  0.00  0.00    -0.342 N 
ATOM      4  HN  UNL d   1      -1.560   2.508   0.137  1.00  0.00     0.167 HD
ATOM      5  C   UNL d   1      -2.373  -0.681  -0.065  0.00  0.00     0.079 A 
ATOM      6  C   UNL d   1       0.041  -0.383  -0.155  0.00  0.00     0.018 A 
ATOM      7  C   UNL d   1      -0.203   0.991  -0.038  0.00  0.00     0.046 A 
ATOM      8  C   UNL d   1       1.386  -0.840  -0.171  0.00  0.00     0.016 A 
ATOM      9  C   UNL d   1       0.877   1.865  -0.015  0.00  0.00     0.030 A 
ATOM     10  C   UNL d   1       2.454   0.052  -0.114  0.00  0.00     0.001 A 
ATOM     11  C   UNL d   1       2.199   1.413  -0.053  0.00  0.00     0.002 A 
ENDROOT
BRANCH   2  12
ATOM     12  N   UNL d   1      -0.893  -2.581  -0.535  0.00  0.00    -0.308 N 
ATOM     13  C   UNL d   1      -1.555  -3.739  -0.259  0.00  0.00     0.325 C 
ATOM     14  N   UNL d   1      -2.368  -3.745   0.839  0.00  0.00    -0.309 N 
ATOM     15  O   UNL d   1      -1.253  -4.715  -0.946  0.00  0.00    -0.247 OA
ATOM     16  H   UNL d   1      -2.523  -2.858   1.292  0.00  0.00     0.170 HD
ATOM     17  H   UNL d   1      -0.098  -2.778  -1.130  0.00  0.00     0.170 HD
BRANCH  14  18
ATOM     18  C   UNL d   1      -2.833  -4.889   1.533  0.00  0.00     0.036 A 
ATOM     19  C   UNL d   1      -3.593  -4.680   2.690  0.00  0.00     0.029 A 
ATOM     20  C   UNL d   1      -4.006  -5.760   3.479  0.00  0.00     0.002 A 
ATOM     21  C   UNL d   1      -3.663  -7.061   3.121  0.00  0.00     0.000 A 
ATOM     22  C   UNL d   1      -2.924  -7.282   1.964  0.00  0.00     0.002 A 
ATOM     23  C   UNL d   1      -2.518  -6.203   1.171  0.00  0.00     0.029 A 
ENDBRANCH  14  18
ENDBRANCH   2  12
BRANCH   1  24
ATOM     24  N   UNL d   1      -3.771   1.308   0.267  0.00  0.00    -0.376 N 
ATOM     25  C   UNL d   1      -4.995   0.641  -0.153  0.00  0.00     0.150 C 
ATOM     26  C   UNL d   1      -3.764   2.763   0.092  0.00  0.00     0.150 C 
ENDBRANCH   1  24
TORSDOF 3
