REMARK  4 active torsions:
REMARK  status: ('A' for Active; 'I' for Inactive)
REMARK    1  A    between atoms: N_2  and  C_1 
REMARK    2  A    between atoms: N_5  and  C_3 
REMARK       I    between atoms: C_4  and  N_5 
REMARK    3  A    between atoms: C_13  and  C_4 
REMARK    4  A    between atoms: C_10  and  C_7 
ROOT
ATOM      1  C   UNL d   1       1.486  -0.144   0.175  0.00  0.00     0.130 A 
ATOM      2  C   UNL d   1       0.714  -1.306   0.090  0.00  0.00     0.068 A 
ATOM      3  C   UNL d   1       0.889   1.129   0.207  0.00  0.00     0.046 A 
ATOM      4  C   UNL d   1      -0.510   1.278   0.166  0.00  0.00    -0.048 A 
ATOM      5  C   UNL d   1      -0.675  -1.161   0.020  0.00  0.00     0.032 A 
ATOM      6  C   UNL d   1      -1.276   0.107   0.054  0.00  0.00     0.010 A 
ENDROOT
BRANCH   2   7
ATOM      7  N   UNL d   1       1.278  -2.606   0.082  0.00  0.00    -0.321 N 
ATOM      8  C   UNL d   1       0.820  -3.582   0.949  0.00  0.00     0.256 C 
ATOM      9  O   UNL d   1      -0.022  -3.401   1.829  0.00  0.00    -0.267 OA
ATOM     10  H   UNL d   1       2.248  -2.698  -0.218  0.00  0.00     0.169 HD
BRANCH   8  11
ATOM     11  C   UNL d   1       1.449  -4.918   0.835  0.00  0.00     0.032 A 
ATOM     12  C   UNL d   1       1.692  -5.647   2.005  0.00  0.00     0.017 A 
ATOM     13  C   UNL d   1       2.143  -6.964   1.925  0.00  0.00     0.001 A 
ATOM     14  C   UNL d   1       2.342  -7.555   0.677  0.00  0.00     0.000 A 
ATOM     15  C   UNL d   1       2.116  -6.823  -0.491  0.00  0.00     0.001 A 
ATOM     16  C   UNL d   1       1.675  -5.499  -0.417  0.00  0.00     0.017 A 
ENDBRANCH   8  11
ENDBRANCH   2   7
BRANCH   1  17
ATOM     17  N   UNL d   1       2.917  -0.226   0.414  0.00  0.00    -0.113 N 
ATOM     18  O   UNL d   1       3.551  -1.090  -0.216  0.00  0.00    -0.532 OA
ATOM     19  O   UNL d   1       3.411   0.559   1.234  0.00  0.00    -0.532 OA
ENDBRANCH   1  17
BRANCH   4  20
ATOM     20  C   UNL d   1      -1.138   2.673   0.326  0.00  0.00    -0.024 C 
ATOM     21  C   UNL d   1      -0.652   3.611  -0.799  0.00  0.00     0.019 C 
ATOM     22  C   UNL d   1      -2.682   2.671   0.292  0.00  0.00     0.019 C 
ATOM     23  C   UNL d   1      -0.713   3.257   1.692  0.00  0.00     0.019 C 
ENDBRANCH   4  20
TORSDOF 4
