REMARK  4 active torsions:
REMARK  status: ('A' for Active; 'I' for Inactive)
REMARK    1  A    between atoms: N_3  and  C_1 
REMARK       I    between atoms: C_2  and  N_4 
REMARK    2  A    between atoms: C_14  and  C_2 
REMARK    3  A    between atoms: C_18  and  C_15 
REMARK    4  A    between atoms: C_21  and  C_18 
ROOT
ATOM      1  C   UNL d   1       1.149   6.757   0.596  0.00  0.00     0.253 C 
ATOM      2  N   UNL d   1       0.107   2.752  -0.131  0.00  0.00    -0.251 NA
ATOM      3  N   UNL d   1       0.594   5.555   0.181  0.00  0.00    -0.346 N 
ATOM      4  C   UNL d   1      -0.723   4.993   0.515  0.00  0.00     0.141 C 
ATOM      5  C   UNL d   1       1.265   4.812  -0.894  0.00  0.00     0.141 C 
ATOM      6  C   UNL d   1      -0.596   3.509   0.921  0.00  0.00     0.118 C 
ATOM      7  C   UNL d   1       1.403   3.319  -0.547  0.00  0.00     0.118 C 
ATOM      8  O   UNL d   1       2.148   7.234   0.051  0.00  0.00    -0.267 OA
ENDROOT
BRANCH   2   9
ATOM      9  C   UNL d   1       0.139   1.373   0.087  0.00  0.00     0.159 A 
ATOM     10  N   UNL d   1      -0.861   0.802   0.779  0.00  0.00    -0.342 N 
ATOM     11  C   UNL d   1      -0.813  -0.532   0.969  0.00  0.00     0.099 A 
ATOM     12  HN  UNL d   1      -1.631   1.359   1.148  1.00  0.00     0.167 HD
ATOM     13  C   UNL d   1       0.203  -1.338   0.510  0.00  0.00    -0.027 A 
ATOM     14  C   UNL d   1       1.169  -0.671  -0.205  0.00  0.00     0.099 A 
ATOM     15  N   UNL d   1       1.155   0.657  -0.425  0.00  0.00    -0.342 N 
ATOM     16  HN  UNL d   1       1.895   1.108  -0.964  1.00  0.00     0.167 HD
BRANCH  13  17
ATOM     17  C   UNL d   1       0.258  -2.809   0.783  0.00  0.00     0.041 C 
BRANCH  17  18
ATOM     18  C   UNL d   1       1.482  -3.238   1.600  0.00  0.00     0.000 C 
ATOM     19  C   UNL d   1       1.520  -2.622   2.992  0.00  0.00     0.005 C 
ENDBRANCH  17  18
ENDBRANCH  13  17
ENDBRANCH   2   9
BRANCH   1  20
ATOM     20  C   UNL d   1       0.580   7.539   1.728  0.00  0.00     0.032 A 
ATOM     21  C   UNL d   1       0.080   6.945   2.891  0.00  0.00     0.017 A 
ATOM     22  C   UNL d   1      -0.412   7.739   3.931  0.00  0.00     0.001 A 
ATOM     23  C   UNL d   1      -0.351   9.128   3.843  0.00  0.00     0.000 A 
ATOM     24  C   UNL d   1       0.204   9.730   2.712  0.00  0.00     0.001 A 
ATOM     25  C   UNL d   1       0.665   8.939   1.661  0.00  0.00     0.017 A 
ENDBRANCH   1  20
TORSDOF 4
