REMARK  2 active torsions:
REMARK  status: ('A' for Active; 'I' for Inactive)
REMARK    1  A    between atoms: N_2  and  C_1 
REMARK    2  A    between atoms: C_8  and  N_4 
ROOT
ATOM      1  N   UNL d   1      -3.891  -0.122   0.016  0.00  0.00    -0.381 N 
ATOM      2  N   UNL d   1      -6.487  -1.223  -0.559  0.00  0.00    -0.378 N 
ATOM      3  C   UNL d   1      -4.686  -0.768   1.086  0.00  0.00     0.142 C 
ATOM      4  C   UNL d   1      -4.750   0.483  -1.030  0.00  0.00     0.142 C 
ATOM      5  C   UNL d   1      -5.649  -1.819   0.496  0.00  0.00     0.143 C 
ATOM      6  C   UNL d   1      -5.720  -0.562  -1.631  0.00  0.00     0.143 C 
ENDROOT
BRANCH   1   7
ATOM      7  C   UNL d   1      -2.503  -0.108  -0.019  0.00  0.00     0.012 A 
ATOM      8  C   UNL d   1      -1.699   0.498  -0.915  0.00  0.00     0.037 A 
ATOM      9  C   UNL d   1      -0.315   0.232  -0.574  0.00  0.00    -0.028 A 
ATOM     10  C   UNL d   1       0.845   0.643  -1.205  0.00  0.00     0.012 A 
ATOM     11  C   UNL d   1      -0.271  -0.565   0.572  0.00  0.00    -0.042 A 
ATOM     12  C   UNL d   1       2.067   0.233  -0.665  0.00  0.00     0.001 A 
ATOM     13  C   UNL d   1       2.109  -0.572   0.486  0.00  0.00     0.001 A 
ATOM     14  C   UNL d   1       0.931  -0.979   1.116  0.00  0.00     0.008 A 
ATOM     15  C   UNL d   1      -1.667  -0.845   1.032  0.00  0.00     0.096 A 
ENDBRANCH   1   7
BRANCH   2  16
ATOM     16  C   UNL d   1      -7.861  -1.294  -0.555  0.00  0.00     0.030 A 
ATOM     17  C   UNL d   1      -8.603  -1.338  -1.746  0.00  0.00     0.031 A 
ATOM     18  C   UNL d   1     -10.002  -1.411  -1.744  0.00  0.00     0.026 A 
ATOM     19  C   UNL d   1     -10.690  -1.437  -0.539  0.00  0.00     0.034 A 
ATOM     20  C   UNL d   1      -9.990  -1.387   0.659  0.00  0.00     0.026 A 
ATOM     21 CL   UNL d   1     -12.406  -1.531  -0.528  0.00  0.00    -0.084 Cl
ATOM     22  C   UNL d   1      -8.592  -1.316   0.644  0.00  0.00     0.031 A 
ENDBRANCH   2  16
TORSDOF 2
