REMARK  5 active torsions:
REMARK  status: ('A' for Active; 'I' for Inactive)
REMARK    1  A    between atoms: N_9  and  C_1 
REMARK    2  A    between atoms: S_8  and  C_2 
REMARK    3  A    between atoms: S_5  and  C_3 
REMARK    4  A    between atoms: N_19  and  S_5 
REMARK    5  A    between atoms: C_7  and  S_8 
ROOT
ATOM      1  C   UNL d   1       1.572   0.738   0.262  0.00  0.00     0.129 A 
ATOM      2  C   UNL d   1       0.316   1.293   0.066  0.00  0.00     0.083 A 
ATOM      3  C   UNL d   1       0.236  -1.188   0.076  0.00  0.00     0.118 A 
ATOM      4  C   UNL d   1       1.514  -0.701   0.252  0.00  0.00     0.070 A 
ATOM      5  S   UNL d   1      -0.895   0.074  -0.077  0.00  0.00    -0.067 SA
ENDROOT
BRANCH   2   6
ATOM      6  S   UNL d   1      -0.167   2.980  -0.120  0.00  0.00    -0.044 SA
BRANCH   6   7
ATOM      7  C   UNL d   1      -0.537   3.342   1.538  0.00  0.00     0.151 A 
ATOM      8  N   UNL d   1      -1.016   4.564   1.937  0.00  0.00    -0.341 N 
ATOM      9  C   UNL d   1      -1.195   4.507   3.297  0.00  0.00     0.109 A 
ATOM     10  C   UNL d   1      -1.307   5.736   1.146  0.00  0.00     0.158 C 
ATOM     11  C   UNL d   1      -0.813   3.238   3.657  0.00  0.00     0.107 A 
ATOM     12  N   UNL d   1      -0.410   2.520   2.560  0.00  0.00    -0.345 N 
ATOM     13  HN  UNL d   1      -0.081   1.555   2.539  1.00  0.00     0.167 HD
ENDBRANCH   6   7
ENDBRANCH   2   6
BRANCH   1  14
ATOM     14  N   UNL d   1       2.814   1.465   0.432  0.00  0.00    -0.114 N 
ATOM     15  O   UNL d   1       2.791   2.700   0.424  0.00  0.00    -0.532 OA
ATOM     16  O   UNL d   1       3.835   0.776   0.560  0.00  0.00    -0.532 OA
ENDBRANCH   1  14
BRANCH   3  17
ATOM     17  S   UNL d   1      -0.408  -2.841  -0.002  0.00  0.00     0.246 S 
ATOM     18  O   UNL d   1      -1.176  -2.909  -1.220  0.00  0.00    -0.206 OA
ATOM     19  O   UNL d   1       0.732  -3.685   0.266  0.00  0.00    -0.206 OA
BRANCH  17  20
ATOM     20  N   UNL d   1      -1.462  -3.011   1.289  0.00  0.00    -0.225 NA
ATOM     21  H   UNL d   1      -2.281  -2.411   1.210  0.00  0.00     0.136 HD
ATOM     22  H   UNL d   1      -0.988  -2.992   2.190  0.00  0.00     0.136 HD
ENDBRANCH  17  20
ENDBRANCH   3  17
TORSDOF 5
