REMARK  4 active torsions:
REMARK  status: ('A' for Active; 'I' for Inactive)
REMARK    1  A    between atoms: C_4  and  C_1 
REMARK    2  A    between atoms: C_3  and  C_2 
REMARK    3  A    between atoms: S_13  and  C_4 
REMARK    4  A    between atoms: C_16  and  S_13 
ROOT
ATOM      1  C   UNL d   1       0.123  -1.242   0.428  0.00  0.00     0.084 A 
ATOM      2  C   UNL d   1      -0.927  -0.363   0.605  0.00  0.00     0.144 A 
ATOM      3  O   UNL d   1      -0.554   0.859   0.121  0.00  0.00    -0.234 OA
ATOM      4  N   UNL d   1       0.755   0.819  -0.311  0.00  0.00    -0.264 N 
ATOM      5  HN  UNL d   1       1.293   1.584  -0.718  1.00  0.00     0.194 HD
ATOM      6  C   UNL d   1       1.171  -0.431  -0.085  0.00  0.00     0.046 A 
ATOM      7  C   UNL d   1       2.573  -0.813  -0.373  0.00  0.00     0.071 C 
ENDROOT
BRANCH   1   8
ATOM      8  C   UNL d   1       0.183  -2.640   0.770  0.00  0.00     0.229 C 
ATOM      9  O   UNL d   1       0.832  -3.062   1.716  0.00  0.00    -0.279 OA
BRANCH   8  10
ATOM     10  S   UNL d   1      -0.604  -3.646  -0.438  0.00  0.00    -0.047 SA
BRANCH  10  11
ATOM     11  C   UNL d   1      -0.029  -5.311  -0.152  0.00  0.00     0.008 A 
ATOM     12  C   UNL d   1       1.267  -5.632   0.266  0.00  0.00     0.019 A 
ATOM     13  C   UNL d   1       1.663  -6.966   0.407  0.00  0.00     0.001 A 
ATOM     14  C   UNL d   1       0.773  -7.997   0.106  0.00  0.00     0.000 A 
ATOM     15  C   UNL d   1      -0.512  -7.693  -0.331  0.00  0.00     0.001 A 
ATOM     16  C   UNL d   1      -0.909  -6.359  -0.459  0.00  0.00     0.019 A 
ENDBRANCH  10  11
ENDBRANCH   8  10
ENDBRANCH   1   8
BRANCH   2  17
ATOM     17  C   UNL d   1      -2.238  -0.603   1.262  0.00  0.00     0.094 A 
ATOM     18  N   UNL d   1      -2.599  -1.778   1.788  0.00  0.00    -0.258 N 
ATOM     19  O   UNL d   1      -3.831  -1.559   2.382  0.00  0.00    -0.242 OA
ATOM     20  HN  UNL d   1      -2.076  -2.653   1.758  1.00  0.00     0.195 HD
ATOM     21  C   UNL d   1      -4.193  -0.260   2.207  0.00  0.00     0.074 A 
ATOM     22  C   UNL d   1      -3.229   0.382   1.471  0.00  0.00     0.068 A 
ATOM     23  C   UNL d   1      -5.458   0.163   2.832  0.00  0.00     0.079 C 
ENDBRANCH   2  17
TORSDOF 4
