REMARK  3 active torsions:
REMARK  status: ('A' for Active; 'I' for Inactive)
REMARK    1  A    between atoms: C_4  and  C_1 
REMARK    2  A    between atoms: S_9  and  C_4 
REMARK    3  A    between atoms: C_12  and  S_9 
ROOT
ATOM      1  C   UNL d   1       0.764   1.387  -0.243  0.00  0.00     0.301 C 
ATOM      2  C   UNL d   1      -0.772   1.343  -0.239  0.00  0.00     0.165 C 
ATOM      3  N   UNL d   1       1.260  -0.006   0.041  0.00  0.00     0.101 N 
ATOM      4  C   UNL d   1      -1.339  -0.042   0.019  0.00  0.00     0.061 C 
ATOM      5  C   UNL d   1       0.773  -0.911  -1.026  0.00  0.00     0.274 C 
ATOM      6  C   UNL d   1       0.747  -0.499   1.337  0.00  0.00     0.274 C 
ATOM      7  O   UNL d   1      -1.482   2.326  -0.426  0.00  0.00    -0.295 OA
ATOM      8  C   UNL d   1      -0.790  -0.457   1.388  0.00  0.00     0.042 C 
ATOM      9  C   UNL d   1      -0.765  -0.954  -1.069  0.00  0.00     0.042 C 
ENDROOT
BRANCH   1  10
ATOM     10  C   UNL d   1       1.258   2.485   0.721  0.00  0.00     0.123 C 
BRANCH  10  11
ATOM     11  S   UNL d   1       3.086   2.628   0.665  0.00  0.00    -0.127 SA
BRANCH  11  12
ATOM     12  C   UNL d   1       3.449   3.780   1.979  0.00  0.00     0.000 A 
ATOM     13  C   UNL d   1       4.666   3.618   2.656  0.00  0.00     0.020 A 
ATOM     14  C   UNL d   1       5.059   4.517   3.653  0.00  0.00     0.025 A 
ATOM     15  C   UNL d   1       4.235   5.591   3.973  0.00  0.00     0.034 A 
ATOM     16  C   UNL d   1       3.024   5.769   3.308  0.00  0.00     0.025 A 
ATOM     17 CL   UNL d   1       4.723   6.713   5.183  0.00  0.00    -0.084 Cl
ATOM     18  C   UNL d   1       2.633   4.867   2.311  0.00  0.00     0.020 A 
ENDBRANCH  11  12
ENDBRANCH  10  11
ENDBRANCH   1  10
TORSDOF 3
