REMARK  4 active torsions:
REMARK  status: ('A' for Active; 'I' for Inactive)
REMARK       I    between atoms: C_2  and  N_1 
REMARK       I    between atoms: C_4  and  N_1 
REMARK    1  A    between atoms: C_6  and  N_1 
REMARK       I    between atoms: N_3  and  C_2 
REMARK    2  A    between atoms: C_9  and  N_3 
REMARK    3  A    between atoms: C_11  and  C_4 
REMARK    4  A    between atoms: C_7  and  C_6 
ROOT
ATOM      1  N   UNL d   1       0.064   3.558  -2.940  0.00  0.00    -0.197 NA
ATOM      2  C   UNL d   1       0.583   2.836  -2.197  0.00  0.00     0.068 C 
ATOM      3  C   UNL d   1       1.309   1.932  -1.297  0.00  0.00     0.227 C 
ENDROOT
BRANCH   3   4
ATOM      4  C   UNL d   1       0.367   1.131  -0.413  0.00  0.00     0.241 C 
ATOM      5  N   UNL d   1       0.906   0.056   0.311  0.00  0.00    -0.264 N 
ATOM      6  C   UNL d   1       0.162  -0.733   1.220  0.00  0.00     0.330 C 
ATOM      7  N   UNL d   1      -1.185  -0.457   1.284  0.00  0.00    -0.308 N 
ATOM      8  O   UNL d   1       0.703  -1.595   1.915  0.00  0.00    -0.246 OA
ATOM      9  H   UNL d   1      -1.573   0.092   0.522  0.00  0.00     0.170 HD
ATOM     10  O   UNL d   1      -0.831   1.424  -0.354  0.00  0.00    -0.272 OA
BRANCH   5  11
ATOM     11  C   UNL d   1       2.350  -0.192   0.370  0.00  0.00     0.182 C 
BRANCH  11  12
ATOM     12  C   UNL d   1       2.810  -1.321  -0.517  0.00  0.00     0.001 A 
ATOM     13  S   UNL d   1       4.257  -2.144  -0.064  0.00  0.00    -0.105 SA
ATOM     14  C   UNL d   1       4.204  -3.151  -1.439  0.00  0.00     0.050 A 
ATOM     15  C   UNL d   1       3.115  -2.880  -2.232  0.00  0.00     0.008 A 
ATOM     16  C   UNL d   1       2.304  -1.829  -1.699  0.00  0.00     0.017 A 
ENDBRANCH  11  12
ENDBRANCH   5  11
BRANCH   7  17
ATOM     17  C   UNL d   1      -2.078  -0.869   2.295  0.00  0.00     0.042 A 
ATOM     18  C   UNL d   1      -3.452  -1.000   2.018  0.00  0.00    -0.035 A 
ATOM     19  C   UNL d   1      -4.036  -0.939   0.632  0.00  0.00     0.050 C 
ATOM     20  C   UNL d   1      -4.333  -1.309   3.072  0.00  0.00     0.009 A 
ATOM     21  C   UNL d   1      -3.868  -1.474   4.375  0.00  0.00     0.001 A 
ATOM     22  C   UNL d   1      -2.510  -1.352   4.643  0.00  0.00     0.002 A 
ATOM     23  C   UNL d   1      -1.621  -1.061   3.607  0.00  0.00     0.030 A 
ENDBRANCH   7  17
ENDBRANCH   3   4
TORSDOF 4
