REMARK  4 active torsions:
REMARK  status: ('A' for Active; 'I' for Inactive)
REMARK    1  A    between atoms: C_8  and  N_4 
REMARK    2  A    between atoms: C_14  and  C_6 
REMARK    3  A    between atoms: O_15  and  C_9 
REMARK    4  A    between atoms: O_16  and  C_14 
ROOT
ATOM      1  C   UNL d   1      -0.525  -0.994  -0.162  0.00  0.00     0.141 C 
ATOM      2  N   UNL d   1      -0.984   0.197   0.327  0.00  0.00    -0.359 N 
ATOM      3  S   UNL d   1       1.226  -1.026  -0.041  0.00  0.00    -0.092 SA
ATOM      4  N   UNL d   1      -1.323  -1.939  -0.544  0.00  0.00    -0.337 N 
ATOM      5  HN  UNL d   1      -2.325  -1.748  -0.559  1.00  0.00     0.168 HD
ATOM      6  C   UNL d   1      -0.083   0.890   1.263  0.00  0.00     0.058 C 
ATOM      7  C   UNL d   1       1.129  -0.039   1.485  0.00  0.00     0.115 C 
ATOM      8  C   UNL d   1      -0.832   1.128   2.581  0.00  0.00     0.041 C 
ATOM      9  H   UNL d   1      -1.975   0.181   0.548  0.00  0.00     0.162 HD
ENDROOT
BRANCH   4  10
ATOM     10  C   UNL d   1      -0.883  -3.210  -0.939  0.00  0.00     0.034 A 
ATOM     11  C   UNL d   1      -0.025  -4.000  -0.164  0.00  0.00     0.032 A 
ATOM     12  C   UNL d   1       0.380  -5.270  -0.591  0.00  0.00     0.039 A 
ATOM     13  C   UNL d   1      -0.122  -5.800  -1.776  0.00  0.00     0.068 A 
ATOM     14  C   UNL d   1      -1.044  -5.057  -2.514  0.00  0.00     0.039 A 
ATOM     15  C   UNL d   1      -1.414  -3.771  -2.102  0.00  0.00     0.032 A 
BRANCH  13  16
ATOM     16  O   UNL d   1       0.188  -7.029  -2.294  0.00  0.00    -0.356 OA
ATOM     17  C   UNL d   1       1.296  -7.701  -1.703  0.00  0.00     0.210 C 
ENDBRANCH  13  16
ENDBRANCH   4  10
BRANCH   6  18
ATOM     18  C   UNL d   1       0.386   2.227   0.647  0.00  0.00     0.195 C 
BRANCH  18  19
ATOM     19  O   UNL d   1      -0.715   3.103   0.404  0.00  0.00    -0.398 OA
ATOM     20  H   UNL d   1      -1.283   2.639  -0.238  0.00  0.00     0.209 HD
ENDBRANCH  18  19
ENDBRANCH   6  18
TORSDOF 4
