REMARK  0 active torsions:
REMARK  status: ('A' for Active; 'I' for Inactive)
ROOT
ATOM      1  C   UNL d   1      -1.901   1.242  -0.021  0.00  0.00    -0.041 A 
ATOM      2  C   UNL d   1      -1.723  -0.127  -0.234  0.00  0.00    -0.041 A 
ATOM      3  C   UNL d   1      -0.799   2.088   0.062  0.00  0.00     0.015 A 
ATOM      4  C   UNL d   1      -0.441  -0.655  -0.356  0.00  0.00     0.015 A 
ATOM      5  C   UNL d   1       0.502   1.572  -0.072  0.00  0.00    -0.056 A 
ATOM      6  C   UNL d   1       0.683   0.187  -0.285  0.00  0.00    -0.056 A 
ATOM      7  S   UNL d   1      -4.372   0.232  -0.175  0.00  0.00    -0.160 SA
ATOM      8  C   UNL d   1      -2.978  -0.939  -0.310  0.00  0.00     0.113 A 
ATOM      9  C   UNL d   1      -3.321   1.695   0.115  0.00  0.00     0.113 A 
ATOM     10  C   UNL d   1       1.669   2.519   0.018  0.00  0.00     0.049 C 
ATOM     11  C   UNL d   1       2.044  -0.450  -0.385  0.00  0.00     0.049 C 
ENDROOT
TORSDOF 0
