REMARK  2 active torsions:
REMARK  status: ('A' for Active; 'I' for Inactive)
REMARK    1  A    between atoms: C_9  and  O_13 
REMARK    2  A    between atoms: C_10  and  O_12 
ROOT
ATOM      1  C   UNL d   1      -0.407  -0.704   1.468  0.00  0.00     0.002 A 
ATOM      2  C   UNL d   1       1.048  -0.203   1.494  0.00  0.00     0.002 A 
ATOM      3  C   UNL d   1      -0.473  -0.427  -0.908  0.00  0.00     0.026 C 
ATOM      4  C   UNL d   1       1.012   0.080  -0.882  0.00  0.00     0.026 C 
ATOM      5  C   UNL d   1      -0.904   0.719   1.117  0.00  0.00     0.026 A 
ATOM      6  C   UNL d   1       0.576   1.227   1.147  0.00  0.00     0.026 A 
ATOM      7  C   UNL d   1      -0.453  -1.544   0.173  0.00  0.00    -0.002 C 
ATOM      8  C   UNL d   1       1.644  -0.823   0.211  0.00  0.00    -0.002 C 
ATOM      9  C   UNL d   1       1.153   1.470  -0.249  0.00  0.00     0.128 C 
ATOM     10  C   UNL d   1      -1.455   0.580  -0.303  0.00  0.00     0.128 C 
ATOM     11  C   UNL d   1       0.930  -2.152   0.077  0.00  0.00     0.011 C 
ENDROOT
BRANCH   9  12
ATOM     12  O   UNL d   1       2.528   1.824  -0.160  0.00  0.00    -0.395 OA
ATOM     13  H   UNL d   1       2.630   2.465   0.563  0.00  0.00     0.210 HD
ENDBRANCH   9  12
BRANCH  10  14
ATOM     14  O   UNL d   1      -2.766   0.032  -0.265  0.00  0.00    -0.395 OA
ATOM     15  H   UNL d   1      -3.322   0.632   0.261  0.00  0.00     0.210 HD
ENDBRANCH  10  14
TORSDOF 2
