REMARK  7 active torsions:
REMARK  status: ('A' for Active; 'I' for Inactive)
REMARK    1  A    between atoms: N_6  and  S_1 
REMARK    2  A    between atoms: O_10  and  N_2 
REMARK    3  A    between atoms: C_4  and  O_10 
REMARK       I    between atoms: N_9  and  C_4 
REMARK    4  A    between atoms: C_5  and  C_11 
REMARK    5  A    between atoms: N_15  and  C_5 
REMARK    6  A    between atoms: C_16  and  N_6 
REMARK    7  A    between atoms: C_18  and  N_9 
ROOT
ATOM      1  N   UNL d   1       0.948   0.455  -7.800  0.00  0.00    -0.244 N 
ATOM      2  HN  UNL d   1       1.110   0.959  -8.672  1.00  0.00     0.196 HD
ATOM      3  C   UNL d   1       1.802   0.321  -6.817  0.00  0.00     0.109 C 
ENDROOT
BRANCH   3   4
ATOM      4  C   UNL d   1       3.181   0.901  -6.927  0.00  0.00     0.004 A 
ATOM      5  C   UNL d   1       3.448   1.970  -7.786  0.00  0.00     0.016 A 
ATOM      6  C   UNL d   1       4.732   2.531  -7.829  0.00  0.00     0.025 A 
ATOM      7  C   UNL d   1       5.747   2.020  -7.016  0.00  0.00     0.022 A 
ATOM      8  C   UNL d   1       5.500   0.930  -6.187  0.00  0.00     0.025 A 
ATOM      9  C   UNL d   1       4.219   0.375  -6.138  0.00  0.00     0.016 A 
BRANCH   7  10
ATOM     10  N   UNL d   1       7.050   2.593  -7.034  0.00  0.00    -0.186 NA
ATOM     11  H   UNL d   1       7.073   3.614  -7.000  0.00  0.00     0.145 HD
BRANCH  10  12
ATOM     12  S   UNL d   1       8.124   2.075  -8.235  0.00  0.00     0.210 S 
ATOM     13  O   UNL d   1       8.979   3.216  -8.486  0.00  0.00    -0.211 OA
ATOM     14  O   UNL d   1       7.404   1.426  -9.307  0.00  0.00    -0.211 OA
ATOM     15  C   UNL d   1       9.088   0.866  -7.355  0.00  0.00     0.180 C 
ENDBRANCH  10  12
ENDBRANCH   7  10
ENDBRANCH   3   4
BRANCH   3  16
ATOM     16  N   UNL d   1       1.483  -0.338  -5.646  0.00  0.00    -0.286 NA
ATOM     17  H   UNL d   1       0.486  -0.522  -5.568  0.00  0.00     0.125 HD
ATOM     18  H   UNL d   1       1.857   0.066  -4.794  0.00  0.00     0.125 HD
ENDBRANCH   3  16
BRANCH   1  19
ATOM     19  O   UNL d   1      -0.244  -0.226  -7.435  0.00  0.00    -0.179 OA
BRANCH  19  20
ATOM     20  C   UNL d   1      -1.235  -0.240  -8.395  0.00  0.00     0.387 C 
ATOM     21  N   UNL d   1      -0.980   0.533  -9.501  0.00  0.00    -0.301 N 
ATOM     22  H   UNL d   1      -0.076   0.991  -9.453  0.00  0.00     0.171 HD
ATOM     23  O   UNL d   1      -2.251  -0.897  -8.182  0.00  0.00    -0.236 OA
BRANCH  21  24
ATOM     24  C   UNL d   1      -1.815   0.738 -10.617  0.00  0.00     0.036 A 
ATOM     25  C   UNL d   1      -3.062   0.122 -10.777  0.00  0.00     0.029 A 
ATOM     26  C   UNL d   1      -3.843   0.358 -11.913  0.00  0.00     0.002 A 
ATOM     27  C   UNL d   1      -3.389   1.218 -12.906  0.00  0.00     0.000 A 
ATOM     28  C   UNL d   1      -2.154   1.845 -12.759  0.00  0.00     0.002 A 
ATOM     29  C   UNL d   1      -1.371   1.607 -11.622  0.00  0.00     0.029 A 
ENDBRANCH  21  24
ENDBRANCH  19  20
ENDBRANCH   1  19
TORSDOF 7
