REMARK  2 active torsions:
REMARK  status: ('A' for Active; 'I' for Inactive)
REMARK       I    between atoms: C_2  and  N_1 
REMARK    1  A    between atoms: C_3  and  N_1 
REMARK    2  A    between atoms: C_6  and  C_2 
ROOT
ATOM      1  N   UNL d   1       1.145  -0.236  -0.209  0.00  0.00    -0.303 N 
ATOM      2  C   UNL d   1       0.249  -1.216   0.153  0.00  0.00     0.258 C 
ATOM      3  O   UNL d   1      -0.919  -1.292  -0.214  0.00  0.00    -0.267 OA
ATOM      4  H   UNL d   1       2.089  -0.224   0.135  0.00  0.00     0.171 HD
ENDROOT
BRANCH   2   5
ATOM      5  C   UNL d   1       0.759  -2.306   1.052  0.00  0.00     0.038 A 
ATOM      6  C   UNL d   1       1.699  -2.167   2.095  0.00  0.00    -0.046 A 
ATOM      7  C   UNL d   1       2.357  -0.879   2.504  0.00  0.00     0.049 C 
ATOM      8  C   UNL d   1       2.057  -3.312   2.838  0.00  0.00     0.007 A 
ATOM      9  C   UNL d   1       1.463  -4.552   2.602  0.00  0.00     0.001 A 
ATOM     10  C   UNL d   1       0.506  -4.678   1.605  0.00  0.00     0.001 A 
ATOM     11  C   UNL d   1       0.166  -3.568   0.834  0.00  0.00     0.017 A 
ENDBRANCH   2   5
BRANCH   1  12
ATOM     12  C   UNL d   1       0.793   0.785  -1.049  0.00  0.00     0.151 A 
ATOM     13  N   UNL d   1      -0.290   0.944  -1.766  0.00  0.00    -0.346 N 
ATOM     14  C   UNL d   1      -0.210   2.124  -2.473  0.00  0.00     0.097 A 
ATOM     15  HN  UNL d   1      -1.075   0.294  -1.796  1.00  0.00     0.167 HD
ATOM     16  C   UNL d   1       0.929   2.871  -2.253  0.00  0.00     0.070 A 
ATOM     17  S   UNL d   1       1.962   2.030  -1.167  0.00  0.00    -0.064 SA
ENDBRANCH   1  12
TORSDOF 2
