REMARK  3 active torsions:
REMARK  status: ('A' for Active; 'I' for Inactive)
REMARK    1  A    between atoms: C_2  and  C_1 
REMARK       I    between atoms: N_3  and  C_2 
REMARK    2  A    between atoms: C_7  and  N_3 
REMARK    3  A    between atoms: N_10  and  C_4 
ROOT
ATOM      1  C   UNL d   1       1.859   1.419   0.791  0.00  0.00     0.054 A 
ATOM      2  C   UNL d   1       0.757   1.500   1.677  0.00  0.00     0.023 A 
ATOM      3  C   UNL d   1       2.210   0.179   0.225  0.00  0.00     0.042 A 
ATOM      4  C   UNL d   1      -0.018   0.343   1.892  0.00  0.00     0.026 A 
ATOM      5  C   UNL d   1       1.459  -0.959   0.512  0.00  0.00     0.035 A 
ATOM      6  C   UNL d   1       0.331  -0.880   1.319  0.00  0.00     0.026 A 
ATOM      7 CL   UNL d   1       1.927  -2.482  -0.139  0.00  0.00    -0.084 Cl
ENDROOT
BRANCH   1   8
ATOM      8  C   UNL d   1       2.604   2.643   0.348  0.00  0.00     0.254 C 
ATOM      9  N   UNL d   1       3.973   2.497   0.165  0.00  0.00    -0.349 N 
ATOM     10  H   UNL d   1       4.391   1.646   0.519  0.00  0.00     0.163 HD
ATOM     11  O   UNL d   1       2.014   3.696   0.152  0.00  0.00    -0.268 OA
BRANCH   9  12
ATOM     12  C   UNL d   1       4.898   3.621  -0.084  0.00  0.00     0.022 C 
ATOM     13  C   UNL d   1       4.984   4.511   1.164  0.00  0.00     0.037 C 
ATOM     14  C   UNL d   1       6.295   3.040  -0.375  0.00  0.00     0.037 C 
ATOM     15  C   UNL d   1       4.490   4.470  -1.302  0.00  0.00     0.037 C 
ENDBRANCH   9  12
ENDBRANCH   1   8
BRANCH   2  16
ATOM     16  N   UNL d   1       0.417   2.639   2.436  0.00  0.00    -0.296 NA
ATOM     17  C   UNL d   1       1.481   3.134   3.299  0.00  0.00     0.113 C 
ATOM     18  H   UNL d   1      -0.465   2.539   2.929  0.00  0.00     0.127 HD
ENDBRANCH   2  16
TORSDOF 3
