REMARK  5 active torsions:
REMARK  status: ('A' for Active; 'I' for Inactive)
REMARK    1  A    between atoms: C_5  and  N_1 
REMARK    2  A    between atoms: N_2  and  C_4 
REMARK    3  A    between atoms: C_3  and  C_16 
REMARK       I    between atoms: N_8  and  C_3 
REMARK    4  A    between atoms: C_17  and  N_8 
REMARK    5  A    between atoms: C_16  and  C_18 
ROOT
ATOM      1  C   UNL d   1      -1.162   1.306   5.851  0.00  0.00     0.226 C 
ATOM      2  N   UNL d   1      -0.175   2.147   5.360  0.00  0.00    -0.327 N 
ATOM      3  O   UNL d   1      -1.592   1.299   7.002  0.00  0.00    -0.273 OA
ATOM      4  H   UNL d   1      -0.082   2.205   4.354  0.00  0.00     0.169 HD
ENDROOT
BRANCH   1   5
ATOM      5  C   UNL d   1      -1.688   0.327   4.814  0.00  0.00     0.141 C 
BRANCH   5   6
ATOM      6  C   UNL d   1      -3.029   0.644   4.190  0.00  0.00    -0.049 A 
ATOM      7  C   UNL d   1      -3.392  -0.055   3.024  0.00  0.00     0.010 A 
ATOM      8  C   UNL d   1      -4.675   0.063   2.484  0.00  0.00     0.036 A 
ATOM      9  C   UNL d   1      -5.612   0.887   3.116  0.00  0.00     0.102 A 
ATOM     10  C   UNL d   1      -5.257   1.624   4.251  0.00  0.00     0.036 A 
ATOM     11  C   UNL d   1      -3.970   1.496   4.786  0.00  0.00     0.010 A 
BRANCH   9  12
ATOM     12  N   UNL d   1      -6.991   0.938   2.613  0.00  0.00    -0.116 N 
ATOM     13  O   UNL d   1      -7.815   1.607   3.252  0.00  0.00    -0.532 OA
ATOM     14  O   UNL d   1      -7.252   0.298   1.584  0.00  0.00    -0.532 OA
ENDBRANCH   9  12
ENDBRANCH   5   6
ENDBRANCH   1   5
BRANCH   2  15
ATOM     15  C   UNL d   1       0.694   2.957   6.119  0.00  0.00     0.034 A 
ATOM     16  C   UNL d   1       0.793   2.889   7.514  0.00  0.00     0.032 A 
ATOM     17  C   UNL d   1       1.724   3.670   8.206  0.00  0.00     0.038 A 
ATOM     18  C   UNL d   1       2.564   4.534   7.497  0.00  0.00     0.103 A 
ATOM     19  C   UNL d   1       2.472   4.623   6.103  0.00  0.00     0.038 A 
ATOM     20  C   UNL d   1       1.540   3.829   5.423  0.00  0.00     0.032 A 
BRANCH  18  21
ATOM     21  N   UNL d   1       3.559   5.338   8.217  0.00  0.00    -0.116 N 
ATOM     22  O   UNL d   1       3.649   5.183   9.444  0.00  0.00    -0.532 OA
ATOM     23  O   UNL d   1       4.256   6.119   7.554  0.00  0.00    -0.532 OA
ENDBRANCH  18  21
ENDBRANCH   2  15
TORSDOF 5
