REMARK  4 active torsions:
REMARK  status: ('A' for Active; 'I' for Inactive)
REMARK    1  A    between atoms: S_5  and  C_1 
REMARK    2  A    between atoms: S_6  and  C_2 
REMARK    3  A    between atoms: C_7  and  S_5 
REMARK    4  A    between atoms: C_8  and  S_6 
ROOT
ATOM      1  C   UNL d   1      -0.676  -1.484   0.017  0.00  0.00     0.081 A 
ATOM      2  C   UNL d   1       0.681  -1.551  -0.036  0.00  0.00     0.081 A 
ATOM      3  C   UNL d   1      -0.675  -0.020  -0.057  0.00  0.00     0.241 A 
ATOM      4  C   UNL d   1       0.819  -0.091  -0.065  0.00  0.00     0.241 A 
ATOM      5  O   UNL d   1       1.676   0.756  -0.111  0.00  0.00    -0.283 OA
ATOM      6  O   UNL d   1      -1.456   0.893  -0.132  0.00  0.00    -0.283 OA
ENDROOT
BRANCH   1   7
ATOM      7  S   UNL d   1      -1.918  -2.696   0.022  0.00  0.00    -0.081 SA
BRANCH   7   8
ATOM      8  C   UNL d   1      -2.881  -2.143  -1.393  0.00  0.00     0.049 A 
ATOM      9  C   UNL d   1      -2.417  -2.318  -2.715  0.00  0.00     0.052 A 
ATOM     10 CL   UNL d   1      -0.853  -2.964  -3.088  0.00  0.00    -0.083 Cl
ATOM     11  C   UNL d   1      -3.223  -1.992  -3.813  0.00  0.00     0.025 A 
ATOM     12  C   UNL d   1      -4.509  -1.500  -3.621  0.00  0.00     0.003 A 
ATOM     13  C   UNL d   1      -4.988  -1.320  -2.327  0.00  0.00     0.025 A 
ATOM     14  C   UNL d   1      -4.186  -1.637  -1.222  0.00  0.00     0.052 A 
ATOM     15 CL   UNL d   1      -4.897  -1.391   0.341  0.00  0.00    -0.083 Cl
ENDBRANCH   7   8
ENDBRANCH   1   7
BRANCH   2  16
ATOM     16  S   UNL d   1       1.801  -2.868  -0.225  0.00  0.00    -0.081 SA
BRANCH  16  17
ATOM     17  C   UNL d   1       2.302  -3.075   1.488  0.00  0.00     0.049 A 
ATOM     18  C   UNL d   1       1.646  -3.991   2.337  0.00  0.00     0.052 A 
ATOM     19 CL   UNL d   1       0.287  -4.939   1.831  0.00  0.00    -0.083 Cl
ATOM     20  C   UNL d   1       2.092  -4.213   3.647  0.00  0.00     0.025 A 
ATOM     21  C   UNL d   1       3.215  -3.550   4.129  0.00  0.00     0.003 A 
ATOM     22  C   UNL d   1       3.891  -2.658   3.303  0.00  0.00     0.025 A 
ATOM     23  C   UNL d   1       3.444  -2.421   1.996  0.00  0.00     0.052 A 
ATOM     24 CL   UNL d   1       4.388  -1.318   1.050  0.00  0.00    -0.083 Cl
ENDBRANCH  16  17
ENDBRANCH   2  16
TORSDOF 4
