REMARK  1 active torsions:
REMARK  status: ('A' for Active; 'I' for Inactive)
REMARK    1  A    between atoms: C_2  and  C_1 
ROOT
ATOM      1  C   UNL d   1       2.332   0.069   0.027  0.00  0.00     0.250 A 
ATOM      2  N   UNL d   1       1.893  -1.308   0.395  0.00  0.00    -0.260 NA
ATOM      3  O   UNL d   1       3.015   0.711   1.145  0.00  0.00    -0.325 OA
ATOM      4  C   UNL d   1       2.494  -1.449   1.655  0.00  0.00     0.044 A 
ATOM      5  C   UNL d   1       3.081  -0.275   2.086  0.00  0.00     0.092 A 
ATOM      6  C   UNL d   1       2.488  -2.565   2.467  0.00  0.00     0.026 A 
ATOM      7  C   UNL d   1       3.678  -0.148   3.323  0.00  0.00     0.039 A 
ATOM      8  C   UNL d   1       3.091  -2.471   3.728  0.00  0.00     0.002 A 
ATOM      9  C   UNL d   1       3.679  -1.267   4.155  0.00  0.00     0.003 A 
ATOM     10  H   UNL d   1       2.162  -2.028  -0.269  0.00  0.00     0.130 HD
ENDROOT
BRANCH   1  11
ATOM     11  C   UNL d   1       3.263   0.117  -1.239  0.00  0.00     0.250 A 
ATOM     12  N   UNL d   1       4.214  -1.028  -1.327  0.00  0.00    -0.260 NA
ATOM     13  C   UNL d   1       3.769  -1.652  -2.503  0.00  0.00     0.044 A 
ATOM     14  H   UNL d   1       4.213  -1.640  -0.516  0.00  0.00     0.130 HD
ATOM     15  C   UNL d   1       4.240  -2.822  -3.062  0.00  0.00     0.026 A 
ATOM     16  C   UNL d   1       2.794  -0.911  -3.146  0.00  0.00     0.092 A 
ATOM     17  C   UNL d   1       3.703  -3.234  -4.289  0.00  0.00     0.002 A 
ATOM     18  C   UNL d   1       2.716  -2.468  -4.935  0.00  0.00     0.003 A 
ATOM     19  C   UNL d   1       2.250  -1.287  -4.357  0.00  0.00     0.039 A 
ATOM     20  O   UNL d   1       2.435   0.197  -2.437  0.00  0.00    -0.325 OA
ENDBRANCH   1  11
TORSDOF 1
