REMARK  6 active torsions:
REMARK  status: ('A' for Active; 'I' for Inactive)
REMARK    1  A    between atoms: C_2  and  S_1 
REMARK    2  A    between atoms: C_6  and  S_1 
REMARK    3  A    between atoms: N_10  and  C_3 
REMARK    4  A    between atoms: C_13  and  N_7 
REMARK    5  A    between atoms: C_18  and  N_10 
REMARK    6  A    between atoms: C_23  and  C_13 
ROOT
ATOM      1  C   UNL d   1       0.975  -0.119   0.709  0.00  0.00     0.159 C 
ATOM      2  C   UNL d   1       0.062  -0.712   1.504  0.00  0.00     0.118 C 
ATOM      3  C   UNL d   1       1.652  -0.804  -0.323  0.00  0.00     0.113 C 
ATOM      4  N   UNL d   1       2.193  -1.372  -1.173  0.00  0.00    -0.191 NA
ENDROOT
BRANCH   1   5
ATOM      5  S   UNL d   1       1.409   1.534   1.008  0.00  0.00     0.218 S 
ATOM      6  O   UNL d   1       2.602   1.565   1.833  0.00  0.00    -0.216 OA
ATOM      7  O   UNL d   1       0.234   2.284   1.423  0.00  0.00    -0.216 OA
BRANCH   5   8
ATOM      8  C   UNL d   1       1.881   2.218  -0.584  0.00  0.00     0.065 A 
ATOM      9  C   UNL d   1       0.919   2.849  -1.381  0.00  0.00     0.025 A 
ATOM     10  C   UNL d   1       1.299   3.425  -2.597  0.00  0.00     0.025 A 
ATOM     11  C   UNL d   1       2.633   3.382  -3.005  0.00  0.00     0.034 A 
ATOM     12  C   UNL d   1       3.599   2.782  -2.195  0.00  0.00     0.025 A 
ATOM     13 CL   UNL d   1       3.091   4.082  -4.508  0.00  0.00    -0.084 Cl
ATOM     14  C   UNL d   1       3.228   2.207  -0.976  0.00  0.00     0.025 A 
ENDBRANCH   5   8
ENDBRANCH   1   5
BRANCH   2  15
ATOM     15  N   UNL d   1      -0.393  -2.022   1.491  0.00  0.00    -0.392 N 
ATOM     16  H   UNL d   1       0.190  -2.692   0.984  0.00  0.00     0.159 HD
BRANCH  15  17
ATOM     17  C   UNL d   1      -1.359  -2.618   2.432  0.00  0.00     0.084 C 
ATOM     18  C   UNL d   1      -1.525  -4.120   2.181  0.00  0.00     0.055 C 
ATOM     19  C   UNL d   1      -2.283  -4.426   0.885  0.00  0.00     0.275 C 
ATOM     20  N   UNL d   1      -3.561  -3.702   0.741  0.00  0.00     0.092 N 
ATOM     21  C   UNL d   1      -3.392  -2.258   0.976  0.00  0.00     0.275 C 
ATOM     22  C   UNL d   1      -2.732  -1.960   2.323  0.00  0.00     0.055 C 
BRANCH  20  23
ATOM     23  C   UNL d   1      -4.086  -3.960  -0.624  0.00  0.00     0.311 C 
BRANCH  23  24
ATOM     24  C   UNL d   1      -5.409  -3.300  -0.953  0.00  0.00    -0.030 A 
ATOM     25  C   UNL d   1      -5.477  -2.311  -1.949  0.00  0.00     0.009 A 
ATOM     26  C   UNL d   1      -6.692  -1.702  -2.267  0.00  0.00     0.001 A 
ATOM     27  C   UNL d   1      -7.854  -2.077  -1.598  0.00  0.00     0.000 A 
ATOM     28  C   UNL d   1      -7.802  -3.064  -0.613  0.00  0.00     0.001 A 
ATOM     29  C   UNL d   1      -6.587  -3.672  -0.291  0.00  0.00     0.009 A 
ENDBRANCH  23  24
ENDBRANCH  20  23
ENDBRANCH  15  17
ENDBRANCH   2  15
TORSDOF 6
