REMARK  2 active torsions:
REMARK  status: ('A' for Active; 'I' for Inactive)
REMARK    1  A    between atoms: C_6  and  C_4 
REMARK    2  A    between atoms: C_7  and  C_5 
ROOT
ATOM      1  C   UNL d   1      -1.277  -0.021   0.141  0.00  0.00    -0.007 C 
ATOM      2  C   UNL d   1       1.282   0.069   0.188  0.00  0.00    -0.007 C 
ATOM      3  C   UNL d   1       0.033  -0.747   0.017  0.00  0.00     0.184 C 
ATOM      4  C   UNL d   1      -2.374  -0.793   0.275  0.00  0.00     0.024 C 
ATOM      5  C   UNL d   1       2.431  -0.622   0.326  0.00  0.00     0.024 C 
ATOM      6  O   UNL d   1       0.077  -1.954  -0.203  0.00  0.00    -0.287 OA
ATOM      7  C   UNL d   1       1.186   1.567   0.193  0.00  0.00     0.043 C 
ATOM      8  C   UNL d   1      -1.297   1.480   0.113  0.00  0.00     0.043 C 
ATOM      9  C   UNL d   1      -0.052   2.058  -0.543  0.00  0.00     0.009 C 
ENDROOT
BRANCH   4  10
ATOM     10  C   UNL d   1      -3.741  -0.286   0.451  0.00  0.00    -0.014 A 
ATOM     11  C   UNL d   1      -4.296  -0.014   1.713  0.00  0.00     0.044 A 
ATOM     12 CL   UNL d   1      -3.386  -0.210   3.171  0.00  0.00    -0.083 Cl
ATOM     13  C   UNL d   1      -5.618   0.428   1.823  0.00  0.00     0.024 A 
ATOM     14  C   UNL d   1      -6.392   0.614   0.678  0.00  0.00     0.002 A 
ATOM     15  C   UNL d   1      -5.844   0.365  -0.578  0.00  0.00     0.001 A 
ATOM     16  C   UNL d   1      -4.526  -0.084  -0.693  0.00  0.00     0.013 A 
ENDBRANCH   4  10
BRANCH   5  17
ATOM     17  C   UNL d   1       3.741  -0.013   0.596  0.00  0.00    -0.014 A 
ATOM     18  C   UNL d   1       4.630   0.391  -0.411  0.00  0.00     0.044 A 
ATOM     19 CL   UNL d   1       4.238   0.244  -2.088  0.00  0.00    -0.083 Cl
ATOM     20  C   UNL d   1       5.873   0.939  -0.075  0.00  0.00     0.024 A 
ATOM     21  C   UNL d   1       6.234   1.094   1.264  0.00  0.00     0.002 A 
ATOM     22  C   UNL d   1       5.351   0.709   2.271  0.00  0.00     0.001 A 
ATOM     23  C   UNL d   1       4.111   0.158   1.939  0.00  0.00     0.013 A 
ENDBRANCH   5  17
TORSDOF 2
