REMARK  7 active torsions:
REMARK  status: ('A' for Active; 'I' for Inactive)
REMARK    1  A    between atoms: C_2  and  C_1 
REMARK       I    between atoms: N_6  and  C_1 
REMARK    2  A    between atoms: C_3  and  S_4 
REMARK    3  A    between atoms: S_4  and  C_5 
REMARK    4  A    between atoms: C_15  and  N_6 
REMARK    5  A    between atoms: C_8  and  O_11 
REMARK    6  A    between atoms: C_13  and  C_10 
REMARK    7  A    between atoms: O_11  and  C_13 
ROOT
ATOM      1  C   UNL d   1      -2.327  -3.456   0.745  0.00  0.00     0.049 A 
ATOM      2  C   UNL d   1      -1.219  -2.572   0.618  0.00  0.00     0.021 A 
ATOM      3  C   UNL d   1      -3.450  -3.257  -0.081  0.00  0.00     0.018 A 
ATOM      4  C   UNL d   1      -1.279  -1.519  -0.311  0.00  0.00     0.020 A 
ATOM      5  C   UNL d   1      -3.485  -2.215  -1.011  0.00  0.00     0.001 A 
ATOM      6  C   UNL d   1      -2.406  -1.343  -1.118  0.00  0.00     0.001 A 
ENDROOT
BRANCH   2   7
ATOM      7  S   UNL d   1       0.341  -2.972   1.365  0.00  0.00    -0.089 SA
BRANCH   7   8
ATOM      8  C   UNL d   1       1.196  -1.601   2.093  0.00  0.00     0.017 A 
ATOM      9  C   UNL d   1       0.842  -0.725   3.203  0.00  0.00    -0.000 A 
ATOM     10  C   UNL d   1      -0.367  -0.594   4.030  0.00  0.00    -0.021 A 
ATOM     11  C   UNL d   1       1.911   0.160   3.585  0.00  0.00    -0.024 A 
ATOM     12  C   UNL d   1      -0.449   0.428   5.009  0.00  0.00     0.010 A 
ATOM     13  C   UNL d   1       0.585   1.309   5.249  0.00  0.00     0.002 A 
ATOM     14  C   UNL d   1       1.759   1.151   4.553  0.00  0.00     0.012 A 
ATOM     15  C   UNL d   1       3.199   0.085   3.040  0.00  0.00     0.012 A 
ATOM     16  C   UNL d   1       3.514  -0.811   2.044  0.00  0.00     0.002 A 
ATOM     17  C   UNL d   1       2.513  -1.619   1.556  0.00  0.00     0.020 A 
BRANCH  10  18
ATOM     18  C   UNL d   1      -1.597  -1.494   3.928  0.00  0.00     0.218 C 
BRANCH  18  19
ATOM     19  O   UNL d   1      -2.465  -1.464   5.101  0.00  0.00    -0.317 OA
BRANCH  19  20
ATOM     20  C   UNL d   1      -3.484  -0.558   5.106  0.00  0.00     0.255 C 
ATOM     21  O   UNL d   1      -3.719   0.245   4.214  0.00  0.00    -0.266 OA
ATOM     22  C   UNL d   1      -4.221  -0.588   6.418  0.00  0.00     0.126 C 
ENDBRANCH  19  20
ENDBRANCH  18  19
ENDBRANCH  10  18
ENDBRANCH   7   8
ENDBRANCH   2   7
BRANCH   1  23
ATOM     23  C   UNL d   1      -2.398  -4.658   1.685  0.00  0.00     0.257 C 
ATOM     24  N   UNL d   1      -1.378  -4.762   2.602  0.00  0.00    -0.323 N 
ATOM     25  H   UNL d   1      -0.675  -4.045   2.527  0.00  0.00     0.169 HD
ATOM     26  O   UNL d   1      -3.341  -5.452   1.592  0.00  0.00    -0.267 OA
BRANCH  24  27
ATOM     27  C   UNL d   1      -1.039  -5.753   3.530  0.00  0.00     0.035 A 
ATOM     28  C   UNL d   1      -1.797  -6.886   3.783  0.00  0.00     0.029 A 
ATOM     29  C   UNL d   1      -1.344  -7.822   4.714  0.00  0.00     0.002 A 
ATOM     30  C   UNL d   1      -0.135  -7.635   5.391  0.00  0.00     0.000 A 
ATOM     31  C   UNL d   1       0.629  -6.498   5.138  0.00  0.00     0.002 A 
ATOM     32  C   UNL d   1       0.172  -5.562   4.218  0.00  0.00     0.029 A 
ENDBRANCH  24  27
ENDBRANCH   1  23
TORSDOF 7
