REMARK  8 active torsions:
REMARK  status: ('A' for Active; 'I' for Inactive)
REMARK    1  A    between atoms: S_6  and  C_1 
REMARK    2  A    between atoms: C_3  and  C_14 
REMARK       I    between atoms: N_15  and  C_3 
REMARK    3  A    between atoms: C_4  and  C_17 
REMARK    4  A    between atoms: C_14  and  S_6 
REMARK    5  A    between atoms: C_18  and  N_15 
REMARK    6  A    between atoms: S_16  and  C_19 
REMARK    7  A    between atoms: C_17  and  S_16 
REMARK    8  A    between atoms: C_19  and  C_18 
ROOT
ATOM      1  C   UNL d   1       0.941   5.459   0.085  0.00  0.00     0.227 C 
ATOM      2  O   UNL d   1      -0.231   5.838   0.098  0.00  0.00    -0.273 OA
ATOM      3  N   UNL d   1       1.997   6.336   0.030  0.00  0.00    -0.360 N 
ATOM      4  H   UNL d   1       2.926   5.952  -0.128  0.00  0.00     0.162 HD
ENDROOT
BRANCH   3   5
ATOM      5  C   UNL d   1       1.826   7.773  -0.037  0.00  0.00     0.132 C 
BRANCH   5   6
ATOM      6  C   UNL d   1       3.159   8.519  -0.144  0.00  0.00     0.094 C 
BRANCH   6   7
ATOM      7  S   UNL d   1       4.046   7.991  -1.649  0.00  0.00    -0.161 SA
BRANCH   7   8
ATOM      8  C   UNL d   1       5.499   9.086  -1.537  0.00  0.00     0.139 C 
BRANCH   8   9
ATOM      9  C   UNL d   1       6.375   8.872  -2.717  0.00  0.00     0.061 A 
ATOM     10  O   UNL d   1       7.636   8.412  -2.471  0.00  0.00    -0.326 OA
ATOM     11  C   UNL d   1       8.241   8.252  -3.677  0.00  0.00     0.142 A 
ATOM     12  C   UNL d   1       7.393   8.614  -4.695  0.00  0.00     0.027 A 
ATOM     13  C   UNL d   1       6.190   9.028  -4.077  0.00  0.00     0.035 A 
ENDBRANCH   8   9
ENDBRANCH   7   8
ENDBRANCH   6   7
ENDBRANCH   5   6
ENDBRANCH   3   5
BRANCH   1  14
ATOM     14  C   UNL d   1       1.302   3.978   0.037  0.00  0.00     0.182 C 
BRANCH  14  15
ATOM     15  S   UNL d   1       2.850   3.635   0.923  0.00  0.00    -0.113 SA
BRANCH  15  16
ATOM     16  C   UNL d   1       3.037   1.895   0.791  0.00  0.00     0.041 A 
ATOM     17  S   UNL d   1       4.417   1.139   1.478  0.00  0.00    -0.095 SA
ATOM     18  C   UNL d   1       3.901  -0.413   0.988  0.00  0.00     0.051 A 
ATOM     19  C   UNL d   1       2.705  -0.366   0.311  0.00  0.00     0.009 A 
ATOM     20  C   UNL d   1       2.206   0.968   0.194  0.00  0.00     0.026 A 
ENDBRANCH  15  16
ENDBRANCH  14  15
ENDBRANCH   1  14
TORSDOF 8
