REMARK  11 active torsions:
REMARK  status: ('A' for Active; 'I' for Inactive)
REMARK    1  A    between atoms: S_10  and  C_3 
REMARK    2  A    between atoms: O_19  and  C_4 
REMARK    3  A    between atoms: C_8  and  C_17 
REMARK       I    between atoms: N_18  and  C_8 
REMARK    4  A    between atoms: C_22  and  C_9 
REMARK    5  A    between atoms: C_17  and  S_10 
REMARK    6  A    between atoms: C_11  and  C_21 
REMARK    7  A    between atoms: C_23  and  N_18 
REMARK    8  A    between atoms: S_20  and  C_24 
REMARK    9  A    between atoms: C_21  and  S_20 
REMARK   10  A    between atoms: C_25  and  C_22 
REMARK   11  A    between atoms: C_24  and  C_23 
ROOT
ATOM      1  S   UNL d   1       1.804  -2.731   0.015  0.00  0.00    -0.085 SA
ENDROOT
BRANCH   1   2
ATOM      2  C   UNL d   1       1.499  -3.679   1.484  0.00  0.00     0.146 A 
ATOM      3  N   UNL d   1       0.482  -4.548   1.402  0.00  0.00    -0.318 N 
ATOM      4  C   UNL d   1       0.245  -5.242   2.515  0.00  0.00     0.143 A 
ATOM      5  HN  UNL d   1      -0.068  -4.669   0.552  1.00  0.00     0.170 HD
ATOM      6  C   UNL d   1       0.946  -5.140   3.686  0.00  0.00     0.081 A 
ATOM      7  C   UNL d   1       1.970  -4.217   3.672  0.00  0.00     0.015 A 
ATOM      8  N   UNL d   1       2.259  -3.477   2.576  0.00  0.00    -0.340 N 
ATOM      9  HN  UNL d   1       3.019  -2.797   2.577  1.00  0.00     0.167 HD
BRANCH   4  10
ATOM     10  O   UNL d   1      -0.802  -6.099   2.420  0.00  0.00    -0.346 OA
ATOM     11  H   UNL d   1      -1.103  -5.917   1.511  0.00  0.00     0.219 HD
ENDBRANCH   4  10
BRANCH   7  12
ATOM     12  C   UNL d   1       2.820  -4.007   4.902  0.00  0.00     0.057 C 
BRANCH  12  13
ATOM     13  C   UNL d   1       3.979  -5.000   5.028  0.00  0.00     0.002 C 
ATOM     14  C   UNL d   1       5.014  -4.857   3.923  0.00  0.00     0.005 C 
ENDBRANCH  12  13
ENDBRANCH   7  12
ENDBRANCH   1   2
BRANCH   1  15
ATOM     15  C   UNL d   1       3.605  -2.536   0.111  0.00  0.00     0.185 C 
BRANCH  15  16
ATOM     16  C   UNL d   1       4.380  -3.842   0.142  0.00  0.00     0.227 C 
ATOM     17  O   UNL d   1       5.497  -3.904   0.656  0.00  0.00    -0.273 OA
ATOM     18  N   UNL d   1       3.822  -4.916  -0.514  0.00  0.00    -0.360 N 
ATOM     19  H   UNL d   1       2.897  -4.824  -0.923  0.00  0.00     0.162 HD
BRANCH  18  20
ATOM     20  C   UNL d   1       4.467  -6.216  -0.493  0.00  0.00     0.132 C 
BRANCH  20  21
ATOM     21  C   UNL d   1       3.707  -7.293  -1.266  0.00  0.00     0.094 C 
BRANCH  21  22
ATOM     22  S   UNL d   1       3.416  -6.908  -3.034  0.00  0.00    -0.161 SA
BRANCH  22  23
ATOM     23  C   UNL d   1       5.129  -6.697  -3.623  0.00  0.00     0.139 C 
BRANCH  23  24
ATOM     24  C   UNL d   1       5.935  -7.938  -3.503  0.00  0.00     0.061 A 
ATOM     25  O   UNL d   1       6.657  -8.093  -2.354  0.00  0.00    -0.326 OA
ATOM     26  C   UNL d   1       7.328  -9.268  -2.460  0.00  0.00     0.142 A 
ATOM     27  C   UNL d   1       7.055  -9.870  -3.666  0.00  0.00     0.027 A 
ATOM     28  C   UNL d   1       6.156  -9.011  -4.341  0.00  0.00     0.035 A 
ENDBRANCH  23  24
ENDBRANCH  22  23
ENDBRANCH  21  22
ENDBRANCH  20  21
ENDBRANCH  18  20
ENDBRANCH  15  16
ENDBRANCH   1  15
TORSDOF 11
