REMARK  3 active torsions:
REMARK  status: ('A' for Active; 'I' for Inactive)
REMARK    1  A    between atoms: C_3  and  C_1 
REMARK    2  A    between atoms: C_9  and  C_2 
REMARK    3  A    between atoms: C_11  and  N_15 
ROOT
ATOM      1  C   UNL d   1       0.439  -2.692  -0.033  0.00  0.00     0.056 A 
ATOM      2  N   UNL d   1      -0.278  -3.551  -0.835  0.00  0.00    -0.335 N 
ATOM      3  HN  UNL d   1      -1.107  -3.290  -1.368  1.00  0.00     0.168 HD
ATOM      4  C   UNL d   1       0.252  -4.755  -0.819  0.00  0.00     0.149 A 
ATOM      5  S   UNL d   1       1.558  -4.942   0.294  0.00  0.00    -0.064 SA
ATOM      6  C   UNL d   1       1.497  -3.265   0.639  0.00  0.00     0.083 A 
ATOM      7  N   UNL d   1      -0.154  -5.810  -1.566  0.00  0.00    -0.334 N 
ATOM      8  H   UNL d   1      -0.136  -6.720  -1.117  0.00  0.00     0.168 HD
ENDROOT
BRANCH   1   9
ATOM      9  C   UNL d   1       0.016  -1.300   0.047  0.00  0.00     0.052 A 
ATOM     10  C   UNL d   1      -1.323  -0.802   0.104  0.00  0.00     0.081 A 
ATOM     11  N   UNL d   1      -1.297   0.537   0.239  0.00  0.00    -0.259 N 
ATOM     12  O   UNL d   1       0.025   0.917   0.195  0.00  0.00    -0.241 OA
ATOM     13  HN  UNL d   1      -2.102   1.152   0.353  1.00  0.00     0.195 HD
ATOM     14  C   UNL d   1       0.814  -0.180   0.081  0.00  0.00     0.087 A 
ATOM     15  C   UNL d   1       2.265   0.068   0.006  0.00  0.00     0.080 C 
BRANCH  10  16
ATOM     16  C   UNL d   1      -2.602  -1.522   0.129  0.00  0.00     0.015 A 
ATOM     17  C   UNL d   1      -3.728  -1.112  -0.612  0.00  0.00     0.048 A 
ATOM     18  C   UNL d   1      -4.941  -1.809  -0.514  0.00  0.00     0.048 A 
ATOM     19 CL   UNL d   1      -3.707   0.225  -1.714  0.00  0.00    -0.083 Cl
ATOM     20  C   UNL d   1      -5.035  -2.931   0.302  0.00  0.00     0.035 A 
ATOM     21  C   UNL d   1      -3.934  -3.364   1.031  0.00  0.00     0.025 A 
ATOM     22 CL   UNL d   1      -6.521  -3.791   0.408  0.00  0.00    -0.084 Cl
ATOM     23  C   UNL d   1      -2.732  -2.655   0.955  0.00  0.00     0.017 A 
ENDBRANCH  10  16
ENDBRANCH   1   9
BRANCH   7  24
ATOM     24  C   UNL d   1      -1.072  -5.716  -2.641  0.00  0.00     0.078 A 
ATOM     25  C   UNL d   1      -0.964  -4.760  -3.675  0.00  0.00     0.062 A 
ATOM     26 CL   UNL d   1       0.439  -3.754  -3.877  0.00  0.00    -0.082 Cl
ATOM     27  C   UNL d   1      -1.941  -4.654  -4.668  0.00  0.00     0.026 A 
ATOM     28  C   UNL d   1      -3.042  -5.510  -4.672  0.00  0.00     0.003 A 
ATOM     29  C   UNL d   1      -3.160  -6.481  -3.682  0.00  0.00     0.026 A 
ATOM     30  C   UNL d   1      -2.191  -6.578  -2.678  0.00  0.00     0.062 A 
ATOM     31 CL   UNL d   1      -2.399  -7.802  -1.470  0.00  0.00    -0.082 Cl
ENDBRANCH   7  24
TORSDOF 3
