REMARK  2 active torsions:
REMARK  status: ('A' for Active; 'I' for Inactive)
REMARK    1  A    between atoms: C_9  and  C_3 
REMARK    2  A    between atoms: O_11  and  C_4 
ROOT
ATOM      1  N   UNL d   1      -0.647   1.058  -0.601  0.00  0.00    -0.325 N 
ATOM      2  HN  UNL d   1      -1.155   1.818  -1.052  1.00  0.00     0.169 HD
ATOM      3  C   UNL d   1      -1.280   0.035   0.001  0.00  0.00     0.091 A 
ATOM      4  C   UNL d   1       0.695   1.016  -0.570  0.00  0.00     0.165 A 
ATOM      5  N   UNL d   1      -0.631  -1.001   0.577  0.00  0.00    -0.347 N 
ATOM      6  HN  UNL d   1      -1.150  -1.772   0.997  1.00  0.00     0.167 HD
ATOM      7  C   UNL d   1       1.461   0.024   0.006  0.00  0.00     0.106 A 
ATOM      8  C   UNL d   1       0.732  -0.996   0.584  0.00  0.00     0.032 A 
ATOM      9 CL   UNL d   1       3.179   0.089  -0.016  0.00  0.00    -0.078 Cl
ATOM     10  C   UNL d   1       1.365  -2.172   1.270  0.00  0.00     0.070 C 
ENDROOT
BRANCH   3  11
ATOM     11  C   UNL d   1      -2.811   0.018  -0.005  0.00  0.00     0.008 C 
ATOM     12  C   UNL d   1      -3.313  -0.710  -1.262  0.00  0.00     0.022 C 
ATOM     13  C   UNL d   1      -3.348  -0.707   1.244  0.00  0.00     0.022 C 
ATOM     14  C   UNL d   1      -3.386   1.450  -0.005  0.00  0.00     0.022 C 
ENDBRANCH   3  11
BRANCH   4  15
ATOM     15  O   UNL d   1       1.267   2.092  -1.178  0.00  0.00    -0.345 OA
ATOM     16  H   UNL d   1       0.472   2.584  -1.457  0.00  0.00     0.219 HD
ENDBRANCH   4  15
TORSDOF 2
