REMARK  4 active torsions:
REMARK  status: ('A' for Active; 'I' for Inactive)
REMARK    1  A    between atoms: C_2  and  C_1 
REMARK       I    between atoms: N_5  and  C_1 
REMARK    2  A    between atoms: O_9  and  N_3 
REMARK    3  A    between atoms: C_7  and  N_5 
REMARK    4  A    between atoms: O_14  and  C_8 
ROOT
ATOM      1  C   UNL d   1       1.024  -0.361   0.257  0.00  0.00     0.263 C 
ATOM      2  N   UNL d   1       0.196   0.560   0.862  0.00  0.00    -0.322 N 
ATOM      3  O   UNL d   1       0.739  -1.401  -0.317  0.00  0.00    -0.267 OA
ATOM      4  H   UNL d   1       0.628   1.396   1.230  0.00  0.00     0.169 HD
ENDROOT
BRANCH   2   5
ATOM      5  C   UNL d   1      -1.208   0.468   0.990  0.00  0.00     0.035 A 
ATOM      6  C   UNL d   1      -1.956  -0.625   0.551  0.00  0.00     0.032 A 
ATOM      7  C   UNL d   1      -3.349  -0.650   0.697  0.00  0.00     0.039 A 
ATOM      8  C   UNL d   1      -4.013   0.425   1.282  0.00  0.00     0.068 A 
ATOM      9  C   UNL d   1      -3.270   1.504   1.758  0.00  0.00     0.039 A 
ATOM     10  C   UNL d   1      -1.878   1.531   1.609  0.00  0.00     0.032 A 
BRANCH   8  11
ATOM     11  O   UNL d   1      -5.365   0.514   1.460  0.00  0.00    -0.356 OA
ATOM     12  C   UNL d   1      -6.154  -0.254   0.557  0.00  0.00     0.210 C 
ENDBRANCH   8  11
ENDBRANCH   2   5
BRANCH   1  13
ATOM     13  C   UNL d   1       2.483  -0.025   0.399  0.00  0.00     0.188 C 
ATOM     14  N   UNL d   1       3.164   0.403  -0.612  0.00  0.00    -0.275 N 
ATOM     15  HN  UNL d   1       2.797   0.571  -1.549  1.00  0.00     0.193 HD
BRANCH  14  16
ATOM     16  O   UNL d   1       4.491   0.597  -0.207  0.00  0.00    -0.290 OA
ATOM     17  H   UNL d   1       4.955   0.727  -1.058  0.00  0.00     0.244 HD
ENDBRANCH  14  16
ENDBRANCH   1  13
TORSDOF 4
