REMARK  5 active torsions:
REMARK  status: ('A' for Active; 'I' for Inactive)
REMARK    1  A    between atoms: C_7  and  C_1 
REMARK    2  A    between atoms: C_2  and  C_3 
REMARK       I    between atoms: C_3  and  N_5 
REMARK    3  A    between atoms: N_5  and  C_4 
REMARK    4  A    between atoms: O_18  and  C_7 
REMARK    5  A    between atoms: C_21  and  O_18 
ROOT
ATOM      1  C   UNL d   1       1.195  -0.016   0.256  0.00  0.00     0.066 A 
ATOM      2  C   UNL d   1       0.556   1.188  -0.103  0.00  0.00     0.051 A 
ATOM      3  C   UNL d   1       0.431  -1.200   0.358  0.00  0.00     0.026 A 
ATOM      4  C   UNL d   1      -0.841   1.198  -0.225  0.00  0.00     0.031 A 
ATOM      5  C   UNL d   1      -0.954  -1.188   0.143  0.00  0.00    -0.061 A 
ATOM      6  C   UNL d   1      -1.589   0.028  -0.102  0.00  0.00     0.009 A 
ATOM      7  C   UNL d   1      -1.760  -2.452   0.176  0.00  0.00     0.048 C 
ENDROOT
BRANCH   2   8
ATOM      8  N   UNL d   1       1.297   2.377  -0.348  0.00  0.00    -0.322 N 
ATOM      9  C   UNL d   1       0.895   3.349  -1.246  0.00  0.00     0.257 C 
ATOM     10  O   UNL d   1      -0.069   3.258  -2.002  0.00  0.00    -0.267 OA
ATOM     11  H   UNL d   1       2.267   2.381  -0.028  0.00  0.00     0.169 HD
BRANCH   9  12
ATOM     12  C   UNL d   1       1.732   4.565  -1.389  0.00  0.00     0.054 A 
ATOM     13  C   UNL d   1       2.206   5.326  -0.316  0.00  0.00     0.051 A 
ATOM     14  C   UNL d   1       2.798   6.573  -0.558  0.00  0.00     0.048 A 
ATOM     15 CL   UNL d   1       2.032   4.850   1.334  0.00  0.00    -0.083 Cl
ATOM     16  C   UNL d   1       2.920   7.052  -1.863  0.00  0.00     0.035 A 
ATOM     17  C   UNL d   1       2.483   6.288  -2.939  0.00  0.00     0.025 A 
ATOM     18 CL   UNL d   1       3.579   8.617  -2.143  0.00  0.00    -0.084 Cl
ATOM     19  C   UNL d   1       1.890   5.048  -2.702  0.00  0.00     0.020 A 
ENDBRANCH   9  12
ENDBRANCH   2   8
BRANCH   1  20
ATOM     20  C   UNL d   1       2.674  -0.053   0.466  0.00  0.00     0.295 C 
ATOM     21  O   UNL d   1       3.383   0.943   0.439  0.00  0.00    -0.259 OA
BRANCH  20  22
ATOM     22  O   UNL d   1       3.100  -1.322   0.694  0.00  0.00    -0.318 OA
BRANCH  22  23
ATOM     23  C   UNL d   1       4.511  -1.493   0.898  0.00  0.00     0.174 C 
ATOM     24  C   UNL d   1       4.848  -1.305   2.367  0.00  0.00     0.034 C 
ENDBRANCH  22  23
ENDBRANCH  20  22
ENDBRANCH   1  20
TORSDOF 5
