REMARK  6 active torsions:
REMARK  status: ('A' for Active; 'I' for Inactive)
REMARK    1  A    between atoms: N_6  and  C_1 
REMARK       I    between atoms: C_8  and  N_6 
REMARK    2  A    between atoms: C_14  and  C_8 
REMARK    3  A    between atoms: C_9  and  C_15 
REMARK    4  A    between atoms: O_13  and  C_9 
REMARK    5  A    between atoms: C_16  and  C_14 
REMARK    6  A    between atoms: C_15  and  C_16 
ROOT
ATOM      1  N   UNL d   1       1.458  -2.458  -0.043  0.00  0.00    -0.312 N 
ATOM      2  C   UNL d   1       0.931  -3.728   0.117  0.00  0.00     0.223 C 
ATOM      3  O   UNL d   1      -0.248  -3.993   0.341  0.00  0.00    -0.273 OA
ATOM      4  H   UNL d   1       2.305  -2.378  -0.597  0.00  0.00     0.170 HD
ENDROOT
BRANCH   1   5
ATOM      5  C   UNL d   1       0.644  -1.337   0.002  0.00  0.00     0.126 A 
ATOM      6  N   UNL d   1      -0.374  -1.077   0.893  0.00  0.00    -0.281 N 
ATOM      7  N   UNL d   1      -1.025   0.078   0.623  0.00  0.00    -0.302 N 
ATOM      8  C   UNL d   1      -0.684  -1.736   2.141  0.00  0.00     0.179 C 
ATOM      9  C   UNL d   1      -0.379   0.584  -0.431  0.00  0.00     0.025 A 
ATOM     10  HN  UNL d   1      -1.828   0.472   1.113  1.00  0.00     0.186 HD
ATOM     11  C   UNL d   1       0.711  -0.228  -0.812  0.00  0.00     0.076 A 
ATOM     12  C   UNL d   1      -0.843   1.848  -1.049  0.00  0.00     0.070 C 
ENDBRANCH   1   5
BRANCH   2  13
ATOM     13  C   UNL d   1       1.974  -4.823  -0.026  0.00  0.00     0.103 C 
BRANCH  13  14
ATOM     14  C   UNL d   1       1.425  -6.061  -0.746  0.00  0.00     0.019 C 
BRANCH  14  15
ATOM     15  C   UNL d   1       1.024  -5.803  -2.202  0.00  0.00     0.110 C 
BRANCH  15  16
ATOM     16  C   UNL d   1       2.195  -5.368  -3.055  0.00  0.00     0.139 C 
ATOM     17  O   UNL d   1       3.361  -5.639  -2.825  0.00  0.00    -0.650 OA
BRANCH  16  18
ATOM     18  O   UNL d   1       1.824  -4.628  -4.123  0.00  0.00    -0.776 OA
ATOM     19  H   UNL d   1       0.860  -4.493  -4.203  0.00  0.00     0.167 HD
ENDBRANCH  16  18
ENDBRANCH  15  16
ENDBRANCH  14  15
ENDBRANCH  13  14
ENDBRANCH   2  13
TORSDOF 6
