REMARK  6 active torsions:
REMARK  status: ('A' for Active; 'I' for Inactive)
REMARK    1  A    between atoms: C_11  and  C_1 
REMARK    2  A    between atoms: C_7  and  C_2 
REMARK    3  A    between atoms: C_13  and  N_3 
REMARK    4  A    between atoms: O_22  and  C_11 
REMARK    5  A    between atoms: C_14  and  C_13 
REMARK    6  A    between atoms: C_26  and  O_22 
ROOT
ATOM      1  C   UNL d   1      -0.208  -1.261   0.142  0.00  0.00     0.074 A 
ATOM      2  C   UNL d   1       1.133  -0.779   0.098  0.00  0.00     0.005 A 
ATOM      3  N   UNL d   1      -0.200   0.995   0.149  0.00  0.00    -0.348 N 
ATOM      4  C   UNL d   1      -1.022  -0.123   0.155  0.00  0.00     0.025 A 
ATOM      5  C   UNL d   1       1.126   0.599   0.174  0.00  0.00     0.019 A 
ATOM      6  C   UNL d   1      -2.515  -0.043   0.110  0.00  0.00     0.069 C 
ATOM      7  C   UNL d   1       2.275   1.552   0.173  0.00  0.00     0.069 C 
ENDROOT
BRANCH   2   8
ATOM      8  C   UNL d   1       2.322  -1.547  -0.073  0.00  0.00     0.032 C 
ATOM      9  C   UNL d   1       2.872  -1.842  -1.261  0.00  0.00     0.045 A 
ATOM     10  C   UNL d   1       2.336  -1.452  -2.619  0.00  0.00     0.257 A 
ATOM     11  C   UNL d   1       4.092  -2.622  -1.487  0.00  0.00     0.006 A 
ATOM     12  N   UNL d   1       3.220  -2.024  -3.522  0.00  0.00    -0.322 N 
ATOM     13  O   UNL d   1       1.362  -0.786  -2.907  0.00  0.00    -0.267 OA
ATOM     14  C   UNL d   1       4.243  -2.707  -2.875  0.00  0.00     0.046 A 
ATOM     15  H   UNL d   1       3.108  -1.933  -4.520  0.00  0.00     0.169 HD
ATOM     16  C   UNL d   1       5.287  -3.386  -3.473  0.00  0.00     0.030 A 
ATOM     17  C   UNL d   1       6.217  -3.992  -2.626  0.00  0.00     0.002 A 
ATOM     18  C   UNL d   1       6.088  -3.902  -1.228  0.00  0.00     0.001 A 
ATOM     19  C   UNL d   1       5.017  -3.211  -0.646  0.00  0.00     0.015 A 
ENDBRANCH   2   8
BRANCH   1  20
ATOM     20  C   UNL d   1      -0.630  -2.669   0.116  0.00  0.00     0.296 C 
ATOM     21  O   UNL d   1       0.155  -3.611   0.084  0.00  0.00    -0.259 OA
BRANCH  20  22
ATOM     22  O   UNL d   1      -1.986  -2.822   0.164  0.00  0.00    -0.318 OA
BRANCH  22  23
ATOM     23  C   UNL d   1      -2.479  -4.168   0.150  0.00  0.00     0.174 C 
ATOM     24  C   UNL d   1      -2.441  -4.763   1.545  0.00  0.00     0.034 C 
ENDBRANCH  22  23
ENDBRANCH  20  22
ENDBRANCH   1  20
BRANCH   3  25
ATOM     25  C   UNL d   1      -0.643   2.384  -0.020  0.00  0.00     0.175 C 
BRANCH  25  26
ATOM     26  C   UNL d   1      -0.877   3.105   1.276  0.00  0.00     0.001 A 
ATOM     27  S   UNL d   1      -1.296   4.773   1.204  0.00  0.00    -0.105 SA
ATOM     28  C   UNL d   1      -1.252   4.930   2.904  0.00  0.00     0.050 A 
ATOM     29  C   UNL d   1      -0.988   3.731   3.525  0.00  0.00     0.008 A 
ATOM     30  C   UNL d   1      -0.800   2.671   2.587  0.00  0.00     0.017 A 
ENDBRANCH  25  26
ENDBRANCH   3  25
TORSDOF 6
