REMARK  5 active torsions:
REMARK  status: ('A' for Active; 'I' for Inactive)
REMARK    1  A    between atoms: C_2  and  S_1 
REMARK    2  A    between atoms: C_7  and  S_1 
REMARK    3  A    between atoms: N_5  and  C_3 
REMARK    4  A    between atoms: C_13  and  N_8 
REMARK    5  A    between atoms: C_22  and  C_13 
ROOT
ATOM      1  C   UNL d   1       0.385  -1.642  -0.847  0.00  0.00     0.159 C 
ATOM      2  C   UNL d   1       0.002  -2.301   0.264  0.00  0.00     0.121 C 
ATOM      3  C   UNL d   1       0.477  -0.243  -0.969  0.00  0.00     0.113 C 
ATOM      4  N   UNL d   1       0.578   0.909  -1.079  0.00  0.00    -0.191 NA
ENDROOT
BRANCH   1   5
ATOM      5  S   UNL d   1       0.751  -2.540  -2.292  0.00  0.00     0.218 S 
ATOM      6  O   UNL d   1      -0.211  -2.198  -3.320  0.00  0.00    -0.216 OA
ATOM      7  O   UNL d   1       0.998  -3.937  -1.977  0.00  0.00    -0.216 OA
BRANCH   5   8
ATOM      8  C   UNL d   1       2.328  -1.875  -2.832  0.00  0.00     0.065 A 
ATOM      9  C   UNL d   1       3.514  -2.511  -2.448  0.00  0.00     0.027 A 
ATOM     10  C   UNL d   1       4.737  -2.018  -2.906  0.00  0.00     0.044 A 
ATOM     11  C   UNL d   1       4.762  -0.908  -3.747  0.00  0.00     0.116 A 
ATOM     12  C   UNL d   1       3.586  -0.285  -4.149  0.00  0.00     0.044 A 
ATOM     13  F   UNL d   1       5.939  -0.440  -4.183  0.00  0.00    -0.206 F 
ATOM     14  C   UNL d   1       2.357  -0.773  -3.701  0.00  0.00     0.027 A 
ENDBRANCH   5   8
ENDBRANCH   1   5
BRANCH   2  15
ATOM     15  N   UNL d   1      -0.443  -1.859   1.513  0.00  0.00    -0.385 N 
ATOM     16  C   UNL d   1      -0.946  -0.503   1.823  0.00  0.00     0.152 C 
ATOM     17  C   UNL d   1      -0.053   0.138   2.902  0.00  0.00     0.292 C 
ATOM     18  N   UNL d   1      -0.029  -0.621   4.179  0.00  0.00     0.095 N 
ATOM     19  C   UNL d   1       0.376  -2.021   3.868  0.00  0.00     0.292 C 
ATOM     20  C   UNL d   1      -0.418  -2.719   2.723  0.00  0.00     0.152 C 
BRANCH  18  21
ATOM     21  C   UNL d   1      -1.328  -0.607   4.878  0.00  0.00     0.311 C 
BRANCH  21  22
ATOM     22  C   UNL d   1      -1.847   0.769   5.245  0.00  0.00    -0.030 A 
ATOM     23  C   UNL d   1      -3.047   1.249   4.694  0.00  0.00     0.009 A 
ATOM     24  C   UNL d   1      -3.555   2.496   5.070  0.00  0.00     0.001 A 
ATOM     25  C   UNL d   1      -2.871   3.274   6.001  0.00  0.00     0.000 A 
ATOM     26  C   UNL d   1      -1.676   2.812   6.549  0.00  0.00     0.001 A 
ATOM     27  C   UNL d   1      -1.163   1.570   6.170  0.00  0.00     0.009 A 
ENDBRANCH  21  22
ENDBRANCH  18  21
ENDBRANCH   2  15
TORSDOF 5
