REMARK  7 active torsions:
REMARK  status: ('A' for Active; 'I' for Inactive)
REMARK    1  A    between atoms: C_4  and  C_1 
REMARK    2  A    between atoms: O_11  and  C_4 
REMARK    3  A    between atoms: C_17  and  C_7 
REMARK    4  A    between atoms: N_20  and  C_7 
REMARK    5  A    between atoms: N_8  and  O_11 
REMARK    6  A    between atoms: C_14  and  O_16 
REMARK    7  A    between atoms: O_16  and  C_17 
ROOT
ATOM      1  C   UNL d   1      -5.032   1.115   0.045  0.00  0.00     0.120 C 
ATOM      2  N   UNL d   1      -3.889   0.503   0.051  0.00  0.00    -0.243 N 
ATOM      3  HN  UNL d   1      -3.791  -0.508   0.146  1.00  0.00     0.196 HD
ENDROOT
BRANCH   1   4
ATOM      4  C   UNL d   1      -6.278   0.209   0.047  0.00  0.00     0.253 C 
BRANCH   4   5
ATOM      5  O   UNL d   1      -6.833   0.002   1.339  0.00  0.00    -0.342 OA
BRANCH   5   6
ATOM      6  C   UNL d   1      -7.917  -0.849   1.397  0.00  0.00     0.091 A 
ATOM      7  C   UNL d   1      -8.725  -0.800   2.545  0.00  0.00     0.069 A 
ATOM      8  C   UNL d   1      -9.856  -1.621   2.668  0.00  0.00     0.050 A 
ATOM      9 CL   UNL d   1      -8.378   0.290   3.844  0.00  0.00    -0.081 Cl
ATOM     10  C   UNL d   1     -10.177  -2.506   1.649  0.00  0.00     0.035 A 
ATOM     11  C   UNL d   1      -9.374  -2.592   0.514  0.00  0.00     0.026 A 
ATOM     12 CL   UNL d   1     -11.571  -3.504   1.779  0.00  0.00    -0.084 Cl
ATOM     13  C   UNL d   1      -8.248  -1.769   0.393  0.00  0.00     0.040 A 
ENDBRANCH   5   6
ENDBRANCH   4   5
ENDBRANCH   1   4
BRANCH   1  14
ATOM     14  N   UNL d   1      -5.208   2.477  -0.018  0.00  0.00    -0.386 N 
ATOM     15  H   UNL d   1      -4.384   3.013   0.234  0.00  0.00     0.157 HD
ATOM     16  H   UNL d   1      -6.068   2.844   0.375  0.00  0.00     0.157 HD
ENDBRANCH   1  14
BRANCH   2  17
ATOM     17  O   UNL d   1      -2.793   1.386  -0.088  0.00  0.00    -0.192 OA
BRANCH  17  18
ATOM     18  C   UNL d   1      -1.746   0.695  -0.680  0.00  0.00     0.333 C 
ATOM     19  O   UNL d   1      -1.813  -0.463  -1.095  0.00  0.00    -0.256 OA
BRANCH  18  20
ATOM     20  C   UNL d   1      -0.519   1.473  -0.807  0.00  0.00     0.134 A 
ATOM     21  N   UNL d   1      -0.369   2.727  -0.345  0.00  0.00    -0.255 N 
ATOM     22  O   UNL d   1       0.935   3.091  -0.652  0.00  0.00    -0.242 OA
ATOM     23  HN  UNL d   1      -1.070   3.294   0.133  1.00  0.00     0.195 HD
ATOM     24  C   UNL d   1       1.556   2.069  -1.300  0.00  0.00     0.075 A 
ATOM     25  C   UNL d   1       0.680   1.023  -1.427  0.00  0.00     0.072 A 
ATOM     26  C   UNL d   1       2.958   2.282  -1.703  0.00  0.00     0.079 C 
ENDBRANCH  18  20
ENDBRANCH  17  18
ENDBRANCH   2  17
TORSDOF 7
