REMARK  4 active torsions:
REMARK  status: ('A' for Active; 'I' for Inactive)
REMARK    1  A    between atoms: C_2  and  N_1 
REMARK       I    between atoms: C_3  and  N_1 
REMARK    2  A    between atoms: C_10  and  C_3 
REMARK    3  A    between atoms: O_6  and  C_10 
REMARK    4  A    between atoms: C_7  and  O_6 
ROOT
ATOM      1  C   UNL d   1       3.184  -0.967  -1.032  0.00  0.00     0.217 C 
ATOM      2  C   UNL d   1       2.236  -1.902  -1.774  0.00  0.00     0.050 C 
ENDROOT
BRANCH   1   3
ATOM      3  O   UNL d   1       3.739  -1.694   0.062  0.00  0.00    -0.335 OA
BRANCH   3   4
ATOM      4  C   UNL d   1       5.048  -1.487   0.406  0.00  0.00     0.091 A 
ATOM      5  C   UNL d   1       5.399  -1.733   1.746  0.00  0.00     0.069 A 
ATOM      6  C   UNL d   1       6.711  -1.556   2.192  0.00  0.00     0.050 A 
ATOM      7 CL   UNL d   1       4.213  -2.249   2.895  0.00  0.00    -0.081 Cl
ATOM      8  C   UNL d   1       7.688  -1.143   1.293  0.00  0.00     0.035 A 
ATOM      9  C   UNL d   1       7.368  -0.931  -0.046  0.00  0.00     0.026 A 
ATOM     10 CL   UNL d   1       9.303  -0.900   1.831  0.00  0.00    -0.084 Cl
ATOM     11  C   UNL d   1       6.054  -1.116  -0.491  0.00  0.00     0.040 A 
ENDBRANCH   3   4
ENDBRANCH   1   3
BRANCH   1  12
ATOM     12  C   UNL d   1       2.410   0.282  -0.595  0.00  0.00     0.252 C 
ATOM     13  N   UNL d   1       1.907   0.235   0.695  0.00  0.00    -0.305 N 
ATOM     14  H   UNL d   1       2.272  -0.496   1.298  0.00  0.00     0.171 HD
ATOM     15  O   UNL d   1       2.264   1.213  -1.385  0.00  0.00    -0.270 OA
BRANCH  13  16
ATOM     16  C   UNL d   1       1.127   1.142   1.355  0.00  0.00     0.142 C 
ATOM     17  N   UNL d   1       1.002   1.066   2.635  0.00  0.00    -0.370 N 
ATOM     18  C   UNL d   1       0.105   2.151   3.099  0.00  0.00     0.132 C 
ATOM     19  HN  UNL d   1       1.448   0.370   3.234  1.00  0.00     0.161 HD
ATOM     20  C   UNL d   1       0.068   3.279   2.077  0.00  0.00     0.102 C 
ATOM     21  S   UNL d   1       0.275   2.402   0.525  0.00  0.00    -0.092 SA
ENDBRANCH  13  16
ENDBRANCH   1  12
TORSDOF 4
