REMARK  3 active torsions:
REMARK  status: ('A' for Active; 'I' for Inactive)
REMARK       I    between atoms: C_2  and  N_1 
REMARK    1  A    between atoms: C_6  and  C_2 
REMARK    2  A    between atoms: C_12  and  N_3 
REMARK    3  A    between atoms: N_4  and  C_6 
ROOT
ATOM      1  N   UNL d   1      -1.504  -0.088  -0.267  0.00  0.00    -0.348 N 
ATOM      2  C   UNL d   1      -2.683  -0.049   0.459  0.00  0.00     0.248 C 
ATOM      3  N   UNL d   1       1.367  -0.197  -0.346  0.00  0.00    -0.378 N 
ATOM      4  C   UNL d   1      -0.823  -1.378  -0.464  0.00  0.00     0.145 C 
ATOM      5  C   UNL d   1      -0.752   1.048  -0.818  0.00  0.00     0.145 C 
ATOM      6  C   UNL d   1       0.602  -1.370   0.135  0.00  0.00     0.143 C 
ATOM      7  C   UNL d   1       0.677   1.101  -0.227  0.00  0.00     0.143 C 
ATOM      8  O   UNL d   1      -3.194  -1.084   0.899  0.00  0.00    -0.271 OA
ENDROOT
BRANCH   2   9
ATOM      9  C   UNL d   1      -3.366   1.297   0.776  0.00  0.00     0.374 C 
BRANCH   9  10
ATOM     10  N   UNL d   1      -4.268   1.770  -0.297  0.00  0.00     0.100 N 
ATOM     11  C   UNL d   1      -4.833   3.092   0.063  0.00  0.00     0.303 C 
ATOM     12  C   UNL d   1      -6.067   3.056   0.995  0.00  0.00     0.302 C 
ATOM     13  N   UNL d   1      -7.187   2.268   0.460  0.00  0.00     0.087 N 
ATOM     14  C   UNL d   1      -6.693   0.906   0.174  0.00  0.00     0.302 C 
ATOM     15  C   UNL d   1      -7.770   2.895  -0.729  0.00  0.00     0.310 C 
ATOM     16  C   UNL d   1      -5.364   0.825  -0.634  0.00  0.00     0.303 C 
ENDBRANCH   9  10
ENDBRANCH   2   9
BRANCH   3  17
ATOM     17  C   UNL d   1       2.490  -0.386  -1.134  0.00  0.00     0.030 A 
ATOM     18  C   UNL d   1       3.470  -1.326  -0.778  0.00  0.00     0.029 A 
ATOM     19  C   UNL d   1       4.622  -1.521  -1.549  0.00  0.00     0.002 A 
ATOM     20  C   UNL d   1       4.817  -0.775  -2.707  0.00  0.00     0.000 A 
ATOM     21  C   UNL d   1       3.865   0.160  -3.086  0.00  0.00     0.002 A 
ATOM     22  C   UNL d   1       2.717   0.357  -2.301  0.00  0.00     0.029 A 
ENDBRANCH   3  17
TORSDOF 3
