REMARK  9 active torsions:
REMARK  status: ('A' for Active; 'I' for Inactive)
REMARK    1  A    between atoms: C_7  and  C_1 
REMARK    2  A    between atoms: C_2  and  C_5 
REMARK    3  A    between atoms: C_6  and  C_8 
REMARK    4  A    between atoms: O_16  and  C_7 
REMARK    5  A    between atoms: C_29  and  C_10 
REMARK    6  A    between atoms: N_30  and  C_10 
REMARK    7  A    between atoms: N_12  and  O_16 
REMARK    8  A    between atoms: C_18  and  S_21 
REMARK    9  A    between atoms: S_21  and  C_29 
ROOT
ATOM      1  C   UNL d   1      -2.368   4.706  -0.092  0.00  0.00     0.085 C 
ATOM      2  N   UNL d   1      -1.654   3.639   0.110  0.00  0.00    -0.250 N 
ATOM      3  HN  UNL d   1      -0.654   3.660   0.309  1.00  0.00     0.196 HD
ENDROOT
BRANCH   1   4
ATOM      4  C   UNL d   1      -1.628   6.058  -0.052  0.00  0.00     0.152 C 
BRANCH   4   5
ATOM      5  S   UNL d   1      -2.679   7.320   0.756  0.00  0.00    -0.105 SA
BRANCH   5   6
ATOM      6  C   UNL d   1      -1.667   8.789   0.635  0.00  0.00     0.069 A 
ATOM      7  N   UNL d   1      -0.423   8.715   0.116  0.00  0.00    -0.360 N 
ATOM      8  C   UNL d   1       0.306   9.863   0.074  0.00  0.00     0.105 A 
ATOM      9  HN  UNL d   1      -0.045   7.834  -0.231  1.00  0.00     0.166 HD
ATOM     10  C   UNL d   1      -0.145  11.096   0.524  0.00  0.00     0.063 A 
ATOM     11  C   UNL d   1      -1.439  11.147   1.046  0.00  0.00     0.020 A 
ATOM     12  C   UNL d   1      -2.206   9.984   1.103  0.00  0.00     0.038 A 
BRANCH  10  13
ATOM     13  C   UNL d   1       0.714  12.323   0.459  0.00  0.00     0.418 C 
ATOM     14  F   UNL d   1       1.947  12.104  -0.073  0.00  0.00    -0.166 F 
ATOM     15  F   UNL d   1       0.153  13.311  -0.292  0.00  0.00    -0.166 F 
ATOM     16  F   UNL d   1       0.930  12.871   1.687  0.00  0.00    -0.166 F 
ENDBRANCH  10  13
ENDBRANCH   5   6
ENDBRANCH   4   5
ENDBRANCH   1   4
BRANCH   1  17
ATOM     17  N   UNL d   1      -3.718   4.690  -0.362  0.00  0.00    -0.290 NA
ATOM     18  H   UNL d   1      -4.170   3.829  -0.073  0.00  0.00     0.125 HD
ATOM     19  H   UNL d   1      -4.213   5.527  -0.067  0.00  0.00     0.125 HD
ENDBRANCH   1  17
BRANCH   2  20
ATOM     20  O   UNL d   1      -2.414   2.440   0.021  0.00  0.00    -0.193 OA
BRANCH  20  21
ATOM     21  C   UNL d   1      -1.555   1.369   0.148  0.00  0.00     0.333 C 
ATOM     22  O   UNL d   1      -0.346   1.449   0.299  0.00  0.00    -0.256 OA
BRANCH  21  23
ATOM     23  C   UNL d   1      -2.300   0.064   0.078  0.00  0.00     0.132 A 
ATOM     24  N   UNL d   1      -3.660   0.133  -0.090  0.00  0.00    -0.359 N 
ATOM     25  C   UNL d   1      -4.353  -1.036  -0.154  0.00  0.00     0.105 A 
ATOM     26  HN  UNL d   1      -4.137   1.032  -0.164  1.00  0.00     0.165 HD
ATOM     27  C   UNL d   1      -3.773  -2.292  -0.056  0.00  0.00     0.065 A 
ATOM     28  C   UNL d   1      -2.389  -2.341   0.116  0.00  0.00     0.044 A 
ATOM     29  C   UNL d   1      -1.634  -1.162   0.185  0.00  0.00     0.067 A 
ATOM     30 CL   UNL d   1       0.064  -1.376   0.400  0.00  0.00    -0.082 Cl
BRANCH  27  31
ATOM     31  C   UNL d   1      -4.611  -3.534  -0.133  0.00  0.00     0.418 C 
ATOM     32  F   UNL d   1      -3.887  -4.682  -0.022  0.00  0.00    -0.166 F 
ATOM     33  F   UNL d   1      -5.550  -3.590   0.851  0.00  0.00    -0.166 F 
ATOM     34  F   UNL d   1      -5.290  -3.633  -1.307  0.00  0.00    -0.166 F 
ENDBRANCH  27  31
ENDBRANCH  21  23
ENDBRANCH  20  21
ENDBRANCH   2  20
TORSDOF 9
