REMARK  8 active torsions:
REMARK  status: ('A' for Active; 'I' for Inactive)
REMARK    1  A    between atoms: C_13  and  C_5 
REMARK    2  A    between atoms: C_10  and  C_6 
REMARK    3  A    between atoms: C_12  and  C_15 
REMARK       I    between atoms: N_24  and  C_13 
REMARK    4  A    between atoms: C_15  and  N_14 
REMARK    5  A    between atoms: N_16  and  C_31 
REMARK    6  A    between atoms: C_36  and  N_24 
REMARK    7  A    between atoms: C_31  and  C_32 
REMARK    8  A    between atoms: C_32  and  C_36 
ROOT
ATOM      1  C   UNL d   1      -3.891  -0.847  -0.788  0.00  0.00     0.269 C 
ATOM      2  O   UNL d   1      -4.492  -0.626  -1.832  0.00  0.00    -0.266 OA
ATOM      3  N   UNL d   1      -4.519  -1.105   0.410  0.00  0.00    -0.356 N 
ATOM      4  H   UNL d   1      -3.928  -1.390   1.185  0.00  0.00     0.162 HD
ENDROOT
BRANCH   3   5
ATOM      5  C   UNL d   1      -5.965  -1.188   0.502  0.00  0.00     0.125 C 
BRANCH   5   6
ATOM      6  C   UNL d   1      -6.452  -2.570   0.104  0.00  0.00     0.050 C 
BRANCH   6   7
ATOM      7  C   UNL d   1      -7.982  -2.703   0.075  0.00  0.00     0.274 C 
BRANCH   7   8
ATOM      8  N   UNL d   1      -8.265  -4.113  -0.132  0.00  0.00     0.091 N 
ATOM      9  C   UNL d   1      -8.080  -4.591  -1.508  0.00  0.00     0.302 C 
ATOM     10  C   UNL d   1      -7.963  -6.127  -1.469  0.00  0.00     0.303 C 
ATOM     11  N   UNL d   1      -9.137  -6.808  -0.880  0.00  0.00     0.096 N 
ATOM     12  C   UNL d   1      -9.438  -6.189   0.434  0.00  0.00     0.303 C 
ATOM     13  C   UNL d   1      -9.509  -4.636   0.431  0.00  0.00     0.302 C 
BRANCH  11  14
ATOM     14  C   UNL d   1     -10.319  -6.780  -1.757  0.00  0.00     0.316 C 
BRANCH  14  15
ATOM     15  C   UNL d   1     -10.092  -7.408  -3.113  0.00  0.00     0.030 A 
ATOM     16  C   UNL d   1     -10.244  -6.616  -4.259  0.00  0.00     0.126 A 
ATOM     17  F   UNL d   1     -10.622  -5.334  -4.143  0.00  0.00    -0.205 F 
ATOM     18  C   UNL d   1      -9.996  -7.112  -5.537  0.00  0.00     0.043 A 
ATOM     19  C   UNL d   1      -9.578  -8.428  -5.694  0.00  0.00     0.005 A 
ATOM     20  C   UNL d   1      -9.433  -9.243  -4.572  0.00  0.00     0.024 A 
ATOM     21  C   UNL d   1      -9.703  -8.744  -3.291  0.00  0.00     0.045 A 
ATOM     22 CL   UNL d   1      -9.537  -9.844  -1.968  0.00  0.00    -0.084 Cl
ENDBRANCH  14  15
ENDBRANCH  11  14
ENDBRANCH   7   8
ENDBRANCH   6   7
ENDBRANCH   5   6
ENDBRANCH   3   5
BRANCH   1  23
ATOM     23  C   UNL d   1      -2.426  -0.870  -0.720  0.00  0.00     0.118 A 
ATOM     24  C   UNL d   1      -1.584  -0.581  -1.774  0.00  0.00     0.133 A 
ATOM     25  N   UNL d   1      -0.314  -0.669  -1.285  0.00  0.00    -0.314 N 
ATOM     26  C   UNL d   1      -0.413  -1.031   0.054  0.00  0.00     0.134 A 
ATOM     27  C   UNL d   1       0.888  -0.440  -1.948  0.00  0.00     0.114 A 
ATOM     28  N   UNL d   1      -1.684  -1.158   0.416  0.00  0.00    -0.335 N 
ATOM     29  C   UNL d   1       0.822  -1.175   0.757  0.00  0.00     0.079 A 
ATOM     30  HN  UNL d   1      -2.040  -1.415   1.337  1.00  0.00     0.168 HD
ATOM     31 CL   UNL d   1       0.787  -1.634   2.417  0.00  0.00    -0.080 Cl
ATOM     32  C   UNL d   1       1.995  -0.956   0.127  0.00  0.00     0.045 A 
ATOM     33  C   UNL d   1       2.056  -0.565  -1.284  0.00  0.00     0.065 A 
BRANCH  33  34
ATOM     34  C   UNL d   1       3.388  -0.322  -1.942  0.00  0.00     0.418 C 
ATOM     35  F   UNL d   1       4.434  -0.469  -1.091  0.00  0.00    -0.166 F 
ATOM     36  F   UNL d   1       3.595  -1.177  -2.975  0.00  0.00    -0.166 F 
ATOM     37  F   UNL d   1       3.465   0.934  -2.450  0.00  0.00    -0.166 F 
ENDBRANCH  33  34
ENDBRANCH   1  23
TORSDOF 8
