REMARK  8 active torsions:
REMARK  status: ('A' for Active; 'I' for Inactive)
REMARK    1  A    between atoms: C_3  and  C_1 
REMARK    2  A    between atoms: O_11  and  C_2 
REMARK    3  A    between atoms: N_26  and  C_3 
REMARK    4  A    between atoms: C_4  and  C_10 
REMARK    5  A    between atoms: C_5  and  O_9 
REMARK    6  A    between atoms: C_8  and  C_5 
REMARK    7  A    between atoms: O_9  and  N_6 
REMARK    8  A    between atoms: C_20  and  O_11 
ROOT
ATOM      1  C   UNL d   1      -3.038  -2.630  -0.126  0.00  0.00     0.130 A 
ATOM      2  C   UNL d   1      -3.908  -3.713  -0.048  0.00  0.00     0.178 A 
ATOM      3  N   UNL d   1      -3.533  -1.342  -0.023  0.00  0.00    -0.358 N 
ATOM      4  HN  UNL d   1      -2.913  -0.532  -0.055  1.00  0.00     0.165 HD
ATOM      5  N   UNL d   1      -5.254  -3.545   0.154  0.00  0.00    -0.343 N 
ATOM      6  HN  UNL d   1      -5.881  -4.343   0.255  1.00  0.00     0.167 HD
ATOM      7  C   UNL d   1      -4.867  -1.198   0.123  0.00  0.00     0.105 A 
ATOM      8  C   UNL d   1      -5.712  -2.279   0.213  0.00  0.00     0.107 A 
ENDROOT
BRANCH   1   9
ATOM      9  C   UNL d   1      -1.522  -2.589  -0.287  0.00  0.00     0.151 C 
ATOM     10  N   UNL d   1      -0.612  -3.511  -0.486  0.00  0.00    -0.239 N 
ATOM     11  HN  UNL d   1       0.376  -3.267  -0.554  1.00  0.00     0.196 HD
BRANCH  10  12
ATOM     12  O   UNL d   1      -1.035  -4.835  -0.604  0.00  0.00    -0.193 OA
BRANCH  12  13
ATOM     13  C   UNL d   1      -0.979  -5.210  -1.927  0.00  0.00     0.322 C 
ATOM     14  O   UNL d   1      -1.720  -4.745  -2.790  0.00  0.00    -0.257 OA
BRANCH  13  15
ATOM     15  C   UNL d   1       0.020  -6.237  -2.135  0.00  0.00     0.082 A 
ATOM     16  S   UNL d   1      -0.381  -7.631  -3.043  0.00  0.00    -0.096 SA
ATOM     17  C   UNL d   1       1.219  -8.233  -2.954  0.00  0.00     0.050 A 
ATOM     18  C   UNL d   1       2.048  -7.390  -2.247  0.00  0.00     0.009 A 
ATOM     19  C   UNL d   1       1.348  -6.253  -1.743  0.00  0.00     0.026 A 
ENDBRANCH  13  15
ENDBRANCH  12  13
ENDBRANCH  10  12
BRANCH   9  20
ATOM     20  N   UNL d   1      -0.969  -1.322  -0.204  0.00  0.00    -0.382 N 
ATOM     21  H   UNL d   1      -1.580  -0.619   0.204  0.00  0.00     0.157 HD
ATOM     22  H   UNL d   1      -0.000  -1.298   0.087  0.00  0.00     0.157 HD
ENDBRANCH   9  20
ENDBRANCH   1   9
BRANCH   2  23
ATOM     23  O   UNL d   1      -3.470  -5.015  -0.077  0.00  0.00    -0.291 OA
BRANCH  23  24
ATOM     24  C   UNL d   1      -4.236  -5.928  -0.773  0.00  0.00     0.078 A 
ATOM     25  C   UNL d   1      -4.252  -7.231  -0.275  0.00  0.00     0.053 A 
ATOM     26  C   UNL d   1      -4.951  -8.242  -0.953  0.00  0.00     0.050 A 
ATOM     27  C   UNL d   1      -5.636  -7.922  -2.136  0.00  0.00     0.016 A 
ATOM     28  C   UNL d   1      -5.606  -6.624  -2.643  0.00  0.00     0.004 A 
ATOM     29  C   UNL d   1      -4.893  -5.632  -1.972  0.00  0.00     0.037 A 
BRANCH  26  30
ATOM     30  C   UNL d   1      -4.959  -9.660  -0.443  0.00  0.00     0.417 C 
ATOM     31  F   UNL d   1      -4.287  -9.825   0.730  0.00  0.00    -0.166 F 
ATOM     32  F   UNL d   1      -6.218 -10.130  -0.220  0.00  0.00    -0.166 F 
ATOM     33  F   UNL d   1      -4.388 -10.530  -1.323  0.00  0.00    -0.166 F 
ENDBRANCH  26  30
ENDBRANCH  23  24
ENDBRANCH   2  23
TORSDOF 8
