REMARK  1 active torsions:
REMARK  status: ('A' for Active; 'I' for Inactive)
REMARK    1  A    between atoms: C_12  and  C_1 
ROOT
ATOM      1  C   UNL d   1       2.914   0.624  -0.276  0.00  0.00     0.080 C 
ATOM      2  S   UNL d   1       2.164  -0.930  -0.970  0.00  0.00    -0.139 SA
ATOM      3  S   UNL d   1       1.668   1.989  -0.434  0.00  0.00    -0.139 SA
ATOM      4  C   UNL d   1      -0.378  -0.748   0.132  0.00  0.00    -0.041 A 
ATOM      5  C   UNL d   1      -0.607   0.620   0.366  0.00  0.00    -0.041 A 
ATOM      6  C   UNL d   1      -1.448  -1.552  -0.295  0.00  0.00     0.015 A 
ATOM      7  C   UNL d   1      -1.889   1.150   0.139  0.00  0.00     0.015 A 
ATOM      8  C   UNL d   1      -2.734  -1.027  -0.493  0.00  0.00    -0.056 A 
ATOM      9  C   UNL d   1      -2.954   0.345  -0.283  0.00  0.00    -0.056 A 
ATOM     10  C   UNL d   1       0.979  -1.373   0.336  0.00  0.00     0.115 C 
ATOM     11  C   UNL d   1       0.480   1.534   0.861  0.00  0.00     0.115 C 
ATOM     12  C   UNL d   1       4.051   1.003  -1.250  0.00  0.00     0.044 C 
ATOM     13  C   UNL d   1      -3.845  -1.940  -0.930  0.00  0.00     0.049 C 
ATOM     14  C   UNL d   1      -4.303   0.973  -0.506  0.00  0.00     0.049 C 
ENDROOT
BRANCH   1  15
ATOM     15  C   UNL d   1       3.535   0.459   1.127  0.00  0.00    -0.030 A 
ATOM     16  C   UNL d   1       4.132  -0.757   1.523  0.00  0.00     0.009 A 
ATOM     17  C   UNL d   1       4.598  -0.951   2.826  0.00  0.00     0.001 A 
ATOM     18  C   UNL d   1       4.516   0.075   3.758  0.00  0.00     0.000 A 
ATOM     19  C   UNL d   1       4.019   1.314   3.372  0.00  0.00     0.001 A 
ATOM     20  C   UNL d   1       3.563   1.511   2.065  0.00  0.00     0.009 A 
ENDBRANCH   1  15
TORSDOF 1
