REMARK  6 active torsions:
REMARK  status: ('A' for Active; 'I' for Inactive)
REMARK    1  A    between atoms: C_2  and  N_1 
REMARK       I    between atoms: C_3  and  N_1 
REMARK    2  A    between atoms: N_7  and  C_2 
REMARK    3  A    between atoms: O_13  and  C_3 
REMARK       I    between atoms: C_4  and  N_6 
REMARK    4  A    between atoms: C_5  and  C_4 
REMARK    5  A    between atoms: N_6  and  N_7 
REMARK    6  A    between atoms: C_17  and  O_13 
ROOT
ATOM      1  C   UNL d   1       2.506   2.211   3.739  0.00  0.00     0.271 C 
ATOM      2  N   UNL d   1       2.286   1.725   2.463  0.00  0.00    -0.264 N 
ATOM      3  O   UNL d   1       1.613   2.657   4.452  0.00  0.00    -0.266 OA
ATOM      4  H   UNL d   1       3.054   1.597   1.801  0.00  0.00     0.190 HD
ENDROOT
BRANCH   2   5
ATOM      5  N   UNL d   1       1.006   1.842   1.927  0.00  0.00    -0.273 N 
ATOM      6  H   UNL d   1       0.341   2.320   2.542  0.00  0.00     0.189 HD
BRANCH   5   7
ATOM      7  C   UNL d   1       0.485   0.961   1.040  0.00  0.00     0.195 C 
ATOM      8  S   UNL d   1      -1.179   0.848   0.891  0.00  0.00    -0.039 SA
BRANCH   7   9
ATOM      9  N   UNL d   1       1.253   0.165   0.234  0.00  0.00    -0.278 N 
ATOM     10  C   UNL d   1       2.600   0.058  -0.039  0.00  0.00     0.366 C 
ATOM     11  O   UNL d   1       3.517   0.663   0.493  0.00  0.00    -0.238 OA
ATOM     12  H   UNL d   1       0.703  -0.430  -0.370  0.00  0.00     0.173 HD
BRANCH  10  13
ATOM     13  O   UNL d   1       2.754  -0.861  -1.028  0.00  0.00    -0.304 OA
BRANCH  13  14
ATOM     14  C   UNL d   1       4.097  -1.111  -1.473  0.00  0.00     0.176 C 
ATOM     15  C   UNL d   1       4.535  -0.045  -2.460  0.00  0.00     0.034 C 
ENDBRANCH  13  14
ENDBRANCH  10  13
ENDBRANCH   7   9
ENDBRANCH   5   7
ENDBRANCH   2   5
BRANCH   1  16
ATOM     16  C   UNL d   1       3.916   2.213   4.192  0.00  0.00     0.049 A 
ATOM     17  C   UNL d   1       4.317   3.133   5.152  0.00  0.00     0.104 A 
ATOM     18  N   UNL d   1       5.598   3.261   5.582  0.00  0.00    -0.374 N 
ATOM     19  C   UNL d   1       6.509   2.424   5.041  0.00  0.00     0.087 A 
ATOM     20  HN  UNL d   1       5.859   3.957   6.281  1.00  0.00     0.164 HD
ATOM     21  C   UNL d   1       6.199   1.448   4.108  0.00  0.00     0.018 A 
ATOM     22  C   UNL d   1       4.877   1.337   3.682  0.00  0.00     0.020 A 
ENDBRANCH   1  16
TORSDOF 6
