REMARK  7 active torsions:
REMARK  status: ('A' for Active; 'I' for Inactive)
REMARK    1  A    between atoms: N_7  and  S_1 
REMARK    2  A    between atoms: C_2  and  C_3 
REMARK    3  A    between atoms: C_3  and  O_8 
REMARK    4  A    between atoms: O_8  and  N_4 
REMARK    5  A    between atoms: C_6  and  C_11 
REMARK    6  A    between atoms: N_16  and  C_6 
REMARK    7  A    between atoms: C_17  and  N_7 
ROOT
ATOM      1  N   UNL d   1       0.577   7.622   0.914  0.00  0.00    -0.246 N 
ATOM      2  HN  UNL d   1       0.723   8.478   1.448  1.00  0.00     0.196 HD
ATOM      3  C   UNL d   1       1.508   6.753   0.653  0.00  0.00     0.109 C 
ENDROOT
BRANCH   3   4
ATOM      4  C   UNL d   1       2.907   7.053   1.107  0.00  0.00     0.004 A 
ATOM      5  C   UNL d   1       3.134   7.900   2.199  0.00  0.00     0.016 A 
ATOM      6  C   UNL d   1       4.442   8.179   2.613  0.00  0.00     0.025 A 
ATOM      7  C   UNL d   1       5.524   7.617   1.933  0.00  0.00     0.022 A 
ATOM      8  C   UNL d   1       5.307   6.794   0.829  0.00  0.00     0.025 A 
ATOM      9  C   UNL d   1       4.000   6.504   0.422  0.00  0.00     0.016 A 
BRANCH   7  10
ATOM     10  N   UNL d   1       6.861   7.909   2.331  0.00  0.00    -0.186 NA
ATOM     11  H   UNL d   1       7.020   7.879   3.341  0.00  0.00     0.145 HD
BRANCH  10  12
ATOM     12  S   UNL d   1       7.567   9.328   1.732  0.00  0.00     0.210 S 
ATOM     13  O   UNL d   1       8.487   9.756   2.765  0.00  0.00    -0.211 OA
ATOM     14  O   UNL d   1       6.554  10.217   1.211  0.00  0.00    -0.211 OA
ATOM     15  C   UNL d   1       8.539   8.696   0.380  0.00  0.00     0.180 C 
ENDBRANCH  10  12
ENDBRANCH   7  10
ENDBRANCH   3   4
BRANCH   3  16
ATOM     16  N   UNL d   1       1.272   5.568  -0.011  0.00  0.00    -0.286 NA
ATOM     17  H   UNL d   1       0.281   5.346  -0.044  0.00  0.00     0.125 HD
ATOM     18  H   UNL d   1       1.822   4.778   0.306  0.00  0.00     0.125 HD
ENDBRANCH   3  16
BRANCH   1  19
ATOM     19  O   UNL d   1      -0.664   7.230   0.363  0.00  0.00    -0.193 OA
BRANCH  19  20
ATOM     20  C   UNL d   1      -1.638   8.115   0.718  0.00  0.00     0.316 C 
ATOM     21  O   UNL d   1      -1.531   9.096   1.445  0.00  0.00    -0.257 OA
BRANCH  20  22
ATOM     22  C   UNL d   1      -2.907   7.818   0.006  0.00  0.00     0.063 A 
ATOM     23  C   UNL d   1      -3.404   6.535  -0.253  0.00  0.00     0.050 A 
ATOM     24 CL   UNL d   1      -2.614   5.081   0.248  0.00  0.00    -0.083 Cl
ATOM     25  C   UNL d   1      -4.635   6.384  -0.911  0.00  0.00     0.025 A 
ATOM     26  C   UNL d   1      -5.376   7.500  -1.304  0.00  0.00     0.002 A 
ATOM     27  C   UNL d   1      -4.895   8.778  -1.038  0.00  0.00     0.001 A 
ATOM     28  C   UNL d   1      -3.670   8.936  -0.387  0.00  0.00     0.019 A 
ENDBRANCH  20  22
ENDBRANCH  19  20
ENDBRANCH   1  19
TORSDOF 7
