REMARK  6 active torsions:
REMARK  status: ('A' for Active; 'I' for Inactive)
REMARK    1  A    between atoms: S_14  and  C_2 
REMARK    2  A    between atoms: C_3  and  S_13 
REMARK    3  A    between atoms: C_15  and  C_4 
REMARK    4  A    between atoms: S_13  and  C_15 
REMARK    5  A    between atoms: C_17  and  S_14 
REMARK    6  A    between atoms: C_19  and  C_17 
ROOT
ATOM      1  N   UNL d   1       0.930   0.139   0.042  0.00  0.00    -0.319 N 
ATOM      2  C   UNL d   1       0.010   1.150   0.131  0.00  0.00     0.162 A 
ATOM      3  C   UNL d   1       0.200  -1.037   0.068  0.00  0.00     0.109 A 
ATOM      4  N   UNL d   1      -1.197   0.643   0.190  0.00  0.00    -0.278 N 
ATOM      5  HN  UNL d   1      -2.068   1.170   0.255  1.00  0.00     0.189 HD
ATOM      6  N   UNL d   1      -1.081  -0.724   0.148  0.00  0.00    -0.286 N 
ATOM      7  HN  UNL d   1      -1.855  -1.388   0.174  1.00  0.00     0.188 HD
ATOM      8  C   UNL d   1       2.364   0.258  -0.028  0.00  0.00     0.159 C 
ENDROOT
BRANCH   3   9
ATOM      9  C   UNL d   1       0.736  -2.432  -0.058  0.00  0.00     0.157 C 
BRANCH   9  10
ATOM     10  S   UNL d   1       2.023  -2.824   1.161  0.00  0.00    -0.119 SA
BRANCH  10  11
ATOM     11  C   UNL d   1       2.472  -4.449   0.693  0.00  0.00     0.035 A 
ATOM     12  C   UNL d   1       3.625  -4.819   0.028  0.00  0.00     0.023 A 
ATOM     13  N   UNL d   1       3.628  -6.193  -0.034  0.00  0.00    -0.358 N 
ATOM     14  C   UNL d   1       4.751  -4.027  -0.530  0.00  0.00     0.069 C 
ATOM     15  C   UNL d   1       2.512  -6.712   0.587  0.00  0.00     0.044 A 
ATOM     16  H   UNL d   1       4.358  -6.758  -0.445  0.00  0.00     0.166 HD
ATOM     17  C   UNL d   1       1.751  -5.631   1.036  0.00  0.00     0.009 A 
ATOM     18  C   UNL d   1       2.138  -8.043   0.798  0.00  0.00     0.030 A 
ATOM     19  C   UNL d   1       0.543  -5.899   1.712  0.00  0.00     0.015 A 
ATOM     20  C   UNL d   1       0.148  -7.226   1.925  0.00  0.00     0.001 A 
ATOM     21  C   UNL d   1       0.941  -8.280   1.480  0.00  0.00     0.002 A 
ENDBRANCH  10  11
ENDBRANCH   9  10
ENDBRANCH   3   9
BRANCH   2  22
ATOM     22  S   UNL d   1       0.411   2.834   0.156  0.00  0.00    -0.088 SA
BRANCH  22  23
ATOM     23  C   UNL d   1      -1.141   3.537   0.787  0.00  0.00     0.121 C 
BRANCH  23  24
ATOM     24  C   UNL d   1      -1.061   5.040   0.942  0.00  0.00    -0.048 A 
ATOM     25  C   UNL d   1      -1.568   5.886  -0.057  0.00  0.00     0.009 A 
ATOM     26  C   UNL d   1      -1.527   7.276   0.101  0.00  0.00     0.024 A 
ATOM     27  C   UNL d   1      -0.971   7.826   1.253  0.00  0.00     0.034 A 
ATOM     28  C   UNL d   1      -0.446   7.002   2.244  0.00  0.00     0.024 A 
ATOM     29 CL   UNL d   1      -0.939   9.535   1.456  0.00  0.00    -0.084 Cl
ATOM     30  C   UNL d   1      -0.488   5.613   2.088  0.00  0.00     0.009 A 
ENDBRANCH  23  24
ENDBRANCH  22  23
ENDBRANCH   2  22
TORSDOF 6
