REMARK  20 active torsions:
REMARK  status: ('A' for Active; 'I' for Inactive)
REMARK    1  A    between atoms: C_1  and  O_16 
REMARK    2  A    between atoms: C_2  and  O_15 
REMARK    3  A    between atoms: C_3  and  O_17 
REMARK    4  A    between atoms: C_4  and  O_18 
REMARK    5  A    between atoms: C_5  and  O_11 
REMARK    6  A    between atoms: C_6  and  O_14 
REMARK    7  A    between atoms: C_7  and  O_11 
REMARK    8  A    between atoms: C_8  and  O_19 
REMARK    9  A    between atoms: C_12  and  C_28 
REMARK   10  A    between atoms: C_13  and  C_29 
REMARK   11  A    between atoms: C_20  and  O_14 
REMARK   12  A    between atoms: C_21  and  O_15 
REMARK   13  A    between atoms: C_22  and  O_16 
REMARK   14  A    between atoms: C_23  and  O_17 
REMARK   15  A    between atoms: C_24  and  O_18 
REMARK   16  A    between atoms: C_25  and  O_19 
REMARK   17  A    between atoms: C_26  and  O_30 
REMARK   18  A    between atoms: C_27  and  O_31 
REMARK   19  A    between atoms: O_30  and  C_28 
REMARK   20  A    between atoms: O_31  and  C_29 
ROOT
ATOM      1  O   UNL d   1      -0.214  -1.483   1.922  0.00  0.00    -0.348 OA
ENDROOT
BRANCH   1   2
ATOM      2  C   UNL d   1       0.019  -2.924   1.906  0.00  0.00     0.188 C 
ATOM      3  C   UNL d   1      -0.749  -3.796   0.827  0.00  0.00     0.198 C 
ATOM      4  C   UNL d   1      -2.281  -3.700   1.071  0.00  0.00     0.219 C 
ATOM      5  C   UNL d   1      -2.490  -4.334   2.493  0.00  0.00     0.302 C 
ATOM      6  O   UNL d   1      -1.817  -3.512   3.453  0.00  0.00    -0.348 OA
ATOM      7  C   UNL d   1      -0.385  -3.535   3.280  0.00  0.00     0.180 C 
BRANCH   3   8
ATOM      8  O   UNL d   1      -0.081  -3.658  -0.454  0.00  0.00    -0.311 OA
BRANCH   8   9
ATOM      9  C   UNL d   1      -0.551  -3.089  -1.585  0.00  0.00     0.255 C 
ATOM     10  O   UNL d   1      -1.685  -2.686  -1.772  0.00  0.00    -0.266 OA
ATOM     11  C   UNL d   1       0.629  -2.820  -2.488  0.00  0.00     0.126 C 
ENDBRANCH   8   9
ENDBRANCH   3   8
BRANCH   4  12
ATOM     12  O   UNL d   1      -3.160  -4.244   0.061  0.00  0.00    -0.308 OA
BRANCH  12  13
ATOM     13  C   UNL d   1      -3.425  -5.568  -0.002  0.00  0.00     0.255 C 
ATOM     14  O   UNL d   1      -2.747  -6.443   0.520  0.00  0.00    -0.266 OA
ATOM     15  C   UNL d   1      -4.747  -5.801  -0.675  0.00  0.00     0.126 C 
ENDBRANCH  12  13
ENDBRANCH   4  12
BRANCH   5  16
ATOM     16  O   UNL d   1      -3.868  -4.462   2.855  0.00  0.00    -0.287 OA
BRANCH  16  17
ATOM     17  C   UNL d   1      -4.061  -5.377   3.868  0.00  0.00     0.257 C 
ATOM     18  O   UNL d   1      -3.204  -6.054   4.397  0.00  0.00    -0.266 OA
ATOM     19  C   UNL d   1      -5.519  -5.485   4.210  0.00  0.00     0.126 C 
ENDBRANCH  16  17
ENDBRANCH   5  16
BRANCH   7  20
ATOM     20  C   UNL d   1       0.234  -2.842   4.499  0.00  0.00     0.213 C 
BRANCH  20  21
ATOM     21  O   UNL d   1       0.215  -3.738   5.642  0.00  0.00    -0.319 OA
BRANCH  21  22
ATOM     22  C   UNL d   1       1.147  -4.730   5.614  0.00  0.00     0.254 C 
ATOM     23  O   UNL d   1       1.976  -4.888   4.724  0.00  0.00    -0.266 OA
ATOM     24  C   UNL d   1       1.025  -5.637   6.801  0.00  0.00     0.126 C 
ENDBRANCH  21  22
ENDBRANCH  20  21
ENDBRANCH   7  20
ENDBRANCH   1   2
BRANCH   1  25
ATOM     25  C   UNL d   1      -0.008  -0.768   0.701  0.00  0.00     0.293 C 
ATOM     26  C   UNL d   1       1.398  -0.265   0.288  0.00  0.00     0.219 C 
ATOM     27  C   UNL d   1       1.652   1.214   0.617  0.00  0.00     0.198 C 
ATOM     28  C   UNL d   1       0.529   2.030  -0.057  0.00  0.00     0.195 C 
ATOM     29  C   UNL d   1      -0.815   1.588   0.552  0.00  0.00     0.181 C 
ATOM     30  O   UNL d   1      -1.057   0.176   0.461  0.00  0.00    -0.348 OA
BRANCH  26  31
ATOM     31  O   UNL d   1       2.536  -1.138   0.414  0.00  0.00    -0.308 OA
BRANCH  31  32
ATOM     32  C   UNL d   1       3.155  -1.301   1.603  0.00  0.00     0.255 C 
ATOM     33  O   UNL d   1       2.673  -1.029   2.689  0.00  0.00    -0.266 OA
ATOM     34  C   UNL d   1       4.572  -1.754   1.368  0.00  0.00     0.126 C 
ENDBRANCH  31  32
ENDBRANCH  26  31
BRANCH  27  35
ATOM     35  O   UNL d   1       2.981   1.672   0.225  0.00  0.00    -0.311 OA
BRANCH  35  36
ATOM     36  C   UNL d   1       3.393   1.563  -1.068  0.00  0.00     0.255 C 
ATOM     37  O   UNL d   1       2.740   1.107  -1.986  0.00  0.00    -0.266 OA
ATOM     38  C   UNL d   1       4.791   2.089  -1.207  0.00  0.00     0.126 C 
ENDBRANCH  35  36
ENDBRANCH  27  35
BRANCH  28  39
ATOM     39  O   UNL d   1       0.771   3.444   0.129  0.00  0.00    -0.311 OA
BRANCH  39  40
ATOM     40  C   UNL d   1       0.635   4.229  -0.981  0.00  0.00     0.255 C 
ATOM     41  O   UNL d   1       0.273   3.840  -2.082  0.00  0.00    -0.266 OA
ATOM     42  C   UNL d   1       1.020   5.648  -0.693  0.00  0.00     0.126 C 
ENDBRANCH  39  40
ENDBRANCH  28  39
BRANCH  29  43
ATOM     43  C   UNL d   1      -1.980   2.270  -0.205  0.00  0.00     0.213 C 
BRANCH  43  44
ATOM     44  O   UNL d   1      -3.257   1.901   0.348  0.00  0.00    -0.319 OA
BRANCH  44  45
ATOM     45  C   UNL d   1      -3.594   2.532   1.500  0.00  0.00     0.254 C 
ATOM     46  O   UNL d   1      -2.939   3.413   2.041  0.00  0.00    -0.266 OA
ATOM     47  C   UNL d   1      -4.910   2.025   2.002  0.00  0.00     0.126 C 
ENDBRANCH  44  45
ENDBRANCH  43  44
ENDBRANCH  29  43
ENDBRANCH   1  25
TORSDOF 20
