REMARK  6 active torsions:
REMARK  status: ('A' for Active; 'I' for Inactive)
REMARK    1  A    between atoms: N_3  and  S_1 
REMARK    2  A    between atoms: C_5  and  S_1 
REMARK    3  A    between atoms: S_2  and  C_4 
REMARK    4  A    between atoms: N_12  and  S_2 
REMARK    5  A    between atoms: C_11  and  N_3 
REMARK    6  A    between atoms: C_21  and  C_17 
ROOT
ATOM      1  N   UNL d   1       0.486   0.510  -1.617  0.00  0.00    -0.281 N 
ATOM      2  H   UNL d   1       1.120   0.118  -2.311  0.00  0.00     0.179 HD
ENDROOT
BRANCH   1   3
ATOM      3  S   UNL d   1       0.949   0.079  -0.046  0.00  0.00     0.263 S 
ATOM      4  O   UNL d   1       0.226   0.893   0.908  0.00  0.00    -0.200 OA
ATOM      5  O   UNL d   1       2.397   0.034  -0.051  0.00  0.00    -0.200 OA
BRANCH   3   6
ATOM      6  C   UNL d   1       0.372  -1.600   0.107  0.00  0.00     0.079 A 
ATOM      7  C   UNL d   1       1.191  -2.652  -0.316  0.00  0.00     0.026 A 
ATOM      8  C   UNL d   1       0.766  -3.972  -0.145  0.00  0.00     0.009 A 
ATOM      9  C   UNL d   1      -0.467  -4.250   0.465  0.00  0.00    -0.058 A 
ATOM     10  C   UNL d   1      -1.283  -3.184   0.872  0.00  0.00     0.009 A 
ATOM     11  C   UNL d   1      -0.862  -1.862   0.707  0.00  0.00     0.026 A 
BRANCH   9  12
ATOM     12  C   UNL d   1      -0.898  -5.676   0.708  0.00  0.00     0.034 C 
ATOM     13  C   UNL d   1      -1.707  -6.252  -0.443  0.00  0.00     0.010 C 
ENDBRANCH   9  12
ENDBRANCH   3   6
ENDBRANCH   1   3
BRANCH   1  14
ATOM     14  C   UNL d   1      -0.898   0.524  -1.933  0.00  0.00     0.044 A 
ATOM     15  C   UNL d   1      -1.485  -0.595  -2.511  0.00  0.00     0.054 A 
ATOM     16  C   UNL d   1      -2.864  -0.600  -2.730  0.00  0.00     0.076 A 
ATOM     17  C   UNL d   1      -3.651   0.515  -2.426  0.00  0.00     0.025 A 
ATOM     18  C   UNL d   1      -3.050   1.633  -1.851  0.00  0.00     0.004 A 
ATOM     19  C   UNL d   1      -1.678   1.630  -1.589  0.00  0.00     0.030 A 
BRANCH  16  20
ATOM     20  S   UNL d   1      -3.625  -2.069  -3.343  0.00  0.00     0.239 S 
ATOM     21  O   UNL d   1      -4.884  -1.734  -3.959  0.00  0.00    -0.206 OA
ATOM     22  O   UNL d   1      -2.625  -2.886  -3.990  0.00  0.00    -0.206 OA
BRANCH  20  23
ATOM     23  N   UNL d   1      -3.995  -2.835  -1.896  0.00  0.00    -0.225 NA
ATOM     24  H   UNL d   1      -5.003  -2.956  -1.804  0.00  0.00     0.136 HD
ATOM     25  H   UNL d   1      -3.444  -3.685  -1.790  0.00  0.00     0.136 HD
ENDBRANCH  20  23
ENDBRANCH  16  20
ENDBRANCH   1  14
TORSDOF 6
