REMARK  3 active torsions:
REMARK  status: ('A' for Active; 'I' for Inactive)
REMARK    1  A    between atoms: C_3  and  C_1 
REMARK    2  A    between atoms: C_9  and  C_2 
REMARK    3  A    between atoms: O_15  and  C_3 
ROOT
ATOM      1  C   UNL d   1       0.813  -0.181  -0.833  0.00  0.00     0.118 C 
ATOM      2  C   UNL d   1       0.387  -1.070   0.091  0.00  0.00     0.041 C 
ATOM      3  C   UNL d   1       1.929  -0.454  -1.676  0.00  0.00     0.106 C 
ATOM      4  N   UNL d   1       2.830  -0.631  -2.385  0.00  0.00    -0.191 NA
ENDROOT
BRANCH   1   5
ATOM      5  C   UNL d   1       0.072   1.101  -0.932  0.00  0.00     0.187 C 
ATOM      6  O   UNL d   1      -0.887   1.380  -0.226  0.00  0.00    -0.645 OA
BRANCH   5   7
ATOM      7  O   UNL d   1       0.525   1.971  -1.863  0.00  0.00    -0.772 OA
ATOM      8  H   UNL d   1       1.295   1.718  -2.413  0.00  0.00     0.167 HD
ENDBRANCH   5   7
ENDBRANCH   1   5
BRANCH   2   9
ATOM      9  C   UNL d   1       1.039  -2.367   0.306  0.00  0.00    -0.032 A 
ATOM     10  C   UNL d   1       0.657  -3.481  -0.454  0.00  0.00     0.051 A 
ATOM     11  C   UNL d   1       1.376  -4.647  -0.290  0.00  0.00     0.105 A 
ATOM     12  O   UNL d   1       1.164  -5.812  -0.958  0.00  0.00    -0.323 OA
ATOM     13  C   UNL d   1       2.428  -4.734   0.591  0.00  0.00     0.105 A 
ATOM     14  C   UNL d   1       2.226  -6.631  -0.424  0.00  0.00     0.352 A 
ATOM     15  O   UNL d   1       3.008  -5.964   0.589  0.00  0.00    -0.323 OA
ATOM     16  C   UNL d   1       2.818  -3.662   1.363  0.00  0.00     0.040 A 
ATOM     17  C   UNL d   1       2.113  -2.463   1.216  0.00  0.00     0.014 A 
ENDBRANCH   2   9
TORSDOF 3
