REMARK  6 active torsions:
REMARK  status: ('A' for Active; 'I' for Inactive)
REMARK    1  A    between atoms: O_17  and  C_6 
REMARK    2  A    between atoms: C_14  and  C_7 
REMARK    3  A    between atoms: C_10  and  N_8 
REMARK    4  A    between atoms: C_11  and  C_12 
REMARK    5  A    between atoms: O_18  and  C_14 
REMARK    6  A    between atoms: C_19  and  O_18 
ROOT
ATOM      1  C   UNL d   1      -0.832   0.071  -0.985  0.00  0.00     0.111 C 
ATOM      2  N   UNL d   1       0.543   0.023  -1.077  0.00  0.00    -0.330 N 
ATOM      3  HN  UNL d   1       0.997   0.042  -1.990  1.00  0.00     0.168 HD
ATOM      4  C   UNL d   1      -1.429   0.253   0.373  0.00  0.00     0.104 C 
ATOM      5  N   UNL d   1       0.715  -0.058   1.271  0.00  0.00    -0.325 N 
ATOM      6  C   UNL d   1      -0.620   0.134   1.432  0.00  0.00     0.144 C 
ATOM      7  C   UNL d   1       1.258  -0.047   0.006  0.00  0.00     0.109 C 
ATOM      8  N   UNL d   1      -1.452  -0.068  -2.111  0.00  0.00    -0.341 N 
ATOM      9  HN  UNL d   1      -0.897  -0.167  -2.962  1.00  0.00     0.167 HD
ATOM     10  H   UNL d   1       1.327   0.076   2.065  0.00  0.00     0.169 HD
ENDROOT
BRANCH   7  11
ATOM     11  C   UNL d   1       2.777  -0.137  -0.129  0.00  0.00     0.252 C 
BRANCH  11  12
ATOM     12  O   UNL d   1       3.351   1.158  -0.016  0.00  0.00    -0.344 OA
BRANCH  12  13
ATOM     13  C   UNL d   1       4.719   1.218  -0.072  0.00  0.00     0.069 A 
ATOM     14  C   UNL d   1       5.582   0.126  -0.108  0.00  0.00     0.037 A 
ATOM     15  C   UNL d   1       6.970   0.319  -0.090  0.00  0.00     0.011 A 
ATOM     16  C   UNL d   1       7.539   1.605  -0.040  0.00  0.00    -0.050 A 
ATOM     17  C   UNL d   1       6.654   2.694  -0.054  0.00  0.00     0.011 A 
ATOM     18  C   UNL d   1       5.265   2.500  -0.066  0.00  0.00     0.037 A 
BRANCH  16  19
ATOM     19  C   UNL d   1       9.067   1.764   0.061  0.00  0.00    -0.024 C 
ATOM     20  C   UNL d   1       9.539   3.233   0.135  0.00  0.00     0.019 C 
ATOM     21  C   UNL d   1       9.566   1.062   1.345  0.00  0.00     0.019 C 
ATOM     22  C   UNL d   1       9.754   1.122  -1.163  0.00  0.00     0.019 C 
ENDBRANCH  16  19
ENDBRANCH  12  13
ENDBRANCH  11  12
ENDBRANCH   7  11
BRANCH   6  23
ATOM     23  O   UNL d   1      -1.133   0.192   2.702  0.00  0.00    -0.346 OA
ATOM     24  H   UNL d   1      -0.451  -0.139   3.309  0.00  0.00     0.219 HD
ENDBRANCH   6  23
BRANCH   8  25
ATOM     25  C   UNL d   1      -2.854  -0.089  -2.218  0.00  0.00     0.055 A 
ATOM     26  C   UNL d   1      -3.534   0.764  -3.107  0.00  0.00     0.060 A 
ATOM     27 CL   UNL d   1      -2.686   1.917  -4.077  0.00  0.00    -0.082 Cl
ATOM     28  C   UNL d   1      -4.926   0.697  -3.244  0.00  0.00     0.026 A 
ATOM     29  C   UNL d   1      -5.660  -0.223  -2.496  0.00  0.00     0.002 A 
ATOM     30  C   UNL d   1      -5.001  -1.095  -1.634  0.00  0.00     0.002 A 
ATOM     31  C   UNL d   1      -3.610  -1.045  -1.520  0.00  0.00     0.031 A 
ENDBRANCH   8  25
TORSDOF 6
