REMARK  2 active torsions:
REMARK  status: ('A' for Active; 'I' for Inactive)
REMARK    1  A    between atoms: C_14  and  N_1 
REMARK    2  A    between atoms: C_16  and  C_14 
ROOT
ATOM      1  N   UNL d   1       3.031   0.673   0.273  0.00  0.00    -0.250 N 
ATOM      2  N   UNL d   1       1.832   1.416  -0.102  0.00  0.00    -0.289 N 
ATOM      3  C   UNL d   1      -0.614   0.485  -0.078  0.00  0.00     0.062 A 
ATOM      4  C   UNL d   1       0.803   0.481  -0.020  0.00  0.00     0.083 A 
ATOM      5  C   UNL d   1       1.334  -0.811   0.189  0.00  0.00     0.078 A 
ATOM      6  C   UNL d   1       2.759  -0.710   0.367  0.00  0.00     0.276 C 
ATOM      7  C   UNL d   1      -1.250  -0.731  -0.035  0.00  0.00     0.136 A 
ATOM      8  N   UNL d   1      -2.789   0.953  -0.148  0.00  0.00    -0.301 N 
ATOM      9  HN  UNL d   1      -3.686   1.437  -0.197  1.00  0.00     0.187 HD
ATOM     10  N   UNL d   1      -2.573  -0.387  -0.102  0.00  0.00    -0.280 N 
ATOM     11  C   UNL d   1      -1.554   1.505  -0.118  0.00  0.00     0.038 A 
ATOM     12  N   UNL d   1      -0.733  -1.966   0.074  0.00  0.00    -0.349 N 
ATOM     13  HN  UNL d   1      -1.304  -2.811   0.055  1.00  0.00     0.167 HD
ATOM     14  C   UNL d   1       0.606  -1.988   0.211  0.00  0.00     0.109 A 
ATOM     15  O   UNL d   1       3.599  -1.589   0.539  0.00  0.00    -0.266 OA
ATOM     16  C   UNL d   1       1.797   2.846   0.088  0.00  0.00     0.178 C 
ATOM     17  C   UNL d   1      -3.689  -1.297  -0.062  0.00  0.00     0.179 C 
ATOM     18  C   UNL d   1      -1.476   2.982  -0.075  0.00  0.00     0.071 C 
ENDROOT
BRANCH   1  19
ATOM     19  C   UNL d   1       4.380   1.163   0.042  0.00  0.00     0.191 C 
BRANCH  19  20
ATOM     20  C   UNL d   1       5.071   1.777   1.251  0.00  0.00    -0.032 A 
ATOM     21  C   UNL d   1       6.413   2.219   1.171  0.00  0.00    -0.054 A 
ATOM     22  C   UNL d   1       7.041   2.738   2.319  0.00  0.00     0.008 A 
ATOM     23  C   UNL d   1       7.251   2.126  -0.076  0.00  0.00     0.049 C 
ATOM     24  C   UNL d   1       6.360   2.838   3.530  0.00  0.00     0.007 A 
ATOM     25  C   UNL d   1       5.032   2.424   3.622  0.00  0.00    -0.061 A 
ATOM     26  C   UNL d   1       4.402   1.894   2.487  0.00  0.00     0.016 A 
ATOM     27  C   UNL d   1       4.307   2.519   4.931  0.00  0.00     0.048 C 
ENDBRANCH  19  20
ENDBRANCH   1  19
TORSDOF 2
