REMARK  5 active torsions:
REMARK  status: ('A' for Active; 'I' for Inactive)
REMARK    1  A    between atoms: C_2  and  C_1 
REMARK       I    between atoms: N_3  and  C_1 
REMARK    2  A    between atoms: C_14  and  N_3 
REMARK    3  A    between atoms: C_4  and  C_8 
REMARK    4  A    between atoms: N_5  and  C_15 
REMARK    5  A    between atoms: O_16  and  C_9 
ROOT
ATOM      1  C   UNL d   1      -1.106  -0.459   1.249  0.00  0.00     0.035 A 
ATOM      2  C   UNL d   1      -3.937  -0.559   1.298  0.00  0.00     0.032 A 
ATOM      3  C   UNL d   1      -1.812  -1.194   0.297  0.00  0.00     0.032 A 
ATOM      4  C   UNL d   1      -1.826   0.164   2.275  0.00  0.00     0.032 A 
ATOM      5  C   UNL d   1      -3.211  -1.252   0.327  0.00  0.00     0.031 A 
ATOM      6  C   UNL d   1      -3.227   0.114   2.294  0.00  0.00     0.031 A 
ENDROOT
BRANCH   1   7
ATOM      7  N   UNL d   1       0.296  -0.278   1.224  0.00  0.00    -0.323 N 
ATOM      8  C   UNL d   1       1.155  -0.680   0.216  0.00  0.00     0.259 C 
ATOM      9  O   UNL d   1       0.851  -1.302  -0.797  0.00  0.00    -0.267 OA
ATOM     10  H   UNL d   1       0.666   0.324   1.947  0.00  0.00     0.169 HD
BRANCH   8  11
ATOM     11  C   UNL d   1       2.578  -0.243   0.329  0.00  0.00     0.065 A 
ATOM     12  C   UNL d   1       3.330  -0.066  -0.846  0.00  0.00     0.081 A 
ATOM     13  C   UNL d   1       4.650   0.374  -0.789  0.00  0.00     0.037 A 
ATOM     14  C   UNL d   1       5.245   0.621   0.447  0.00  0.00     0.003 A 
ATOM     15  C   UNL d   1       4.520   0.420   1.622  0.00  0.00     0.001 A 
ATOM     16  C   UNL d   1       3.192  -0.014   1.568  0.00  0.00     0.020 A 
BRANCH  12  17
ATOM     17  O   UNL d   1       2.833  -0.306  -2.100  0.00  0.00    -0.360 OA
ATOM     18  H   UNL d   1       1.975  -0.777  -1.995  0.00  0.00     0.217 HD
ENDBRANCH  12  17
ENDBRANCH   8  11
ENDBRANCH   1   7
BRANCH   2  19
ATOM     19  N   UNL d   1      -5.341  -0.513   1.339  0.00  0.00    -0.363 N 
ATOM     20  C   UNL d   1      -5.986  -0.412   0.220  0.00  0.00     0.125 C 
ATOM     21  HN  UNL d   1      -5.840  -0.558   2.227  1.00  0.00     0.165 HD
BRANCH  20  22
ATOM     22  C   UNL d   1      -7.416  -0.303   0.189  0.00  0.00     0.090 A 
ATOM     23  O   UNL d   1      -8.033  -0.328  -1.031  0.00  0.00    -0.321 OA
ATOM     24  C   UNL d   1      -9.365  -0.189  -0.808  0.00  0.00     0.142 A 
ATOM     25  C   UNL d   1      -9.618  -0.065   0.538  0.00  0.00     0.027 A 
ATOM     26  C   UNL d   1      -8.361  -0.148   1.184  0.00  0.00     0.040 A 
ENDBRANCH  20  22
ENDBRANCH   2  19
TORSDOF 5
