REMARK  4 active torsions:
REMARK  status: ('A' for Active; 'I' for Inactive)
REMARK    1  A    between atoms: C_2  and  C_1 
REMARK    2  A    between atoms: C_10  and  C_2 
REMARK       I    between atoms: C_3  and  N_5 
REMARK    3  A    between atoms: C_6  and  C_3 
REMARK    4  A    between atoms: N_5  and  C_4 
ROOT
ATOM      1  C   UNL d   1       1.503   1.157  -0.376  0.00  0.00     0.043 A 
ATOM      2  C   UNL d   1       2.373   0.081  -0.102  0.00  0.00     0.049 A 
ATOM      3  C   UNL d   1       0.110   0.948  -0.333  0.00  0.00     0.041 A 
ATOM      4  C   UNL d   1       1.825  -1.188   0.154  0.00  0.00     0.032 A 
ATOM      5  C   UNL d   1      -0.408  -0.307  -0.026  0.00  0.00     0.035 A 
ATOM      6  C   UNL d   1       0.443  -1.379   0.205  0.00  0.00     0.026 A 
ATOM      7 CL   UNL d   1      -2.111  -0.542   0.020  0.00  0.00    -0.084 Cl
ENDROOT
BRANCH   1   8
ATOM      8  C   UNL d   1       1.970   2.444  -0.968  0.00  0.00     0.194 C 
ATOM      9  O   UNL d   1       2.830   2.415  -1.845  0.00  0.00    -0.287 OA
BRANCH   8  10
ATOM     10  C   UNL d   1       1.303   3.736  -0.629  0.00  0.00     0.015 A 
ATOM     11  C   UNL d   1       1.196   4.708  -1.632  0.00  0.00     0.015 A 
ATOM     12  C   UNL d   1       0.508   5.899  -1.389  0.00  0.00     0.001 A 
ATOM     13  C   UNL d   1      -0.068   6.128  -0.140  0.00  0.00     0.000 A 
ATOM     14  C   UNL d   1       0.058   5.175   0.872  0.00  0.00     0.001 A 
ATOM     15  C   UNL d   1       0.749   3.983   0.634  0.00  0.00     0.015 A 
ENDBRANCH   8  10
ENDBRANCH   1   8
BRANCH   2  16
ATOM     16  N   UNL d   1       3.783   0.132  -0.084  0.00  0.00    -0.324 N 
ATOM     17  C   UNL d   1       4.570   1.215   0.276  0.00  0.00     0.255 C 
ATOM     18  O   UNL d   1       4.117   2.229   0.811  0.00  0.00    -0.270 OA
ATOM     19  H   UNL d   1       4.277  -0.753  -0.162  0.00  0.00     0.169 HD
BRANCH  17  20
ATOM     20  C   UNL d   1       6.080   1.031   0.048  0.00  0.00     0.270 C 
ATOM     21 CL   UNL d   1       6.918   1.163   1.615  0.00  0.00    -0.098 Cl
ATOM     22 CL   UNL d   1       6.478  -0.557  -0.674  0.00  0.00    -0.098 Cl
ENDBRANCH  17  20
ENDBRANCH   2  16
TORSDOF 4
