REMARK  1 active torsions:
REMARK  status: ('A' for Active; 'I' for Inactive)
REMARK    1  A    between atoms: N_6  and  C_8 
ROOT
ATOM      1  N   UNL d   1       1.643  -0.010   0.006  0.00  0.00    -0.284 N 
ATOM      2  C   UNL d   1       0.882  -1.145   0.003  0.00  0.00     0.261 A 
ATOM      3  C   UNL d   1       0.874   1.123  -0.001  0.00  0.00     0.261 A 
ATOM      4  C   UNL d   1      -0.513  -0.710  -0.006  0.00  0.00     0.050 A 
ATOM      5  C   UNL d   1      -0.519   0.675  -0.010  0.00  0.00     0.048 A 
ATOM      6  C   UNL d   1      -1.677  -1.456   0.006  0.00  0.00     0.054 A 
ATOM      7  C   UNL d   1      -2.883  -0.739   0.019  0.00  0.00     0.103 A 
ATOM      8  C   UNL d   1      -1.695   1.401  -0.005  0.00  0.00     0.020 A 
ATOM      9  O   UNL d   1       1.225  -2.311   0.013  0.00  0.00    -0.267 OA
ATOM     10  O   UNL d   1       1.216   2.289   0.008  0.00  0.00    -0.267 OA
ATOM     11  C   UNL d   1      -2.897   0.679   0.011  0.00  0.00     0.037 A 
ATOM     12  C   UNL d   1       3.084   0.004   0.048  0.00  0.00     0.163 C 
ENDROOT
BRANCH   7  13
ATOM     13  N   UNL d   1      -4.156  -1.474   0.053  0.00  0.00    -0.116 N 
ATOM     14  O   UNL d   1      -4.104  -2.711   0.068  0.00  0.00    -0.532 OA
ATOM     15  O   UNL d   1      -5.201  -0.810   0.068  0.00  0.00    -0.532 OA
ENDBRANCH   7  13
TORSDOF 1
