REMARK  4 active torsions:
REMARK  status: ('A' for Active; 'I' for Inactive)
REMARK    1  A    between atoms: O_3  and  S_1 
REMARK    2  A    between atoms: C_5  and  S_1 
REMARK    3  A    between atoms: C_2  and  C_6 
REMARK    4  A    between atoms: C_4  and  O_3 
ROOT
ATOM      1  S   UNL d   1       0.990  -0.048  -0.019  0.00  0.00     0.303 S 
ATOM      2  O   UNL d   1       0.356  -1.013   0.855  0.00  0.00    -0.193 OA
ATOM      3  O   UNL d   1       2.422  -0.079  -0.267  0.00  0.00    -0.193 OA
ENDROOT
BRANCH   1   4
ATOM      4  O   UNL d   1       0.575   1.459   0.465  0.00  0.00    -0.228 OA
BRANCH   4   5
ATOM      5  C   UNL d   1       0.908   1.882   1.733  0.00  0.00     0.107 A 
ATOM      6  C   UNL d   1       0.017   2.702   2.433  0.00  0.00     0.046 A 
ATOM      7  C   UNL d   1       0.327   3.146   3.729  0.00  0.00     0.028 A 
ATOM      8 BR   UNL d   1      -1.639   3.235   1.675  0.00  0.00    -0.048 Br
ATOM      9  C   UNL d   1       1.535   2.779   4.335  0.00  0.00    -0.061 A 
ATOM     10  C   UNL d   1       2.435   1.986   3.621  0.00  0.00     0.009 A 
ATOM     11  C   UNL d   1       1.864   3.233   5.727  0.00  0.00     0.048 C 
ATOM     12  C   UNL d   1       2.130   1.553   2.331  0.00  0.00     0.040 A 
ENDBRANCH   4   5
ENDBRANCH   1   4
BRANCH   1  13
ATOM     13  C   UNL d   1       0.259  -0.296  -1.621  0.00  0.00     0.087 A 
ATOM     14  C   UNL d   1       0.566  -1.500  -2.273  0.00  0.00     0.042 A 
ATOM     15  C   UNL d   1       0.066  -1.760  -3.554  0.00  0.00     0.049 A 
ATOM     16  C   UNL d   1      -0.743  -0.791  -4.167  0.00  0.00     0.016 A 
ATOM     17  C   UNL d   1      -1.045   0.410  -3.511  0.00  0.00     0.002 A 
ATOM     18  C   UNL d   1      -0.544   0.665  -2.232  0.00  0.00     0.026 A 
BRANCH  15  19
ATOM     19  C   UNL d   1       0.392  -3.053  -4.266  0.00  0.00     0.417 C 
ATOM     20  F   UNL d   1       1.198  -3.880  -3.545  0.00  0.00    -0.166 F 
ATOM     21  F   UNL d   1      -0.721  -3.779  -4.560  0.00  0.00    -0.166 F 
ATOM     22  F   UNL d   1       1.032  -2.848  -5.451  0.00  0.00    -0.166 F 
ENDBRANCH  15  19
ENDBRANCH   1  13
TORSDOF 4
