REMARK  2 active torsions:
REMARK  status: ('A' for Active; 'I' for Inactive)
REMARK    1  A    between atoms: C_3  and  N_1 
REMARK    2  A    between atoms: N_5  and  C_2 
REMARK       I    between atoms: C_6  and  N_5 
ROOT
ATOM      1  C   UNL d   1      -1.436   2.883  -0.934  0.00  0.00     0.043 A 
ATOM      2  C   UNL d   1       0.192   1.081  -0.752  0.00  0.00     0.105 A 
ATOM      3  C   UNL d   1      -0.817   1.870  -0.187  0.00  0.00     0.066 A 
ATOM      4  C   UNL d   1      -1.021   3.094  -2.272  0.00  0.00    -0.035 A 
ATOM      5  C   UNL d   1       0.602   1.284  -2.071  0.00  0.00     0.037 A 
ATOM      6  C   UNL d   1      -0.006   2.287  -2.823  0.00  0.00     0.011 A 
ATOM      7  C   UNL d   1      -1.618   4.161  -3.154  0.00  0.00     0.050 C 
ENDROOT
BRANCH   1   8
ATOM      8  N   UNL d   1      -2.460   3.700  -0.386  0.00  0.00    -0.327 N 
ATOM      9  C   UNL d   1      -2.990   3.636   0.892  0.00  0.00     0.218 C 
ATOM     10  O   UNL d   1      -2.671   2.858   1.785  0.00  0.00    -0.274 OA
ATOM     11  C   UNL d   1      -4.067   4.660   1.155  0.00  0.00     0.117 C 
ATOM     12  H   UNL d   1      -2.845   4.406  -0.998  0.00  0.00     0.169 HD
ENDBRANCH   1   8
BRANCH   2  13
ATOM     13  N   UNL d   1       0.829   0.027   0.050  0.00  0.00    -0.116 N 
ATOM     14  O   UNL d   1       0.452  -0.128   1.218  0.00  0.00    -0.532 OA
ATOM     15  O   UNL d   1       1.714  -0.650  -0.493  0.00  0.00    -0.532 OA
ENDBRANCH   2  13
TORSDOF 2
