REMARK  3 active torsions:
REMARK  status: ('A' for Active; 'I' for Inactive)
REMARK    1  A    between atoms: C_7  and  C_5 
REMARK       I    between atoms: N_15  and  C_7 
REMARK    2  A    between atoms: N_8  and  C_10 
REMARK    3  A    between atoms: N_9  and  C_16 
ROOT
ATOM      1  C   UNL d   1      -1.502   0.496  -0.207  0.00  0.00     0.002 C 
ATOM      2  C   UNL d   1       0.788   0.042   0.200  0.00  0.00     0.018 C 
ATOM      3  C   UNL d   1      -0.243   1.128   0.041  0.00  0.00    -0.008 C 
ATOM      4  C   UNL d   1       0.052  -1.267   0.146  0.00  0.00    -0.009 C 
ATOM      5  C   UNL d   1      -2.653   1.301  -0.303  0.00  0.00     0.046 C 
ATOM      6  C   UNL d   1      -1.288  -0.962  -0.217  0.00  0.00    -0.013 C 
ATOM      7  C   UNL d   1      -1.276   3.288  -0.068  0.00  0.00     0.104 C 
ATOM      8  C   UNL d   1       2.133   0.201   0.203  0.00  0.00     0.136 C 
ATOM      9  C   UNL d   1      -0.142   2.510   0.178  0.00  0.00     0.049 C 
ATOM     10  C   UNL d   1      -2.499   2.693  -0.391  0.00  0.00     0.054 C 
ATOM     11  C   UNL d   1       0.457  -2.584   0.359  0.00  0.00     0.049 C 
ATOM     12  C   UNL d   1      -0.449  -3.618   0.081  0.00  0.00     0.103 C 
ATOM     13  C   UNL d   1       2.773   1.474   0.115  0.00  0.00     0.111 C 
ATOM     14  C   UNL d   1       3.048  -0.896   0.228  0.00  0.00     0.111 C 
ATOM     15  N   UNL d   1       3.296   2.507   0.039  0.00  0.00    -0.191 NA
ATOM     16  N   UNL d   1       3.802  -1.780   0.239  0.00  0.00    -0.191 NA
ATOM     17  C   UNL d   1      -2.143  -2.004  -0.564  0.00  0.00     0.015 C 
ATOM     18  C   UNL d   1      -1.724  -3.334  -0.427  0.00  0.00     0.037 C 
ENDROOT
BRANCH   5  19
ATOM     19  C   UNL d   1      -4.061   0.812  -0.229  0.00  0.00     0.254 C 
ATOM     20  N   UNL d   1      -4.970   1.391   0.695  0.00  0.00    -0.348 N 
ATOM     21  C   UNL d   1      -6.346   0.883   0.626  0.00  0.00     0.126 C 
ATOM     22  C   UNL d   1      -4.654   2.425   1.694  0.00  0.00     0.126 C 
ATOM     23  C   UNL d   1      -7.426   1.601   1.440  0.00  0.00     0.020 C 
ATOM     24  C   UNL d   1      -7.324   1.374   2.948  0.00  0.00     0.002 C 
ATOM     25  C   UNL d   1      -6.279   2.241   3.634  0.00  0.00     0.002 C 
ATOM     26  C   UNL d   1      -4.863   1.996   3.138  0.00  0.00     0.020 C 
ATOM     27  O   UNL d   1      -4.407  -0.059  -1.023  0.00  0.00    -0.267 OA
ENDBRANCH   5  19
BRANCH   7  28
ATOM     28  N   UNL d   1      -1.232   4.739   0.162  0.00  0.00    -0.116 N 
ATOM     29  O   UNL d   1      -0.126   5.258   0.350  0.00  0.00    -0.532 OA
ATOM     30  O   UNL d   1      -2.314   5.342   0.197  0.00  0.00    -0.532 OA
ENDBRANCH   7  28
BRANCH  12  31
ATOM     31  N   UNL d   1      -0.061  -5.017   0.322  0.00  0.00    -0.116 N 
ATOM     32  O   UNL d   1       1.067  -5.228   0.784  0.00  0.00    -0.532 OA
ATOM     33  O   UNL d   1      -0.894  -5.897   0.064  0.00  0.00    -0.532 OA
ENDBRANCH  12  31
TORSDOF 3
