REMARK  4 active torsions:
REMARK  status: ('A' for Active; 'I' for Inactive)
REMARK    1  A    between atoms: C_7  and  C_2 
REMARK       I    between atoms: C_13  and  N_3 
REMARK    2  A    between atoms: C_6  and  S_16 
REMARK    3  A    between atoms: C_19  and  C_13 
REMARK    4  A    between atoms: S_16  and  C_19 
ROOT
ATOM      1  C   UNL d   1       1.002  -0.804   0.089  0.00  0.00     0.049 A 
ATOM      2  C   UNL d   1       2.413  -1.341   0.175  0.00  0.00     0.245 C 
ATOM      3  N   UNL d   1       3.353  -0.217  -0.148  0.00  0.00    -0.333 N 
ATOM      4  C   UNL d   1       0.607   0.515  -0.037  0.00  0.00    -0.019 A 
ATOM      5  N   UNL d   1      -0.133  -1.573   0.135  0.00  0.00    -0.356 N 
ATOM      6  C   UNL d   1      -0.816   0.553  -0.025  0.00  0.00    -0.001 A 
ATOM      7  C   UNL d   1      -1.252  -0.769   0.076  0.00  0.00     0.043 A 
ATOM      8  C   UNL d   1       4.681  -0.401  -0.557  0.00  0.00     0.230 C 
ATOM      9  C   UNL d   1       2.977   1.137   0.327  0.00  0.00     0.131 C 
ATOM     10  C   UNL d   1       1.600   1.611  -0.169  0.00  0.00     0.061 C 
ATOM     11  O   UNL d   1       5.405   0.582  -0.743  0.00  0.00    -0.273 OA
ATOM     12  C   UNL d   1      -1.781   1.578  -0.090  0.00  0.00     0.014 A 
ATOM     13  C   UNL d   1      -2.608  -1.117   0.106  0.00  0.00     0.030 A 
ATOM     14  C   UNL d   1      -3.142   1.245  -0.058  0.00  0.00     0.001 A 
ATOM     15  C   UNL d   1      -3.546  -0.084   0.035  0.00  0.00     0.002 A 
ATOM     16  H   UNL d   1      -0.171  -2.580   0.227  0.00  0.00     0.166 HD
ENDROOT
BRANCH   2  17
ATOM     17  C   UNL d   1       2.714  -2.065   1.524  0.00  0.00     0.413 C 
ATOM     18  F   UNL d   1       1.644  -2.134   2.348  0.00  0.00    -0.168 F 
ATOM     19  F   UNL d   1       3.098  -3.345   1.281  0.00  0.00    -0.168 F 
ATOM     20  F   UNL d   1       3.717  -1.475   2.213  0.00  0.00    -0.168 F 
ENDBRANCH   2  17
BRANCH   8  21
ATOM     21  C   UNL d   1       5.199  -1.837  -0.760  0.00  0.00     0.185 C 
BRANCH  21  22
ATOM     22  S   UNL d   1       6.951  -1.809  -1.260  0.00  0.00    -0.084 SA
BRANCH  22  23
ATOM     23  C   UNL d   1       7.283  -3.456  -1.657  0.00  0.00     0.146 A 
ATOM     24  N   UNL d   1       8.544  -3.890  -1.982  0.00  0.00    -0.341 N 
ATOM     25  C   UNL d   1       8.442  -5.214  -2.330  0.00  0.00     0.109 A 
ATOM     26  C   UNL d   1       9.788  -3.157  -1.985  0.00  0.00     0.158 C 
ATOM     27  C   UNL d   1       7.113  -5.527  -2.160  0.00  0.00     0.107 A 
ATOM     28  N   UNL d   1       6.403  -4.426  -1.737  0.00  0.00    -0.345 N 
ATOM     29  HN  UNL d   1       5.405  -4.376  -1.529  1.00  0.00     0.167 HD
ENDBRANCH  22  23
ENDBRANCH  21  22
ENDBRANCH   8  21
TORSDOF 4
