REMARK  5 active torsions:
REMARK  status: ('A' for Active; 'I' for Inactive)
REMARK    1  A    between atoms: C_3  and  C_1 
REMARK    2  A    between atoms: C_15  and  N_2 
REMARK    3  A    between atoms: C_22  and  C_10 
REMARK    4  A    between atoms: N_18  and  C_11 
REMARK    5  A    between atoms: C_24  and  C_22 
ROOT
ATOM      1  C   UNL d   1      -0.367  -2.780   0.070  0.00  0.00     0.049 A 
ATOM      2  N   UNL d   1      -1.151  -4.727  -1.109  0.00  0.00    -0.336 N 
ATOM      3  HN  UNL d   1      -1.658  -5.143  -1.890  1.00  0.00     0.168 HD
ATOM      4  C   UNL d   1      -1.010  -3.375  -1.011  0.00  0.00     0.027 A 
ATOM      5  C   UNL d   1      -0.611  -5.493  -0.162  0.00  0.00     0.154 A 
ATOM      6  N   UNL d   1       0.047  -5.027   0.895  0.00  0.00    -0.342 N 
ATOM      7  HN  UNL d   1       0.432  -5.647   1.608  1.00  0.00     0.167 HD
ATOM      8  C   UNL d   1       0.176  -3.688   0.969  0.00  0.00     0.108 A 
ENDROOT
BRANCH   1   9
ATOM      9  C   UNL d   1      -0.213  -1.338   0.264  0.00  0.00     0.152 C 
ATOM     10  N   UNL d   1      -0.141  -0.648   1.476  0.00  0.00    -0.224 N 
ATOM     11  N   UNL d   1       0.338   0.593   1.223  0.00  0.00     0.001 NA
ATOM     12  N   UNL d   1       0.349   0.718  -0.092  0.00  0.00    -0.007 NA
ATOM     13  N   UNL d   1       0.011  -0.457  -0.697  0.00  0.00    -0.269 N 
ATOM     14  HN  UNL d   1      -0.056  -0.625  -1.701  1.00  0.00     0.185 HD
BRANCH  10  15
ATOM     15  C   UNL d   1      -0.488  -1.033   2.794  0.00  0.00     0.056 A 
ATOM     16  C   UNL d   1       0.189  -0.452   3.876  0.00  0.00     0.032 A 
ATOM     17  C   UNL d   1      -0.130  -0.828   5.182  0.00  0.00     0.009 A 
ATOM     18  C   UNL d   1      -1.145  -1.761   5.426  0.00  0.00    -0.062 A 
ATOM     19  C   UNL d   1      -1.828  -2.325   4.343  0.00  0.00     0.009 A 
ATOM     20  C   UNL d   1      -1.524  -2.104   6.837  0.00  0.00     0.048 C 
ATOM     21  C   UNL d   1      -1.506  -1.964   3.033  0.00  0.00     0.032 A 
ENDBRANCH  10  15
ENDBRANCH   1   9
BRANCH   4  22
ATOM     22  C   UNL d   1      -1.611  -2.610  -2.167  0.00  0.00     0.058 C 
BRANCH  22  23
ATOM     23  C   UNL d   1      -0.639  -2.318  -3.318  0.00  0.00     0.002 C 
ATOM     24  C   UNL d   1      -0.078  -3.562  -3.996  0.00  0.00     0.005 C 
ENDBRANCH  22  23
ENDBRANCH   4  22
BRANCH   5  25
ATOM     25  N   UNL d   1      -0.785  -6.854  -0.253  0.00  0.00    -0.274 NA
ATOM     26  H   UNL d   1      -0.732  -7.275   0.664  0.00  0.00     0.127 HD
ATOM     27  H   UNL d   1      -1.597  -7.064  -0.822  0.00  0.00     0.127 HD
ENDBRANCH   5  25
TORSDOF 5
