REMARK  4 active torsions:
REMARK  status: ('A' for Active; 'I' for Inactive)
REMARK    1  A    between atoms: C_5  and  C_1 
REMARK    2  A    between atoms: C_6  and  C_2 
REMARK    3  A    between atoms: O_12  and  C_5 
REMARK    4  A    between atoms: O_11  and  C_6 
ROOT
ATOM      1  C   UNL d   1       0.727   1.233  -0.260  0.00  0.00     0.098 C 
ATOM      2  C   UNL d   1       1.457  -0.059   0.182  0.00  0.00     0.098 C 
ATOM      3  C   UNL d   1      -0.745   1.270   0.173  0.00  0.00     0.020 C 
ATOM      4  C   UNL d   1       0.642  -1.327  -0.129  0.00  0.00     0.020 C 
ATOM      5  C   UNL d   1      -1.514  -0.004  -0.212  0.00  0.00    -0.014 C 
ATOM      6  C   UNL d   1      -0.827  -1.280   0.319  0.00  0.00    -0.014 C 
ATOM      7  C   UNL d   1      -2.978   0.099   0.218  0.00  0.00     0.010 C 
ATOM      8  C   UNL d   1      -0.961  -1.485   1.832  0.00  0.00     0.010 C 
ENDROOT
BRANCH   1   9
ATOM      9  C   UNL d   1       0.850   1.441  -1.762  0.00  0.00     0.144 C 
ATOM     10  O   UNL d   1       1.066   0.557  -2.574  0.00  0.00    -0.650 OA
BRANCH   9  11
ATOM     11  O   UNL d   1       0.688   2.731  -2.140  0.00  0.00    -0.776 OA
ATOM     12  H   UNL d   1       0.529   3.350  -1.401  0.00  0.00     0.167 HD
ENDBRANCH   9  11
ENDBRANCH   1   9
BRANCH   2  13
ATOM     13  C   UNL d   1       1.874   0.047   1.645  0.00  0.00     0.144 C 
ATOM     14  O   UNL d   1       1.690   1.032   2.344  0.00  0.00    -0.650 OA
BRANCH  13  15
ATOM     15  O   UNL d   1       2.526  -1.037   2.118  0.00  0.00    -0.776 OA
ATOM     16  H   UNL d   1       2.671  -1.751   1.471  0.00  0.00     0.167 HD
ENDBRANCH  13  15
ENDBRANCH   2  13
TORSDOF 4
