REMARK  5 active torsions:
REMARK  status: ('A' for Active; 'I' for Inactive)
REMARK    1  A    between atoms: C_15  and  C_5 
REMARK    2  A    between atoms: S_12  and  C_8 
REMARK    3  A    between atoms: O_16  and  C_9 
REMARK    4  A    between atoms: C_10  and  C_11 
REMARK    5  A    between atoms: C_11  and  S_12 
ROOT
ATOM      1  N   UNL d   1      -0.622   1.240   0.008  0.00  0.00    -0.322 N 
ATOM      2  HN  UNL d   1      -1.095   2.144  -0.014  1.00  0.00     0.169 HD
ATOM      3  N   UNL d   1      -0.709  -1.120   0.111  0.00  0.00    -0.307 N 
ATOM      4  HN  UNL d   1      -1.237  -1.991   0.163  1.00  0.00     0.171 HD
ATOM      5  C   UNL d   1      -1.289   0.078   0.066  0.00  0.00     0.120 A 
ATOM      6  N   UNL d   1       1.382  -0.020   0.012  0.00  0.00    -0.302 N 
ATOM      7  HN  UNL d   1       2.400  -0.071  -0.014  1.00  0.00     0.171 HD
ATOM      8  C   UNL d   1       0.706   1.125  -0.020  0.00  0.00     0.149 A 
ATOM      9  C   UNL d   1       0.608  -1.081   0.081  0.00  0.00     0.224 A 
ENDROOT
BRANCH   8  10
ATOM     10  S   UNL d   1       1.712   2.578  -0.202  0.00  0.00    -0.089 SA
BRANCH  10  11
ATOM     11  C   UNL d   1       0.703   3.807   0.682  0.00  0.00     0.126 C 
BRANCH  11  12
ATOM     12  C   UNL d   1       1.463   5.101   0.849  0.00  0.00     0.012 A 
ATOM     13  C   UNL d   1       1.371   6.080  -0.150  0.00  0.00     0.125 A 
ATOM     14  F   UNL d   1       0.589   5.867  -1.219  0.00  0.00    -0.205 F 
ATOM     15  C   UNL d   1       2.073   7.282  -0.076  0.00  0.00     0.043 A 
ATOM     16  C   UNL d   1       2.896   7.535   1.016  0.00  0.00     0.005 A 
ATOM     17  C   UNL d   1       3.012   6.578   2.023  0.00  0.00     0.024 A 
ATOM     18  C   UNL d   1       2.305   5.369   1.939  0.00  0.00     0.044 A 
ATOM     19 CL   UNL d   1       2.522   4.235   3.225  0.00  0.00    -0.084 Cl
ENDBRANCH  11  12
ENDBRANCH  10  11
ENDBRANCH   8  10
BRANCH   9  20
ATOM     20  O   UNL d   1       1.266  -2.269   0.110  0.00  0.00    -0.332 OA
ATOM     21  H   UNL d   1       2.183  -1.952   0.061  0.00  0.00     0.221 HD
ENDBRANCH   9  20
BRANCH   5  22
ATOM     22  C   UNL d   1      -2.769   0.104   0.068  0.00  0.00     0.008 A 
ATOM     23  C   UNL d   1      -3.519  -1.091   0.134  0.00  0.00     0.015 A 
ATOM     24  C   UNL d   1      -4.918  -1.086   0.133  0.00  0.00     0.001 A 
ATOM     25  C   UNL d   1      -5.606   0.119   0.065  0.00  0.00     0.000 A 
ATOM     26  C   UNL d   1      -4.897   1.315  -0.004  0.00  0.00     0.001 A 
ATOM     27  C   UNL d   1      -3.497   1.306  -0.002  0.00  0.00     0.015 A 
ENDBRANCH   5  22
TORSDOF 5
