REMARK  6 active torsions:
REMARK  status: ('A' for Active; 'I' for Inactive)
REMARK    1  A    between atoms: C_5  and  C_1 
REMARK    2  A    between atoms: C_12  and  C_4 
REMARK    3  A    between atoms: C_6  and  C_5 
REMARK    4  A    between atoms: C_7  and  C_15 
REMARK    5  A    between atoms: N_16  and  N_10 
REMARK    6  A    between atoms: C_24  and  N_16 
ROOT
ATOM      1  C   UNL d   1       2.392   3.141  -0.058  0.00  0.00     0.181 C 
ATOM      2  N   UNL d   1       3.445   3.899   0.064  0.00  0.00    -0.287 N 
ATOM      3  HN  UNL d   1       3.333   4.910   0.144  1.00  0.00     0.188 HD
ATOM      4  C   UNL d   1       2.578   1.711  -0.146  0.00  0.00     0.123 C 
ATOM      5  N   UNL d   1       2.782   0.571  -0.233  0.00  0.00    -0.190 NA
ENDROOT
BRANCH   1   6
ATOM      6  C   UNL d   1       1.008   3.720  -0.058  0.00  0.00     0.237 C 
ATOM      7  O   UNL d   1       0.134   3.031   0.466  0.00  0.00    -0.283 OA
BRANCH   6   8
ATOM      8  C   UNL d   1       0.706   5.021  -0.653  0.00  0.00     0.093 A 
ATOM      9  N   UNL d   1       1.657   5.816  -1.283  0.00  0.00    -0.346 N 
ATOM     10  C   UNL d   1       1.140   6.975  -1.651  0.00  0.00     0.086 A 
ATOM     11  HN  UNL d   1       2.627   5.540  -1.441  1.00  0.00     0.167 HD
ATOM     12  S   UNL d   1      -0.556   7.115  -1.370  0.00  0.00    -0.081 SA
ATOM     13  C   UNL d   1      -0.564   5.571  -0.643  0.00  0.00     0.085 A 
BRANCH  10  14
ATOM     14  C   UNL d   1       1.894   8.061  -2.290  0.00  0.00     0.013 A 
ATOM     15  C   UNL d   1       1.549   9.406  -2.163  0.00  0.00     0.101 A 
ATOM     16  N   UNL d   1       2.219  10.434  -2.743  0.00  0.00    -0.374 N 
ATOM     17  C   UNL d   1       3.298  10.113  -3.483  0.00  0.00     0.087 A 
ATOM     18  HN  UNL d   1       1.920  11.402  -2.623  1.00  0.00     0.164 HD
ATOM     19  C   UNL d   1       3.741   8.813  -3.665  0.00  0.00     0.018 A 
ATOM     20  C   UNL d   1       3.033   7.780  -3.054  0.00  0.00     0.017 A 
ENDBRANCH  10  14
ENDBRANCH   6   8
ENDBRANCH   1   6
BRANCH   2  21
ATOM     21  N   UNL d   1       4.695   3.353   0.086  0.00  0.00    -0.300 N 
ATOM     22  H   UNL d   1       4.895   2.432  -0.309  0.00  0.00     0.187 HD
BRANCH  21  23
ATOM     23  C   UNL d   1       5.807   4.222   0.081  0.00  0.00     0.049 A 
ATOM     24  C   UNL d   1       7.099   3.677   0.031  0.00  0.00     0.047 A 
ATOM     25  C   UNL d   1       8.242   4.493   0.106  0.00  0.00     0.050 A 
ATOM     26  C   UNL d   1       8.078   5.879   0.242  0.00  0.00     0.016 A 
ATOM     27  C   UNL d   1       6.801   6.433   0.312  0.00  0.00     0.003 A 
ATOM     28  C   UNL d   1       5.677   5.607   0.242  0.00  0.00     0.031 A 
BRANCH  25  29
ATOM     29  C   UNL d   1       9.627   3.900   0.055  0.00  0.00     0.417 C 
ATOM     30  F   UNL d   1       9.635   2.540  -0.035  0.00  0.00    -0.166 F 
ATOM     31  F   UNL d   1      10.345   4.347  -1.012  0.00  0.00    -0.166 F 
ATOM     32  F   UNL d   1      10.367   4.204   1.157  0.00  0.00    -0.166 F 
ENDBRANCH  25  29
ENDBRANCH  21  23
ENDBRANCH   2  21
TORSDOF 6
