REMARK  6 active torsions:
REMARK  status: ('A' for Active; 'I' for Inactive)
REMARK    1  A    between atoms: C_13  and  C_1 
REMARK    2  A    between atoms: N_10  and  C_2 
REMARK    3  A    between atoms: S_15  and  C_2 
REMARK    4  A    between atoms: O_17  and  C_4 
REMARK    5  A    between atoms: N_5  and  N_8 
REMARK    6  A    between atoms: C_14  and  N_10 
ROOT
ATOM      1  N   UNL d   1      -0.915   6.356   0.117  0.00  0.00    -0.309 N 
ATOM      2  HN  UNL d   1      -1.119   7.224   0.612  1.00  0.00     0.186 HD
ATOM      3  C   UNL d   1      -1.775   5.700  -0.592  0.00  0.00     0.121 C 
ENDROOT
BRANCH   1   4
ATOM      4  N   UNL d   1       0.316   5.730   0.119  0.00  0.00    -0.280 N 
ATOM      5  C   UNL d   1       1.374   6.484   0.064  0.00  0.00     0.155 C 
ATOM      6  HN  UNL d   1       0.392   4.714   0.162  1.00  0.00     0.189 HD
BRANCH   5   7
ATOM      7  N   UNL d   1       2.653   5.979   0.054  0.00  0.00    -0.362 N 
ATOM      8  H   UNL d   1       3.361   6.703   0.063  0.00  0.00     0.162 HD
BRANCH   7   9
ATOM      9  C   UNL d   1       3.042   4.707   0.670  0.00  0.00     0.021 C 
ATOM     10  C   UNL d   1       2.369   3.515  -0.026  0.00  0.00     0.037 C 
ATOM     11  C   UNL d   1       4.565   4.548   0.515  0.00  0.00     0.037 C 
ATOM     12  C   UNL d   1       2.702   4.728   2.168  0.00  0.00     0.037 C 
ENDBRANCH   7   9
ENDBRANCH   5   7
BRANCH   5  13
ATOM     13  S   UNL d   1       1.369   8.242  -0.054  0.00  0.00    -0.097 SA
ATOM     14  C   UNL d   1       0.468   8.677   1.453  0.00  0.00     0.099 C 
ENDBRANCH   5  13
ENDBRANCH   1   4
BRANCH   3  15
ATOM     15  C   UNL d   1      -3.166   6.170  -0.683  0.00  0.00     0.017 A 
ATOM     16  C   UNL d   1      -3.978   5.787  -1.751  0.00  0.00     0.099 A 
ATOM     17  C   UNL d   1      -5.287   6.274  -1.824  0.00  0.00     0.069 A 
ATOM     18 CL   UNL d   1      -6.301   5.847  -3.154  0.00  0.00    -0.081 Cl
ATOM     19  C   UNL d   1      -5.791   7.122  -0.832  0.00  0.00     0.050 A 
ATOM     20  C   UNL d   1      -4.972   7.482   0.235  0.00  0.00     0.036 A 
ATOM     21  C   UNL d   1      -3.665   7.018   0.314  0.00  0.00     0.039 A 
ATOM     22 CL   UNL d   1      -5.589   8.508   1.471  0.00  0.00    -0.084 Cl
BRANCH  16  23
ATOM     23  O   UNL d   1      -3.480   4.959  -2.721  0.00  0.00    -0.358 OA
ATOM     24  H   UNL d   1      -4.167   4.851  -3.407  0.00  0.00     0.217 HD
ENDBRANCH  16  23
ENDBRANCH   3  15
TORSDOF 6
