REMARK  3 active torsions:
REMARK  status: ('A' for Active; 'I' for Inactive)
REMARK    1  A    between atoms: N_4  and  C_1 
REMARK    2  A    between atoms: C_6  and  C_1 
REMARK       I    between atoms: C_2  and  N_3 
REMARK    3  A    between atoms: C_5  and  C_2 
REMARK       I    between atoms: N_17  and  C_6 
ROOT
ATOM      1  C   UNL d   1      -1.446   0.076  -0.179  0.00  0.00     0.241 C 
ATOM      2  C   UNL d   1       2.546   0.015   0.991  0.00  0.00     0.260 C 
ATOM      3  N   UNL d   1       1.463   0.054   0.097  0.00  0.00    -0.347 N 
ATOM      4  C   UNL d   1      -0.597   1.354   0.116  0.00  0.00     0.072 C 
ATOM      5  C   UNL d   1      -0.628  -1.192   0.239  0.00  0.00     0.072 C 
ATOM      6  C   UNL d   1       0.822   1.238  -0.458  0.00  0.00     0.129 C 
ATOM      7  C   UNL d   1       0.804  -1.187  -0.294  0.00  0.00     0.129 C 
ATOM      8  O   UNL d   1       2.986  -1.080   1.357  0.00  0.00    -0.267 OA
ENDROOT
BRANCH   1   9
ATOM      9  N   UNL d   1      -2.816   0.081   0.491  0.00  0.00     0.107 N 
ATOM     10  C   UNL d   1      -3.631   1.262   0.115  0.00  0.00     0.274 C 
ATOM     11  C   UNL d   1      -5.029   1.258   0.749  0.00  0.00     0.030 C 
ATOM     12  C   UNL d   1      -4.952   1.141   2.263  0.00  0.00     0.003 C 
ATOM     13  C   UNL d   1      -4.132  -0.082   2.628  0.00  0.00     0.030 C 
ATOM     14  C   UNL d   1      -2.753  -0.041   1.963  0.00  0.00     0.274 C 
ENDBRANCH   1   9
BRANCH   1  15
ATOM     15  C   UNL d   1      -1.684   0.010  -1.735  0.00  0.00     0.255 C 
ATOM     16  O   UNL d   1      -1.448   0.935  -2.507  0.00  0.00    -0.271 OA
ATOM     17  N   UNL d   1      -2.210  -1.150  -2.230  0.00  0.00    -0.368 N 
ATOM     18  H   UNL d   1      -2.718  -1.771  -1.613  0.00  0.00     0.159 HD
ATOM     19  H   UNL d   1      -2.460  -1.146  -3.210  0.00  0.00     0.159 HD
ENDBRANCH   1  15
BRANCH   2  20
ATOM     20  C   UNL d   1       3.132   1.264   1.472  0.00  0.00     0.072 A 
ATOM     21  S   UNL d   1       4.838   1.316   1.717  0.00  0.00    -0.097 SA
ATOM     22  C   UNL d   1       4.800   2.960   2.180  0.00  0.00     0.050 A 
ATOM     23  C   UNL d   1       3.520   3.461   2.193  0.00  0.00     0.009 A 
ATOM     24  C   UNL d   1       2.558   2.466   1.851  0.00  0.00     0.025 A 
ENDBRANCH   2  20
TORSDOF 3
