REMARK  5 active torsions:
REMARK  status: ('A' for Active; 'I' for Inactive)
REMARK    1  A    between atoms: C_3  and  C_4 
REMARK    2  A    between atoms: C_15  and  C_5 
REMARK    3  A    between atoms: C_6  and  C_8 
REMARK    4  A    between atoms: C_19  and  O_22 
REMARK    5  A    between atoms: O_22  and  C_31 
ROOT
ATOM      1  C   UNL d   1      -0.065  -2.595  -0.074  0.00  0.00    -0.002 A 
ATOM      2  C   UNL d   1       0.842  -3.406   0.621  0.00  0.00     0.017 A 
ATOM      3  C   UNL d   1      -1.137  -3.210  -0.740  0.00  0.00     0.017 A 
ATOM      4  C   UNL d   1      -0.389  -5.397  -0.012  0.00  0.00     0.077 A 
ATOM      5  C   UNL d   1       0.666  -4.792   0.677  0.00  0.00     0.038 A 
ATOM      6  C   UNL d   1      -1.300  -4.604  -0.702  0.00  0.00     0.038 A 
ENDROOT
BRANCH   1   7
ATOM      7  C   UNL d   1       0.146  -1.139  -0.083  0.00  0.00     0.084 A 
ATOM      8  N   UNL d   1       1.330  -0.560  -0.029  0.00  0.00    -0.352 N 
ATOM      9  C   UNL d   1       1.212   0.823  -0.027  0.00  0.00     0.025 A 
ATOM     10  HN  UNL d   1       2.217  -1.063   0.007  1.00  0.00     0.166 HD
ATOM     11  C   UNL d   1      -0.097   1.272  -0.038  0.00  0.00     0.077 A 
ATOM     12  S   UNL d   1      -1.184  -0.046  -0.082  0.00  0.00    -0.081 SA
BRANCH   9  13
ATOM     13  C   UNL d   1       2.466   1.680  -0.025  0.00  0.00     0.004 C 
ATOM     14  C   UNL d   1       3.756   0.809  -0.031  0.00  0.00     0.020 C 
ATOM     15  C   UNL d   1       5.018   1.687  -0.042  0.00  0.00    -0.013 C 
ATOM     16  C   UNL d   1       5.006   2.571  -1.298  0.00  0.00     0.009 C 
ATOM     17  C   UNL d   1       5.025   2.577   1.210  0.00  0.00     0.009 C 
ATOM     18  C   UNL d   1       3.760   3.470  -1.295  0.00  0.00    -0.013 C 
ATOM     19  C   UNL d   1       2.500   2.590  -1.286  0.00  0.00     0.020 C 
ATOM     20  C   UNL d   1       3.771   4.352  -0.036  0.00  0.00     0.009 C 
ATOM     21  C   UNL d   1       3.776   3.471   1.224  0.00  0.00    -0.013 C 
ATOM     22  C   UNL d   1       2.515   2.588   1.234  0.00  0.00     0.020 C 
ENDBRANCH   9  13
ENDBRANCH   1   7
BRANCH   4  23
ATOM     23  O   UNL d   1      -0.635  -6.755  -0.014  0.00  0.00    -0.294 OA
BRANCH  23  24
ATOM     24  C   UNL d   1       0.462  -7.602   0.034  0.00  0.00     0.147 A 
ATOM     25  N   UNL d   1       1.619  -7.219  -0.546  0.00  0.00    -0.346 N 
ATOM     26  C   UNL d   1       2.699  -8.002  -0.352  0.00  0.00     0.106 A 
ATOM     27  HN  UNL d   1       1.673  -6.370  -1.109  1.00  0.00     0.167 HD
ATOM     28  C   UNL d   1       2.672  -9.182   0.369  0.00  0.00     0.063 A 
ATOM     29  C   UNL d   1       1.439  -9.603   0.881  0.00  0.00     0.022 A 
ATOM     30  C   UNL d   1       0.309  -8.804   0.711  0.00  0.00     0.057 A 
BRANCH  28  31
ATOM     31  C   UNL d   1       3.935  -9.950   0.606  0.00  0.00     0.418 C 
ATOM     32  F   UNL d   1       5.040  -9.356   0.073  0.00  0.00    -0.166 F 
ATOM     33  F   UNL d   1       4.205 -10.102   1.933  0.00  0.00    -0.166 F 
ATOM     34  F   UNL d   1       3.897 -11.204   0.084  0.00  0.00    -0.166 F 
ENDBRANCH  28  31
ENDBRANCH  23  24
ENDBRANCH   4  23
TORSDOF 5
