REMARK  7 active torsions:
REMARK  status: ('A' for Active; 'I' for Inactive)
REMARK    1  A    between atoms: S_13  and  C_5 
REMARK    2  A    between atoms: C_9  and  C_15 
REMARK    3  A    between atoms: C_14  and  C_12 
REMARK    4  A    between atoms: C_15  and  S_13 
REMARK    5  A    between atoms: C_23  and  C_16 
REMARK    6  A    between atoms: C_27  and  C_23 
REMARK    7  A    between atoms: C_28  and  C_27 
ROOT
ATOM      1  C   UNL d   1       0.009   1.240   0.048  0.00  0.00     0.158 A 
ATOM      2  N   UNL d   1       0.840   0.137   0.005  0.00  0.00    -0.314 N 
ATOM      3  N   UNL d   1      -1.242   0.819   0.150  0.00  0.00    -0.281 N 
ATOM      4  HN  UNL d   1      -2.064   1.411   0.271  1.00  0.00     0.188 HD
ATOM      5  C   UNL d   1       0.003  -0.960  -0.068  0.00  0.00     0.163 A 
ATOM      6  N   UNL d   1      -1.244  -0.555   0.064  0.00  0.00    -0.278 N 
ATOM      7  HN  UNL d   1      -2.068  -1.156   0.096  1.00  0.00     0.189 HD
ATOM      8  C   UNL d   1       0.397   2.618  -0.038  0.00  0.00     0.122 A 
ATOM      9  O   UNL d   1       1.498   3.078  -0.763  0.00  0.00    -0.298 OA
ATOM     10  C   UNL d   1      -0.234   3.720   0.509  0.00  0.00     0.044 A 
ATOM     11  C   UNL d   1       1.543   4.431  -0.668  0.00  0.00     0.129 A 
ATOM     12  C   UNL d   1       0.488   4.875   0.114  0.00  0.00     0.049 A 
ATOM     13  C   UNL d   1       2.278   0.184   0.070  0.00  0.00     0.160 C 
ENDROOT
BRANCH   5  14
ATOM     14  S   UNL d   1       0.522  -2.622  -0.287  0.00  0.00    -0.088 SA
BRANCH  14  15
ATOM     15  C   UNL d   1      -0.939  -3.474  -1.038  0.00  0.00     0.124 C 
BRANCH  15  16
ATOM     16  C   UNL d   1      -0.720  -4.952  -1.405  0.00  0.00    -0.005 A 
ATOM     17  C   UNL d   1      -1.087  -6.045  -0.581  0.00  0.00     0.042 A 
ATOM     18 CL   UNL d   1      -1.747  -5.861   1.007  0.00  0.00    -0.084 Cl
ATOM     19  C   UNL d   1      -0.918  -7.382  -1.002  0.00  0.00     0.024 A 
ATOM     20  C   UNL d   1      -0.368  -7.673  -2.242  0.00  0.00     0.003 A 
ATOM     21  C   UNL d   1       0.013  -6.625  -3.069  0.00  0.00     0.024 A 
ATOM     22  C   UNL d   1      -0.162  -5.291  -2.661  0.00  0.00     0.042 A 
ATOM     23 CL   UNL d   1       0.361  -4.085  -3.789  0.00  0.00    -0.084 Cl
ENDBRANCH  15  16
ENDBRANCH  14  15
ENDBRANCH   5  14
BRANCH  11  24
ATOM     24  C   UNL d   1       2.592   5.130  -1.339  0.00  0.00    -0.041 C 
ATOM     25  C   UNL d   1       3.464   5.784  -1.886  0.00  0.00    -0.099 C 
BRANCH  25  26
ATOM     26  C   UNL d   1       4.515   6.615  -2.537  0.00  0.00     0.094 C 
BRANCH  26  27
ATOM     27  C   UNL d   1       4.008   8.039  -2.836  0.00  0.00     0.012 C 
BRANCH  27  28
ATOM     28  C   UNL d   1       5.075   8.921  -3.515  0.00  0.00    -0.004 C 
ATOM     29  C   UNL d   1       4.541  10.323  -3.801  0.00  0.00     0.005 C 
ENDBRANCH  27  28
ENDBRANCH  26  27
ENDBRANCH  25  26
ENDBRANCH  11  24
TORSDOF 7
