REMARK  9 active torsions:
REMARK  status: ('A' for Active; 'I' for Inactive)
REMARK    1  A    between atoms: N_2  and  C_1 
REMARK    2  A    between atoms: C_3  and  C_1 
REMARK    3  A    between atoms: C_4  and  C_1 
REMARK    4  A    between atoms: N_5  and  C_1 
REMARK       I    between atoms: C_6  and  N_2 
REMARK    5  A    between atoms: O_14  and  C_4 
REMARK    6  A    between atoms: C_12  and  N_5 
REMARK    7  A    between atoms: O_13  and  C_6 
REMARK    8  A    between atoms: C_20  and  O_13 
REMARK    9  A    between atoms: C_21  and  O_14 
ROOT
ATOM      1  C   UNL d   1       0.912  -0.004  -0.185  0.00  0.00     0.282 C 
ENDROOT
BRANCH   1   2
ATOM      2  N   UNL d   1       0.384  -1.224  -0.761  0.00  0.00    -0.298 N 
ATOM      3  C   UNL d   1      -0.935  -1.515  -0.762  0.00  0.00     0.362 C 
ATOM      4  O   UNL d   1      -1.785  -0.865  -0.173  0.00  0.00    -0.238 OA
ATOM      5  H   UNL d   1       0.992  -1.761  -1.358  0.00  0.00     0.167 HD
BRANCH   3   6
ATOM      6  O   UNL d   1      -1.136  -2.643  -1.474  0.00  0.00    -0.304 OA
BRANCH   6   7
ATOM      7  C   UNL d   1      -2.455  -3.196  -1.393  0.00  0.00     0.176 C 
ATOM      8  C   UNL d   1      -2.502  -4.148  -0.211  0.00  0.00     0.034 C 
ENDBRANCH   6   7
ENDBRANCH   3   6
ENDBRANCH   1   2
BRANCH   1   9
ATOM      9  C   UNL d   1       0.360   0.477   1.203  0.00  0.00     0.436 C 
ATOM     10  F   UNL d   1      -0.110  -0.543   1.963  0.00  0.00    -0.166 F 
ATOM     11  F   UNL d   1       1.342   1.073   1.937  0.00  0.00    -0.166 F 
ATOM     12  F   UNL d   1      -0.634   1.393   1.104  0.00  0.00    -0.166 F 
ENDBRANCH   1   9
BRANCH   1  13
ATOM     13  C   UNL d   1       0.564   1.151  -1.166  0.00  0.00     0.312 C 
ATOM     14  O   UNL d   1      -0.205   1.059  -2.124  0.00  0.00    -0.260 OA
BRANCH  13  15
ATOM     15  O   UNL d   1       1.262   2.288  -0.866  0.00  0.00    -0.319 OA
BRANCH  15  16
ATOM     16  C   UNL d   1       0.951   3.419  -1.698  0.00  0.00     0.174 C 
ATOM     17  C   UNL d   1       1.768   3.369  -2.976  0.00  0.00     0.034 C 
ENDBRANCH  15  16
ENDBRANCH  13  15
ENDBRANCH   1  13
BRANCH   1  18
ATOM     18  N   UNL d   1       2.394  -0.233  -0.246  0.00  0.00    -0.250 NA
ATOM     19  H   UNL d   1       2.888   0.662  -0.279  0.00  0.00     0.131 HD
BRANCH  18  20
ATOM     20  C   UNL d   1       3.072  -1.120   0.600  0.00  0.00     0.011 A 
ATOM     21  C   UNL d   1       2.457  -2.111   1.370  0.00  0.00     0.024 A 
ATOM     22  C   UNL d   1       3.207  -2.998   2.154  0.00  0.00     0.008 A 
ATOM     23  C   UNL d   1       4.601  -2.947   2.152  0.00  0.00    -0.062 A 
ATOM     24  C   UNL d   1       5.231  -2.002   1.344  0.00  0.00     0.008 A 
ATOM     25  C   UNL d   1       5.386  -3.902   2.999  0.00  0.00     0.048 C 
ATOM     26  C   UNL d   1       4.473  -1.109   0.574  0.00  0.00     0.024 A 
ENDBRANCH  18  20
ENDBRANCH   1  18
TORSDOF 9
