REMARK  4 active torsions:
REMARK  status: ('A' for Active; 'I' for Inactive)
REMARK    1  A    between atoms: C_3  and  C_1 
REMARK    2  A    between atoms: N_5  and  C_2 
REMARK       I    between atoms: C_4  and  N_6 
REMARK    3  A    between atoms: C_15  and  C_4 
REMARK    4  A    between atoms: N_6  and  N_5 
ROOT
ATOM      1  N   UNL d   1       0.131  -3.380   3.692  0.00  0.00    -0.202 NA
ATOM      2  H   UNL d   1       0.211  -4.206   3.084  0.00  0.00     0.153 HD
ENDROOT
BRANCH   1   3
ATOM      3  C   UNL d   1      -0.523  -2.294   3.046  0.00  0.00     0.050 A 
ATOM      4  C   UNL d   1      -0.557  -2.318   1.634  0.00  0.00     0.043 A 
ATOM      5  C   UNL d   1      -1.036  -1.234   0.875  0.00  0.00     0.049 A 
ATOM      6  C   UNL d   1      -1.492  -0.092   1.543  0.00  0.00     0.018 A 
ATOM      7  C   UNL d   1      -1.461  -0.037   2.936  0.00  0.00     0.026 A 
ATOM      8  C   UNL d   1      -0.971  -1.117   3.684  0.00  0.00     0.056 A 
ATOM      9 CL   UNL d   1      -0.896  -0.881   5.401  0.00  0.00    -0.082 Cl
BRANCH   5  10
ATOM     10  C   UNL d   1      -1.034  -1.271  -0.635  0.00  0.00     0.417 C 
ATOM     11  F   UNL d   1      -0.549  -2.434  -1.152  0.00  0.00    -0.166 F 
ATOM     12  F   UNL d   1      -0.276  -0.278  -1.176  0.00  0.00    -0.166 F 
ATOM     13  F   UNL d   1      -2.280  -1.118  -1.161  0.00  0.00    -0.166 F 
ENDBRANCH   5  10
ENDBRANCH   1   3
BRANCH   1  14
ATOM     14  N   UNL d   1      -0.431  -3.770   4.921  0.00  0.00    -0.287 N 
ATOM     15  C   UNL d   1      -0.321  -5.116   5.242  0.00  0.00     0.236 C 
ATOM     16  O   UNL d   1       0.106  -5.941   4.433  0.00  0.00    -0.272 OA
ATOM     17  H   UNL d   1      -0.390  -3.070   5.659  0.00  0.00     0.184 HD
BRANCH  15  18
ATOM     18  C   UNL d   1      -0.769  -5.461   6.665  0.00  0.00     0.079 C 
ATOM     19  C   UNL d   1      -0.622  -6.960   6.971  0.00  0.00     0.014 C 
ATOM     20  C   UNL d   1      -1.642  -7.822   6.224  0.00  0.00     0.001 C 
ATOM     21  C   UNL d   1      -3.073  -7.334   6.431  0.00  0.00     0.000 C 
ATOM     22  C   UNL d   1      -3.223  -5.843   6.147  0.00  0.00     0.001 C 
ATOM     23  C   UNL d   1      -2.212  -5.013   6.937  0.00  0.00     0.014 C 
ENDBRANCH  15  18
ENDBRANCH   1  14
TORSDOF 4
