REMARK  5 active torsions:
REMARK  status: ('A' for Active; 'I' for Inactive)
REMARK    1  A    between atoms: C_13  and  N_1 
REMARK    2  A    between atoms: C_7  and  O_16 
REMARK    3  A    between atoms: C_10  and  C_7 
REMARK    4  A    between atoms: C_22  and  C_13 
REMARK    5  A    between atoms: O_16  and  C_22 
ROOT
ATOM      1  N   UNL d   1       2.280  -0.173   0.207  0.00  0.00    -0.278 N 
ATOM      2  C   UNL d   1       1.478  -0.089   1.344  0.00  0.00     0.261 C 
ATOM      3  C   UNL d   1       1.791  -0.316  -1.091  0.00  0.00     0.261 C 
ATOM      4  C   UNL d   1       0.018   0.056   1.131  0.00  0.00     0.044 A 
ATOM      5  C   UNL d   1       0.321  -0.221  -1.273  0.00  0.00     0.044 A 
ATOM      6  C   UNL d   1      -0.505  -0.014  -0.163  0.00  0.00     0.005 A 
ATOM      7  O   UNL d   1       1.912  -0.124   2.491  0.00  0.00    -0.267 OA
ATOM      8  O   UNL d   1       2.509  -0.510  -2.068  0.00  0.00    -0.267 OA
ATOM      9  C   UNL d   1      -1.902   0.130  -0.353  0.00  0.00    -0.024 A 
ATOM     10  C   UNL d   1      -0.227  -0.310  -2.561  0.00  0.00     0.018 A 
ATOM     11  C   UNL d   1      -0.823   0.276   2.231  0.00  0.00     0.018 A 
ATOM     12  C   UNL d   1      -2.193   0.434   2.042  0.00  0.00     0.002 A 
ATOM     13  C   UNL d   1      -1.603  -0.181  -2.745  0.00  0.00     0.002 A 
ATOM     14  C   UNL d   1      -2.434   0.043  -1.649  0.00  0.00     0.012 A 
ATOM     15  C   UNL d   1      -2.730   0.359   0.757  0.00  0.00     0.012 A 
ENDROOT
BRANCH   1  16
ATOM     16  C   UNL d   1       3.735  -0.155   0.394  0.00  0.00     0.162 C 
BRANCH  16  17
ATOM     17  C   UNL d   1       4.373  -1.546   0.480  0.00  0.00     0.199 C 
BRANCH  17  18
ATOM     18  O   UNL d   1       5.808  -1.452   0.640  0.00  0.00    -0.316 OA
BRANCH  18  19
ATOM     19  C   UNL d   1       6.242  -1.261   1.913  0.00  0.00     0.293 C 
ATOM     20  O   UNL d   1       5.522  -1.149   2.893  0.00  0.00    -0.259 OA
BRANCH  19  21
ATOM     21  C   UNL d   1       7.726  -1.170   1.995  0.00  0.00     0.039 A 
ATOM     22  C   UNL d   1       8.295  -0.790   3.220  0.00  0.00     0.018 A 
ATOM     23  C   UNL d   1       9.682  -0.677   3.359  0.00  0.00     0.007 A 
ATOM     24  C   UNL d   1      10.526  -0.952   2.278  0.00  0.00    -0.062 A 
ATOM     25  C   UNL d   1       9.960  -1.339   1.056  0.00  0.00     0.007 A 
ATOM     26  C   UNL d   1      12.012  -0.809   2.438  0.00  0.00     0.048 C 
ATOM     27  C   UNL d   1       8.570  -1.448   0.912  0.00  0.00     0.018 A 
ENDBRANCH  19  21
ENDBRANCH  18  19
ENDBRANCH  17  18
ENDBRANCH  16  17
ENDBRANCH   1  16
TORSDOF 5
