REMARK  8 active torsions:
REMARK  status: ('A' for Active; 'I' for Inactive)
REMARK    1  A    between atoms: C_9  and  C_1 
REMARK       I    between atoms: N_10  and  C_1 
REMARK    2  A    between atoms: C_2  and  C_19 
REMARK    3  A    between atoms: S_7  and  C_9 
REMARK    4  A    between atoms: C_11  and  S_7 
REMARK    5  A    between atoms: C_20  and  N_10 
REMARK    6  A    between atoms: S_13  and  C_21 
REMARK    7  A    between atoms: C_19  and  S_13 
REMARK    8  A    between atoms: C_21  and  C_20 
ROOT
ATOM      1  C   UNL d   1       0.923   0.081  -0.092  0.00  0.00     0.227 C 
ATOM      2  O   UNL d   1       0.300  -0.080  -1.141  0.00  0.00    -0.273 OA
ATOM      3  N   UNL d   1       2.296   0.036  -0.040  0.00  0.00    -0.360 N 
ATOM      4  H   UNL d   1       2.743   0.022   0.873  0.00  0.00     0.162 HD
ENDROOT
BRANCH   1   5
ATOM      5  C   UNL d   1       0.203   0.254   1.237  0.00  0.00     0.182 C 
BRANCH   5   6
ATOM      6  S   UNL d   1       1.124   1.330   2.393  0.00  0.00    -0.121 SA
BRANCH   6   7
ATOM      7  C   UNL d   1       0.009   1.311   3.783  0.00  0.00     0.001 A 
ATOM      8  C   UNL d   1       0.482   0.884   5.029  0.00  0.00     0.020 A 
ATOM      9  C   UNL d   1      -0.369   0.866   6.138  0.00  0.00     0.025 A 
ATOM     10  C   UNL d   1      -1.692   1.284   6.004  0.00  0.00     0.034 A 
ATOM     11  C   UNL d   1      -2.167   1.728   4.772  0.00  0.00     0.025 A 
ATOM     12 CL   UNL d   1      -2.741   1.256   7.366  0.00  0.00    -0.084 Cl
ATOM     13  C   UNL d   1      -1.315   1.747   3.664  0.00  0.00     0.020 A 
ENDBRANCH   6   7
ENDBRANCH   5   6
ENDBRANCH   1   5
BRANCH   3  14
ATOM     14  C   UNL d   1       3.098  -0.225  -1.219  0.00  0.00     0.132 C 
BRANCH  14  15
ATOM     15  C   UNL d   1       4.601  -0.230  -0.933  0.00  0.00     0.094 C 
BRANCH  15  16
ATOM     16  S   UNL d   1       5.012  -1.542   0.265  0.00  0.00    -0.161 SA
BRANCH  16  17
ATOM     17  C   UNL d   1       6.826  -1.367   0.274  0.00  0.00     0.139 C 
BRANCH  17  18
ATOM     18  C   UNL d   1       7.425  -2.382   1.179  0.00  0.00     0.061 A 
ATOM     19  O   UNL d   1       8.111  -1.911   2.258  0.00  0.00    -0.326 OA
ATOM     20  C   UNL d   1       8.539  -2.994   2.959  0.00  0.00     0.142 A 
ATOM     21  C   UNL d   1       8.147  -4.156   2.338  0.00  0.00     0.027 A 
ATOM     22  C   UNL d   1       7.440  -3.763   1.177  0.00  0.00     0.035 A 
ENDBRANCH  17  18
ENDBRANCH  16  17
ENDBRANCH  15  16
ENDBRANCH  14  15
ENDBRANCH   3  14
TORSDOF 8
