REMARK  2 active torsions:
REMARK  status: ('A' for Active; 'I' for Inactive)
REMARK    1  A    between atoms: C_7  and  C_6 
REMARK       I    between atoms: N_10  and  C_7 
REMARK    2  A    between atoms: C_16  and  N_10 
ROOT
ATOM      1  C   UNL d   1      -0.683   0.840   0.011  0.00  0.00     0.005 A 
ATOM      2  C   UNL d   1      -1.169  -0.486  -0.055  0.00  0.00     0.027 A 
ATOM      3  C   UNL d   1      -0.022  -1.409  -0.073  0.00  0.00     0.194 A 
ATOM      4  C   UNL d   1       0.780   0.775  -0.008  0.00  0.00    -0.010 A 
ATOM      5  C   UNL d   1       1.186  -0.573  -0.042  0.00  0.00     0.026 A 
ATOM      6  C   UNL d   1      -1.625   1.867   0.074  0.00  0.00     0.044 A 
ATOM      7  O   UNL d   1      -0.070  -2.622  -0.114  0.00  0.00    -0.287 OA
ATOM      8  C   UNL d   1      -2.508  -0.837  -0.087  0.00  0.00     0.016 A 
ATOM      9  C   UNL d   1       1.771   1.744  -0.032  0.00  0.00     0.013 A 
ATOM     10  C   UNL d   1       2.504  -0.998  -0.068  0.00  0.00     0.016 A 
ATOM     11  C   UNL d   1      -3.000   1.530   0.040  0.00  0.00     0.018 A 
ATOM     12  C   UNL d   1      -3.434   0.195  -0.049  0.00  0.00     0.002 A 
ATOM     13  C   UNL d   1       3.119   1.345  -0.054  0.00  0.00     0.001 A 
ATOM     14  C   UNL d   1       3.484  -0.012  -0.069  0.00  0.00     0.001 A 
ENDROOT
BRANCH   6  15
ATOM     15  C   UNL d   1      -1.267   3.294   0.296  0.00  0.00     0.252 C 
ATOM     16  O   UNL d   1      -0.360   3.594   1.061  0.00  0.00    -0.268 OA
ATOM     17  N   UNL d   1      -2.034   4.236  -0.367  0.00  0.00    -0.357 N 
ATOM     18  H   UNL d   1      -2.681   3.942  -1.088  0.00  0.00     0.162 HD
BRANCH  17  19
ATOM     19  C   UNL d   1      -1.720   5.645  -0.237  0.00  0.00     0.118 C 
ATOM     20  C   UNL d   1      -2.756   6.535  -0.895  0.00  0.00     0.026 C 
ENDBRANCH  17  19
ENDBRANCH   6  15
TORSDOF 2
