REMARK  3 active torsions:
REMARK  status: ('A' for Active; 'I' for Inactive)
REMARK    1  A    between atoms: C_4  and  N_1 
REMARK    2  A    between atoms: C_3  and  C_4 
REMARK    3  A    between atoms: C_5  and  C_9 
ROOT
ATOM      1  N   UNL d   1       0.858   1.257  -0.132  0.00  0.00    -0.312 N 
ATOM      2  C   UNL d   1      -0.483   0.729  -0.105  0.00  0.00     0.055 A 
ATOM      3  C   UNL d   1       1.989   0.499   0.206  0.00  0.00     0.234 C 
ATOM      4  C   UNL d   1      -1.599   1.587  -0.118  0.00  0.00     0.047 A 
ATOM      5  S   UNL d   1       0.598  -1.845  -0.081  0.00  0.00    -0.118 SA
ATOM      6  C   UNL d   1      -2.915   1.098  -0.025  0.00  0.00     0.050 A 
ATOM      7  C   UNL d   1      -0.724  -0.657  -0.056  0.00  0.00     0.028 A 
ATOM      8  C   UNL d   1       1.772  -0.853   0.846  0.00  0.00     0.182 C 
ATOM      9  O   UNL d   1       3.136   0.942   0.104  0.00  0.00    -0.272 OA
ATOM     10  C   UNL d   1      -3.122  -0.284   0.010  0.00  0.00     0.017 A 
ATOM     11  C   UNL d   1      -2.035  -1.154  -0.020  0.00  0.00     0.021 A 
ENDROOT
BRANCH   1  12
ATOM     12  C   UNL d   1       1.104   2.611  -0.628  0.00  0.00     0.174 C 
BRANCH  12  13
ATOM     13  C   UNL d   1       0.886   3.811   0.284  0.00  0.00     0.004 A 
ATOM     14  C   UNL d   1       0.675   3.781   1.678  0.00  0.00     0.043 A 
ATOM     15 CL   UNL d   1       0.709   2.352   2.649  0.00  0.00    -0.084 Cl
ATOM     16  C   UNL d   1       0.416   4.961   2.396  0.00  0.00     0.024 A 
ATOM     17  C   UNL d   1       0.401   6.198   1.761  0.00  0.00     0.003 A 
ATOM     18  C   UNL d   1       0.663   6.264   0.403  0.00  0.00     0.024 A 
ATOM     19  C   UNL d   1       0.905   5.091  -0.325  0.00  0.00     0.043 A 
ATOM     20 CL   UNL d   1       1.238   5.307  -2.014  0.00  0.00    -0.084 Cl
ENDBRANCH  12  13
ENDBRANCH   1  12
BRANCH   6  21
ATOM     21  C   UNL d   1      -4.090   2.042   0.068  0.00  0.00     0.417 C 
ATOM     22  F   UNL d   1      -3.733   3.356   0.072  0.00  0.00    -0.166 F 
ATOM     23  F   UNL d   1      -4.958   1.893  -0.971  0.00  0.00    -0.166 F 
ATOM     24  F   UNL d   1      -4.820   1.851   1.201  0.00  0.00    -0.166 F 
ENDBRANCH   6  21
TORSDOF 3
