REMARK  6 active torsions:
REMARK  status: ('A' for Active; 'I' for Inactive)
REMARK    1  A    between atoms: N_4  and  C_3 
REMARK       I    between atoms: C_5  and  N_4 
REMARK    2  A    between atoms: C_10  and  C_5 
REMARK    3  A    between atoms: O_13  and  C_10 
REMARK    4  A    between atoms: O_12  and  C_14 
REMARK    5  A    between atoms: C_16  and  O_12 
REMARK    6  A    between atoms: C_15  and  O_13 
ROOT
ATOM      1  C   UNL d   1      -7.008  -3.053   6.239  0.00  0.00     0.076 A 
ATOM      2  C   UNL d   1      -5.730  -2.423   3.822  0.00  0.00     0.069 A 
ATOM      3  C   UNL d   1      -7.558  -2.104   5.379  0.00  0.00     0.040 A 
ATOM      4  C   UNL d   1      -5.868  -3.756   5.847  0.00  0.00     0.040 A 
ATOM      5  C   UNL d   1      -6.929  -1.796   4.171  0.00  0.00     0.039 A 
ATOM      6  C   UNL d   1      -5.221  -3.427   4.650  0.00  0.00     0.039 A 
ENDROOT
BRANCH   2   7
ATOM      7  O   UNL d   1      -4.995  -2.133   2.701  0.00  0.00    -0.342 OA
BRANCH   7   8
ATOM      8  C   UNL d   1      -5.232  -0.843   2.150  0.00  0.00     0.278 C 
BRANCH   8   9
ATOM      9  C   UNL d   1      -4.064  -0.325   1.305  0.00  0.00     0.244 C 
ATOM     10  N   UNL d   1      -3.760  -0.963   0.103  0.00  0.00    -0.349 N 
ATOM     11  C   UNL d   1      -4.466  -2.160  -0.339  0.00  0.00     0.153 C 
ATOM     12  O   UNL d   1      -3.443   0.674   1.681  0.00  0.00    -0.271 OA
BRANCH  10  13
ATOM     13  C   UNL d   1      -2.621  -0.500  -0.710  0.00  0.00     0.101 C 
ATOM     14  C   UNL d   1      -1.270  -0.493   0.009  0.00  0.00     0.165 C 
ATOM     15  S   UNL d   1      -0.217   0.437  -1.088  0.00  0.00     0.146 S 
ATOM     16  O   UNL d   1       0.405  -0.494  -2.008  0.00  0.00    -0.228 OA
ATOM     17  O   UNL d   1       0.555   1.389  -0.321  0.00  0.00    -0.228 OA
ATOM     18  C   UNL d   1      -1.513   1.299  -1.966  0.00  0.00     0.142 C 
ATOM     19  C   UNL d   1      -2.817   0.918  -1.277  0.00  0.00     0.041 C 
ENDBRANCH  10  13
ENDBRANCH   8   9
ENDBRANCH   7   8
ENDBRANCH   2   7
BRANCH   1  20
ATOM     20  O   UNL d   1      -7.709  -3.279   7.398  0.00  0.00    -0.311 OA
BRANCH  20  21
ATOM     21  C   UNL d   1      -7.052  -3.556   8.574  0.00  0.00     0.076 A 
ATOM     22  C   UNL d   1      -5.768  -3.116   8.905  0.00  0.00     0.037 A 
ATOM     23  C   UNL d   1      -5.201  -3.475  10.131  0.00  0.00     0.003 A 
ATOM     24  C   UNL d   1      -5.931  -4.232  11.046  0.00  0.00     0.000 A 
ATOM     25  C   UNL d   1      -7.235  -4.620  10.745  0.00  0.00     0.003 A 
ATOM     26  C   UNL d   1      -7.793  -4.280   9.512  0.00  0.00     0.037 A 
ENDBRANCH  20  21
ENDBRANCH   1  20
TORSDOF 6
