REMARK  6 active torsions:
REMARK  status: ('A' for Active; 'I' for Inactive)
REMARK    1  A    between atoms: C_2  and  C_1 
REMARK       I    between atoms: N_6  and  C_2 
REMARK    2  A    between atoms: C_20  and  N_6 
REMARK    3  A    between atoms: O_15  and  C_9 
REMARK    4  A    between atoms: C_10  and  O_16 
REMARK    5  A    between atoms: O_16  and  C_21 
REMARK    6  A    between atoms: C_21  and  C_20 
ROOT
ATOM      1  C   UNL d   1      -1.255   2.506  -1.015  0.00  0.00     0.256 C 
ATOM      2  O   UNL d   1      -1.355   3.038  -2.112  0.00  0.00    -0.268 OA
ATOM      3  N   UNL d   1      -1.045   3.240   0.141  0.00  0.00    -0.355 N 
ATOM      4  H   UNL d   1      -1.111   2.788   1.045  0.00  0.00     0.162 HD
ENDROOT
BRANCH   3   5
ATOM      5  C   UNL d   1      -0.887   4.686   0.103  0.00  0.00     0.149 C 
BRANCH   5   6
ATOM      6  C   UNL d   1      -2.220   5.442   0.083  0.00  0.00     0.195 C 
BRANCH   6   7
ATOM      7  O   UNL d   1      -1.950   6.849   0.096  0.00  0.00    -0.350 OA
BRANCH   7   8
ATOM      8  C   UNL d   1      -3.043   7.671   0.140  0.00  0.00     0.069 A 
ATOM      9  C   UNL d   1      -2.817   8.949   0.654  0.00  0.00     0.039 A 
ATOM     10  C   UNL d   1      -3.866   9.870   0.748  0.00  0.00     0.039 A 
ATOM     11  C   UNL d   1      -5.149   9.533   0.314  0.00  0.00     0.068 A 
ATOM     12  C   UNL d   1      -5.369   8.265  -0.222  0.00  0.00     0.039 A 
ATOM     13  C   UNL d   1      -4.319   7.340  -0.312  0.00  0.00     0.039 A 
BRANCH  11  14
ATOM     14  O   UNL d   1      -6.086  10.519   0.455  0.00  0.00    -0.356 OA
ATOM     15  C   UNL d   1      -7.409  10.209   0.034  0.00  0.00     0.210 C 
ENDBRANCH  11  14
ENDBRANCH   7   8
ENDBRANCH   6   7
ENDBRANCH   5   6
ENDBRANCH   3   5
BRANCH   1  16
ATOM     16  C   UNL d   1      -1.381   1.030  -0.868  0.00  0.00     0.092 A 
ATOM     17  C   UNL d   1      -0.933   0.139  -1.855  0.00  0.00     0.052 A 
ATOM     18 CL   UNL d   1      -0.090   0.629  -3.284  0.00  0.00    -0.083 Cl
ATOM     19  C   UNL d   1      -1.112  -1.247  -1.695  0.00  0.00     0.025 A 
ATOM     20  C   UNL d   1      -1.737  -1.754  -0.556  0.00  0.00     0.005 A 
ATOM     21  C   UNL d   1      -2.181  -0.877   0.429  0.00  0.00     0.043 A 
ATOM     22  C   UNL d   1      -2.002   0.497   0.267  0.00  0.00     0.133 A 
ATOM     23  F   UNL d   1      -2.454   1.300   1.243  0.00  0.00    -0.205 F 
ENDBRANCH   1  16
TORSDOF 6
