REMARK  1 active torsions:
REMARK  status: ('A' for Active; 'I' for Inactive)
REMARK    1  A    between atoms: C_3  and  C_7 
ROOT
ATOM      1  N   UNL d   1      -0.577  -1.394  -0.003  0.00  0.00    -0.356 N 
ATOM      2  HN  UNL d   1      -0.578  -2.414  -0.016  1.00  0.00     0.166 HD
ATOM      3  N   UNL d   1      -0.577   1.415   0.021  0.00  0.00    -0.356 N 
ATOM      4  HN  UNL d   1      -0.578   2.435   0.028  1.00  0.00     0.166 HD
ATOM      5  C   UNL d   1       0.571  -0.696  -0.006  0.00  0.00     0.060 A 
ATOM      6  C   UNL d   1       3.011  -0.702  -0.012  0.00  0.00     0.050 A 
ATOM      7  C   UNL d   1       0.572   0.717   0.020  0.00  0.00     0.059 A 
ATOM      8  C   UNL d   1      -1.735  -0.687   0.018  0.00  0.00     0.028 A 
ATOM      9  C   UNL d   1      -1.736   0.708   0.013  0.00  0.00     0.028 A 
ATOM     10  C   UNL d   1       1.782  -1.377  -0.031  0.00  0.00     0.048 A 
ATOM     11  C   UNL d   1       3.001   0.696   0.038  0.00  0.00     0.018 A 
ATOM     12  C   UNL d   1       1.788   1.387   0.049  0.00  0.00     0.032 A 
ATOM     13  C   UNL d   1      -3.005   1.503   0.001  0.00  0.00     0.070 C 
ATOM     14  C   UNL d   1      -3.003  -1.484   0.070  0.00  0.00     0.070 C 
ENDROOT
BRANCH   6  15
ATOM     15  C   UNL d   1       4.316  -1.456  -0.042  0.00  0.00     0.417 C 
ATOM     16  F   UNL d   1       4.165  -2.807  -0.110  0.00  0.00    -0.166 F 
ATOM     17  F   UNL d   1       5.089  -1.112  -1.109  0.00  0.00    -0.166 F 
ATOM     18  F   UNL d   1       5.077  -1.220   1.062  0.00  0.00    -0.166 F 
ENDBRANCH   6  15
TORSDOF 1
