REMARK  3 active torsions:
REMARK  status: ('A' for Active; 'I' for Inactive)
REMARK    1  A    between atoms: C_8  and  C_1 
REMARK    2  A    between atoms: N_4  and  C_9 
REMARK    3  A    between atoms: C_11  and  C_8 
ROOT
ATOM      1  C   UNL d   1      -1.284   0.880  -0.011  0.00  0.00     0.028 C 
ATOM      2  C   UNL d   1      -0.078   1.628   0.156  0.00  0.00    -0.041 C 
ATOM      3  C   UNL d   1      -1.213  -0.535  -0.154  0.00  0.00    -0.041 C 
ATOM      4  C   UNL d   1       0.033  -1.202   0.017  0.00  0.00    -0.049 C 
ATOM      5  C   UNL d   1       1.178   0.962   0.106  0.00  0.00    -0.049 C 
ATOM      6  C   UNL d   1       1.230  -0.453   0.076  0.00  0.00    -0.049 C 
ATOM      7  C   UNL d   1      -2.405  -1.378  -0.547  0.00  0.00     0.050 C 
ATOM      8  C   UNL d   1      -0.086   3.135   0.311  0.00  0.00     0.050 C 
ATOM      9  C   UNL d   1       2.483   1.734   0.042  0.00  0.00     0.049 C 
ATOM     10  C   UNL d   1       0.101  -2.714   0.073  0.00  0.00     0.049 C 
ATOM     11  C   UNL d   1       2.586  -1.135   0.052  0.00  0.00     0.049 C 
ENDROOT
BRANCH   1  12
ATOM     12  C   UNL d   1      -2.575   1.640  -0.194  0.00  0.00     0.193 C 
ATOM     13  O   UNL d   1      -2.558   2.676  -0.860  0.00  0.00    -0.287 OA
BRANCH  12  14
ATOM     14  C   UNL d   1      -3.915   1.188   0.290  0.00  0.00     0.015 A 
ATOM     15  C   UNL d   1      -5.026   1.591  -0.477  0.00  0.00     0.018 A 
ATOM     16  C   UNL d   1      -6.301   1.080  -0.224  0.00  0.00     0.037 A 
ATOM     17  C   UNL d   1      -6.473   0.159   0.811  0.00  0.00     0.102 A 
ATOM     18  C   UNL d   1      -5.390  -0.197   1.632  0.00  0.00     0.037 A 
ATOM     19  C   UNL d   1      -4.114   0.338   1.384  0.00  0.00     0.018 A 
BRANCH  17  20
ATOM     20  N   UNL d   1      -7.791  -0.462   1.008  0.00  0.00    -0.116 N 
ATOM     21  O   UNL d   1      -7.881  -1.354   1.864  0.00  0.00    -0.532 OA
ATOM     22  O   UNL d   1      -8.725  -0.070   0.299  0.00  0.00    -0.532 OA
ENDBRANCH  17  20
ENDBRANCH  12  14
ENDBRANCH   1  12
TORSDOF 3
