REMARK  4 active torsions:
REMARK  status: ('A' for Active; 'I' for Inactive)
REMARK       I    between atoms: N_2  and  C_1 
REMARK       I    between atoms: N_3  and  C_1 
REMARK    1  A    between atoms: C_5  and  N_2 
REMARK    2  A    between atoms: C_8  and  N_3 
REMARK    3  A    between atoms: S_9  and  C_7 
REMARK    4  A    between atoms: C_10  and  C_8 
ROOT
ATOM      1  C   UNL d   1       1.038  -0.057   0.017  0.00  0.00     0.320 C 
ATOM      2  N   UNL d   1       0.442  -0.822  -0.964  0.00  0.00    -0.309 N 
ATOM      3  N   UNL d   1       0.155   0.844   0.565  0.00  0.00    -0.339 N 
ATOM      4  O   UNL d   1       2.210  -0.112   0.368  0.00  0.00    -0.247 OA
ATOM      5  H   UNL d   1      -0.469  -0.520  -1.268  0.00  0.00     0.170 HD
ATOM      6  H   UNL d   1      -0.835   0.710   0.438  0.00  0.00     0.164 HD
ENDROOT
BRANCH   2   7
ATOM      7  C   UNL d   1       1.063  -1.832  -1.736  0.00  0.00     0.037 A 
ATOM      8  C   UNL d   1       2.316  -2.377  -1.426  0.00  0.00     0.048 A 
ATOM      9  C   UNL d   1       2.912  -3.347  -2.242  0.00  0.00     0.002 A 
ATOM     10  C   UNL d   1       2.225  -3.774  -3.385  0.00  0.00     0.018 A 
ATOM     11  C   UNL d   1       0.965  -3.259  -3.692  0.00  0.00     0.004 A 
ATOM     12  C   UNL d   1       0.381  -2.298  -2.865  0.00  0.00     0.029 A 
BRANCH   9  13
ATOM     13  S   UNL d   1       4.511  -4.092  -1.929  0.00  0.00    -0.134 SA
ATOM     14  C   UNL d   1       5.042  -3.310  -0.379  0.00  0.00     0.095 C 
ENDBRANCH   9  13
ENDBRANCH   2   7
BRANCH   3  15
ATOM     15  C   UNL d   1       0.577   1.781   1.584  0.00  0.00     0.162 C 
BRANCH  15  16
ATOM     16  C   UNL d   1      -0.097   1.526   2.908  0.00  0.00    -0.040 A 
ATOM     17  C   UNL d   1       0.097   0.315   3.589  0.00  0.00     0.009 A 
ATOM     18  C   UNL d   1      -0.485   0.104   4.842  0.00  0.00     0.001 A 
ATOM     19  C   UNL d   1      -1.264   1.099   5.426  0.00  0.00     0.000 A 
ATOM     20  C   UNL d   1      -1.466   2.305   4.759  0.00  0.00     0.001 A 
ATOM     21  C   UNL d   1      -0.887   2.519   3.508  0.00  0.00     0.009 A 
ENDBRANCH  15  16
ENDBRANCH   3  15
TORSDOF 4
