REMARK  5 active torsions:
REMARK  status: ('A' for Active; 'I' for Inactive)
REMARK    1  A    between atoms: C_8  and  C_3 
REMARK    2  A    between atoms: C_12  and  C_4 
REMARK    3  A    between atoms: C_9  and  C_17 
REMARK    4  A    between atoms: O_16  and  C_13 
REMARK    5  A    between atoms: C_17  and  O_16 
ROOT
ATOM      1  N   UNL d   1       1.289   0.159   0.001  0.00  0.00    -0.318 N 
ATOM      2  HN  UNL d   1       2.301   0.290  -0.004  1.00  0.00     0.169 HD
ATOM      3  C   UNL d   1       0.297   1.117  -0.002  0.00  0.00     0.139 A 
ATOM      4  C   UNL d   1       0.607  -0.965   0.010  0.00  0.00     0.182 A 
ATOM      5  N   UNL d   1      -0.947   0.613  -0.004  0.00  0.00    -0.242 N 
ATOM      6  HN  UNL d   1      -1.832   1.120  -0.010  1.00  0.00     0.196 HD
ATOM      7  O   UNL d   1      -0.744  -0.765   0.003  0.00  0.00    -0.217 OA
ENDROOT
BRANCH   3   8
ATOM      8  C   UNL d   1       0.600   2.536  -0.002  0.00  0.00     0.025 A 
ATOM      9  C   UNL d   1      -0.396   3.503   0.025  0.00  0.00     0.105 A 
ATOM     10  N   UNL d   1      -0.162   4.840   0.004  0.00  0.00    -0.346 N 
ATOM     11  C   UNL d   1       1.122   5.248  -0.041  0.00  0.00     0.142 A 
ATOM     12  HN  UNL d   1      -0.929   5.512   0.023  1.00  0.00     0.167 HD
ATOM     13  C   UNL d   1       2.187   4.359  -0.069  0.00  0.00     0.057 A 
ATOM     14  C   UNL d   1       1.920   2.990  -0.044  0.00  0.00     0.021 A 
BRANCH  11  15
ATOM     15  O   UNL d   1       1.256   6.603  -0.140  0.00  0.00    -0.327 OA
BRANCH  15  16
ATOM     16  C   UNL d   1       2.397   7.160   0.518  0.00  0.00     0.294 C 
BRANCH  16  17
ATOM     17  C   UNL d   1       2.385   8.685   0.455  0.00  0.00     0.408 C 
ATOM     18  F   UNL d   1       1.269   9.190  -0.108  0.00  0.00    -0.169 F 
ATOM     19  F   UNL d   1       2.495   9.218   1.695  0.00  0.00    -0.169 F 
ATOM     20  F   UNL d   1       3.442   9.136  -0.264  0.00  0.00    -0.169 F 
ENDBRANCH  16  17
ENDBRANCH  15  16
ENDBRANCH  11  15
ENDBRANCH   3   8
BRANCH   4  21
ATOM     21  C   UNL d   1       1.073  -2.344   0.064  0.00  0.00     0.017 A 
ATOM     22  C   UNL d   1       2.450  -2.614   0.110  0.00  0.00     0.016 A 
ATOM     23  C   UNL d   1       2.920  -3.926   0.215  0.00  0.00     0.007 A 
ATOM     24  C   UNL d   1       2.022  -4.998   0.272  0.00  0.00    -0.062 A 
ATOM     25  C   UNL d   1       0.650  -4.738   0.202  0.00  0.00     0.007 A 
ATOM     26  C   UNL d   1       2.532  -6.399   0.428  0.00  0.00     0.048 C 
ATOM     27  C   UNL d   1       0.182  -3.426   0.098  0.00  0.00     0.016 A 
ENDBRANCH   4  21
TORSDOF 5
