REMARK  3 active torsions:
REMARK  status: ('A' for Active; 'I' for Inactive)
REMARK    1  A    between atoms: S_13  and  C_1 
REMARK    2  A    between atoms: C_3  and  S_13 
REMARK    3  A    between atoms: N_14  and  C_6 
ROOT
ATOM      1  C   UNL d   1       4.237  -0.759   0.011  0.00  0.00     0.122 A 
ATOM      2  C   UNL d   1       4.182   0.067   1.288  0.00  0.00    -0.028 A 
ATOM      3  C   UNL d   1       4.608   0.290  -1.033  0.00  0.00    -0.028 A 
ATOM      4  C   UNL d   1       4.506   1.414   1.007  0.00  0.00    -0.018 A 
ATOM      5  C   UNL d   1       4.760   1.552  -0.412  0.00  0.00    -0.018 A 
ATOM      6  C   UNL d   1       4.815   0.130  -2.396  0.00  0.00     0.009 A 
ATOM      7  C   UNL d   1       3.915  -0.353   2.582  0.00  0.00     0.009 A 
ATOM      8  C   UNL d   1       4.551   2.354   2.023  0.00  0.00     0.013 A 
ATOM      9  C   UNL d   1       5.108   2.666  -1.158  0.00  0.00     0.013 A 
ATOM     10  C   UNL d   1       4.276   1.936   3.329  0.00  0.00     0.001 A 
ATOM     11  C   UNL d   1       5.160   1.256  -3.146  0.00  0.00     0.001 A 
ATOM     12  C   UNL d   1       3.962   0.596   3.606  0.00  0.00     0.001 A 
ATOM     13  C   UNL d   1       5.306   2.511  -2.533  0.00  0.00     0.001 A 
ENDROOT
BRANCH   1  14
ATOM     14  S   UNL d   1       2.731  -1.691  -0.364  0.00  0.00    -0.077 SA
BRANCH  14  15
ATOM     15  C   UNL d   1       1.503  -0.487  -0.389  0.00  0.00     0.175 A 
ATOM     16  N   UNL d   1       1.457   0.483  -1.341  0.00  0.00    -0.168 N 
ATOM     17  C   UNL d   1       0.329   1.203  -1.091  0.00  0.00     0.692 A 
ATOM     18  H   UNL d   1       2.115   0.632  -2.087  0.00  0.00     0.186 HD
ATOM     19  N   UNL d   1      -0.293   0.684  -0.059  0.00  0.00    -0.130 N 
ATOM     20  N   UNL d   1       0.447  -0.400   0.382  0.00  0.00    -0.265 N 
ATOM     21  HN  UNL d   1      -1.167   1.020   0.346  1.00  0.00     0.205 HD
ATOM     22  HN  UNL d   1       0.214  -1.015   1.161  1.00  0.00     0.189 HD
BRANCH  17  23
ATOM     23  N   UNL d   1      -0.003   2.257  -1.851  0.00  0.00    -0.233 N 
ATOM     24  H   UNL d   1       0.693   2.763  -2.384  0.00  0.00     0.174 HD
ATOM     25  H   UNL d   1      -0.740   2.853  -1.483  0.00  0.00     0.174 HD
ENDBRANCH  17  23
ENDBRANCH  14  15
ENDBRANCH   1  14
TORSDOF 3
