REMARK  20 active torsions:
REMARK  status: ('A' for Active; 'I' for Inactive)
REMARK    1  A    between atoms: C_1  and  O_4 
REMARK    2  A    between atoms: C_1  and  C_3 
REMARK    3  A    between atoms: C_1  and  C_2 
REMARK    4  A    between atoms: C_2  and  C_8 
REMARK    5  A    between atoms: C_2  and  O_5 
REMARK    6  A    between atoms: O_9  and  C_3 
REMARK    7  A    between atoms: C_6  and  O_4 
REMARK    8  A    between atoms: C_7  and  O_5 
REMARK    9  A    between atoms: C_14  and  C_6 
REMARK   10  A    between atoms: C_13  and  C_7 
REMARK   11  A    between atoms: O_18  and  C_8 
REMARK   12  A    between atoms: C_17  and  O_9 
REMARK   13  A    between atoms: N_16  and  C_22 
REMARK   14  A    between atoms: C_23  and  N_16 
REMARK   15  A    between atoms: C_22  and  C_17 
REMARK   16  A    between atoms: C_24  and  C_17 
REMARK   17  A    between atoms: O_19  and  C_24 
REMARK   18  A    between atoms: C_25  and  O_19 
REMARK   19  A    between atoms: C_20  and  C_23 
REMARK   20  A    between atoms: C_21  and  C_25 
ROOT
ATOM      1  C   UNL d   1      -1.532  -1.564   0.284  0.00  0.00     0.271 C 
ENDROOT
BRANCH   1   2
ATOM      2  O   UNL d   1      -2.268  -1.097  -0.885  0.00  0.00    -0.299 OA
BRANCH   2   3
ATOM      3  C   UNL d   1      -3.526  -0.622  -0.761  0.00  0.00     0.294 C 
ATOM      4  O   UNL d   1      -4.167  -0.555   0.277  0.00  0.00    -0.259 OA
BRANCH   3   5
ATOM      5  C   UNL d   1      -4.054  -0.268  -2.101  0.00  0.00     0.039 A 
ATOM      6  C   UNL d   1      -3.214   0.274  -3.083  0.00  0.00     0.017 A 
ATOM      7  C   UNL d   1      -3.724   0.587  -4.345  0.00  0.00     0.001 A 
ATOM      8  C   UNL d   1      -5.069   0.357  -4.632  0.00  0.00     0.000 A 
ATOM      9  C   UNL d   1      -5.913  -0.171  -3.654  0.00  0.00     0.001 A 
ATOM     10  C   UNL d   1      -5.410  -0.475  -2.384  0.00  0.00     0.017 A 
ENDBRANCH   3   5
ENDBRANCH   2   3
ENDBRANCH   1   2
BRANCH   1  11
ATOM     11  C   UNL d   1      -0.111  -1.881  -0.237  0.00  0.00     0.292 C 
ATOM     12  O   UNL d   1       0.450  -1.200  -1.091  0.00  0.00    -0.262 OA
BRANCH  11  13
ATOM     13  O   UNL d   1       0.512  -2.885   0.429  0.00  0.00    -0.310 OA
BRANCH  13  14
ATOM     14  C   UNL d   1       1.958  -3.094   0.296  0.00  0.00     0.183 C 
BRANCH  14  15
ATOM     15  C   UNL d   1       2.443  -3.550  -1.112  0.00  0.00     0.304 C 
BRANCH  15  16
ATOM     16  N   UNL d   1       3.860  -3.979  -1.237  0.00  0.00     0.090 N 
ATOM     17  H   UNL d   1       4.494  -3.197  -1.081  0.00  0.00     0.316 HD
BRANCH  16  18
ATOM     18  C   UNL d   1       4.221  -5.080  -0.343  0.00  0.00     0.308 C 
BRANCH  18  19
ATOM     19  C   UNL d   1       5.699  -5.414  -0.355  0.00  0.00    -0.030 A 
ATOM     20  C   UNL d   1       6.578  -4.765   0.526  0.00  0.00     0.009 A 
ATOM     21  C   UNL d   1       7.918  -5.149   0.625  0.00  0.00     0.001 A 
ATOM     22  C   UNL d   1       8.404  -6.180  -0.175  0.00  0.00     0.000 A 
ATOM     23  C   UNL d   1       7.556  -6.806  -1.086  0.00  0.00     0.001 A 
ATOM     24  C   UNL d   1       6.213  -6.422  -1.181  0.00  0.00     0.009 A 
ENDBRANCH  18  19
ENDBRANCH  16  18
ENDBRANCH  15  16
ENDBRANCH  14  15
BRANCH  14  25
ATOM     25  C   UNL d   1       2.768  -1.895   0.820  0.00  0.00     0.202 C 
BRANCH  25  26
ATOM     26  O   UNL d   1       2.631  -1.817   2.247  0.00  0.00    -0.384 OA
BRANCH  26  27
ATOM     27  C   UNL d   1       3.449  -0.788   2.812  0.00  0.00     0.206 C 
BRANCH  27  28
ATOM     28  C   UNL d   1       4.919  -1.140   2.803  0.00  0.00    -0.035 A 
ATOM     29  C   UNL d   1       5.841  -0.332   2.121  0.00  0.00     0.009 A 
ATOM     30  C   UNL d   1       7.201  -0.648   2.123  0.00  0.00     0.001 A 
ATOM     31  C   UNL d   1       7.656  -1.769   2.813  0.00  0.00     0.000 A 
ATOM     32  C   UNL d   1       6.750  -2.581   3.493  0.00  0.00     0.001 A 
ATOM     33  C   UNL d   1       5.387  -2.275   3.481  0.00  0.00     0.009 A 
ENDBRANCH  27  28
ENDBRANCH  26  27
ENDBRANCH  25  26
ENDBRANCH  14  25
ENDBRANCH  13  14
ENDBRANCH  11  13
ENDBRANCH   1  11
BRANCH   1  34
ATOM     34  C   UNL d   1      -2.252  -2.648   1.119  0.00  0.00     0.268 C 
BRANCH  34  35
ATOM     35  C   UNL d   1      -2.708  -3.814   0.236  0.00  0.00     0.173 C 
ATOM     36  O   UNL d   1      -2.325  -4.008  -0.909  0.00  0.00    -0.648 OA
BRANCH  35  37
ATOM     37  O   UNL d   1      -3.622  -4.628   0.820  0.00  0.00    -0.774 OA
ATOM     38  H   UNL d   1      -3.841  -4.387   1.756  0.00  0.00     0.167 HD
ENDBRANCH  35  37
ENDBRANCH  34  35
BRANCH  34  39
ATOM     39  O   UNL d   1      -1.459  -3.013   2.267  0.00  0.00    -0.298 OA
BRANCH  39  40
ATOM     40  C   UNL d   1      -2.116  -3.646   3.270  0.00  0.00     0.294 C 
ATOM     41  O   UNL d   1      -3.303  -3.931   3.243  0.00  0.00    -0.259 OA
BRANCH  40  42
ATOM     42  C   UNL d   1      -1.201  -4.004   4.388  0.00  0.00     0.039 A 
ATOM     43  C   UNL d   1      -1.704  -4.790   5.435  0.00  0.00     0.017 A 
ATOM     44  C   UNL d   1      -0.872  -5.172   6.490  0.00  0.00     0.001 A 
ATOM     45  C   UNL d   1       0.462  -4.767   6.506  0.00  0.00     0.000 A 
ATOM     46  C   UNL d   1       0.964  -3.976   5.473  0.00  0.00     0.001 A 
ATOM     47  C   UNL d   1       0.138  -3.594   4.414  0.00  0.00     0.017 A 
ENDBRANCH  40  42
ENDBRANCH  39  40
ENDBRANCH  34  39
ENDBRANCH   1  34
TORSDOF 20
