REMARK  6 active torsions:
REMARK  status: ('A' for Active; 'I' for Inactive)
REMARK    1  A    between atoms: C_10  and  C_1 
REMARK    2  A    between atoms: C_2  and  C_9 
REMARK    3  A    between atoms: C_3  and  C_7 
REMARK    4  A    between atoms: C_4  and  C_8 
REMARK    5  A    between atoms: N_13  and  C_17 
REMARK    6  A    between atoms: C_18  and  N_15 
ROOT
ATOM      1  C   UNL d   1       5.460  -6.858  -3.859  0.00  0.00     0.130 C 
ATOM      2  C   UNL d   1       4.125  -6.068  -1.374  0.00  0.00     0.130 C 
ATOM      3  S   UNL d   1       3.772  -4.786  -2.563  0.00  0.00    -0.020 SA
ATOM      4  S   UNL d   1       4.488  -5.491  -4.360  0.00  0.00    -0.020 SA
ATOM      5  N   UNL d   1       5.080  -8.090  -3.702  0.00  0.00    -0.341 N 
ATOM      6  HN  UNL d   1       5.830  -8.748  -3.487  1.00  0.00     0.167 HD
ATOM      7  N   UNL d   1       3.175  -6.911  -1.144  0.00  0.00    -0.341 N 
ATOM      8  HN  UNL d   1       2.355  -6.873  -1.749  1.00  0.00     0.167 HD
ATOM      9  N   UNL d   1       6.778  -6.506  -3.648  0.00  0.00    -0.271 NA
ATOM     10  N   UNL d   1       5.299  -5.849  -0.678  0.00  0.00    -0.271 NA
ATOM     11  C   UNL d   1       7.134  -5.728  -2.447  0.00  0.00     0.109 C 
ATOM     12  C   UNL d   1       6.611  -6.338  -1.142  0.00  0.00     0.109 C 
ATOM     13  H   UNL d   1       7.086  -5.952  -4.444  0.00  0.00     0.129 HD
ATOM     14  H   UNL d   1       5.167  -6.168   0.278  0.00  0.00     0.129 HD
ENDROOT
BRANCH   5  15
ATOM     15  C   UNL d   1       3.794  -8.661  -3.781  0.00  0.00     0.035 A 
ATOM     16  C   UNL d   1       2.605  -8.049  -4.182  0.00  0.00     0.045 A 
ATOM     17  C   UNL d   1       1.345  -8.646  -3.994  0.00  0.00     0.050 A 
ATOM     18  C   UNL d   1       1.280  -9.952  -3.504  0.00  0.00     0.032 A 
ATOM     19  C   UNL d   1       2.454 -10.640  -3.179  0.00  0.00     0.050 A 
ATOM     20  C   UNL d   1       3.692  -9.981  -3.318  0.00  0.00     0.045 A 
BRANCH  17  21
ATOM     21  C   UNL d   1       0.106  -7.832  -4.281  0.00  0.00     0.417 C 
ATOM     22  F   UNL d   1      -1.047  -8.447  -3.897  0.00  0.00    -0.166 F 
ATOM     23  F   UNL d   1      -0.040  -7.552  -5.605  0.00  0.00    -0.166 F 
ATOM     24  F   UNL d   1       0.113  -6.628  -3.643  0.00  0.00    -0.166 F 
ENDBRANCH  17  21
BRANCH  19  25
ATOM     25  C   UNL d   1       2.407 -12.057  -2.671  0.00  0.00     0.417 C 
ATOM     26  F   UNL d   1       1.150 -12.474  -2.350  0.00  0.00    -0.166 F 
ATOM     27  F   UNL d   1       2.874 -12.953  -3.583  0.00  0.00    -0.166 F 
ATOM     28  F   UNL d   1       3.155 -12.239  -1.545  0.00  0.00    -0.166 F 
ENDBRANCH  19  25
ENDBRANCH   5  15
BRANCH   7  29
ATOM     29  C   UNL d   1       3.185  -7.877  -0.124  0.00  0.00     0.035 C 
ATOM     30  C   UNL d   1       1.967  -8.189   0.487  0.00  0.00     0.045 C 
ATOM     31  C   UNL d   1       1.882  -9.108   1.553  0.00  0.00     0.050 C 
ATOM     32  C   UNL d   1       3.059  -9.697   2.036  0.00  0.00     0.032 C 
ATOM     33  C   UNL d   1       4.285  -9.433   1.420  0.00  0.00     0.050 C 
ATOM     34  C   UNL d   1       4.312  -8.579   0.304  0.00  0.00     0.045 C 
BRANCH  31  35
ATOM     35  C   UNL d   1       0.539  -9.447   2.156  0.00  0.00     0.417 C 
ATOM     36  F   UNL d   1       0.629 -10.254   3.250  0.00  0.00    -0.166 F 
ATOM     37  F   UNL d   1      -0.147  -8.345   2.563  0.00  0.00    -0.166 F 
ATOM     38  F   UNL d   1      -0.272 -10.098   1.278  0.00  0.00    -0.166 F 
ENDBRANCH  31  35
BRANCH  33  39
ATOM     39  C   UNL d   1       5.586  -9.981   1.954  0.00  0.00     0.417 C 
ATOM     40  F   UNL d   1       5.437 -10.825   3.009  0.00  0.00    -0.166 F 
ATOM     41  F   UNL d   1       6.300 -10.659   1.016  0.00  0.00    -0.166 F 
ATOM     42  F   UNL d   1       6.406  -8.980   2.388  0.00  0.00    -0.166 F 
ENDBRANCH  33  39
ENDBRANCH   7  29
TORSDOF 6
