REMARK  5 active torsions:
REMARK  status: ('A' for Active; 'I' for Inactive)
REMARK    1  A    between atoms: S_11  and  C_7 
REMARK    2  A    between atoms: N_12  and  C_8 
REMARK    3  A    between atoms: C_13  and  C_9 
REMARK    4  A    between atoms: S_10  and  C_13 
REMARK    5  A    between atoms: C_14  and  S_10 
ROOT
ATOM      1  N   UNL d   1      -0.177   1.270   0.078  0.00  0.00    -0.313 N 
ATOM      2  HN  UNL d   1      -0.653   2.170   0.128  1.00  0.00     0.170 HD
ATOM      3  N   UNL d   1       0.684  -0.631   1.147  0.00  0.00    -0.322 N 
ATOM      4  HN  UNL d   1       0.856  -1.157   2.004  1.00  0.00     0.169 HD
ATOM      5  N   UNL d   1       0.833  -0.440  -1.203  0.00  0.00    -0.326 N 
ATOM      6  HN  UNL d   1       1.124  -0.812  -2.107  1.00  0.00     0.169 HD
ATOM      7  C   UNL d   1       0.217   0.734  -1.074  0.00  0.00     0.147 A 
ATOM      8  C   UNL d   1       0.094   0.552   1.151  0.00  0.00     0.158 A 
ATOM      9  C   UNL d   1       1.040  -1.092  -0.056  0.00  0.00     0.095 A 
ENDROOT
BRANCH   9  10
ATOM     10  C   UNL d   1       1.740  -2.433  -0.108  0.00  0.00     0.156 C 
BRANCH  10  11
ATOM     11  S   UNL d   1       0.555  -3.817  -0.254  0.00  0.00    -0.122 SA
BRANCH  11  12
ATOM     12  C   UNL d   1       1.594  -5.276  -0.248  0.00  0.00     0.001 A 
ATOM     13  C   UNL d   1       2.990  -5.276  -0.155  0.00  0.00     0.018 A 
ATOM     14  C   UNL d   1       3.706  -6.479  -0.165  0.00  0.00     0.001 A 
ATOM     15  C   UNL d   1       3.038  -7.697  -0.266  0.00  0.00     0.000 A 
ATOM     16  C   UNL d   1       1.650  -7.714  -0.356  0.00  0.00     0.001 A 
ATOM     17  C   UNL d   1       0.937  -6.512  -0.346  0.00  0.00     0.018 A 
ENDBRANCH  11  12
ENDBRANCH  10  11
ENDBRANCH   9  10
BRANCH   8  18
ATOM     18  N   UNL d   1      -0.294   1.067   2.372  0.00  0.00    -0.274 NA
ATOM     19  H   UNL d   1      -0.437   0.322   3.040  0.00  0.00     0.127 HD
ATOM     20  H   UNL d   1      -1.047   1.728   2.249  0.00  0.00     0.127 HD
ENDBRANCH   8  18
BRANCH   7  21
ATOM     21  S   UNL d   1      -0.121   1.715  -2.521  0.00  0.00    -0.098 SA
ATOM     22  C   UNL d   1       0.578   0.670  -3.818  0.00  0.00     0.099 C 
ENDBRANCH   7  21
TORSDOF 5
