REMARK  3 active torsions:
REMARK  status: ('A' for Active; 'I' for Inactive)
REMARK       I    between atoms: N_3  and  C_1 
REMARK       I    between atoms: N_5  and  C_1 
REMARK    1  A    between atoms: C_7  and  N_3 
REMARK    2  A    between atoms: C_16  and  N_5 
REMARK    3  A    between atoms: C_8  and  C_9 
ROOT
ATOM      1  C   UNL d   1       1.109  -0.017   0.097  0.00  0.00     0.325 C 
ATOM      2  N   UNL d   1       2.467   0.253  -0.002  0.00  0.00    -0.309 N 
ATOM      3  N   UNL d   1       0.351   1.000  -0.463  0.00  0.00    -0.309 N 
ATOM      4  O   UNL d   1       0.633  -1.010   0.631  0.00  0.00    -0.247 OA
ATOM      5  H   UNL d   1       2.713   1.205  -0.226  0.00  0.00     0.170 HD
ATOM      6  H   UNL d   1       0.787   1.539  -1.195  0.00  0.00     0.170 HD
ENDROOT
BRANCH   2   7
ATOM      7  C   UNL d   1       3.501  -0.566   0.511  0.00  0.00     0.039 A 
ATOM      8  C   UNL d   1       3.309  -1.897   0.895  0.00  0.00     0.069 A 
ATOM      9  C   UNL d   1       4.347  -2.626   1.474  0.00  0.00     0.104 A 
ATOM     10  O   UNL d   1       4.049  -3.907   1.863  0.00  0.00    -0.346 OA
ATOM     11  C   UNL d   1       5.606  -2.048   1.635  0.00  0.00     0.102 A 
ATOM     12  C   UNL d   1       5.024  -4.410   2.780  0.00  0.00     0.202 C 
ATOM     13  C   UNL d   1       6.428  -4.118   2.275  0.00  0.00     0.202 C 
ATOM     14  O   UNL d   1       6.668  -2.707   2.197  0.00  0.00    -0.346 OA
ATOM     15  C   UNL d   1       5.820  -0.734   1.225  0.00  0.00     0.042 A 
ATOM     16  C   UNL d   1       4.774   0.002   0.656  0.00  0.00     0.032 A 
ENDBRANCH   2   7
BRANCH   3  17
ATOM     17  C   UNL d   1      -1.047   1.143  -0.307  0.00  0.00     0.036 A 
ATOM     18  C   UNL d   1      -1.763   0.522   0.715  0.00  0.00     0.030 A 
ATOM     19  C   UNL d   1      -3.141   0.722   0.850  0.00  0.00     0.010 A 
ATOM     20  C   UNL d   1      -3.851   1.558  -0.027  0.00  0.00    -0.051 A 
ATOM     21  C   UNL d   1      -3.118   2.170  -1.057  0.00  0.00     0.010 A 
ATOM     22  C   UNL d   1      -1.734   1.975  -1.189  0.00  0.00     0.030 A 
BRANCH  20  23
ATOM     23  C   UNL d   1      -5.357   1.783   0.186  0.00  0.00    -0.024 C 
ATOM     24  C   UNL d   1      -5.987   2.750  -0.839  0.00  0.00     0.019 C 
ATOM     25  C   UNL d   1      -6.113   0.440   0.082  0.00  0.00     0.019 C 
ATOM     26  C   UNL d   1      -5.596   2.385   1.590  0.00  0.00     0.019 C 
ENDBRANCH  20  23
ENDBRANCH   3  17
TORSDOF 3
