REMARK  8 active torsions:
REMARK  status: ('A' for Active; 'I' for Inactive)
REMARK    1  A    between atoms: C_2  and  C_1 
REMARK    2  A    between atoms: O_6  and  C_2 
REMARK    3  A    between atoms: N_5  and  C_3 
REMARK    4  A    between atoms: C_4  and  C_16 
REMARK    5  A    between atoms: C_16  and  N_5 
REMARK    6  A    between atoms: C_11  and  O_6 
REMARK    7  A    between atoms: C_7  and  C_11 
REMARK    8  A    between atoms: C_9  and  C_7 
ROOT
ATOM      1  C   UNL d   1       1.283  -0.134  -0.096  0.00  0.00     0.065 A 
ATOM      2  C   UNL d   1       0.469  -1.295  -0.092  0.00  0.00     0.044 A 
ATOM      3  C   UNL d   1       0.671   1.143  -0.102  0.00  0.00     0.020 A 
ATOM      4  C   UNL d   1      -0.925  -1.111  -0.035  0.00  0.00     0.030 A 
ATOM      5  C   UNL d   1      -0.714   1.285  -0.087  0.00  0.00     0.001 A 
ATOM      6  C   UNL d   1      -1.514   0.156  -0.042  0.00  0.00     0.002 A 
ENDROOT
BRANCH   1   7
ATOM      7  C   UNL d   1       2.781  -0.200   0.065  0.00  0.00     0.296 C 
ATOM      8  O   UNL d   1       3.414  -1.157   0.479  0.00  0.00    -0.259 OA
BRANCH   7   9
ATOM      9  O   UNL d   1       3.312   1.028  -0.182  0.00  0.00    -0.310 OA
BRANCH   9  10
ATOM     10  C   UNL d   1       4.505   1.364   0.528  0.00  0.00     0.263 C 
BRANCH  10  11
ATOM     11  C   UNL d   1       5.747   1.644  -0.314  0.00  0.00     0.183 C 
ATOM     12  O   UNL d   1       5.773   1.494  -1.539  0.00  0.00    -0.290 OA
BRANCH  11  13
ATOM     13  C   UNL d   1       6.970   2.149   0.396  0.00  0.00     0.012 A 
ATOM     14  C   UNL d   1       6.965   2.465   1.763  0.00  0.00     0.017 A 
ATOM     15  C   UNL d   1       8.125   2.936   2.389  0.00  0.00     0.025 A 
ATOM     16  C   UNL d   1       9.298   3.093   1.653  0.00  0.00     0.034 A 
ATOM     17  C   UNL d   1       9.320   2.792   0.294  0.00  0.00     0.025 A 
ATOM     18 CL   UNL d   1      10.720   3.667   2.432  0.00  0.00    -0.084 Cl
ATOM     19  C   UNL d   1       8.158   2.322  -0.332  0.00  0.00     0.017 A 
ENDBRANCH  11  13
ENDBRANCH  10  11
ENDBRANCH   9  10
ENDBRANCH   7   9
ENDBRANCH   1   7
BRANCH   2  20
ATOM     20  N   UNL d   1       1.006  -2.577  -0.096  0.00  0.00    -0.383 N 
ATOM     21  H   UNL d   1       1.764  -2.740  -0.752  0.00  0.00     0.160 HD
BRANCH  20  22
ATOM     22  C   UNL d   1       0.348  -3.763   0.437  0.00  0.00     0.184 C 
BRANCH  22  23
ATOM     23  C   UNL d   1      -0.710  -4.403  -0.397  0.00  0.00     0.070 A 
ATOM     24  O   UNL d   1      -1.769  -4.936   0.284  0.00  0.00    -0.325 OA
ATOM     25  C   UNL d   1      -2.621  -5.451  -0.639  0.00  0.00     0.142 A 
ATOM     26  C   UNL d   1      -2.127  -5.259  -1.906  0.00  0.00     0.027 A 
ATOM     27  C   UNL d   1      -0.891  -4.583  -1.753  0.00  0.00     0.036 A 
ENDBRANCH  22  23
ENDBRANCH  20  22
ENDBRANCH   2  20
TORSDOF 8
