REMARK  2 active torsions:
REMARK  status: ('A' for Active; 'I' for Inactive)
REMARK    1  A    between atoms: C_14  and  N_3 
REMARK    2  A    between atoms: N_8  and  C_6 
ROOT
ATOM      1  C   UNL d   1      -0.357   0.759  -0.026  0.00  0.00     0.071 A 
ATOM      2  C   UNL d   1      -0.257  -0.624   0.022  0.00  0.00     0.143 A 
ATOM      3  N   UNL d   1      -1.564  -1.115  -0.011  0.00  0.00    -0.239 N 
ATOM      4  N   UNL d   1      -2.474  -0.095  -0.095  0.00  0.00    -0.302 N 
ATOM      5  HN  UNL d   1      -3.491  -0.167  -0.128  1.00  0.00     0.186 HD
ATOM      6  C   UNL d   1       0.827   1.520  -0.026  0.00  0.00     0.119 A 
ATOM      7  C   UNL d   1      -1.734   1.010  -0.122  0.00  0.00     0.127 A 
ATOM      8  N   UNL d   1       0.900  -1.315   0.070  0.00  0.00    -0.336 N 
ATOM      9  HN  UNL d   1       0.954  -2.332   0.124  1.00  0.00     0.168 HD
ATOM     10  N   UNL d   1       1.998   0.835  -0.016  0.00  0.00    -0.338 N 
ATOM     11  HN  UNL d   1       2.887   1.333  -0.049  1.00  0.00     0.168 HD
ATOM     12  C   UNL d   1       1.972  -0.509   0.039  0.00  0.00     0.183 A 
ENDROOT
BRANCH   3  13
ATOM     13  C   UNL d   1      -2.033  -2.465   0.015  0.00  0.00     0.058 A 
ATOM     14  C   UNL d   1      -1.162  -3.553   0.139  0.00  0.00     0.031 A 
ATOM     15  C   UNL d   1      -1.666  -4.858   0.157  0.00  0.00     0.002 A 
ATOM     16  C   UNL d   1      -3.036  -5.087   0.049  0.00  0.00     0.000 A 
ATOM     17  C   UNL d   1      -3.911  -4.013  -0.074  0.00  0.00     0.002 A 
ATOM     18  C   UNL d   1      -3.415  -2.708  -0.089  0.00  0.00     0.031 A 
ENDBRANCH   3  13
BRANCH   6  19
ATOM     19  N   UNL d   1       0.848   2.895  -0.083  0.00  0.00    -0.362 N 
ATOM     20  C   UNL d   1       1.968   3.595  -0.718  0.00  0.00     0.150 C 
ATOM     21  C   UNL d   1       2.644   4.561   0.262  0.00  0.00     0.187 C 
ATOM     22  O   UNL d   1       1.689   5.439   0.884  0.00  0.00    -0.388 OA
ATOM     23  C   UNL d   1       0.733   4.670   1.627  0.00  0.00     0.187 C 
ATOM     24  C   UNL d   1      -0.060   3.719   0.718  0.00  0.00     0.150 C 
ENDBRANCH   6  19
TORSDOF 2
