REMARK  4 active torsions:
REMARK  status: ('A' for Active; 'I' for Inactive)
REMARK    1  A    between atoms: C_6  and  C_1 
REMARK    2  A    between atoms: C_12  and  N_4 
REMARK    3  A    between atoms: C_8  and  C_10 
REMARK    4  A    between atoms: O_18  and  C_8 
ROOT
ATOM      1  C   UNL d   1       2.304  -0.002   0.067  0.00  0.00     0.194 A 
ATOM      2  N   UNL d   1       1.542  -1.085   0.079  0.00  0.00    -0.337 N 
ATOM      3  HN  UNL d   1       1.857  -2.054   0.113  1.00  0.00     0.167 HD
ATOM      4  N   UNL d   1       1.520   1.144  -0.010  0.00  0.00    -0.323 N 
ATOM      5  C   UNL d   1       0.254  -0.646   0.037  0.00  0.00     0.061 A 
ATOM      6  C   UNL d   1       0.194   0.743  -0.009  0.00  0.00     0.063 A 
ATOM      7  C   UNL d   1      -0.917  -1.416   0.046  0.00  0.00     0.050 A 
ATOM      8  C   UNL d   1      -2.149  -0.759  -0.008  0.00  0.00     0.040 A 
ATOM      9  C   UNL d   1      -1.032   1.421  -0.037  0.00  0.00     0.033 A 
ATOM     10  C   UNL d   1      -2.201   0.641  -0.032  0.00  0.00     0.021 A 
ENDROOT
BRANCH   1  11
ATOM     11  C   UNL d   1       3.799   0.014   0.130  0.00  0.00     0.449 C 
ATOM     12  F   UNL d   1       4.338  -1.229   0.207  0.00  0.00    -0.163 F 
ATOM     13  F   UNL d   1       4.343   0.610  -0.964  0.00  0.00    -0.163 F 
ATOM     14  F   UNL d   1       4.246   0.705   1.212  0.00  0.00    -0.163 F 
ENDBRANCH   1  11
BRANCH   4  15
ATOM     15  C   UNL d   1       2.025   2.516  -0.104  0.00  0.00     0.084 C 
ATOM     16  C   UNL d   1       1.642   3.199  -1.417  0.00  0.00     0.032 C 
ATOM     17  C   UNL d   1       1.653   3.381   1.103  0.00  0.00     0.032 C 
ENDBRANCH   4  15
BRANCH   8  18
ATOM     18  C   UNL d   1      -3.427  -1.512   0.011  0.00  0.00     0.176 C 
ATOM     19  O   UNL d   1      -4.456  -1.046   0.474  0.00  0.00    -0.646 OA
BRANCH  18  20
ATOM     20  O   UNL d   1      -3.370  -2.733  -0.560  0.00  0.00    -0.773 OA
ATOM     21  H   UNL d   1      -2.544  -2.942  -1.034  0.00  0.00     0.167 HD
ENDBRANCH  18  20
ENDBRANCH   8  18
TORSDOF 4
