REMARK  1 active torsions:
REMARK  status: ('A' for Active; 'I' for Inactive)
REMARK    1  A    between atoms: C_7  and  N_4 
ROOT
ATOM      1  C   UNL d   1       0.385  -3.451  -0.730  0.00  0.00     0.170 C 
ATOM      2  N   UNL d   1      -0.945  -3.232  -0.617  0.00  0.00    -0.342 N 
ATOM      3  N   UNL d   1       1.189  -2.401  -0.440  0.00  0.00    -0.342 N 
ATOM      4  N   UNL d   1      -0.628  -1.101   0.358  0.00  0.00     0.131 N 
ATOM      5  C   UNL d   1      -1.490  -1.917  -0.479  0.00  0.00     0.400 C 
ATOM      6  C   UNL d   1       0.692  -1.074  -0.249  0.00  0.00     0.400 C 
ATOM      7  S   UNL d   1       0.997  -4.938  -1.135  0.00  0.00    -0.041 SA
ATOM      8  H   UNL d   1      -1.554  -3.992  -0.889  0.00  0.00     0.163 HD
ATOM      9  H   UNL d   1       2.182  -2.544  -0.562  0.00  0.00     0.163 HD
ENDROOT
BRANCH   4  10
ATOM     10  C   UNL d   1      -0.708  -1.276   1.829  0.00  0.00     0.153 C 
ATOM     11  C   UNL d   1       0.012  -0.090   2.523  0.00  0.00     0.048 C 
ATOM     12  C   UNL d   1      -2.180  -1.207   2.308  0.00  0.00     0.048 C 
ATOM     13  C   UNL d   1      -0.099  -2.580   2.385  0.00  0.00     0.048 C 
ENDBRANCH   4  10
TORSDOF 1
