REMARK  6 active torsions:
REMARK  status: ('A' for Active; 'I' for Inactive)
REMARK    1  A    between atoms: C_8  and  C_1 
REMARK    2  A    between atoms: C_11  and  C_2 
REMARK    3  A    between atoms: C_9  and  N_5 
REMARK    4  A    between atoms: N_7  and  C_8 
REMARK    5  A    between atoms: O_22  and  C_14 
REMARK    6  A    between atoms: O_23  and  C_19 
ROOT
ATOM      1  C   UNL d   1       1.111   2.302  -0.490  0.00  0.00     0.016 A 
ATOM      2  C   UNL d   1       1.479   3.552  -1.097  0.00  0.00     0.067 A 
ATOM      3  N   UNL d   1       0.513   3.980  -1.926  0.00  0.00    -0.300 N 
ATOM      4  HN  UNL d   1       0.519   4.816  -2.509  1.00  0.00     0.187 HD
ATOM      5  N   UNL d   1      -0.457   3.068  -1.819  0.00  0.00    -0.311 N 
ATOM      6  C   UNL d   1      -0.166   2.060  -0.957  0.00  0.00     0.118 A 
ATOM      7  H   UNL d   1      -1.297   3.198  -2.373  0.00  0.00     0.186 HD
ENDROOT
BRANCH   1   8
ATOM      8  C   UNL d   1       1.905   1.404   0.408  0.00  0.00     0.315 C 
BRANCH   8   9
ATOM      9  N   UNL d   1       3.161   1.011  -0.234  0.00  0.00     0.096 N 
ATOM     10  C   UNL d   1       4.037   0.247   0.680  0.00  0.00     0.292 C 
ATOM     11  C   UNL d   1       3.716  -1.262   0.865  0.00  0.00     0.153 C 
ATOM     12  N   UNL d   1       3.523  -1.931  -0.436  0.00  0.00    -0.375 N 
ATOM     13  C   UNL d   1       2.540  -1.239  -1.286  0.00  0.00     0.153 C 
ATOM     14  C   UNL d   1       2.983   0.231  -1.481  0.00  0.00     0.292 C 
BRANCH  12  15
ATOM     15  C   UNL d   1       3.807  -3.290  -0.607  0.00  0.00     0.064 A 
ATOM     16  C   UNL d   1       3.974  -3.918  -1.874  0.00  0.00     0.094 A 
ATOM     17  C   UNL d   1       4.380  -5.265  -1.969  0.00  0.00     0.039 A 
ATOM     18  C   UNL d   1       4.601  -6.030  -0.830  0.00  0.00     0.003 A 
ATOM     19  C   UNL d   1       4.414  -5.457   0.416  0.00  0.00     0.002 A 
ATOM     20  C   UNL d   1       4.023  -4.117   0.518  0.00  0.00     0.032 A 
BRANCH  16  21
ATOM     21  O   UNL d   1       3.839  -3.161  -3.018  0.00  0.00    -0.354 OA
ATOM     22  C   UNL d   1       3.375  -3.857  -4.173  0.00  0.00     0.210 C 
ENDBRANCH  16  21
ENDBRANCH  12  15
ENDBRANCH   8   9
ENDBRANCH   1   8
BRANCH   2  23
ATOM     23  C   UNL d   1       2.707   4.337  -0.931  0.00  0.00    -0.007 A 
ATOM     24  C   UNL d   1       3.354   4.895  -2.040  0.00  0.00     0.016 A 
ATOM     25  C   UNL d   1       4.517   5.663  -1.887  0.00  0.00     0.037 A 
ATOM     26  C   UNL d   1       5.040   5.888  -0.613  0.00  0.00     0.068 A 
ATOM     27  C   UNL d   1       4.382   5.361   0.498  0.00  0.00     0.037 A 
ATOM     28  C   UNL d   1       3.226   4.589   0.345  0.00  0.00     0.016 A 
BRANCH  26  29
ATOM     29  O   UNL d   1       6.149   6.634  -0.330  0.00  0.00    -0.356 OA
ATOM     30  C   UNL d   1       7.121   6.720  -1.364  0.00  0.00     0.210 C 
ENDBRANCH  26  29
ENDBRANCH   2  23
TORSDOF 6
