REMARK  3 active torsions:
REMARK  status: ('A' for Active; 'I' for Inactive)
REMARK    1  A    between atoms: N_2  and  C_1 
REMARK    2  A    between atoms: C_5  and  C_4 
REMARK       I    between atoms: N_8  and  C_5 
REMARK    3  A    between atoms: C_13  and  N_8 
ROOT
ATOM      1  C   UNL d   1      -0.800  -2.276  -0.087  0.00  0.00     0.280 C 
ATOM      2  N   UNL d   1      -2.164  -2.479   0.051  0.00  0.00    -0.321 N 
ATOM      3  O   UNL d   1      -0.275  -1.192  -0.316  0.00  0.00    -0.265 OA
ATOM      4  H   UNL d   1      -2.443  -3.400   0.370  0.00  0.00     0.169 HD
ENDROOT
BRANCH   1   5
ATOM      5  C   UNL d   1       0.009  -3.472   0.071  0.00  0.00     0.146 A 
ATOM      6  O   UNL d   1      -0.578  -4.698   0.277  0.00  0.00    -0.283 OA
ATOM      7  C   UNL d   1       0.447  -5.598   0.335  0.00  0.00     0.215 A 
ATOM      8  C   UNL d   1       1.671  -4.993   0.187  0.00  0.00     0.066 A 
ATOM      9  C   UNL d   1       1.387  -3.617   0.021  0.00  0.00     0.047 A 
BRANCH   7  10
ATOM     10  N   UNL d   1       0.090  -6.970   0.522  0.00  0.00    -0.090 N 
ATOM     11  O   UNL d   1       1.024  -7.780   0.574  0.00  0.00    -0.530 OA
ATOM     12  O   UNL d   1      -1.113  -7.240   0.621  0.00  0.00    -0.530 OA
ENDBRANCH   7  10
ENDBRANCH   1   5
BRANCH   2  13
ATOM     13  C   UNL d   1      -3.185  -1.527  -0.168  0.00  0.00     0.036 A 
ATOM     14  C   UNL d   1      -2.962  -0.284  -0.775  0.00  0.00     0.056 A 
ATOM     15  C   UNL d   1      -4.020   0.604  -0.986  0.00  0.00     0.074 A 
ATOM     16 CL   UNL d   1      -3.717   2.115  -1.756  0.00  0.00    -0.081 Cl
ATOM     17  C   UNL d   1      -5.306   0.259  -0.587  0.00  0.00     0.138 A 
ATOM     18  C   UNL d   1      -5.547  -0.971   0.015  0.00  0.00     0.046 A 
ATOM     19  F   UNL d   1      -6.335   1.098  -0.780  0.00  0.00    -0.204 F 
ATOM     20  C   UNL d   1      -4.490  -1.866   0.217  0.00  0.00     0.032 A 
ENDBRANCH   2  13
TORSDOF 3
