REMARK  4 active torsions:
REMARK  status: ('A' for Active; 'I' for Inactive)
REMARK    1  A    between atoms: C_10  and  N_1 
REMARK    2  A    between atoms: C_14  and  N_6 
REMARK    3  A    between atoms: C_9  and  C_7 
REMARK    4  A    between atoms: O_21  and  C_11 
ROOT
ATOM      1  N   UNL d   1      -1.747   0.114   0.749  0.00  0.00    -0.248 N 
ATOM      2  C   UNL d   1      -0.094  -0.790  -0.593  0.00  0.00     0.260 C 
ATOM      3  C   UNL d   1       0.041   0.709  -0.667  0.00  0.00     0.149 C 
ATOM      4  C   UNL d   1      -1.374  -1.051   0.131  0.00  0.00     0.263 C 
ATOM      5  C   UNL d   1      -0.962   1.177   0.366  0.00  0.00     0.241 C 
ATOM      6  N   UNL d   1       1.712  -0.203   0.661  0.00  0.00    -0.247 N 
ATOM      7  C   UNL d   1       1.455   0.968  -0.179  0.00  0.00     0.167 C 
ATOM      8  O   UNL d   1       0.888  -1.287   0.333  0.00  0.00    -0.261 OA
ATOM      9  O   UNL d   1      -1.915  -2.149   0.213  0.00  0.00    -0.270 OA
ATOM     10  O   UNL d   1      -0.998   2.324   0.787  0.00  0.00    -0.272 OA
ENDROOT
BRANCH   7  11
ATOM     11  C   UNL d   1       2.515   1.058  -1.274  0.00  0.00     0.002 A 
ATOM     12  C   UNL d   1       3.174  -0.050  -1.836  0.00  0.00     0.074 A 
ATOM     13  C   UNL d   1       4.167   0.094  -2.803  0.00  0.00     0.038 A 
ATOM     14  C   UNL d   1       4.558   1.364  -3.214  0.00  0.00     0.022 A 
ATOM     15  C   UNL d   1       3.935   2.478  -2.662  0.00  0.00     0.011 A 
ATOM     16  C   UNL d   1       2.913   2.335  -1.717  0.00  0.00     0.031 A 
ATOM     17 BR   UNL d   1       4.506   4.208  -3.171  0.00  0.00    -0.051 Br
BRANCH  12  18
ATOM     18  O   UNL d   1       2.934  -1.338  -1.450  0.00  0.00    -0.360 OA
ATOM     19  H   UNL d   1       2.593  -1.316  -0.529  0.00  0.00     0.217 HD
ENDBRANCH  12  18
ENDBRANCH   7  11
BRANCH   6  20
ATOM     20  C   UNL d   1       2.395  -0.145   1.874  0.00  0.00     0.058 A 
ATOM     21  C   UNL d   1       2.157  -1.113   2.862  0.00  0.00     0.031 A 
ATOM     22  C   UNL d   1       2.861  -1.111   4.067  0.00  0.00     0.002 A 
ATOM     23  C   UNL d   1       3.838  -0.150   4.299  0.00  0.00     0.000 A 
ATOM     24  C   UNL d   1       4.099   0.815   3.331  0.00  0.00     0.002 A 
ATOM     25  C   UNL d   1       3.378   0.820   2.135  0.00  0.00     0.031 A 
ENDBRANCH   6  20
BRANCH   1  26
ATOM     26  C   UNL d   1      -2.495   0.106   1.948  0.00  0.00     0.067 A 
ATOM     27  C   UNL d   1      -3.668   0.849   2.107  0.00  0.00     0.061 A 
ATOM     28 CL   UNL d   1      -4.356   1.753   0.805  0.00  0.00    -0.082 Cl
ATOM     29  C   UNL d   1      -4.370   0.798   3.317  0.00  0.00     0.026 A 
ATOM     30  C   UNL d   1      -3.892   0.024   4.381  0.00  0.00     0.002 A 
ATOM     31  C   UNL d   1      -2.722  -0.711   4.233  0.00  0.00     0.002 A 
ATOM     32  C   UNL d   1      -2.031  -0.681   3.021  0.00  0.00     0.032 A 
ENDBRANCH   1  26
TORSDOF 4
