REMARK  3 active torsions:
REMARK  status: ('A' for Active; 'I' for Inactive)
REMARK    1  A    between atoms: C_4  and  C_2 
REMARK    2  A    between atoms: C_11  and  C_3 
REMARK       I    between atoms: N_5  and  C_4 
REMARK    3  A    between atoms: C_8  and  N_5 
ROOT
ATOM      1  S   UNL d   1      -0.913  -0.024  -0.529  0.00  0.00    -0.084 SA
ATOM      2  C   UNL d   1       0.191   1.231  -0.168  0.00  0.00     0.073 A 
ATOM      3  C   UNL d   1       0.247  -1.254  -0.197  0.00  0.00     0.016 A 
ATOM      4  C   UNL d   1       1.444   0.722   0.115  0.00  0.00     0.026 A 
ATOM      5  C   UNL d   1       1.480  -0.695   0.091  0.00  0.00     0.021 A 
ENDROOT
BRANCH   2   6
ATOM      6  C   UNL d   1      -0.159   2.648  -0.110  0.00  0.00     0.263 C 
ATOM      7  N   UNL d   1      -1.418   2.998  -0.579  0.00  0.00    -0.320 N 
ATOM      8  H   UNL d   1      -2.050   2.227  -0.757  0.00  0.00     0.169 HD
ATOM      9  O   UNL d   1       0.624   3.444   0.404  0.00  0.00    -0.267 OA
BRANCH   7  10
ATOM     10  C   UNL d   1      -1.962   4.309  -0.564  0.00  0.00     0.074 A 
ATOM     11  C   UNL d   1      -1.200   5.491  -0.545  0.00  0.00     0.146 A 
ATOM     12  C   UNL d   1      -1.800   6.741  -0.411  0.00  0.00     0.086 A 
ATOM     13  F   UNL d   1       0.124   5.480  -0.745  0.00  0.00    -0.204 F 
ATOM     14  C   UNL d   1      -3.179   6.822  -0.342  0.00  0.00     0.119 A 
ATOM     15  C   UNL d   1      -3.965   5.679  -0.435  0.00  0.00     0.044 A 
ATOM     16  F   UNL d   1      -3.764   8.019  -0.202  0.00  0.00    -0.206 F 
ATOM     17  C   UNL d   1      -3.359   4.423  -0.556  0.00  0.00     0.036 A 
ENDBRANCH   7  10
ENDBRANCH   2   6
BRANCH   3  18
ATOM     18  C   UNL d   1      -0.113  -2.682  -0.180  0.00  0.00    -0.019 A 
ATOM     19  C   UNL d   1      -0.996  -3.250  -1.109  0.00  0.00     0.014 A 
ATOM     20  C   UNL d   1      -1.304  -4.616  -1.058  0.00  0.00     0.024 A 
ATOM     21  C   UNL d   1      -0.730  -5.424  -0.079  0.00  0.00     0.034 A 
ATOM     22  C   UNL d   1       0.152  -4.883   0.849  0.00  0.00     0.024 A 
ATOM     23 CL   UNL d   1      -1.113  -7.101  -0.015  0.00  0.00    -0.084 Cl
ATOM     24  C   UNL d   1       0.458  -3.520   0.796  0.00  0.00     0.014 A 
ENDBRANCH   3  18
TORSDOF 3
