REMARK  10 active torsions:
REMARK  status: ('A' for Active; 'I' for Inactive)
REMARK    1  A    between atoms: N_2  and  C_1 
REMARK    2  A    between atoms: S_11  and  C_1 
REMARK       I    between atoms: C_5  and  N_2 
REMARK    3  A    between atoms: C_6  and  N_3 
REMARK    4  A    between atoms: C_7  and  C_5 
REMARK    5  A    between atoms: C_20  and  C_16 
REMARK    6  A    between atoms: C_21  and  C_20 
REMARK    7  A    between atoms: C_24  and  C_21 
REMARK    8  A    between atoms: C_22  and  C_23 
REMARK    9  A    between atoms: C_23  and  C_25 
REMARK   10  A    between atoms: C_25  and  C_24 
ROOT
ATOM      1  N   UNL d   1       2.275   0.186  -0.501  0.00  0.00    -0.303 N 
ATOM      2  C   UNL d   1       3.303  -0.570  -1.066  0.00  0.00     0.257 C 
ATOM      3  O   UNL d   1       4.401  -0.789  -0.577  0.00  0.00    -0.267 OA
ATOM      4  H   UNL d   1       1.409   0.234  -1.013  0.00  0.00     0.171 HD
ENDROOT
BRANCH   2   5
ATOM      5  C   UNL d   1       2.901  -1.238  -2.346  0.00  0.00     0.032 C 
ATOM      6  C   UNL d   1       1.964  -0.656  -3.212  0.00  0.00     0.017 C 
ATOM      7  C   UNL d   1       1.322  -1.440  -4.172  0.00  0.00     0.008 C 
ATOM      8  C   UNL d   1       1.632  -2.799  -4.290  0.00  0.00    -0.058 C 
ATOM      9  C   UNL d   1       2.712  -3.318  -3.562  0.00  0.00     0.008 C 
ATOM     10  C   UNL d   1       3.341  -2.542  -2.585  0.00  0.00     0.017 C 
BRANCH   8  11
ATOM     11  C   UNL d   1       0.741  -3.711  -5.101  0.00  0.00     0.038 C 
BRANCH  11  12
ATOM     12  C   UNL d   1       0.044  -4.785  -4.242  0.00  0.00     0.005 C 
BRANCH  12  13
ATOM     13  C   UNL d   1      -0.854  -4.222  -3.126  0.00  0.00     0.000 C 
BRANCH  13  14
ATOM     14  C   UNL d   1      -1.503  -5.354  -2.321  0.00  0.00     0.000 C 
BRANCH  14  15
ATOM     15  C   UNL d   1      -2.388  -4.828  -1.187  0.00  0.00    -0.000 C 
BRANCH  15  16
ATOM     16  C   UNL d   1      -3.018  -5.980  -0.400  0.00  0.00    -0.005 C 
ATOM     17  C   UNL d   1      -3.903  -5.478   0.731  0.00  0.00     0.005 C 
ENDBRANCH  15  16
ENDBRANCH  14  15
ENDBRANCH  13  14
ENDBRANCH  12  13
ENDBRANCH  11  12
ENDBRANCH   8  11
ENDBRANCH   2   5
BRANCH   1  18
ATOM     18  C   UNL d   1       2.155   0.826   0.706  0.00  0.00     0.148 C 
ATOM     19  N   UNL d   1       3.077   0.851   1.606  0.00  0.00    -0.323 N 
ATOM     20  HN  UNL d   1       3.952   0.359   1.428  1.00  0.00     0.169 HD
BRANCH  19  21
ATOM     21  C   UNL d   1       2.918   1.528   2.818  0.00  0.00     0.106 A 
ATOM     22  N   UNL d   1       2.277   2.713   2.808  0.00  0.00    -0.352 N 
ATOM     23  C   UNL d   1       2.046   3.312   3.992  0.00  0.00     0.089 A 
ATOM     24  HN  UNL d   1       1.976   3.142   1.933  1.00  0.00     0.166 HD
ATOM     25  C   UNL d   1       2.458   2.800   5.207  0.00  0.00     0.017 A 
ATOM     26  C   UNL d   1       3.186   1.617   5.200  0.00  0.00     0.005 A 
ATOM     27  C   UNL d   1       3.426   0.974   3.986  0.00  0.00     0.048 A 
ENDBRANCH  19  21
BRANCH  18  28
ATOM     28  S   UNL d   1       0.545   1.533   0.710  0.00  0.00    -0.098 SA
ATOM     29  C   UNL d   1      -0.344   0.348   1.735  0.00  0.00     0.099 C 
ENDBRANCH  18  28
ENDBRANCH   1  18
TORSDOF 10
