REMARK  1 active torsions:
REMARK  status: ('A' for Active; 'I' for Inactive)
REMARK    1  A    between atoms: C_6  and  N_5 
ROOT
ATOM      1  C   UNL d   1       3.058   0.720  -0.828  0.00  0.00     0.141 C 
ATOM      2  N   UNL d   1       4.282   0.980  -1.151  0.00  0.00    -0.370 N 
ATOM      3  HN  UNL d   1       4.758   1.863  -0.968  1.00  0.00     0.161 HD
ATOM      4  S   UNL d   1       2.406  -0.803  -1.404  0.00  0.00    -0.088 SA
ATOM      5  N   UNL d   1       2.196   1.485  -0.102  0.00  0.00    -0.337 N 
ATOM      6  C   UNL d   1       4.890  -0.183  -1.820  0.00  0.00     0.137 C 
ATOM      7  C   UNL d   1       3.815  -0.997  -2.528  0.00  0.00     0.069 C 
ATOM      8  C   UNL d   1       3.506  -0.448  -3.917  0.00  0.00     0.023 C 
ATOM      9  H   UNL d   1       1.296   1.065   0.082  0.00  0.00     0.168 HD
ENDROOT
BRANCH   5  10
ATOM     10  C   UNL d   1       2.154   2.896  -0.107  0.00  0.00     0.040 A 
ATOM     11  C   UNL d   1       1.676   3.601   1.016  0.00  0.00    -0.035 A 
ATOM     12  C   UNL d   1       1.265   2.922   2.295  0.00  0.00     0.050 C 
ATOM     13  C   UNL d   1       1.596   5.006   0.970  0.00  0.00     0.009 A 
ATOM     14  C   UNL d   1       1.996   5.709  -0.165  0.00  0.00     0.001 A 
ATOM     15  C   UNL d   1       2.483   5.019  -1.267  0.00  0.00     0.002 A 
ATOM     16  C   UNL d   1       2.563   3.626  -1.235  0.00  0.00     0.030 A 
ENDBRANCH   5  10
TORSDOF 1
