REMARK  4 active torsions:
REMARK  status: ('A' for Active; 'I' for Inactive)
REMARK       I    between atoms: N_2  and  C_1 
REMARK    1  A    between atoms: C_3  and  C_1 
REMARK    2  A    between atoms: N_4  and  N_2 
REMARK    3  A    between atoms: C_5  and  N_4 
REMARK    4  A    between atoms: C_6  and  C_7 
ROOT
ATOM      1  C   UNL d   1       0.959  -0.076  -0.050  0.00  0.00     0.266 C 
ATOM      2  N   UNL d   1       2.301  -0.016  -0.389  0.00  0.00    -0.283 N 
ATOM      3  O   UNL d   1       0.425  -1.096   0.380  0.00  0.00    -0.266 OA
ATOM      4  H   UNL d   1       2.697   0.743  -0.924  0.00  0.00     0.184 HD
ENDROOT
BRANCH   1   5
ATOM      5  C   UNL d   1       0.190   1.194  -0.192  0.00  0.00     0.033 A 
ATOM      6  C   UNL d   1       0.576   2.229  -1.048  0.00  0.00     0.017 A 
ATOM      7  C   UNL d   1      -0.153   3.425  -1.083  0.00  0.00     0.009 A 
ATOM      8  C   UNL d   1      -1.288   3.621  -0.274  0.00  0.00    -0.051 A 
ATOM      9  C   UNL d   1      -1.679   2.554   0.552  0.00  0.00     0.009 A 
ATOM     10  C   UNL d   1      -0.954   1.357   0.591  0.00  0.00     0.017 A 
BRANCH   8  11
ATOM     11  C   UNL d   1      -2.039   4.965  -0.306  0.00  0.00    -0.024 C 
ATOM     12  C   UNL d   1      -3.251   5.013   0.651  0.00  0.00     0.019 C 
ATOM     13  C   UNL d   1      -1.082   6.104   0.108  0.00  0.00     0.019 C 
ATOM     14  C   UNL d   1      -2.566   5.247  -1.728  0.00  0.00     0.019 C 
ENDBRANCH   8  11
ENDBRANCH   1   5
BRANCH   2  15
ATOM     15  N   UNL d   1       3.013  -1.216  -0.411  0.00  0.00    -0.203 NA
ATOM     16  H   UNL d   1       2.477  -1.988   0.009  0.00  0.00     0.153 HD
BRANCH  15  17
ATOM     17  C   UNL d   1       4.345  -1.157   0.064  0.00  0.00     0.030 A 
ATOM     18  C   UNL d   1       5.013   0.037   0.374  0.00  0.00     0.049 A 
ATOM     19  C   UNL d   1       6.368   0.028   0.717  0.00  0.00     0.037 A 
ATOM     20 CL   UNL d   1       7.158   1.512   1.095  0.00  0.00    -0.084 Cl
ATOM     21  C   UNL d   1       7.089  -1.159   0.740  0.00  0.00     0.047 A 
ATOM     22  C   UNL d   1       6.438  -2.347   0.427  0.00  0.00     0.037 A 
ATOM     23  C   UNL d   1       5.082  -2.350   0.091  0.00  0.00     0.049 A 
ATOM     24 CL   UNL d   1       7.319  -3.825   0.425  0.00  0.00    -0.084 Cl
ENDBRANCH  15  17
ENDBRANCH   2  15
TORSDOF 4
