REMARK  3 active torsions:
REMARK  status: ('A' for Active; 'I' for Inactive)
REMARK    1  A    between atoms: C_5  and  C_1 
REMARK    2  A    between atoms: C_10  and  C_5 
REMARK    3  A    between atoms: N_7  and  C_10 
ROOT
ATOM      1  C   UNL d   1       2.426  -0.087  -0.188  0.00  0.00     0.060 A 
ATOM      2  S   UNL d   1       1.687   1.447   0.065  0.00  0.00    -0.085 SA
ATOM      3  C   UNL d   1       1.465  -1.081  -0.355  0.00  0.00    -0.029 A 
ATOM      4  C   UNL d   1       0.113  -0.564  -0.152  0.00  0.00    -0.010 A 
ATOM      5  C   UNL d   1       0.101   0.817   0.029  0.00  0.00     0.016 A 
ATOM      6  C   UNL d   1      -1.142  -1.234  -0.151  0.00  0.00     0.037 A 
ATOM      7  C   UNL d   1      -1.099   1.545   0.162  0.00  0.00     0.021 A 
ATOM      8  C   UNL d   1      -2.332  -0.518   0.005  0.00  0.00     0.035 A 
ATOM      9  C   UNL d   1       1.683  -2.513  -0.730  0.00  0.00     0.050 C 
ATOM     10  C   UNL d   1      -2.316   0.860   0.145  0.00  0.00     0.025 A 
ATOM     11 CL   UNL d   1      -3.834  -1.359   0.018  0.00  0.00    -0.084 Cl
ENDROOT
BRANCH   1  12
ATOM     12  C   UNL d   1       3.895  -0.075  -0.222  0.00  0.00     0.184 C 
ATOM     13  O   UNL d   1       4.537   0.946  -0.511  0.00  0.00    -0.290 OA
BRANCH  12  14
ATOM     14  C   UNL d   1       4.699  -1.317   0.087  0.00  0.00     0.213 C 
BRANCH  14  15
ATOM     15  N   UNL d   1       4.516  -1.828   1.430  0.00  0.00    -0.344 N 
ATOM     16  C   UNL d   1       4.733  -1.137   2.589  0.00  0.00     0.182 A 
ATOM     17  N   UNL d   1       4.578  -1.912   3.638  0.00  0.00    -0.361 N 
ATOM     18  C   UNL d   1       4.294  -3.156   3.138  0.00  0.00     0.106 A 
ATOM     19  HN  UNL d   1       4.654  -1.644   4.620  1.00  0.00     0.166 HD
ATOM     20  C   UNL d   1       4.263  -3.131   1.764  0.00  0.00     0.109 A 
ENDBRANCH  14  15
ENDBRANCH  12  14
ENDBRANCH   1  12
TORSDOF 3
