REMARK  4 active torsions:
REMARK  status: ('A' for Active; 'I' for Inactive)
REMARK    1  A    between atoms: N_6  and  S_1 
REMARK    2  A    between atoms: C_11  and  S_1 
REMARK    3  A    between atoms: C_10  and  O_17 
REMARK    4  A    between atoms: O_17  and  C_25 
ROOT
ATOM      1  C   UNL d   1      -0.674   5.365  -0.650  0.00  0.00     0.147 A 
ATOM      2  N   UNL d   1      -1.725   6.146  -0.543  0.00  0.00    -0.336 N 
ATOM      3  HN  UNL d   1      -2.306   6.217   0.292  1.00  0.00     0.168 HD
ATOM      4  S   UNL d   1       0.071   5.418  -2.214  0.00  0.00    -0.052 SA
ATOM      5  N   UNL d   1       0.559   1.635   0.449  0.00  0.00    -0.205 NA
ATOM      6  N   UNL d   1      -0.224   4.564   0.360  0.00  0.00    -0.360 N 
ATOM      7  C   UNL d   1      -1.083   6.561  -2.759  0.00  0.00     0.036 A 
ATOM      8  C   UNL d   1      -1.944   6.861  -1.707  0.00  0.00     0.051 A 
ATOM      9  C   UNL d   1       1.359   2.726  -0.217  0.00  0.00     0.127 C 
ATOM     10  C   UNL d   1      -1.208   7.158  -4.024  0.00  0.00     0.045 A 
ATOM     11  C   UNL d   1       1.156   4.093   0.448  0.00  0.00     0.140 C 
ATOM     12  C   UNL d   1      -2.943   7.836  -1.908  0.00  0.00     0.032 A 
ATOM     13  C   UNL d   1      -2.215   8.109  -4.199  0.00  0.00     0.035 A 
ATOM     14  C   UNL d   1      -1.541   2.699   1.348  0.00  0.00     0.035 C 
ATOM     15  C   UNL d   1      -0.920   1.849   0.244  0.00  0.00     0.109 C 
ATOM     16  C   UNL d   1      -1.118   4.167   1.436  0.00  0.00     0.126 C 
ATOM     17  C   UNL d   1      -3.067   8.458  -3.156  0.00  0.00     0.026 A 
ATOM     18 CL   UNL d   1      -2.398   8.865  -5.735  0.00  0.00    -0.084 Cl
ENDROOT
BRANCH   5  19
ATOM     19  S   UNL d   1       1.023   0.060  -0.085  0.00  0.00     0.243 S 
ATOM     20  O   UNL d   1       0.938   0.064  -1.532  0.00  0.00    -0.206 OA
ATOM     21  O   UNL d   1       0.313  -0.918   0.707  0.00  0.00    -0.206 OA
BRANCH  19  22
ATOM     22  C   UNL d   1       2.742  -0.071   0.359  0.00  0.00     0.074 A 
ATOM     23  C   UNL d   1       3.127   0.125   1.688  0.00  0.00     0.027 A 
ATOM     24  C   UNL d   1       4.475  -0.003   2.042  0.00  0.00     0.038 A 
ATOM     25  C   UNL d   1       5.424  -0.364   1.083  0.00  0.00     0.078 A 
ATOM     26  C   UNL d   1       5.027  -0.516  -0.252  0.00  0.00     0.038 A 
ATOM     27  C   UNL d   1       3.689  -0.377  -0.620  0.00  0.00     0.027 A 
BRANCH  25  28
ATOM     28  O   UNL d   1       6.755  -0.550   1.296  0.00  0.00    -0.255 OA
BRANCH  28  29
ATOM     29  C   UNL d   1       7.199  -1.046   2.551  0.00  0.00     0.530 C 
ATOM     30  F   UNL d   1       6.212  -1.536   3.330  0.00  0.00    -0.144 F 
ATOM     31  F   UNL d   1       8.082  -2.045   2.327  0.00  0.00    -0.144 F 
ATOM     32  F   UNL d   1       7.837  -0.062   3.220  0.00  0.00    -0.144 F 
ENDBRANCH  28  29
ENDBRANCH  25  28
ENDBRANCH  19  22
ENDBRANCH   5  19
TORSDOF 4
