REMARK  4 active torsions:
REMARK  status: ('A' for Active; 'I' for Inactive)
REMARK    1  A    between atoms: C_3  and  C_1 
REMARK    2  A    between atoms: C_2  and  C_4 
REMARK    3  A    between atoms: C_9  and  C_5 
REMARK    4  A    between atoms: O_16  and  C_9 
ROOT
ATOM      1  C   UNL d   1       0.548   0.346   1.407  0.00  0.00     0.049 A 
ATOM      2  C   UNL d   1      -0.073  -0.458   3.623  0.00  0.00     0.049 A 
ATOM      3  C   UNL d   1       0.337   1.938   3.272  0.00  0.00    -0.023 A 
ATOM      4  C   UNL d   1       0.194  -0.702   2.268  0.00  0.00     0.032 A 
ATOM      5  C   UNL d   1       0.002   0.861   4.109  0.00  0.00     0.026 A 
ATOM      6  C   UNL d   1       0.619   1.653   1.921  0.00  0.00     0.026 A 
ENDROOT
BRANCH   3   7
ATOM      7  C   UNL d   1       0.470   3.366   3.800  0.00  0.00     0.077 C 
ATOM      8  C   UNL d   1      -0.494   3.710   4.944  0.00  0.00     0.051 C 
ATOM      9  C   UNL d   1       1.914   3.621   4.240  0.00  0.00     0.051 C 
BRANCH   7  10
ATOM     10  O   UNL d   1       0.176   4.291   2.745  0.00  0.00    -0.386 OA
ATOM     11  H   UNL d   1      -0.713   4.075   2.415  0.00  0.00     0.211 HD
ENDBRANCH   7  10
ENDBRANCH   3   7
BRANCH   1  12
ATOM     12  C   UNL d   1       0.856   0.094  -0.050  0.00  0.00     0.417 C 
ATOM     13  F   UNL d   1       0.835  -1.226  -0.388  0.00  0.00    -0.166 F 
ATOM     14  F   UNL d   1       2.087   0.551  -0.410  0.00  0.00    -0.166 F 
ATOM     15  F   UNL d   1      -0.031   0.706  -0.881  0.00  0.00    -0.166 F 
ENDBRANCH   1  12
BRANCH   2  16
ATOM     16  C   UNL d   1      -0.424  -1.585   4.567  0.00  0.00     0.417 C 
ATOM     17  F   UNL d   1      -0.416  -2.812   3.979  0.00  0.00    -0.166 F 
ATOM     18  F   UNL d   1       0.440  -1.667   5.617  0.00  0.00    -0.166 F 
ATOM     19  F   UNL d   1      -1.662  -1.437   5.113  0.00  0.00    -0.166 F 
ENDBRANCH   2  16
TORSDOF 4
