REMARK  4 active torsions:
REMARK  status: ('A' for Active; 'I' for Inactive)
REMARK    1  A    between atoms: S_3  and  N_8 
REMARK    2  A    between atoms: C_12  and  S_3 
REMARK    3  A    between atoms: N_10  and  C_4 
REMARK    4  A    between atoms: C_11  and  C_5 
ROOT
ATOM      1  N   UNL d   1      -0.435  -5.415  -0.229  0.00  0.00    -0.203 NA
ATOM      2  N   UNL d   1       0.344  -2.602  -0.450  0.00  0.00    -0.358 N 
ATOM      3  C   UNL d   1      -0.804  -4.602  -1.421  0.00  0.00     0.127 C 
ATOM      4  C   UNL d   1       0.873  -4.950   0.327  0.00  0.00     0.127 C 
ATOM      5  C   UNL d   1      -0.897  -3.107  -1.081  0.00  0.00     0.140 C 
ATOM      6  C   UNL d   1       0.864  -3.439   0.662  0.00  0.00     0.140 C 
ENDROOT
BRANCH   2   7
ATOM      7  C   UNL d   1       0.446  -1.244  -0.243  0.00  0.00     0.165 A 
ATOM      8  N   UNL d   1       1.180  -0.673   0.691  0.00  0.00    -0.320 N 
ATOM      9  C   UNL d   1       1.012   0.712   0.656  0.00  0.00     0.131 A 
ATOM     10  HN  UNL d   1       1.784  -1.172   1.345  1.00  0.00     0.169 HD
ATOM     11  N   UNL d   1       0.211   1.239  -0.274  0.00  0.00    -0.308 N 
ATOM     12  S   UNL d   1      -0.361  -0.021  -1.185  0.00  0.00     0.024 SA
ATOM     13  HN  UNL d   1      -0.007   2.227  -0.400  1.00  0.00     0.176 HD
BRANCH   9  14
ATOM     14  C   UNL d   1       1.717   1.609   1.640  0.00  0.00     0.049 A 
ATOM     15  S   UNL d   1       2.835   1.060   2.808  0.00  0.00    -0.098 SA
ATOM     16  C   UNL d   1       3.121   2.650   3.376  0.00  0.00     0.050 A 
ATOM     17  C   UNL d   1       2.356   3.582   2.710  0.00  0.00     0.009 A 
ATOM     18  C   UNL d   1       1.542   2.979   1.706  0.00  0.00     0.023 A 
ENDBRANCH   9  14
ENDBRANCH   2   7
BRANCH   1  19
ATOM     19  S   UNL d   1      -1.675  -5.725   0.889  0.00  0.00     0.243 S 
ATOM     20  O   UNL d   1      -1.343  -5.094   2.145  0.00  0.00    -0.206 OA
ATOM     21  O   UNL d   1      -2.949  -5.481   0.240  0.00  0.00    -0.206 OA
BRANCH  19  22
ATOM     22  C   UNL d   1      -1.545  -7.490   1.122  0.00  0.00     0.074 A 
ATOM     23  C   UNL d   1      -0.786  -8.000   2.181  0.00  0.00     0.026 A 
ATOM     24  C   UNL d   1      -0.816  -9.371   2.456  0.00  0.00     0.025 A 
ATOM     25  C   UNL d   1      -1.610 -10.219   1.682  0.00  0.00     0.034 A 
ATOM     26  C   UNL d   1      -2.356  -9.715   0.617  0.00  0.00     0.025 A 
ATOM     27 CL   UNL d   1      -1.698 -11.895   2.067  0.00  0.00    -0.084 Cl
ATOM     28  C   UNL d   1      -2.327  -8.346   0.335  0.00  0.00     0.026 A 
ENDBRANCH  19  22
ENDBRANCH   1  19
TORSDOF 4
