REMARK  12 active torsions:
REMARK  status: ('A' for Active; 'I' for Inactive)
REMARK    1  A    between atoms: C_15  and  C_1 
REMARK    2  A    between atoms: C_2  and  C_14 
REMARK    3  A    between atoms: O_29  and  C_3 
REMARK    4  A    between atoms: C_4  and  N_6 
REMARK    5  A    between atoms: N_8  and  C_5 
REMARK    6  A    between atoms: O_31  and  C_12 
REMARK    7  A    between atoms: O_32  and  C_13 
REMARK    8  A    between atoms: C_20  and  C_30 
REMARK    9  A    between atoms: O_36  and  C_20 
REMARK   10  A    between atoms: C_35  and  C_25 
REMARK   11  A    between atoms: C_30  and  C_35 
REMARK   12  A    between atoms: C_37  and  O_36 
ROOT
ATOM      1  C   UNL d   1      -0.439   6.193   0.915  0.00  0.00     0.119 A 
ATOM      2  C   UNL d   1       0.539   5.658   0.057  0.00  0.00     0.068 A 
ATOM      3  C   UNL d   1      -0.772   7.559   0.908  0.00  0.00     0.068 A 
ATOM      4  C   UNL d   1      -0.057   8.396   0.041  0.00  0.00     0.039 A 
ATOM      5  C   UNL d   1       1.250   6.531  -0.771  0.00  0.00     0.039 A 
ATOM      6  C   UNL d   1       0.955   7.901  -0.796  0.00  0.00    -0.053 A 
ENDROOT
BRANCH   2   7
ATOM      7  N   UNL d   1       0.789   4.264   0.115  0.00  0.00    -0.363 N 
ATOM      8  C   UNL d   1       0.995   3.639  -1.005  0.00  0.00     0.102 C 
ATOM      9  HN  UNL d   1       0.805   3.768   1.006  1.00  0.00     0.165 HD
BRANCH   8  10
ATOM     10  C   UNL d   1       1.283   2.189  -1.050  0.00  0.00     0.016 A 
ATOM     11  C   UNL d   1       1.703   1.596  -2.245  0.00  0.00     0.099 A 
ATOM     12  C   UNL d   1       1.970   0.222  -2.281  0.00  0.00     0.069 A 
ATOM     13 CL   UNL d   1       2.499  -0.524  -3.744  0.00  0.00    -0.081 Cl
ATOM     14  C   UNL d   1       1.814  -0.560  -1.139  0.00  0.00     0.050 A 
ATOM     15  C   UNL d   1       1.395   0.041   0.048  0.00  0.00     0.036 A 
ATOM     16  C   UNL d   1       1.133   1.409   0.101  0.00  0.00     0.039 A 
ATOM     17 CL   UNL d   1       1.194  -0.921   1.460  0.00  0.00    -0.084 Cl
BRANCH  11  18
ATOM     18  O   UNL d   1       1.862   2.365  -3.369  0.00  0.00    -0.358 OA
ATOM     19  H   UNL d   1       2.173   1.783  -4.089  0.00  0.00     0.217 HD
ENDBRANCH  11  18
ENDBRANCH   8  10
ENDBRANCH   2   7
BRANCH   1  20
ATOM     20  O   UNL d   1      -1.058   5.317   1.782  0.00  0.00    -0.356 OA
ATOM     21  H   UNL d   1      -0.599   4.469   1.616  0.00  0.00     0.218 HD
ENDBRANCH   1  20
BRANCH   3  22
ATOM     22  N   UNL d   1      -1.735   8.175   1.737  0.00  0.00    -0.363 N 
ATOM     23  C   UNL d   1      -2.876   7.579   1.896  0.00  0.00     0.102 C 
ATOM     24  HN  UNL d   1      -1.538   9.063   2.199  1.00  0.00     0.165 HD
BRANCH  23  25
ATOM     25  C   UNL d   1      -3.948   8.157   2.734  0.00  0.00     0.016 A 
ATOM     26  C   UNL d   1      -5.088   7.401   3.030  0.00  0.00     0.099 A 
ATOM     27  C   UNL d   1      -6.114   7.963   3.799  0.00  0.00     0.069 A 
ATOM     28 CL   UNL d   1      -7.525   7.042   4.172  0.00  0.00    -0.081 Cl
ATOM     29  C   UNL d   1      -6.014   9.271   4.267  0.00  0.00     0.050 A 
ATOM     30  C   UNL d   1      -4.873  10.016   3.970  0.00  0.00     0.036 A 
ATOM     31  C   UNL d   1      -3.838   9.469   3.214  0.00  0.00     0.039 A 
ATOM     32 CL   UNL d   1      -4.755  11.637   4.537  0.00  0.00    -0.084 Cl
BRANCH  26  33
ATOM     33  O   UNL d   1      -5.191   6.115   2.568  0.00  0.00    -0.358 OA
ATOM     34  H   UNL d   1      -6.020   5.736   2.916  0.00  0.00     0.217 HD
ENDBRANCH  26  33
ENDBRANCH  23  25
ENDBRANCH   3  22
BRANCH   6  35
ATOM     35  C   UNL d   1       1.720   8.818  -1.717  0.00  0.00     0.048 C 
BRANCH  35  36
ATOM     36  C   UNL d   1       2.567   9.834  -0.956  0.00  0.00     0.116 C 
BRANCH  36  37
ATOM     37  C   UNL d   1       3.502  10.559  -1.889  0.00  0.00     0.259 C 
ATOM     38  O   UNL d   1       3.580  10.377  -3.096  0.00  0.00    -0.265 OA
BRANCH  37  39
ATOM     39  O   UNL d   1       4.293  11.399  -1.165  0.00  0.00    -0.322 OA
BRANCH  39  40
ATOM     40  C   UNL d   1       5.427  11.934  -1.862  0.00  0.00     0.174 C 
ATOM     41  C   UNL d   1       6.588  10.970  -1.698  0.00  0.00     0.034 C 
ENDBRANCH  39  40
ENDBRANCH  37  39
ENDBRANCH  36  37
ENDBRANCH  35  36
ENDBRANCH   6  35
TORSDOF 12
