REMARK  4 active torsions:
REMARK  status: ('A' for Active; 'I' for Inactive)
REMARK    1  A    between atoms: C_12  and  C_2 
REMARK    2  A    between atoms: C_14  and  C_10 
REMARK    3  A    between atoms: C_18  and  C_11 
REMARK    4  A    between atoms: N_13  and  C_15 
ROOT
ATOM      1  N   UNL d   1       0.304   0.644  -0.006  0.00  0.00    -0.235 N 
ATOM      2  C   UNL d   1      -0.812   1.467   0.015  0.00  0.00     0.144 A 
ATOM      3  C   UNL d   1       0.157  -0.752  -0.021  0.00  0.00     0.130 A 
ATOM      4  N   UNL d   1       1.610   0.989  -0.000  0.00  0.00    -0.296 N 
ATOM      5  HN  UNL d   1       2.001   1.931   0.018  1.00  0.00     0.187 HD
ATOM      6  N   UNL d   1      -1.068  -1.361   0.005  0.00  0.00    -0.340 N 
ATOM      7  HN  UNL d   1      -1.159  -2.376   0.008  1.00  0.00     0.167 HD
ATOM      8  C   UNL d   1      -2.042   0.915   0.031  0.00  0.00     0.067 A 
ATOM      9  C   UNL d   1       1.430  -1.277  -0.055  0.00  0.00     0.077 A 
ATOM     10  C   UNL d   1       2.277  -0.162  -0.024  0.00  0.00     0.034 A 
ATOM     11  C   UNL d   1      -2.112  -0.581   0.026  0.00  0.00     0.046 A 
ENDROOT
BRANCH  11  12
ATOM     12  C   UNL d   1      -3.476  -1.186   0.091  0.00  0.00    -0.007 A 
ATOM     13  C   UNL d   1      -4.585  -0.574  -0.504  0.00  0.00     0.049 A 
ATOM     14  C   UNL d   1      -5.853  -1.158  -0.365  0.00  0.00     0.103 A 
ATOM     15  C   UNL d   1      -6.020  -2.356   0.342  0.00  0.00     0.036 A 
ATOM     16  C   UNL d   1      -4.906  -2.978   0.906  0.00  0.00     0.003 A 
ATOM     17  C   UNL d   1      -3.640  -2.397   0.779  0.00  0.00     0.014 A 
BRANCH  14  18
ATOM     18  N   UNL d   1      -7.021  -0.495  -0.960  0.00  0.00    -0.116 N 
ATOM     19  O   UNL d   1      -6.835   0.590  -1.527  0.00  0.00    -0.532 OA
ATOM     20  O   UNL d   1      -8.121  -1.054  -0.850  0.00  0.00    -0.532 OA
ENDBRANCH  14  18
ENDBRANCH  11  12
BRANCH   2  21
ATOM     21  C   UNL d   1      -0.630   2.938   0.030  0.00  0.00     0.434 C 
ATOM     22  F   UNL d   1       0.638   3.405   0.007  0.00  0.00    -0.165 F 
ATOM     23  F   UNL d   1      -1.264   3.503  -1.036  0.00  0.00    -0.165 F 
ATOM     24  F   UNL d   1      -1.218   3.479   1.133  0.00  0.00    -0.165 F 
ENDBRANCH   2  21
BRANCH  10  25
ATOM     25  C   UNL d   1       3.795  -0.240  -0.006  0.00  0.00     0.037 A 
ATOM     26  C   UNL d   1       4.557   0.807   0.786  0.00  0.00     0.011 A 
ATOM     27  C   UNL d   1       4.582   0.853  -0.703  0.00  0.00     0.011 A 
ENDBRANCH  10  25
TORSDOF 4
