REMARK  4 active torsions:
REMARK  status: ('A' for Active; 'I' for Inactive)
REMARK    1  A    between atoms: C_2  and  N_7 
REMARK    2  A    between atoms: N_8  and  C_2 
REMARK    3  A    between atoms: N_7  and  N_4 
REMARK    4  A    between atoms: C_13  and  N_8 
ROOT
ATOM      1  C   UNL d   1       2.281   0.668   0.358  0.00  0.00     0.019 A 
ATOM      2  C   UNL d   1       2.044  -0.484   1.085  0.00  0.00     0.064 A 
ATOM      3  N   UNL d   1       1.140   2.708  -0.449  0.00  0.00    -0.302 N 
ATOM      4  HN  UNL d   1       0.250   3.139  -0.697  1.00  0.00     0.186 HD
ATOM      5  C   UNL d   1       1.141   1.478  -0.047  0.00  0.00     0.038 C 
ATOM      6  O   UNL d   1       3.190  -1.131   1.399  0.00  0.00    -0.326 OA
ATOM      7  C   UNL d   1       3.690   0.693   0.174  0.00  0.00     0.040 A 
ATOM      8  C   UNL d   1       4.193  -0.404   0.847  0.00  0.00     0.143 A 
ATOM      9  C   UNL d   1       0.748  -1.073   1.498  0.00  0.00     0.066 C 
ATOM     10  C   UNL d   1      -0.219   0.772   0.027  0.00  0.00     0.060 C 
ATOM     11  C   UNL d   1      -0.361  -0.021   1.334  0.00  0.00     0.013 C 
ENDROOT
BRANCH   3  12
ATOM     12  N   UNL d   1       2.272   3.451  -0.554  0.00  0.00    -0.276 N 
ATOM     13  H   UNL d   1       3.146   3.073  -0.229  0.00  0.00     0.189 HD
BRANCH  12  14
ATOM     14  C   UNL d   1       2.216   4.792  -0.821  0.00  0.00     0.187 C 
ATOM     15  S   UNL d   1       0.871   5.774  -0.640  0.00  0.00    -0.040 SA
BRANCH  14  16
ATOM     16  N   UNL d   1       3.342   5.376  -1.330  0.00  0.00    -0.358 N 
ATOM     17  H   UNL d   1       3.188   6.369  -1.481  0.00  0.00     0.162 HD
BRANCH  16  18
ATOM     18  C   UNL d   1       4.460   4.787  -2.100  0.00  0.00     0.021 C 
ATOM     19  C   UNL d   1       3.979   3.681  -3.057  0.00  0.00     0.037 C 
ATOM     20  C   UNL d   1       5.075   5.915  -2.956  0.00  0.00     0.037 C 
ATOM     21  C   UNL d   1       5.554   4.255  -1.166  0.00  0.00     0.037 C 
ENDBRANCH  16  18
ENDBRANCH  14  16
ENDBRANCH  12  14
ENDBRANCH   3  12
TORSDOF 4
