REMARK  3 active torsions:
REMARK  status: ('A' for Active; 'I' for Inactive)
REMARK    1  A    between atoms: N_6  and  C_1 
REMARK       I    between atoms: C_8  and  N_6 
REMARK       I    between atoms: N_10  and  C_8 
REMARK    2  A    between atoms: N_11  and  C_9 
REMARK    3  A    between atoms: C_14  and  N_10 
ROOT
ATOM      1  C   UNL d   1      -0.851   1.667  -0.371  0.00  0.00     0.139 C 
ATOM      2  C   UNL d   1       0.411   1.007  -0.244  0.00  0.00     0.064 A 
ATOM      3  N   UNL d   1      -1.816   0.849  -0.800  0.00  0.00    -0.282 N 
ATOM      4  HN  UNL d   1      -2.770   1.083  -1.075  1.00  0.00     0.189 HD
ATOM      5  N   UNL d   1      -1.221  -0.364  -0.783  0.00  0.00    -0.294 N 
ATOM      6  C   UNL d   1       0.112  -0.337  -0.448  0.00  0.00     0.066 A 
ATOM      7  C   UNL d   1       1.744   1.423   0.068  0.00  0.00     0.045 A 
ATOM      8  C   UNL d   1      -2.001  -1.548  -1.054  0.00  0.00     0.178 C 
ATOM      9  C   UNL d   1       1.053  -1.358  -0.284  0.00  0.00     0.032 A 
ATOM     10  C   UNL d   1       2.677   0.374   0.234  0.00  0.00     0.030 A 
ATOM     11  C   UNL d   1       2.343  -0.974   0.072  0.00  0.00     0.005 A 
ENDROOT
BRANCH   1  12
ATOM     12  N   UNL d   1      -1.027   2.991  -0.044  0.00  0.00    -0.293 N 
ATOM     13  C   UNL d   1      -2.085   3.822  -0.216  0.00  0.00     0.326 C 
ATOM     14  N   UNL d   1      -3.139   3.352  -0.949  0.00  0.00    -0.309 N 
ATOM     15  O   UNL d   1      -1.980   4.956   0.259  0.00  0.00    -0.247 OA
ATOM     16  H   UNL d   1      -3.027   2.391  -1.267  0.00  0.00     0.170 HD
ATOM     17  H   UNL d   1      -0.241   3.414   0.435  0.00  0.00     0.172 HD
BRANCH  14  18
ATOM     18  C   UNL d   1      -4.326   4.037  -1.285  0.00  0.00     0.036 A 
ATOM     19  C   UNL d   1      -4.638   5.320  -0.822  0.00  0.00     0.029 A 
ATOM     20  C   UNL d   1      -5.849   5.932  -1.162  0.00  0.00     0.002 A 
ATOM     21  C   UNL d   1      -6.758   5.272  -1.983  0.00  0.00     0.000 A 
ATOM     22  C   UNL d   1      -6.452   4.003  -2.469  0.00  0.00     0.002 A 
ATOM     23  C   UNL d   1      -5.242   3.389  -2.120  0.00  0.00     0.029 A 
ENDBRANCH  14  18
ENDBRANCH   1  12
BRANCH   7  24
ATOM     24  N   UNL d   1       2.089   2.778   0.241  0.00  0.00    -0.389 N 
ATOM     25  C   UNL d   1       1.912   3.619  -0.954  0.00  0.00     0.149 C 
ATOM     26  C   UNL d   1       3.321   3.082   0.976  0.00  0.00     0.149 C 
ENDBRANCH   7  24
TORSDOF 3
