REMARK  2 active torsions:
REMARK  status: ('A' for Active; 'I' for Inactive)
REMARK    1  A    between atoms: C_3  and  C_5 
REMARK    2  A    between atoms: C_8  and  C_4 
ROOT
ATOM      1  N   UNL d   1       1.212   0.550  -0.020  0.00  0.00    -0.338 N 
ATOM      2  HN  UNL d   1       2.119   1.017  -0.036  1.00  0.00     0.167 HD
ATOM      3  C   UNL d   1       0.066   1.257  -0.011  0.00  0.00     0.115 A 
ATOM      4  C   UNL d   1       1.121  -0.805  -0.008  0.00  0.00     0.119 A 
ATOM      5  N   UNL d   1      -1.160   0.698   0.009  0.00  0.00    -0.352 N 
ATOM      6  HN  UNL d   1      -2.006   1.267   0.015  1.00  0.00     0.166 HD
ATOM      7  C   UNL d   1      -0.103  -1.450   0.012  0.00  0.00     0.051 A 
ATOM      8  C   UNL d   1      -1.216  -0.645   0.020  0.00  0.00     0.092 A 
ENDROOT
BRANCH   3   9
ATOM      9  C   UNL d   1       0.163   2.731  -0.019  0.00  0.00     0.008 A 
ATOM     10  C   UNL d   1       1.411   3.384  -0.050  0.00  0.00     0.015 A 
ATOM     11  C   UNL d   1       1.509   4.779  -0.055  0.00  0.00     0.001 A 
ATOM     12  C   UNL d   1       0.356   5.558  -0.030  0.00  0.00     0.000 A 
ATOM     13  C   UNL d   1      -0.892   4.943  -0.001  0.00  0.00     0.001 A 
ATOM     14  C   UNL d   1      -0.985   3.547   0.004  0.00  0.00     0.015 A 
ENDBRANCH   3   9
BRANCH   4  15
ATOM     15  C   UNL d   1       2.391  -1.638  -0.014  0.00  0.00     0.432 C 
ATOM     16  F   UNL d   1       3.542  -0.910  -0.033  0.00  0.00    -0.165 F 
ATOM     17  F   UNL d   1       2.483  -2.450   1.080  0.00  0.00    -0.165 F 
ATOM     18  F   UNL d   1       2.459  -2.472  -1.092  0.00  0.00    -0.165 F 
ENDBRANCH   4  15
TORSDOF 2
