REMARK  2 active torsions:
REMARK  status: ('A' for Active; 'I' for Inactive)
REMARK    1  A    between atoms: C_3  and  C_7 
REMARK    2  A    between atoms: O_6  and  C_7 
ROOT
ATOM      1  N   UNL d   1       0.042   0.749  -0.341  0.00  0.00     0.093 N 
ATOM      2  C   UNL d   1       0.015  -0.656   0.124  0.00  0.00     0.229 C 
ATOM      3  C   UNL d   1      -1.256  -1.384  -0.385  0.00  0.00     0.043 C 
ATOM      4  C   UNL d   1      -1.151   1.492   0.116  0.00  0.00     0.273 C 
ATOM      5  C   UNL d   1       1.248   1.454   0.132  0.00  0.00     0.273 C 
ATOM      6  C   UNL d   1      -2.482   0.815  -0.216  0.00  0.00     0.031 C 
ATOM      7  C   UNL d   1      -2.488  -0.657   0.182  0.00  0.00     0.010 C 
ATOM      8  C   UNL d   1       1.296  -1.413  -0.276  0.00  0.00     0.036 C 
ATOM      9  C   UNL d   1       2.541   0.740  -0.264  0.00  0.00     0.030 C 
ATOM     10  C   UNL d   1       2.543  -0.698   0.229  0.00  0.00     0.004 C 
ENDROOT
BRANCH   3  11
ATOM     11  C   UNL d   1      -1.323  -1.505  -1.920  0.00  0.00     0.170 C 
BRANCH  11  12
ATOM     12  O   UNL d   1      -2.510  -2.193  -2.302  0.00  0.00    -0.400 OA
ATOM     13  H   UNL d   1      -2.534  -2.184  -3.275  0.00  0.00     0.209 HD
ENDBRANCH  11  12
ENDBRANCH   3  11
TORSDOF 2
