REMARK  4 active torsions:
REMARK  status: ('A' for Active; 'I' for Inactive)
REMARK    1  A    between atoms: C_5  and  N_1 
REMARK       I    between atoms: C_2  and  N_4 
REMARK    2  A    between atoms: C_3  and  C_2 
REMARK    3  A    between atoms: N_4  and  C_12 
REMARK    4  A    between atoms: O_15  and  C_8 
ROOT
ATOM      1  C   UNL d   1      -1.726   4.682   3.494  0.00  0.00     0.259 C 
ATOM      2  N   UNL d   1      -1.934   3.339   3.220  0.00  0.00    -0.323 N 
ATOM      3  O   UNL d   1      -0.746   5.348   3.178  0.00  0.00    -0.267 OA
ATOM      4  H   UNL d   1      -2.753   2.906   3.622  0.00  0.00     0.169 HD
ENDROOT
BRANCH   2   5
ATOM      5  C   UNL d   1      -1.032   2.449   2.601  0.00  0.00     0.035 A 
ATOM      6  C   UNL d   1       0.209   2.828   2.081  0.00  0.00     0.032 A 
ATOM      7  C   UNL d   1       1.093   1.870   1.572  0.00  0.00     0.038 A 
ATOM      8  C   UNL d   1       0.728   0.520   1.572  0.00  0.00     0.103 A 
ATOM      9  C   UNL d   1      -0.529   0.130   2.045  0.00  0.00     0.038 A 
ATOM     10  C   UNL d   1      -1.403   1.097   2.554  0.00  0.00     0.032 A 
BRANCH   8  11
ATOM     11  N   UNL d   1       1.678  -0.493   1.095  0.00  0.00    -0.116 N 
ATOM     12  O   UNL d   1       1.325  -1.680   1.147  0.00  0.00    -0.532 OA
ATOM     13  O   UNL d   1       2.778  -0.104   0.679  0.00  0.00    -0.532 OA
ENDBRANCH   8  11
ENDBRANCH   2   5
BRANCH   1  14
ATOM     14  C   UNL d   1      -2.768   5.350   4.332  0.00  0.00     0.065 A 
ATOM     15  C   UNL d   1      -2.405   6.443   5.137  0.00  0.00     0.081 A 
ATOM     16  C   UNL d   1      -3.328   7.032   5.997  0.00  0.00     0.037 A 
ATOM     17  C   UNL d   1      -4.635   6.549   6.050  0.00  0.00     0.003 A 
ATOM     18  C   UNL d   1      -5.023   5.495   5.224  0.00  0.00     0.001 A 
ATOM     19  C   UNL d   1      -4.098   4.902   4.360  0.00  0.00     0.020 A 
BRANCH  15  20
ATOM     20  O   UNL d   1      -1.147   6.987   5.142  0.00  0.00    -0.360 OA
ATOM     21  H   UNL d   1      -0.643   6.587   4.398  0.00  0.00     0.217 HD
ENDBRANCH  15  20
ENDBRANCH   1  14
TORSDOF 4
