REMARK  16 active torsions:
REMARK  status: ('A' for Active; 'I' for Inactive)
REMARK    1  A    between atoms: C_7  and  C_1 
REMARK       I    between atoms: N_8  and  C_1 
REMARK    2  A    between atoms: C_2  and  S_5 
REMARK    3  A    between atoms: S_5  and  C_7 
REMARK    4  A    between atoms: C_11  and  N_8 
REMARK    5  A    between atoms: C_12  and  C_11 
REMARK    6  A    between atoms: C_22  and  C_12 
REMARK    7  A    between atoms: C_13  and  C_14 
REMARK    8  A    between atoms: C_14  and  C_21 
REMARK    9  A    between atoms: C_15  and  C_23 
REMARK   10  A    between atoms: C_16  and  C_15 
REMARK   11  A    between atoms: C_17  and  C_16 
REMARK   12  A    between atoms: C_18  and  C_17 
REMARK   13  A    between atoms: C_19  and  C_18 
REMARK   14  A    between atoms: C_20  and  C_19 
REMARK   15  A    between atoms: C_21  and  C_20 
REMARK   16  A    between atoms: C_23  and  C_22 
ROOT
ATOM      1  C   UNL d   1       3.167  -0.878   0.814  0.00  0.00     0.122 C 
ENDROOT
BRANCH   1   2
ATOM      2  N   UNL d   1       2.397   0.104   0.076  0.00  0.00    -0.360 N 
ATOM      3  C   UNL d   1       2.027   1.307   0.654  0.00  0.00     0.227 C 
ATOM      4  O   UNL d   1       2.329   1.589   1.815  0.00  0.00    -0.273 OA
ATOM      5  H   UNL d   1       2.169  -0.082  -0.894  0.00  0.00     0.162 HD
BRANCH   3   6
ATOM      6  C   UNL d   1       1.208   2.237  -0.227  0.00  0.00     0.183 C 
BRANCH   6   7
ATOM      7  S   UNL d   1       2.107   3.811  -0.424  0.00  0.00    -0.103 SA
BRANCH   7   8
ATOM      8  C   UNL d   1       0.982   4.730  -1.458  0.00  0.00     0.069 A 
ATOM      9  N   UNL d   1      -0.182   4.154  -1.837  0.00  0.00    -0.361 N 
ATOM     10  C   UNL d   1      -0.987   4.872  -2.655  0.00  0.00     0.089 A 
ATOM     11  HN  UNL d   1      -0.441   3.219  -1.521  1.00  0.00     0.165 HD
ATOM     12  C   UNL d   1      -0.684   6.147  -3.119  0.00  0.00     0.017 A 
ATOM     13  C   UNL d   1       0.510   6.719  -2.714  0.00  0.00     0.004 A 
ATOM     14  C   UNL d   1       1.356   6.005  -1.871  0.00  0.00     0.037 A 
ENDBRANCH   7   8
ENDBRANCH   6   7
ENDBRANCH   3   6
ENDBRANCH   1   2
BRANCH   1  15
ATOM     15  C   UNL d   1       4.672  -0.675   0.656  0.00  0.00     0.020 C 
BRANCH  15  16
ATOM     16  C   UNL d   1       5.450  -1.705   1.478  0.00  0.00     0.002 C 
BRANCH  16  17
ATOM     17  C   UNL d   1       6.957  -1.513   1.323  0.00  0.00     0.000 C 
BRANCH  17  18
ATOM     18  C   UNL d   1       7.729  -2.541   2.146  0.00  0.00     0.000 C 
BRANCH  18  19
ATOM     19  C   UNL d   1       9.231  -2.338   1.985  0.00  0.00     0.000 C 
BRANCH  19  20
ATOM     20  C   UNL d   1      10.004  -3.363   2.805  0.00  0.00     0.000 C 
BRANCH  20  21
ATOM     21  C   UNL d   1      11.504  -3.156   2.640  0.00  0.00     0.000 C 
BRANCH  21  22
ATOM     22  C   UNL d   1      12.275  -4.180   3.460  0.00  0.00     0.000 C 
BRANCH  22  23
ATOM     23  C   UNL d   1      13.774  -3.973   3.297  0.00  0.00     0.000 C 
BRANCH  23  24
ATOM     24  C   UNL d   1      14.548  -4.997   4.118  0.00  0.00     0.000 C 
BRANCH  24  25
ATOM     25  C   UNL d   1      16.049  -4.788   3.954  0.00  0.00    -0.000 C 
BRANCH  25  26
ATOM     26  C   UNL d   1      16.833  -5.809   4.771  0.00  0.00    -0.005 C 
ATOM     27  C   UNL d   1      18.327  -5.599   4.606  0.00  0.00     0.005 C 
ENDBRANCH  25  26
ENDBRANCH  24  25
ENDBRANCH  23  24
ENDBRANCH  22  23
ENDBRANCH  21  22
ENDBRANCH  20  21
ENDBRANCH  19  20
ENDBRANCH  18  19
ENDBRANCH  17  18
ENDBRANCH  16  17
ENDBRANCH  15  16
ENDBRANCH   1  15
TORSDOF 16
