REMARK  6 active torsions:
REMARK  status: ('A' for Active; 'I' for Inactive)
REMARK    1  A    between atoms: C_7  and  C_1 
REMARK    2  A    between atoms: C_13  and  N_2 
REMARK    3  A    between atoms: C_14  and  C_6 
REMARK       I    between atoms: N_10  and  C_7 
REMARK       I    between atoms: C_8  and  N_11 
REMARK    4  A    between atoms: C_9  and  C_8 
REMARK    5  A    between atoms: N_11  and  N_10 
REMARK    6  A    between atoms: C_20  and  C_13 
ROOT
ATOM      1  C   UNL d   1      -0.268  -1.217   0.255  0.00  0.00     0.122 A 
ATOM      2  N   UNL d   1       0.950  -0.583   0.288  0.00  0.00    -0.282 N 
ATOM      3  N   UNL d   1       0.858   0.765   0.203  0.00  0.00    -0.301 N 
ATOM      4  HN  UNL d   1       1.625   1.436   0.184  1.00  0.00     0.187 HD
ATOM      5  C   UNL d   1      -1.187  -0.174   0.169  0.00  0.00     0.064 A 
ATOM      6  C   UNL d   1      -0.451   1.030   0.149  0.00  0.00     0.036 A 
ENDROOT
BRANCH   1   7
ATOM      7  C   UNL d   1      -0.614  -2.624   0.213  0.00  0.00     0.288 C 
ATOM      8  N   UNL d   1       0.224  -3.569   0.821  0.00  0.00    -0.262 N 
ATOM      9  H   UNL d   1       0.782  -3.262   1.611  0.00  0.00     0.190 HD
ATOM     10  O   UNL d   1      -1.682  -2.999  -0.278  0.00  0.00    -0.264 OA
BRANCH   8  11
ATOM     11  N   UNL d   1      -0.393  -4.849   0.954  0.00  0.00    -0.263 N 
ATOM     12  C   UNL d   1       0.113  -6.005   1.511  0.00  0.00     0.277 C 
ATOM     13  O   UNL d   1      -0.723  -6.797   1.968  0.00  0.00    -0.265 OA
ATOM     14  H   UNL d   1      -1.413  -4.819   0.913  0.00  0.00     0.190 HD
BRANCH  12  15
ATOM     15  C   UNL d   1       1.534  -6.313   1.558  0.00  0.00     0.074 A 
ATOM     16  S   UNL d   1       2.675  -5.724   0.429  0.00  0.00    -0.097 SA
ATOM     17  C   UNL d   1       3.960  -6.592   1.159  0.00  0.00     0.050 A 
ATOM     18  C   UNL d   1       3.518  -7.404   2.178  0.00  0.00     0.009 A 
ATOM     19  C   UNL d   1       2.119  -7.254   2.393  0.00  0.00     0.025 A 
ENDBRANCH  12  15
ENDBRANCH   8  11
ENDBRANCH   1   7
BRANCH   2  20
ATOM     20  C   UNL d   1       2.296  -1.148   0.319  0.00  0.00     0.188 C 
BRANCH  20  21
ATOM     21  C   UNL d   1       2.830  -1.211   1.734  0.00  0.00    -0.038 A 
ATOM     22  C   UNL d   1       3.205  -2.437   2.297  0.00  0.00     0.012 A 
ATOM     23  C   UNL d   1       3.643  -2.517   3.618  0.00  0.00     0.043 A 
ATOM     24  C   UNL d   1       3.745  -1.358   4.374  0.00  0.00     0.116 A 
ATOM     25  C   UNL d   1       3.425  -0.122   3.829  0.00  0.00     0.043 A 
ATOM     26  F   UNL d   1       4.164  -1.434   5.643  0.00  0.00    -0.206 F 
ATOM     27  C   UNL d   1       2.973  -0.048   2.510  0.00  0.00     0.012 A 
ENDBRANCH  20  21
ENDBRANCH   2  20
BRANCH   6  28
ATOM     28  C   UNL d   1      -0.929   2.473   0.062  0.00  0.00    -0.007 C 
ATOM     29  C   UNL d   1      -2.467   2.579   0.035  0.00  0.00     0.021 C 
ATOM     30  C   UNL d   1      -0.422   3.272   1.283  0.00  0.00     0.021 C 
ATOM     31  C   UNL d   1      -0.388   3.138  -1.222  0.00  0.00     0.021 C 
ENDBRANCH   6  28
TORSDOF 6
