REMARK  4 active torsions:
REMARK  status: ('A' for Active; 'I' for Inactive)
REMARK    1  A    between atoms: N_2  and  S_1 
REMARK    2  A    between atoms: C_4  and  S_1 
REMARK    3  A    between atoms: C_10  and  C_3 
REMARK    4  A    between atoms: N_6  and  C_5 
ROOT
ATOM      1  N   UNL d   1       0.599  -1.527  -0.579  0.00  0.00    -0.236 N 
ATOM      2  C   UNL d   1       1.237  -2.798  -0.222  0.00  0.00     0.280 A 
ATOM      3  O   UNL d   1       0.549  -3.846  -0.972  0.00  0.00    -0.318 OA
ATOM      4  C   UNL d   1      -0.486  -1.823  -1.411  0.00  0.00     0.081 A 
ATOM      5  C   UNL d   1      -0.481  -3.196  -1.613  0.00  0.00     0.099 A 
ATOM      6  C   UNL d   1      -1.420  -1.018  -2.029  0.00  0.00     0.033 A 
ATOM      7  C   UNL d   1      -1.421  -3.828  -2.402  0.00  0.00     0.039 A 
ATOM      8  C   UNL d   1      -2.378  -1.635  -2.843  0.00  0.00     0.002 A 
ATOM      9  C   UNL d   1      -2.383  -3.030  -3.022  0.00  0.00     0.003 A 
ENDROOT
BRANCH   1  10
ATOM     10  S   UNL d   1       0.978  -0.107   0.180  0.00  0.00     0.270 S 
ATOM     11  O   UNL d   1       1.597  -0.478   1.435  0.00  0.00    -0.200 OA
ATOM     12  O   UNL d   1      -0.142   0.803   0.128  0.00  0.00    -0.200 OA
BRANCH  10  13
ATOM     13  C   UNL d   1       2.229   0.608  -0.857  0.00  0.00     0.113 A 
ATOM     14  C   UNL d   1       3.454   1.053  -0.358  0.00  0.00     0.126 A 
ATOM     15  C   UNL d   1       4.474   1.494  -1.216  0.00  0.00     0.038 A 
ATOM     16  C   UNL d   1       4.244   1.532  -2.590  0.00  0.00     0.003 A 
ATOM     17  C   UNL d   1       2.998   1.159  -3.095  0.00  0.00     0.002 A 
ATOM     18  C   UNL d   1       1.995   0.697  -2.237  0.00  0.00     0.028 A 
BRANCH  14  19
ATOM     19  N   UNL d   1       3.686   1.222   1.061  0.00  0.00    -0.114 N 
ATOM     20  O   UNL d   1       3.013   2.086   1.631  0.00  0.00    -0.532 OA
ATOM     21  O   UNL d   1       4.604   0.556   1.560  0.00  0.00    -0.532 OA
ENDBRANCH  14  19
ENDBRANCH  10  13
ENDBRANCH   1  10
BRANCH   2  22
ATOM     22  C   UNL d   1       2.715  -2.854  -0.551  0.00  0.00    -0.007 A 
ATOM     23  C   UNL d   1       3.171  -2.688  -1.870  0.00  0.00     0.037 A 
ATOM     24  C   UNL d   1       4.540  -2.605  -2.149  0.00  0.00     0.056 A 
ATOM     25 CL   UNL d   1       5.006  -2.319  -3.787  0.00  0.00    -0.083 Cl
ATOM     26  C   UNL d   1       5.469  -2.716  -1.111  0.00  0.00     0.055 A 
ATOM     27  C   UNL d   1       5.026  -2.929   0.197  0.00  0.00     0.026 A 
ATOM     28 CL   UNL d   1       7.170  -2.572  -1.372  0.00  0.00    -0.083 Cl
ATOM     29  C   UNL d   1       3.659  -2.996   0.475  0.00  0.00     0.013 A 
ENDBRANCH   2  22
TORSDOF 4
