REMARK  3 active torsions:
REMARK  status: ('A' for Active; 'I' for Inactive)
REMARK    1  A    between atoms: C_6  and  C_1 
REMARK    2  A    between atoms: C_7  and  C_6 
REMARK    3  A    between atoms: O_13  and  C_7 
ROOT
ATOM      1  C   UNL d   1       2.423   0.114   0.025  0.00  0.00    -0.001 A 
ATOM      2  S   UNL d   1       1.513   1.561   0.048  0.00  0.00    -0.093 SA
ATOM      3  C   UNL d   1       1.607  -1.009  -0.003  0.00  0.00    -0.037 A 
ATOM      4  C   UNL d   1       0.200  -0.653   0.008  0.00  0.00    -0.011 A 
ATOM      5  C   UNL d   1       0.014   0.730   0.025  0.00  0.00     0.016 A 
ATOM      6  C   UNL d   1      -0.958  -1.476  -0.002  0.00  0.00     0.037 A 
ATOM      7  C   UNL d   1      -1.272   1.309   0.022  0.00  0.00     0.021 A 
ATOM      8  C   UNL d   1      -2.232  -0.903  -0.000  0.00  0.00     0.035 A 
ATOM      9  C   UNL d   1      -2.391   0.474   0.009  0.00  0.00     0.025 A 
ATOM     10  C   UNL d   1       2.084  -2.429  -0.028  0.00  0.00     0.050 C 
ATOM     11 CL   UNL d   1      -3.620  -1.922  -0.013  0.00  0.00    -0.084 Cl
ENDROOT
BRANCH   1  12
ATOM     12  C   UNL d   1       3.926   0.208  -0.009  0.00  0.00     0.157 C 
BRANCH  12  13
ATOM     13  C   UNL d   1       4.577  -0.393   1.220  0.00  0.00     0.263 C 
ATOM     14  O   UNL d   1       4.012  -0.921   2.168  0.00  0.00    -0.265 OA
BRANCH  13  15
ATOM     15  O   UNL d   1       5.935  -0.283   1.096  0.00  0.00    -0.326 OA
ATOM     16  C   UNL d   1       6.667  -0.857   2.182  0.00  0.00     0.213 C 
ENDBRANCH  13  15
ENDBRANCH  12  13
ENDBRANCH   1  12
TORSDOF 3
