REMARK  2 active torsions:
REMARK  status: ('A' for Active; 'I' for Inactive)
REMARK       I    between atoms: C_4  and  N_9 
REMARK       I    between atoms: N_10  and  C_4 
REMARK    1  A    between atoms: N_9  and  C_11 
REMARK    2  A    between atoms: C_15  and  N_10 
ROOT
ATOM      1  C   UNL d   1      -4.477  -0.492  -0.092  0.00  0.00     0.325 C 
ATOM      2  N   UNL d   1      -3.349  -1.302  -0.135  0.00  0.00    -0.309 N 
ATOM      3  N   UNL d   1      -5.562  -1.093  -0.708  0.00  0.00    -0.309 N 
ATOM      4  O   UNL d   1      -4.500   0.616   0.433  0.00  0.00    -0.247 OA
ATOM      5  H   UNL d   1      -3.502  -2.286  -0.287  0.00  0.00     0.170 HD
ATOM      6  H   UNL d   1      -5.422  -2.013  -1.095  0.00  0.00     0.170 HD
ENDROOT
BRANCH   2   7
ATOM      7  C   UNL d   1      -2.031  -0.907   0.203  0.00  0.00     0.039 A 
ATOM      8  C   UNL d   1      -1.665   0.441   0.370  0.00  0.00     0.032 A 
ATOM      9  C   UNL d   1      -0.344   0.829   0.649  0.00  0.00     0.035 A 
ATOM     10  C   UNL d   1       0.625  -0.169   0.739  0.00  0.00     0.068 A 
ATOM     11  C   UNL d   1       0.243  -1.489   0.575  0.00  0.00     0.106 A 
ATOM     12  N   UNL d   1       1.975  -0.091   0.952  0.00  0.00    -0.338 N 
ATOM     13  C   UNL d   1      -1.059  -1.916   0.317  0.00  0.00     0.069 A 
ATOM     14  O   UNL d   1       1.366  -2.261   0.691  0.00  0.00    -0.296 OA
ATOM     15  C   UNL d   1       2.369  -1.348   0.899  0.00  0.00     0.120 A 
ATOM     16  C   UNL d   1       3.743  -1.875   1.012  0.00  0.00     0.098 C 
ATOM     17  HN  UNL d   1       2.541   0.742   1.114  1.00  0.00     0.168 HD
ENDBRANCH   2   7
BRANCH   3  18
ATOM     18  C   UNL d   1      -6.866  -0.554  -0.828  0.00  0.00     0.036 A 
ATOM     19  C   UNL d   1      -7.213   0.741  -0.431  0.00  0.00     0.029 A 
ATOM     20  C   UNL d   1      -8.536   1.187  -0.516  0.00  0.00     0.002 A 
ATOM     21  C   UNL d   1      -9.526   0.346  -1.008  0.00  0.00     0.000 A 
ATOM     22  C   UNL d   1      -9.190  -0.935  -1.440  0.00  0.00     0.002 A 
ATOM     23  C   UNL d   1      -7.865  -1.380  -1.359  0.00  0.00     0.029 A 
ENDBRANCH   3  18
TORSDOF 2
