REMARK  3 active torsions:
REMARK  status: ('A' for Active; 'I' for Inactive)
REMARK    1  A    between atoms: C_5  and  N_1 
REMARK    2  A    between atoms: S_14  and  C_8 
REMARK    3  A    between atoms: C_10  and  C_9 
ROOT
ATOM      1  N   UNL d   1      -0.082  -1.118   0.081  0.00  0.00    -0.067 N 
ATOM      2  C   UNL d   1      -0.800  -0.107  -0.557  0.00  0.00     0.701 A 
ATOM      3  N   UNL d   1      -0.117   1.008  -0.514  0.00  0.00    -0.168 N 
ATOM      4  HN  UNL d   1      -0.372   1.921  -0.890  1.00  0.00     0.186 HD
ATOM      5  N   UNL d   1       1.088  -0.619   0.544  0.00  0.00    -0.257 N 
ATOM      6  HN  UNL d   1       1.832  -1.094   1.056  1.00  0.00     0.190 HD
ATOM      7  C   UNL d   1       1.016   0.656   0.156  0.00  0.00     0.174 A 
ATOM      8  N   UNL d   1      -2.031  -0.265  -1.084  0.00  0.00    -0.233 N 
ATOM      9  H   UNL d   1      -2.312  -1.211  -1.353  0.00  0.00     0.174 HD
ATOM     10  H   UNL d   1      -2.366   0.460  -1.708  0.00  0.00     0.174 HD
ENDROOT
BRANCH   1  11
ATOM     11  C   UNL d   1      -0.404  -2.507   0.144  0.00  0.00     0.160 A 
ATOM     12  C   UNL d   1       0.136  -3.336   1.129  0.00  0.00     0.094 A 
ATOM     13  C   UNL d   1      -0.092  -4.720   0.993  0.00  0.00     0.021 A 
ATOM     14  C   UNL d   1      -0.858  -5.218  -0.053  0.00  0.00     0.018 A 
ATOM     15  C   UNL d   1      -1.410  -4.316  -0.937  0.00  0.00     0.090 A 
ATOM     16  N   UNL d   1      -1.217  -2.982  -0.854  0.00  0.00    -0.350 N 
ATOM     17  HN  UNL d   1      -1.663  -2.345  -1.514  1.00  0.00     0.166 HD
BRANCH  12  18
ATOM     18  C   UNL d   1       0.860  -2.844   2.354  0.00  0.00     0.421 C 
ATOM     19  F   UNL d   1       0.420  -1.649   2.831  0.00  0.00    -0.166 F 
ATOM     20  F   UNL d   1       0.685  -3.702   3.409  0.00  0.00    -0.166 F 
ATOM     21  F   UNL d   1       2.205  -2.759   2.193  0.00  0.00    -0.166 F 
ENDBRANCH  12  18
ENDBRANCH   1  11
BRANCH   7  22
ATOM     22  S   UNL d   1       2.321   1.764   0.490  0.00  0.00    -0.097 SA
ATOM     23  C   UNL d   1       1.611   3.299  -0.141  0.00  0.00     0.099 C 
ENDBRANCH   7  22
TORSDOF 3
