REMARK  4 active torsions:
REMARK  status: ('A' for Active; 'I' for Inactive)
REMARK    1  A    between atoms: C_5  and  N_1 
REMARK    2  A    between atoms: N_16  and  C_2 
REMARK    3  A    between atoms: S_17  and  C_8 
REMARK    4  A    between atoms: C_11  and  C_12 
ROOT
ATOM      1  N   UNL d   1      -0.079  -1.132   0.011  0.00  0.00    -0.066 N 
ATOM      2  C   UNL d   1      -0.525  -0.221  -0.959  0.00  0.00     0.701 A 
ATOM      3  N   UNL d   1       0.024   0.952  -0.751  0.00  0.00    -0.168 N 
ATOM      4  HN  UNL d   1      -0.086   1.807  -1.296  1.00  0.00     0.186 HD
ATOM      5  N   UNL d   1       0.742  -0.477   0.866  0.00  0.00    -0.257 N 
ATOM      6  HN  UNL d   1       1.218  -0.839   1.692  1.00  0.00     0.190 HD
ATOM      7  C   UNL d   1       0.773   0.753   0.365  0.00  0.00     0.174 A 
ENDROOT
BRANCH   1   8
ATOM      8  C   UNL d   1      -0.346  -2.539   0.084  0.00  0.00     0.167 A 
ATOM      9  N   UNL d   1      -1.076  -3.078  -0.951  0.00  0.00    -0.348 N 
ATOM     10  C   UNL d   1      -1.282  -4.418  -0.969  0.00  0.00     0.106 A 
ATOM     11  HN  UNL d   1      -1.454  -2.483  -1.688  1.00  0.00     0.167 HD
ATOM     12  C   UNL d   1      -0.791  -5.284  -0.010  0.00  0.00     0.065 A 
ATOM     13  C   UNL d   1      -0.079  -4.723   1.052  0.00  0.00     0.045 A 
ATOM     14  C   UNL d   1       0.149  -3.341   1.120  0.00  0.00     0.081 A 
ATOM     15 CL   UNL d   1       1.012  -2.821   2.523  0.00  0.00    -0.080 Cl
BRANCH  12  16
ATOM     16  C   UNL d   1      -1.020  -6.758  -0.137  0.00  0.00     0.418 C 
ATOM     17  F   UNL d   1      -0.437  -7.484   0.856  0.00  0.00    -0.166 F 
ATOM     18  F   UNL d   1      -2.340  -7.083  -0.116  0.00  0.00    -0.166 F 
ATOM     19  F   UNL d   1      -0.528  -7.257  -1.303  0.00  0.00    -0.166 F 
ENDBRANCH  12  16
ENDBRANCH   1   8
BRANCH   2  20
ATOM     20  N   UNL d   1      -1.383  -0.513  -1.956  0.00  0.00    -0.233 N 
ATOM     21  H   UNL d   1      -1.567  -1.494  -2.174  0.00  0.00     0.174 HD
ATOM     22  H   UNL d   1      -1.429   0.120  -2.746  0.00  0.00     0.174 HD
ENDBRANCH   2  20
BRANCH   7  23
ATOM     23  S   UNL d   1       1.745   1.982   1.126  0.00  0.00    -0.097 SA
ATOM     24  C   UNL d   1       1.569   3.327  -0.058  0.00  0.00     0.099 C 
ENDBRANCH   7  23
TORSDOF 4
