REMARK  6 active torsions:
REMARK  status: ('A' for Active; 'I' for Inactive)
REMARK    1  A    between atoms: C_3  and  C_1 
REMARK       I    between atoms: C_2  and  N_6 
REMARK    2  A    between atoms: O_10  and  C_2 
REMARK    3  A    between atoms: N_4  and  O_10 
REMARK    4  A    between atoms: N_6  and  C_19 
REMARK    5  A    between atoms: N_8  and  C_7 
REMARK    6  A    between atoms: C_20  and  C_18 
ROOT
ATOM      1  C   UNL d   1      -1.896   0.532  -6.153  0.00  0.00     0.387 C 
ATOM      2  N   UNL d   1      -2.481  -0.676  -5.854  0.00  0.00    -0.301 N 
ATOM      3  O   UNL d   1      -1.350   1.299  -5.364  0.00  0.00    -0.236 OA
ATOM      4  H   UNL d   1      -2.854  -1.111  -6.692  0.00  0.00     0.171 HD
ENDROOT
BRANCH   1   5
ATOM      5  O   UNL d   1      -1.968   0.851  -7.502  0.00  0.00    -0.181 OA
BRANCH   5   6
ATOM      6  N   UNL d   1      -2.602  -0.178  -8.233  0.00  0.00    -0.267 N 
ATOM      7  C   UNL d   1      -2.645   0.129  -9.489  0.00  0.00     0.126 C 
ATOM      8  HN  UNL d   1      -2.973  -1.039  -7.829  1.00  0.00     0.194 HD
BRANCH   7   9
ATOM      9  C   UNL d   1      -3.239  -0.813 -10.455  0.00  0.00    -0.019 A 
ATOM     10  C   UNL d   1      -3.764  -2.024 -10.007  0.00  0.00     0.015 A 
ATOM     11  C   UNL d   1      -4.302  -2.937 -10.918  0.00  0.00     0.030 A 
ATOM     12  C   UNL d   1      -4.343  -2.676 -12.296  0.00  0.00     0.029 A 
ATOM     13  C   UNL d   1      -3.820  -1.433 -12.709  0.00  0.00     0.030 A 
ATOM     14  C   UNL d   1      -3.268  -0.508 -11.809  0.00  0.00     0.015 A 
BRANCH  12  15
ATOM     15  N   UNL d   1      -4.920  -3.554 -13.203  0.00  0.00    -0.390 N 
ATOM     16  C   UNL d   1      -4.344  -3.721 -14.536  0.00  0.00     0.149 C 
ATOM     17  C   UNL d   1      -5.773  -4.659 -12.769  0.00  0.00     0.149 C 
ENDBRANCH  12  15
ENDBRANCH   7   9
ENDBRANCH   5   6
ENDBRANCH   1   5
BRANCH   2  18
ATOM     18  C   UNL d   1      -2.606  -1.327  -4.620  0.00  0.00     0.036 A 
ATOM     19  C   UNL d   1      -2.122  -0.798  -3.425  0.00  0.00     0.030 A 
ATOM     20  C   UNL d   1      -2.266  -1.504  -2.227  0.00  0.00     0.018 A 
ATOM     21  C   UNL d   1      -2.897  -2.756  -2.200  0.00  0.00     0.048 A 
ATOM     22  C   UNL d   1      -3.391  -3.282  -3.401  0.00  0.00     0.018 A 
ATOM     23  C   UNL d   1      -3.246  -2.572  -4.600  0.00  0.00     0.030 A 
BRANCH  21  24
ATOM     24  C   UNL d   1      -3.024  -3.500  -0.894  0.00  0.00     0.417 C 
ATOM     25  F   UNL d   1      -3.650  -4.705  -1.010  0.00  0.00    -0.166 F 
ATOM     26  F   UNL d   1      -3.730  -2.802   0.038  0.00  0.00    -0.166 F 
ATOM     27  F   UNL d   1      -1.814  -3.764  -0.326  0.00  0.00    -0.166 F 
ENDBRANCH  21  24
ENDBRANCH   2  18
TORSDOF 6
