REMARK  1 active torsions:
REMARK  status: ('A' for Active; 'I' for Inactive)
REMARK    1  A    between atoms: N_2  and  N_1 
ROOT
ATOM      1  N   UNL d   1      -2.375  -0.034  -0.364  0.00  0.00    -0.177 N 
ATOM      2  C   UNL d   1      -1.600  -1.129  -0.768  0.00  0.00     0.251 C 
ATOM      3  C   UNL d   1      -1.683   0.864   0.457  0.00  0.00     0.251 C 
ATOM      4  C   UNL d   1      -0.428  -1.022   0.156  0.00  0.00     0.101 C 
ATOM      5  C   UNL d   1      -0.257   0.509   0.170  0.00  0.00     0.101 C 
ATOM      6  C   UNL d   1       1.063   0.667   0.928  0.00  0.00     0.022 C 
ATOM      7  C   UNL d   1       1.002  -1.516   0.286  0.00  0.00     0.022 C 
ATOM      8  C   UNL d   1       2.104   0.473  -0.170  0.00  0.00    -0.025 C 
ATOM      9  C   UNL d   1       2.009  -0.802  -0.594  0.00  0.00    -0.025 C 
ATOM     10  C   UNL d   1       1.310  -0.705   1.587  0.00  0.00     0.018 C 
ATOM     11  O   UNL d   1      -2.096   1.747   1.178  0.00  0.00    -0.271 OA
ATOM     12  O   UNL d   1      -1.864  -2.033  -1.540  0.00  0.00    -0.271 OA
ENDROOT
BRANCH   1  13
ATOM     13  N   UNL d   1      -3.732   0.025  -0.548  0.00  0.00    -0.170 N 
ATOM     14  C   UNL d   1      -4.595  -0.951  -0.126  0.00  0.00     0.281 A 
ATOM     15  C   UNL d   1      -5.933  -0.462  -0.480  0.00  0.00     0.050 A 
ATOM     16  O   UNL d   1      -4.376  -1.985   0.470  0.00  0.00    -0.265 OA
ATOM     17  C   UNL d   1      -7.169  -1.067  -0.352  0.00  0.00     0.018 A 
ATOM     18  C   UNL d   1      -5.795   0.818  -0.997  0.00  0.00     0.050 A 
ATOM     19  C   UNL d   1      -8.288  -0.323  -0.744  0.00  0.00     0.001 A 
ATOM     20  C   UNL d   1      -8.150   0.994  -1.230  0.00  0.00     0.001 A 
ATOM     21  C   UNL d   1      -6.887   1.580  -1.364  0.00  0.00     0.018 A 
ATOM     22  C   UNL d   1      -4.362   1.124  -1.063  0.00  0.00     0.281 A 
ATOM     23  O   UNL d   1      -3.902   2.156  -1.510  0.00  0.00    -0.265 OA
ENDBRANCH   1  13
TORSDOF 1
