REMARK  3 active torsions:
REMARK  status: ('A' for Active; 'I' for Inactive)
REMARK       I    between atoms: N_3  and  C_1 
REMARK       I    between atoms: N_9  and  C_1 
REMARK       I    between atoms: C_2  and  N_4 
REMARK       I    between atoms: N_10  and  C_2 
REMARK    1  A    between atoms: C_5  and  N_3 
REMARK    2  A    between atoms: N_4  and  C_6 
REMARK    3  A    between atoms: C_11  and  C_7 
ROOT
ATOM      1  C   UNL d   1       1.276  -1.546   1.909  0.00  0.00     0.063 C 
ATOM      2  C   UNL d   1       2.206  -0.808   2.654  0.00  0.00     0.063 C 
ATOM      3  C   UNL d   1       1.161  -3.177   3.771  0.00  0.00    -0.048 C 
ATOM      4  C   UNL d   1       0.766  -2.727   2.494  0.00  0.00     0.039 C 
ATOM      5  C   UNL d   1       2.748  -1.346   3.828  0.00  0.00     0.032 C 
ATOM      6  C   UNL d   1       2.221  -2.504   4.388  0.00  0.00     0.010 C 
ENDROOT
BRANCH   1   7
ATOM      7  N   UNL d   1       0.656  -1.171   0.686  0.00  0.00    -0.307 N 
ATOM      8  C   UNL d   1       1.011  -0.217  -0.233  0.00  0.00     0.322 C 
ATOM      9  N   UNL d   1       0.153  -0.080  -1.322  0.00  0.00    -0.343 N 
ATOM     10  O   UNL d   1       1.999   0.505  -0.115  0.00  0.00    -0.247 OA
ATOM     11  C   UNL d   1       0.375   1.040  -2.229  0.00  0.00     0.154 C 
ATOM     12  C   UNL d   1      -0.866  -1.024  -1.768  0.00  0.00     0.154 C 
ATOM     13  H   UNL d   1      -0.179  -1.688   0.486  0.00  0.00     0.170 HD
ENDBRANCH   1   7
BRANCH   2  14
ATOM     14  N   UNL d   1       2.437   0.569   2.407  0.00  0.00    -0.307 N 
ATOM     15  C   UNL d   1       2.083   1.471   3.391  0.00  0.00     0.322 C 
ATOM     16  N   UNL d   1       2.167   2.815   3.062  0.00  0.00    -0.343 N 
ATOM     17  O   UNL d   1       1.696   1.137   4.514  0.00  0.00    -0.247 OA
ATOM     18  C   UNL d   1       1.856   3.736   4.138  0.00  0.00     0.154 C 
ATOM     19  C   UNL d   1       2.769   3.383   1.869  0.00  0.00     0.154 C 
ATOM     20  H   UNL d   1       2.202   0.865   1.468  0.00  0.00     0.170 HD
ENDBRANCH   2  14
BRANCH   3  21
ATOM     21  C   UNL d   1       0.392  -4.260   4.550  0.00  0.00    -0.024 C 
ATOM     22  C   UNL d   1      -0.755  -4.906   3.744  0.00  0.00     0.019 C 
ATOM     23  C   UNL d   1       1.337  -5.387   5.009  0.00  0.00     0.019 C 
ATOM     24  C   UNL d   1      -0.249  -3.604   5.798  0.00  0.00     0.019 C 
ENDBRANCH   3  21
TORSDOF 3
