REMARK  2 active torsions:
REMARK  status: ('A' for Active; 'I' for Inactive)
REMARK       I    between atoms: N_2  and  C_1 
REMARK       I    between atoms: N_3  and  C_1 
REMARK    1  A    between atoms: C_6  and  N_2 
REMARK    2  A    between atoms: C_7  and  N_3 
ROOT
ATOM      1  C   UNL d   1       1.105  -0.086   0.070  0.00  0.00     0.676 C 
ATOM      2  N   UNL d   1       0.558   1.136   0.327  0.00  0.00    -0.192 N 
ATOM      3  N   UNL d   1       0.270  -1.155   0.205  0.00  0.00    -0.192 N 
ATOM      4  N   UNL d   1       2.359  -0.315  -0.155  0.00  0.00    -0.234 N 
ATOM      5  HN  UNL d   1       2.782  -1.223  -0.345  1.00  0.00     0.174 HD
ATOM      6  H   UNL d   1      -0.350   1.121   0.774  0.00  0.00     0.184 HD
ATOM      7  H   UNL d   1       0.780  -2.025   0.080  0.00  0.00     0.184 HD
ATOM      8  H   UNL d   1       2.848   0.585  -0.105  0.00  0.00     0.174 HD
ENDROOT
BRANCH   2   9
ATOM      9  C   UNL d   1       0.962   2.394  -0.147  0.00  0.00     0.049 A 
ATOM     10  C   UNL d   1       1.718   2.560  -1.313  0.00  0.00     0.030 A 
ATOM     11  C   UNL d   1       2.149   3.826  -1.717  0.00  0.00     0.002 A 
ATOM     12  C   UNL d   1       1.844   4.945  -0.946  0.00  0.00     0.000 A 
ATOM     13  C   UNL d   1       1.102   4.798   0.223  0.00  0.00     0.002 A 
ATOM     14  C   UNL d   1       0.663   3.531   0.616  0.00  0.00     0.030 A 
ENDBRANCH   2   9
BRANCH   3  15
ATOM     15  C   UNL d   1      -1.060  -1.266  -0.248  0.00  0.00     0.049 A 
ATOM     16  C   UNL d   1      -1.597  -0.462  -1.260  0.00  0.00     0.030 A 
ATOM     17  C   UNL d   1      -2.929  -0.611  -1.660  0.00  0.00     0.002 A 
ATOM     18  C   UNL d   1      -3.738  -1.568  -1.053  0.00  0.00     0.000 A 
ATOM     19  C   UNL d   1      -3.214  -2.386  -0.054  0.00  0.00     0.002 A 
ATOM     20  C   UNL d   1      -1.881  -2.240   0.338  0.00  0.00     0.030 A 
ENDBRANCH   3  15
TORSDOF 2
