REMARK  4 active torsions:
REMARK  status: ('A' for Active; 'I' for Inactive)
REMARK    1  A    between atoms: C_2  and  C_1 
REMARK       I    between atoms: N_3  and  C_1 
REMARK    2  A    between atoms: N_5  and  C_2 
REMARK    3  A    between atoms: C_4  and  N_3 
REMARK    4  A    between atoms: C_14  and  N_5 
ROOT
ATOM      1  C   UNL d   1       1.180   1.437   0.546  0.00  0.00     0.283 C 
ATOM      2  N   UNL d   1       2.348   1.008  -0.068  0.00  0.00    -0.318 N 
ATOM      3  O   UNL d   1       0.511   2.432   0.318  0.00  0.00    -0.265 OA
ATOM      4  H   UNL d   1       2.811   0.240   0.407  0.00  0.00     0.169 HD
ENDROOT
BRANCH   1   5
ATOM      5  C   UNL d   1       0.716   0.503   1.665  0.00  0.00     0.165 C 
ATOM      6  S   UNL d   1       1.721   0.321   2.982  0.00  0.00    -0.055 SA
BRANCH   5   7
ATOM      7  N   UNL d   1      -0.477  -0.187   1.558  0.00  0.00    -0.372 N 
ATOM      8  H   UNL d   1      -0.696  -0.807   2.330  0.00  0.00     0.161 HD
BRANCH   7   9
ATOM      9  C   UNL d   1      -1.338  -0.216   0.371  0.00  0.00     0.082 C 
ATOM     10  C   UNL d   1      -2.808  -0.476   0.757  0.00  0.00     0.025 C 
ATOM     11  C   UNL d   1      -3.454  -1.760   0.246  0.00  0.00     0.002 C 
ATOM     12  C   UNL d   1      -2.959  -2.159  -1.131  0.00  0.00     0.000 C 
ATOM     13  C   UNL d   1      -1.460  -2.378  -1.084  0.00  0.00     0.002 C 
ATOM     14  C   UNL d   1      -0.705  -1.112  -0.708  0.00  0.00     0.025 C 
ENDBRANCH   7   9
ENDBRANCH   5   7
ENDBRANCH   1   5
BRANCH   2  15
ATOM     15  C   UNL d   1       3.036   1.587  -1.157  0.00  0.00     0.074 A 
ATOM     16  C   UNL d   1       2.549   2.598  -1.999  0.00  0.00     0.146 A 
ATOM     17  C   UNL d   1       3.318   3.095  -3.055  0.00  0.00     0.086 A 
ATOM     18  F   UNL d   1       1.315   3.099  -1.871  0.00  0.00    -0.204 F 
ATOM     19  C   UNL d   1       4.580   2.575  -3.285  0.00  0.00     0.119 A 
ATOM     20  C   UNL d   1       5.089   1.565  -2.481  0.00  0.00     0.044 A 
ATOM     21  F   UNL d   1       5.316   3.043  -4.301  0.00  0.00    -0.206 F 
ATOM     22  C   UNL d   1       4.317   1.071  -1.421  0.00  0.00     0.036 A 
ENDBRANCH   2  15
TORSDOF 4
