REMARK  7 active torsions:
REMARK  status: ('A' for Active; 'I' for Inactive)
REMARK    1  A    between atoms: C_9  and  C_1 
REMARK    2  A    between atoms: C_8  and  C_3 
REMARK    3  A    between atoms: O_21  and  C_9 
REMARK    4  A    between atoms: O_22  and  C_10 
REMARK    5  A    between atoms: O_19  and  C_18 
REMARK    6  A    between atoms: C_24  and  O_19 
REMARK    7  A    between atoms: C_25  and  C_24 
ROOT
ATOM      1  C   UNL d   1       2.686  -0.945  -0.314  0.00  0.00     0.052 C 
ATOM      2  C   UNL d   1       0.185  -0.775  -0.181  0.00  0.00     0.024 C 
ATOM      3  C   UNL d   1       1.412  -1.586   0.285  0.00  0.00     0.101 C 
ATOM      4  C   UNL d   1       0.291   0.560  -0.358  0.00  0.00     0.021 C 
ATOM      5  C   UNL d   1       2.710   0.407  -0.522  0.00  0.00     0.018 C 
ATOM      6  N   UNL d   1       1.539   1.146  -0.357  0.00  0.00    -0.362 N 
ATOM      7  C   UNL d   1      -1.124  -1.432  -0.426  0.00  0.00     0.159 C 
ATOM      8  C   UNL d   1      -0.896   1.474  -0.547  0.00  0.00     0.067 C 
ATOM      9  C   UNL d   1      -2.243   0.844  -0.139  0.00  0.00    -0.036 C 
ATOM     10  C   UNL d   1      -2.332  -0.572  -0.736  0.00  0.00     0.092 C 
ATOM     11  O   UNL d   1      -1.217  -2.659  -0.411  0.00  0.00    -0.293 OA
ATOM     12  C   UNL d   1       3.897   1.268  -0.898  0.00  0.00     0.069 C 
ATOM     13  C   UNL d   1      -3.392   1.710  -0.684  0.00  0.00     0.015 C 
ATOM     14  C   UNL d   1      -2.397   0.808   1.398  0.00  0.00     0.015 C 
ATOM     15  H   UNL d   1       1.574   2.100  -0.722  0.00  0.00     0.165 HD
ENDROOT
BRANCH   3  16
ATOM     16  C   UNL d   1       1.391  -1.707   1.857  0.00  0.00    -0.011 A 
ATOM     17  C   UNL d   1       2.494  -1.798   2.724  0.00  0.00     0.078 A 
ATOM     18  C   UNL d   1       2.323  -1.963   4.127  0.00  0.00     0.074 A 
ATOM     19  C   UNL d   1       1.050  -2.029   4.698  0.00  0.00     0.071 A 
ATOM     20  C   UNL d   1      -0.046  -1.899   3.870  0.00  0.00     0.037 A 
ATOM     21  C   UNL d   1       0.129  -1.801   2.490  0.00  0.00     0.014 A 
BRANCH  17  22
ATOM     22  O   UNL d   1       3.777  -1.909   2.256  0.00  0.00    -0.355 OA
ATOM     23  C   UNL d   1       4.468  -0.662   2.264  0.00  0.00     0.210 C 
ENDBRANCH  17  22
BRANCH  19  24
ATOM     24  O   UNL d   1       0.961  -2.262   6.048  0.00  0.00    -0.347 OA
BRANCH  24  25
ATOM     25  C   UNL d   1      -0.314  -2.760   6.490  0.00  0.00     0.214 C 
BRANCH  25  26
ATOM     26  C   UNL d   1      -0.186  -3.457   7.821  0.00  0.00    -0.034 A 
ATOM     27  C   UNL d   1      -1.050  -3.138   8.884  0.00  0.00     0.009 A 
ATOM     28  C   UNL d   1      -0.969  -3.848  10.088  0.00  0.00     0.001 A 
ATOM     29  C   UNL d   1      -0.044  -4.872  10.232  0.00  0.00     0.000 A 
ATOM     30  C   UNL d   1       0.809  -5.205   9.180  0.00  0.00     0.001 A 
ATOM     31  C   UNL d   1       0.731  -4.499   7.978  0.00  0.00     0.009 A 
ENDBRANCH  25  26
ENDBRANCH  24  25
ENDBRANCH  19  24
ENDBRANCH   3  16
BRANCH   1  32
ATOM     32  C   UNL d   1       3.760  -1.928  -0.655  0.00  0.00     0.291 C 
ATOM     33  O   UNL d   1       3.653  -3.137  -0.496  0.00  0.00    -0.260 OA
BRANCH  32  34
ATOM     34  O   UNL d   1       4.846  -1.330  -1.196  0.00  0.00    -0.323 OA
ATOM     35  C   UNL d   1       5.957  -2.186  -1.471  0.00  0.00     0.213 C 
ENDBRANCH  32  34
ENDBRANCH   1  32
TORSDOF 7
