REMARK  5 active torsions:
REMARK  status: ('A' for Active; 'I' for Inactive)
REMARK    1  A    between atoms: C_3  and  N_1 
REMARK    2  A    between atoms: C_4  and  N_2 
REMARK    3  A    between atoms: N_5  and  C_13 
REMARK    4  A    between atoms: O_16  and  C_11 
REMARK    5  A    between atoms: C_13  and  C_12 
ROOT
ATOM      1  N   UNL d   1       2.887   1.226  -2.359  0.00  0.00    -0.375 N 
ATOM      2  N   UNL d   1       1.406   3.648  -3.273  0.00  0.00     0.095 N 
ATOM      3  C   UNL d   1       3.060   2.509  -1.647  0.00  0.00     0.153 C 
ATOM      4  C   UNL d   1       1.573   1.077  -2.998  0.00  0.00     0.153 C 
ATOM      5  C   UNL d   1       2.710   3.706  -2.572  0.00  0.00     0.292 C 
ATOM      6  C   UNL d   1       1.280   2.307  -3.904  0.00  0.00     0.292 C 
ENDROOT
BRANCH   2   7
ATOM      7  C   UNL d   1       0.263   3.932  -2.394  0.00  0.00     0.311 C 
BRANCH   7   8
ATOM      8  C   UNL d   1       0.053   5.397  -2.019  0.00  0.00    -0.028 A 
ATOM      9  C   UNL d   1      -0.802   5.694  -0.941  0.00  0.00     0.045 A 
ATOM     10  C   UNL d   1      -1.145   7.024  -0.646  0.00  0.00     0.103 A 
ATOM     11  C   UNL d   1      -0.615   8.081  -1.394  0.00  0.00     0.036 A 
ATOM     12  C   UNL d   1       0.240   7.795  -2.459  0.00  0.00     0.003 A 
ATOM     13  C   UNL d   1       0.554   6.468  -2.776  0.00  0.00     0.009 A 
BRANCH  10  14
ATOM     14  N   UNL d   1      -2.110   7.301   0.425  0.00  0.00    -0.116 N 
ATOM     15  O   UNL d   1      -2.602   6.335   1.023  0.00  0.00    -0.532 OA
ATOM     16  O   UNL d   1      -2.390   8.489   0.659  0.00  0.00    -0.532 OA
ENDBRANCH  10  14
ENDBRANCH   7   8
ENDBRANCH   2   7
BRANCH   1  17
ATOM     17  C   UNL d   1       3.588   0.111  -1.873  0.00  0.00     0.064 A 
ATOM     18  C   UNL d   1       3.036  -1.152  -1.533  0.00  0.00     0.094 A 
ATOM     19  C   UNL d   1       3.883  -2.219  -1.159  0.00  0.00     0.039 A 
ATOM     20  C   UNL d   1       5.262  -2.053  -1.070  0.00  0.00     0.003 A 
ATOM     21  C   UNL d   1       5.819  -0.821  -1.366  0.00  0.00     0.002 A 
ATOM     22  C   UNL d   1       4.993   0.232  -1.768  0.00  0.00     0.032 A 
BRANCH  18  23
ATOM     23  O   UNL d   1       1.668  -1.306  -1.577  0.00  0.00    -0.354 OA
ATOM     24  C   UNL d   1       1.125  -2.394  -0.830  0.00  0.00     0.210 C 
ENDBRANCH  18  23
ENDBRANCH   1  17
TORSDOF 5
