REMARK  2 active torsions:
REMARK  status: ('A' for Active; 'I' for Inactive)
REMARK       I    between atoms: N_2  and  C_1 
REMARK       I    between atoms: N_5  and  C_1 
REMARK    1  A    between atoms: C_4  and  N_2 
REMARK    2  A    between atoms: C_10  and  N_5 
ROOT
ATOM      1  N   UNL d   1       1.716   6.751  -3.750  0.00  0.00    -0.191 NA
ATOM      2  C   UNL d   1       1.474   5.796  -3.144  0.00  0.00     0.099 C 
ATOM      3  C   UNL d   1       1.171   4.601  -2.411  0.00  0.00     0.044 A 
ATOM      4  C   UNL d   1       0.572   2.208  -1.051  0.00  0.00     0.036 A 
ATOM      5  C   UNL d   1       2.131   3.590  -2.308  0.00  0.00     0.025 A 
ATOM      6  C   UNL d   1      -0.080   4.423  -1.817  0.00  0.00     0.025 A 
ATOM      7  C   UNL d   1       1.828   2.405  -1.632  0.00  0.00     0.031 A 
ATOM      8  C   UNL d   1      -0.383   3.228  -1.148  0.00  0.00     0.031 A 
ENDROOT
BRANCH   4   9
ATOM      9  N   UNL d   1       0.208   0.996  -0.422  0.00  0.00    -0.309 N 
ATOM     10  C   UNL d   1       1.095   0.033   0.031  0.00  0.00     0.325 C 
ATOM     11  N   UNL d   1       0.440  -1.157   0.319  0.00  0.00    -0.306 N 
ATOM     12  O   UNL d   1       2.306   0.184   0.137  0.00  0.00    -0.247 OA
ATOM     13  H   UNL d   1      -0.316  -1.365  -0.321  0.00  0.00     0.171 HD
ATOM     14  H   UNL d   1      -0.749   0.894  -0.117  0.00  0.00     0.170 HD
BRANCH  11  15
ATOM     15  C   UNL d   1       1.177  -2.291   0.747  0.00  0.00     0.075 A 
ATOM     16  C   UNL d   1       1.007  -3.503   0.075  0.00  0.00     0.143 A 
ATOM     17  F   UNL d   1       0.193  -3.563  -0.991  0.00  0.00    -0.204 F 
ATOM     18  C   UNL d   1       1.715  -4.640   0.454  0.00  0.00     0.044 A 
ATOM     19  C   UNL d   1       2.580  -4.580   1.546  0.00  0.00     0.003 A 
ATOM     20  C   UNL d   1       2.752  -3.375   2.232  0.00  0.00     0.002 A 
ATOM     21  C   UNL d   1       2.062  -2.228   1.825  0.00  0.00     0.033 A 
ENDBRANCH  11  15
ENDBRANCH   4   9
TORSDOF 2
