REMARK  8 active torsions:
REMARK  status: ('A' for Active; 'I' for Inactive)
REMARK    1  A    between atoms: N_4  and  C_1 
REMARK    2  A    between atoms: N_9  and  C_1 
REMARK    3  A    between atoms: C_3  and  N_4 
REMARK    4  A    between atoms: N_5  and  N_9 
REMARK    5  A    between atoms: C_8  and  C_12 
REMARK    6  A    between atoms: O_14  and  C_11 
REMARK    7  A    between atoms: C_21  and  O_14 
REMARK    8  A    between atoms: C_22  and  C_21 
ROOT
ATOM      1  N   UNL d   1       2.768  -0.521  -0.055  0.00  0.00    -0.276 N 
ATOM      2  H   UNL d   1       3.111  -0.331   0.882  0.00  0.00     0.189 HD
ENDROOT
BRANCH   1   3
ATOM      3  N   UNL d   1       3.432  -0.017  -1.133  0.00  0.00    -0.309 N 
ATOM      4  C   UNL d   1       4.568   0.581  -0.931  0.00  0.00     0.121 C 
ATOM      5  HN  UNL d   1       3.048  -0.107  -2.074  1.00  0.00     0.186 HD
BRANCH   4   6
ATOM      6  C   UNL d   1       5.246   1.256  -2.075  0.00  0.00     0.014 A 
ATOM      7  C   UNL d   1       6.420   2.019  -1.964  0.00  0.00     0.080 A 
ATOM      8  C   UNL d   1       6.941   2.605  -3.136  0.00  0.00     0.037 A 
ATOM      9  C   UNL d   1       6.277   2.509  -4.362  0.00  0.00     0.003 A 
ATOM     10  C   UNL d   1       5.100   1.785  -4.451  0.00  0.00     0.001 A 
ATOM     11  C   UNL d   1       4.598   1.148  -3.322  0.00  0.00     0.015 A 
BRANCH   7  12
ATOM     12  O   UNL d   1       7.018   2.192  -0.733  0.00  0.00    -0.350 OA
BRANCH  12  13
ATOM     13  C   UNL d   1       7.961   3.283  -0.670  0.00  0.00     0.175 C 
BRANCH  13  14
ATOM     14  C   UNL d   1       8.362   3.634   0.759  0.00  0.00     0.022 C 
ATOM     15  C   UNL d   1       7.164   3.928   1.644  0.00  0.00     0.007 C 
ENDBRANCH  13  14
ENDBRANCH  12  13
ENDBRANCH   7  12
ENDBRANCH   4   6
ENDBRANCH   1   3
BRANCH   1  16
ATOM     16  C   UNL d   1       1.450  -0.949  -0.179  0.00  0.00     0.191 C 
ATOM     17  S   UNL d   1       0.576  -1.244   1.216  0.00  0.00    -0.039 SA
BRANCH  16  18
ATOM     18  N   UNL d   1       1.036  -1.128  -1.485  0.00  0.00    -0.332 N 
ATOM     19  H   UNL d   1       1.811  -1.286  -2.115  0.00  0.00     0.168 HD
BRANCH  18  20
ATOM     20  C   UNL d   1      -0.267  -1.064  -2.045  0.00  0.00     0.042 A 
ATOM     21  C   UNL d   1      -0.581  -1.769  -3.232  0.00  0.00    -0.013 A 
ATOM     22  C   UNL d   1      -1.828  -1.522  -3.856  0.00  0.00     0.042 A 
ATOM     23  C   UNL d   1       0.328  -2.825  -3.807  0.00  0.00     0.052 C 
ATOM     24 CL   UNL d   1      -2.281  -2.309  -5.329  0.00  0.00    -0.084 Cl
ATOM     25  C   UNL d   1      -2.746  -0.627  -3.309  0.00  0.00     0.024 A 
ATOM     26  C   UNL d   1      -2.446   0.035  -2.124  0.00  0.00     0.004 A 
ATOM     27  C   UNL d   1      -1.212  -0.183  -1.504  0.00  0.00     0.030 A 
ENDBRANCH  18  20
ENDBRANCH  16  18
ENDBRANCH   1  16
TORSDOF 8
