REMARK  4 active torsions:
REMARK  status: ('A' for Active; 'I' for Inactive)
REMARK    1  A    between atoms: C_3  and  C_1 
REMARK    2  A    between atoms: C_12  and  C_2 
REMARK    3  A    between atoms: C_18  and  C_8 
REMARK    4  A    between atoms: O_23  and  C_12 
ROOT
ATOM      1  C   UNL d   1       2.986   1.165  -1.587  0.00  0.00     0.052 C 
ATOM      2  C   UNL d   1       2.295   1.767  -0.353  0.00  0.00     0.102 C 
ATOM      3  C   UNL d   1       3.267   2.011   0.796  0.00  0.00     0.024 C 
ATOM      4  C   UNL d   1       4.542   1.572   0.748  0.00  0.00     0.021 C 
ATOM      5  C   UNL d   1       4.268   0.732  -1.534  0.00  0.00     0.018 C 
ATOM      6  N   UNL d   1       4.977   0.840  -0.343  0.00  0.00    -0.362 N 
ATOM      7  C   UNL d   1       2.869   2.965   1.868  0.00  0.00     0.159 C 
ATOM      8  C   UNL d   1       5.596   1.923   1.772  0.00  0.00     0.067 C 
ATOM      9  C   UNL d   1       5.059   2.515   3.088  0.00  0.00    -0.036 C 
ATOM     10  C   UNL d   1       3.940   3.521   2.787  0.00  0.00     0.092 C 
ATOM     11  O   UNL d   1       1.715   3.384   1.938  0.00  0.00    -0.293 OA
ATOM     12  C   UNL d   1       5.074   0.190  -2.688  0.00  0.00     0.069 C 
ATOM     13  C   UNL d   1       6.208   3.241   3.814  0.00  0.00     0.015 C 
ATOM     14  C   UNL d   1       4.538   1.398   4.013  0.00  0.00     0.015 C 
ATOM     15  H   UNL d   1       5.973   0.634  -0.388  0.00  0.00     0.165 HD
ENDROOT
BRANCH   2  16
ATOM     16  C   UNL d   1       1.091   0.924   0.025  0.00  0.00     0.001 A 
ATOM     17  C   UNL d   1      -0.297   1.297   0.180  0.00  0.00     0.067 A 
ATOM     18  N   UNL d   1      -1.042   0.206   0.447  0.00  0.00    -0.300 N 
ATOM     19  N   UNL d   1      -0.190  -0.817   0.440  0.00  0.00    -0.311 N 
ATOM     20  HN  UNL d   1      -2.047   0.171   0.618  1.00  0.00     0.187 HD
ATOM     21  C   UNL d   1       1.097  -0.451   0.228  0.00  0.00     0.117 A 
ATOM     22  H   UNL d   1      -0.562  -1.751   0.576  0.00  0.00     0.186 HD
BRANCH  17  23
ATOM     23  C   UNL d   1      -0.972   2.608   0.097  0.00  0.00    -0.007 A 
ATOM     24  C   UNL d   1      -0.528   3.638  -0.744  0.00  0.00     0.017 A 
ATOM     25  C   UNL d   1      -1.167   4.882  -0.766  0.00  0.00     0.043 A 
ATOM     26  C   UNL d   1      -2.289   5.090   0.019  0.00  0.00     0.116 A 
ATOM     27  C   UNL d   1      -2.787   4.077   0.825  0.00  0.00     0.043 A 
ATOM     28  F   UNL d   1      -2.908   6.277  -0.015  0.00  0.00    -0.206 F 
ATOM     29  C   UNL d   1      -2.127   2.844   0.867  0.00  0.00     0.017 A 
ENDBRANCH  17  23
ENDBRANCH   2  16
BRANCH   1  30
ATOM     30  C   UNL d   1       2.151   1.202  -2.811  0.00  0.00     0.291 C 
ATOM     31  O   UNL d   1       1.447   2.159  -3.099  0.00  0.00    -0.260 OA
BRANCH  30  32
ATOM     32  O   UNL d   1       2.228   0.047  -3.514  0.00  0.00    -0.323 OA
ATOM     33  C   UNL d   1       1.448   0.055  -4.711  0.00  0.00     0.213 C 
ENDBRANCH  30  32
ENDBRANCH   1  30
TORSDOF 4
