REMARK  2 active torsions:
REMARK  status: ('A' for Active; 'I' for Inactive)
REMARK    1  A    between atoms: C_2  and  C_1 
REMARK    2  A    between atoms: O_6  and  N_3 
ROOT
ATOM      1  C   UNL d   1       0.012   1.214   0.613  0.00  0.00     0.000 C 
ATOM      2  C   UNL d   1       0.027  -0.088   1.419  0.00  0.00     0.020 C 
ATOM      3  C   UNL d   1       1.282   1.261  -0.274  0.00  0.00     0.015 C 
ATOM      4  C   UNL d   1      -1.283   1.265  -0.238  0.00  0.00     0.015 C 
ATOM      5  C   UNL d   1       0.001  -1.300   0.503  0.00  0.00    -0.013 C 
ATOM      6  C   UNL d   1      -1.849  -0.036  -0.803  0.00  0.00     0.001 C 
ATOM      7  C   UNL d   1       1.801  -0.039  -0.884  0.00  0.00     0.001 C 
ATOM      8  C   UNL d   1      -1.304  -1.358  -0.285  0.00  0.00     0.005 C 
ATOM      9  C   UNL d   1       1.249  -1.362  -0.372  0.00  0.00     0.005 C 
ENDROOT
BRANCH   1  10
ATOM     10  C   UNL d   1       0.022   2.532   1.467  0.00  0.00     0.014 C 
ATOM     11  N   UNL d   1       0.045   2.687   2.752  0.00  0.00    -0.277 N 
ATOM     12  HN  UNL d   1       0.053   3.609   3.189  1.00  0.00     0.193 HD
ATOM     13  C   UNL d   1       0.008   3.859   0.709  0.00  0.00     0.066 C 
BRANCH  11  14
ATOM     14  O   UNL d   1       0.058   1.516   3.495  0.00  0.00    -0.290 OA
ATOM     15  H   UNL d   1       0.057   1.839   4.413  0.00  0.00     0.244 HD
ENDBRANCH  11  14
ENDBRANCH   1  10
TORSDOF 2
