REMARK  7 active torsions:
REMARK  status: ('A' for Active; 'I' for Inactive)
REMARK    1  A    between atoms: C_4  and  C_1 
REMARK    2  A    between atoms: C_8  and  CA_2 
REMARK    3  A    between atoms: S_3  and  C_7 
REMARK    4  A    between atoms: C_22  and  S_3 
REMARK       I    between atoms: N_5  and  C_4 
REMARK    5  A    between atoms: C_6  and  N_5 
REMARK    6  A    between atoms: OXT_21  and  C_8 
REMARK    7  A    between atoms: O_23  and  C_16 
ROOT
ATOM      1  C   UNL d   1      -1.963  -4.529  -0.376  0.00  0.00     0.275 C 
ATOM      2  N   UNL d   1      -0.998  -3.816   0.320  0.00  0.00    -0.319 N 
ATOM      3  O   UNL d   1      -1.778  -5.562  -1.008  0.00  0.00    -0.266 OA
ATOM      4  H   UNL d   1      -1.316  -2.959   0.766  0.00  0.00     0.169 HD
ENDROOT
BRANCH   2   5
ATOM      5  C   UNL d   1       0.393  -4.083   0.353  0.00  0.00     0.070 A 
ATOM      6  C   UNL d   1       1.037  -4.930  -0.558  0.00  0.00     0.055 A 
ATOM      7  C   UNL d   1       2.437  -5.044  -0.546  0.00  0.00     0.061 A 
ATOM      8  C   UNL d   1       3.205  -4.343   0.390  0.00  0.00     0.026 A 
ATOM      9  C   UNL d   1       2.568  -3.525   1.320  0.00  0.00     0.040 A 
ATOM     10  C   UNL d   1       1.181  -3.399   1.295  0.00  0.00     0.092 A 
BRANCH   7  11
ATOM     11  S   UNL d   1       3.270  -5.889  -1.881  0.00  0.00     0.175 S 
ATOM     12  O   UNL d   1       2.347  -5.948  -2.998  0.00  0.00    -0.223 OA
ATOM     13  O   UNL d   1       4.566  -5.250  -2.033  0.00  0.00    -0.223 OA
BRANCH  11  14
ATOM     14  C   UNL d   1       3.541  -7.548  -1.290  0.00  0.00     0.141 C 
ATOM     15  C   UNL d   1       4.317  -8.366  -2.311  0.00  0.00     0.021 C 
ENDBRANCH  11  14
ENDBRANCH   7  11
BRANCH  10  16
ATOM     16  O   UNL d   1       0.617  -2.599   2.252  0.00  0.00    -0.358 OA
ATOM     17  H   UNL d   1      -0.226  -3.012   2.504  0.00  0.00     0.217 HD
ENDBRANCH  10  16
ENDBRANCH   2   5
BRANCH   1  18
ATOM     18  C   UNL d   1      -3.327  -3.928  -0.345  0.00  0.00     0.134 A 
ATOM     19  CA  UNL d   1      -4.470  -4.695  -0.522  0.00  0.00     0.139 A 
ATOM     20  N   UNL d   1      -5.705  -4.131  -0.695  0.00  0.00    -0.357 N 
ATOM     21  C   UNL d   1      -5.741  -2.780  -0.667  0.00  0.00     0.105 A 
ATOM     22  HN  UNL d   1      -6.545  -4.693  -0.835  1.00  0.00     0.165 HD
ATOM     23  C   UNL d   1      -4.611  -2.014  -0.430  0.00  0.00     0.105 A 
ATOM     24  N   UNL d   1      -3.378  -2.559  -0.255  0.00  0.00    -0.358 N 
ATOM     25  HN  UNL d   1      -2.551  -1.992  -0.069  1.00  0.00     0.165 HD
BRANCH  19  26
ATOM     26  C   UNL d   1      -4.444  -6.156  -0.287  0.00  0.00     0.196 C 
ATOM     27  O   UNL d   1      -3.833  -6.714   0.606  0.00  0.00    -0.645 OA
BRANCH  26  28
ATOM     28  OXT UNL d   1      -5.269  -6.828  -1.112  0.00  0.00    -0.772 OA
ATOM     29  HXT UNL d   1      -5.208  -7.758  -0.811  0.00  0.00     0.167 HD
ENDBRANCH  26  28
ENDBRANCH  19  26
ENDBRANCH   1  18
TORSDOF 7
