REMARK  5 active torsions:
REMARK  status: ('A' for Active; 'I' for Inactive)
REMARK    1  A    between atoms: O_6  and  N_1 
REMARK    2  A    between atoms: C_5  and  C_3 
REMARK    3  A    between atoms: N_15  and  C_3 
REMARK    4  A    between atoms: C_4  and  O_6 
REMARK    5  A    between atoms: C_13  and  C_4 
ROOT
ATOM      1  N   UNL d   1       1.051  -0.178  -0.150  0.00  0.00    -0.246 N 
ATOM      2  HN  UNL d   1       2.054  -0.307  -0.282  1.00  0.00     0.196 HD
ATOM      3  C   UNL d   1       0.334   0.675  -0.818  0.00  0.00     0.109 C 
ENDROOT
BRANCH   3   4
ATOM      4  C   UNL d   1       1.039   1.532  -1.821  0.00  0.00     0.004 A 
ATOM      5  C   UNL d   1       2.193   1.048  -2.457  0.00  0.00     0.024 A 
ATOM      6  C   UNL d   1       2.838   1.874  -3.361  0.00  0.00    -0.022 A 
ATOM      7  C   UNL d   1       4.021   1.612  -4.209  0.00  0.00     0.068 C 
ATOM      8  C   UNL d   1       2.356   3.145  -3.632  0.00  0.00     0.075 A 
ATOM      9  C   UNL d   1       4.323   3.047  -4.643  0.00  0.00     0.180 C 
ATOM     10  O   UNL d   1       3.111   3.834  -4.547  0.00  0.00    -0.350 OA
ATOM     11  C   UNL d   1       1.218   3.642  -3.031  0.00  0.00     0.038 A 
ATOM     12  C   UNL d   1       0.553   2.825  -2.112  0.00  0.00     0.017 A 
ENDBRANCH   3   4
BRANCH   3  13
ATOM     13  N   UNL d   1      -1.027   0.820  -0.664  0.00  0.00    -0.286 NA
ATOM     14  H   UNL d   1      -1.444   0.026  -0.191  0.00  0.00     0.125 HD
ATOM     15  H   UNL d   1      -1.532   1.069  -1.509  0.00  0.00     0.125 HD
ENDBRANCH   3  13
BRANCH   1  16
ATOM     16  O   UNL d   1       0.278  -0.903   0.779  0.00  0.00    -0.193 OA
BRANCH  16  17
ATOM     17  C   UNL d   1       1.075  -1.796   1.438  0.00  0.00     0.315 C 
ATOM     18  O   UNL d   1       2.266  -2.018   1.268  0.00  0.00    -0.257 OA
BRANCH  17  19
ATOM     19  C   UNL d   1       0.250  -2.580   2.391  0.00  0.00     0.041 A 
ATOM     20  C   UNL d   1      -0.907  -2.061   2.987  0.00  0.00     0.017 A 
ATOM     21  C   UNL d   1      -1.645  -2.848   3.876  0.00  0.00     0.001 A 
ATOM     22  C   UNL d   1      -1.230  -4.148   4.173  0.00  0.00     0.000 A 
ATOM     23  C   UNL d   1      -0.072  -4.663   3.591  0.00  0.00     0.001 A 
ATOM     24  C   UNL d   1       0.670  -3.880   2.707  0.00  0.00     0.017 A 
ENDBRANCH  17  19
ENDBRANCH  16  17
ENDBRANCH   1  16
TORSDOF 5
