REMARK  3 active torsions:
REMARK  status: ('A' for Active; 'I' for Inactive)
REMARK    1  A    between atoms: C_8  and  N_1 
REMARK    2  A    between atoms: C_2  and  C_7 
REMARK       I    between atoms: N_4  and  C_2 
REMARK    3  A    between atoms: C_6  and  N_5 
ROOT
ATOM      1  C   UNL d   1       0.455   0.649   4.739  0.00  0.00     0.254 C 
ATOM      2  N   UNL d   1      -0.090   0.323   5.974  0.00  0.00    -0.345 N 
ATOM      3  N   UNL d   1      -1.982  -0.274   8.013  0.00  0.00    -0.377 N 
ATOM      4  C   UNL d   1      -0.073  -0.985   6.652  0.00  0.00     0.146 C 
ATOM      5  C   UNL d   1      -0.623   1.403   6.822  0.00  0.00     0.146 C 
ATOM      6  C   UNL d   1      -1.491  -1.352   7.132  0.00  0.00     0.143 C 
ATOM      7  C   UNL d   1      -2.023   1.054   7.379  0.00  0.00     0.143 C 
ATOM      8  O   UNL d   1       0.561   1.811   4.347  0.00  0.00    -0.267 OA
ENDROOT
BRANCH   1   9
ATOM      9  C   UNL d   1       0.938  -0.407   3.816  0.00  0.00     0.034 A 
ATOM     10  C   UNL d   1       2.111  -0.159   3.088  0.00  0.00     0.053 A 
ATOM     11  C   UNL d   1       2.574  -1.121   2.181  0.00  0.00     0.103 A 
ATOM     12  C   UNL d   1       1.889  -2.332   2.010  0.00  0.00     0.036 A 
ATOM     13  C   UNL d   1       0.703  -2.558   2.707  0.00  0.00     0.003 A 
ATOM     14  C   UNL d   1       0.211  -1.582   3.578  0.00  0.00     0.017 A 
BRANCH  11  15
ATOM     15  N   UNL d   1       3.774  -0.852   1.380  0.00  0.00    -0.116 N 
ATOM     16  O   UNL d   1       4.343   0.238   1.541  0.00  0.00    -0.532 OA
ATOM     17  O   UNL d   1       4.146  -1.727   0.586  0.00  0.00    -0.532 OA
ENDBRANCH  11  15
ENDBRANCH   1   9
BRANCH   3  18
ATOM     18  C   UNL d   1      -2.815  -0.611   9.078  0.00  0.00     0.043 A 
ATOM     19  C   UNL d   1      -4.070  -0.007   9.396  0.00  0.00     0.018 A 
ATOM     20  C   UNL d   1      -4.752  -0.400  10.558  0.00  0.00     0.044 A 
ATOM     21  C   UNL d   1      -4.910   0.971   8.771  0.00  0.00     0.033 A 
ATOM     22  N   UNL d   1      -5.911   0.339  10.635  0.00  0.00    -0.365 N 
ATOM     23  C   UNL d   1      -4.273  -1.372  11.436  0.00  0.00     0.030 A 
ATOM     24  C   UNL d   1      -6.020   1.170   9.559  0.00  0.00     0.089 A 
ATOM     25  H   UNL d   1      -6.582   0.268  11.389  0.00  0.00     0.165 HD
ATOM     26  C   UNL d   1      -3.059  -1.971  11.130  0.00  0.00     0.005 A 
ATOM     27  C   UNL d   1      -2.356  -1.595   9.985  0.00  0.00     0.030 A 
ENDBRANCH   3  18
TORSDOF 3
