REMARK  5 active torsions:
REMARK  status: ('A' for Active; 'I' for Inactive)
REMARK    1  A    between atoms: C_2  and  C_1 
REMARK       I    between atoms: N_3  and  C_2 
REMARK    2  A    between atoms: C_8  and  N_3 
REMARK    3  A    between atoms: C_9  and  N_3 
REMARK    4  A    between atoms: C_12  and  C_8 
REMARK    5  A    between atoms: C_13  and  C_9 
ROOT
ATOM      1  C   UNL d   1      -3.443   1.688   0.574  0.00  0.00     0.278 C 
ATOM      2  N   UNL d   1      -3.409   3.000   0.058  0.00  0.00    -0.338 N 
ATOM      3  O   UNL d   1      -4.449   1.256   1.154  0.00  0.00    -0.265 OA
ENDROOT
BRANCH   2   4
ATOM      4  C   UNL d   1      -4.613   3.830   0.169  0.00  0.00     0.165 C 
BRANCH   4   5
ATOM      5  C   UNL d   1      -5.370   4.160  -1.104  0.00  0.00    -0.040 A 
ATOM      6  C   UNL d   1      -5.006   3.733  -2.386  0.00  0.00     0.009 A 
ATOM      7  C   UNL d   1      -5.845   3.984  -3.482  0.00  0.00     0.001 A 
ATOM      8  C   UNL d   1      -7.043   4.680  -3.318  0.00  0.00     0.000 A 
ATOM      9  C   UNL d   1      -7.388   5.165  -2.063  0.00  0.00     0.001 A 
ATOM     10  C   UNL d   1      -6.555   4.913  -0.970  0.00  0.00     0.009 A 
ENDBRANCH   4   5
ENDBRANCH   2   4
BRANCH   2  11
ATOM     11  C   UNL d   1      -2.139   3.706  -0.155  0.00  0.00     0.165 C 
BRANCH  11  12
ATOM     12  C   UNL d   1      -1.352   3.978   1.119  0.00  0.00    -0.040 A 
ATOM     13  C   UNL d   1       0.052   3.995   1.070  0.00  0.00     0.009 A 
ATOM     14  C   UNL d   1       0.809   4.255   2.217  0.00  0.00     0.001 A 
ATOM     15  C   UNL d   1       0.177   4.506   3.432  0.00  0.00     0.000 A 
ATOM     16  C   UNL d   1      -1.213   4.506   3.498  0.00  0.00     0.001 A 
ATOM     17  C   UNL d   1      -1.970   4.252   2.351  0.00  0.00     0.009 A 
ENDBRANCH  11  12
ENDBRANCH   2  11
BRANCH   1  18
ATOM     18  C   UNL d   1      -2.247   0.865   0.469  0.00  0.00     0.144 A 
ATOM     19  O   UNL d   1      -1.503   0.883  -0.683  0.00  0.00    -0.298 OA
ATOM     20  C   UNL d   1      -0.436   0.067  -0.491  0.00  0.00     0.122 A 
ATOM     21 BR   UNL d   1       0.929  -0.175  -1.740  0.00  0.00    -0.023 Br
ATOM     22  C   UNL d   1      -0.496  -0.524   0.748  0.00  0.00     0.048 A 
ATOM     23  C   UNL d   1      -1.681  -0.035   1.356  0.00  0.00     0.046 A 
ENDBRANCH   1  18
TORSDOF 5
