REMARK  1 active torsions:
REMARK  status: ('A' for Active; 'I' for Inactive)
REMARK    1  A    between atoms: C_2  and  C_1 
ROOT
ATOM      1  C   UNL d   1       3.762  -1.327  -0.003  0.00  0.00     0.103 A 
ATOM      2  C   UNL d   1       4.666  -1.136   1.208  0.00  0.00     0.031 A 
ATOM      3  C   UNL d   1       4.505  -1.019  -1.290  0.00  0.00     0.031 A 
ATOM      4  C   UNL d   1       5.968  -0.820   1.083  0.00  0.00     0.065 A 
ATOM      5  C   UNL d   1       5.811  -0.688  -1.306  0.00  0.00     0.065 A 
ATOM      6  O   UNL d   1       6.572  -0.628  -0.150  0.00  0.00    -0.318 OA
ATOM      7  C   UNL d   1       4.098  -1.276   2.583  0.00  0.00     0.159 C 
ATOM      8  C   UNL d   1       3.765  -1.048  -2.587  0.00  0.00     0.159 C 
ATOM      9  C   UNL d   1       6.593  -0.348  -2.545  0.00  0.00     0.075 C 
ATOM     10  C   UNL d   1       6.921  -0.649   2.234  0.00  0.00     0.075 C 
ATOM     11  C   UNL d   1       5.944  -0.868  -3.842  0.00  0.00    -0.035 C 
ATOM     12  C   UNL d   1       6.447  -1.342   3.525  0.00  0.00    -0.035 C 
ATOM     13  C   UNL d   1       4.452  -0.507  -3.825  0.00  0.00     0.092 C 
ATOM     14  C   UNL d   1       4.981  -0.967   3.776  0.00  0.00     0.092 C 
ATOM     15  O   UNL d   1       2.922  -1.594   2.750  0.00  0.00    -0.293 OA
ATOM     16  O   UNL d   1       2.614  -1.476  -2.647  0.00  0.00    -0.293 OA
ATOM     17  C   UNL d   1       6.123  -2.395  -3.968  0.00  0.00     0.015 C 
ATOM     18  C   UNL d   1       6.620  -0.203  -5.053  0.00  0.00     0.015 C 
ATOM     19  C   UNL d   1       7.310  -0.862   4.704  0.00  0.00     0.015 C 
ATOM     20  C   UNL d   1       6.592  -2.874   3.413  0.00  0.00     0.015 C 
ENDROOT
BRANCH   1  21
ATOM     21  C   UNL d   1       2.475  -0.536   0.113  0.00  0.00     0.029 A 
ATOM     22  C   UNL d   1       2.557   0.938   0.181  0.00  0.00     0.194 A 
ATOM     23  C   UNL d   1       1.293   1.680   0.418  0.00  0.00     0.054 A 
ATOM     24  O   UNL d   1       3.635   1.496   0.036  0.00  0.00    -0.287 OA
ATOM     25  C   UNL d   1       1.231   3.075   0.617  0.00  0.00    -0.044 A 
ATOM     26  C   UNL d   1       0.109   0.928   0.430  0.00  0.00     0.090 A 
ATOM     27  C   UNL d   1      -0.033   3.668   0.798  0.00  0.00     0.014 A 
ATOM     28  C   UNL d   1       2.406   4.015   0.646  0.00  0.00     0.049 C 
ATOM     29  C   UNL d   1      -1.213   2.915   0.798  0.00  0.00    -0.059 A 
ATOM     30  C   UNL d   1      -1.133   1.537   0.616  0.00  0.00     0.045 A 
ATOM     31  C   UNL d   1      -2.535   3.595   0.984  0.00  0.00     0.048 C 
ATOM     32  O   UNL d   1       0.070  -0.434   0.260  0.00  0.00    -0.321 OA
ATOM     33  C   UNL d   1       1.261  -1.095   0.150  0.00  0.00     0.154 A 
ENDBRANCH   1  21
TORSDOF 1
