REMARK  5 active torsions:
REMARK  status: ('A' for Active; 'I' for Inactive)
REMARK    1  A    between atoms: C_4  and  C_1 
REMARK       I    between atoms: N_6  and  C_4 
REMARK    2  A    between atoms: C_13  and  N_6 
REMARK    3  A    between atoms: C_19  and  N_6 
REMARK    4  A    between atoms: C_10  and  C_13 
REMARK    5  A    between atoms: C_18  and  C_19 
ROOT
ATOM      1  N   UNL d   1      -4.810   3.849  -0.764  0.00  0.00    -0.197 NA
ATOM      2  C   UNL d   1      -4.553   2.736  -0.952  0.00  0.00     0.060 C 
ATOM      3  C   UNL d   1      -4.230   1.320  -1.167  0.00  0.00     0.143 C 
ENDROOT
BRANCH   3   4
ATOM      4  C   UNL d   1      -4.146   0.586   0.173  0.00  0.00     0.140 C 
BRANCH   4   5
ATOM      5  N   UNL d   1      -3.820  -0.843   0.022  0.00  0.00    -0.341 N 
ATOM      6  C   UNL d   1      -2.537  -1.305  -0.335  0.00  0.00     0.272 C 
ATOM      7  O   UNL d   1      -2.373  -2.424  -0.822  0.00  0.00    -0.266 OA
BRANCH   6   8
ATOM      8  C   UNL d   1      -1.389  -0.414  -0.121  0.00  0.00     0.125 A 
ATOM      9  N   UNL d   1      -0.503  -0.186  -1.105  0.00  0.00    -0.256 N 
ATOM     10  O   UNL d   1       0.469   0.637  -0.568  0.00  0.00    -0.242 OA
ATOM     11  HN  UNL d   1      -0.541  -0.547  -2.058  1.00  0.00     0.195 HD
ATOM     12  C   UNL d   1       0.173   0.901   0.731  0.00  0.00     0.075 A 
ATOM     13  C   UNL d   1      -0.995   0.264   1.064  0.00  0.00     0.071 A 
ATOM     14  C   UNL d   1       1.131   1.746   1.465  0.00  0.00     0.079 C 
ENDBRANCH   6   8
BRANCH   5  15
ATOM     15  C   UNL d   1      -4.943  -1.763  -0.184  0.00  0.00     0.172 C 
BRANCH  15  16
ATOM     16  C   UNL d   1      -5.533  -2.210   1.125  0.00  0.00     0.000 A 
ATOM     17  S   UNL d   1      -6.877  -1.389   1.808  0.00  0.00    -0.105 SA
ATOM     18  C   UNL d   1      -7.018  -2.523   3.077  0.00  0.00     0.050 A 
ATOM     19  C   UNL d   1      -6.061  -3.509   2.996  0.00  0.00     0.008 A 
ATOM     20  C   UNL d   1      -5.193  -3.320   1.880  0.00  0.00     0.017 A 
ENDBRANCH  15  16
ENDBRANCH   5  15
ENDBRANCH   4   5
ENDBRANCH   3   4
TORSDOF 5
