REMARK  3 active torsions:
REMARK  status: ('A' for Active; 'I' for Inactive)
REMARK    1  A    between atoms: C_4  and  C_1 
REMARK    2  A    between atoms: C_10  and  C_5 
REMARK    3  A    between atoms: C_6  and  C_8 
ROOT
ATOM      1  C   UNL d   1       0.235  -1.131  -0.098  0.00  0.00     0.087 A 
ATOM      2  N   UNL d   1       1.404  -0.547  -0.271  0.00  0.00    -0.349 N 
ATOM      3  HN  UNL d   1       2.275  -1.040  -0.465  1.00  0.00     0.166 HD
ATOM      4  C   UNL d   1       1.285   0.830  -0.151  0.00  0.00     0.050 A 
ATOM      5  S   UNL d   1      -1.087  -0.037   0.101  0.00  0.00    -0.081 SA
ATOM      6  C   UNL d   1      -0.003   1.287   0.018  0.00  0.00     0.082 A 
ENDROOT
BRANCH   1   7
ATOM      7  C   UNL d   1       0.029  -2.585  -0.041  0.00  0.00     0.028 A 
ATOM      8  C   UNL d   1       0.925  -3.474   0.581  0.00  0.00     0.063 A 
ATOM      9  C   UNL d   1       0.638  -4.858   0.541  0.00  0.00     0.034 A 
ATOM     10  C   UNL d   1      -0.518  -5.301  -0.072  0.00  0.00     0.088 A 
ATOM     11  N   UNL d   1      -1.397  -4.479  -0.660  0.00  0.00    -0.374 N 
ATOM     12  C   UNL d   1      -1.102  -3.153  -0.639  0.00  0.00     0.102 A 
ATOM     13  HN  UNL d   1      -2.247  -4.831  -1.102  1.00  0.00     0.164 HD
BRANCH   8  14
ATOM     14  C   UNL d   1       2.191  -3.090   1.311  0.00  0.00     0.418 C 
ATOM     15  F   UNL d   1       2.357  -1.784   1.634  0.00  0.00    -0.166 F 
ATOM     16  F   UNL d   1       2.268  -3.740   2.514  0.00  0.00    -0.166 F 
ATOM     17  F   UNL d   1       3.310  -3.470   0.633  0.00  0.00    -0.166 F 
ENDBRANCH   8  14
ENDBRANCH   1   7
BRANCH   4  18
ATOM     18  C   UNL d   1       2.467   1.688  -0.134  0.00  0.00    -0.009 A 
ATOM     19  C   UNL d   1       2.433   3.006  -0.608  0.00  0.00     0.015 A 
ATOM     20  C   UNL d   1       3.577   3.815  -0.542  0.00  0.00     0.024 A 
ATOM     21  C   UNL d   1       4.756   3.305  -0.005  0.00  0.00     0.034 A 
ATOM     22  C   UNL d   1       4.808   1.998   0.466  0.00  0.00     0.024 A 
ATOM     23 CL   UNL d   1       6.157   4.301   0.080  0.00  0.00    -0.084 Cl
ATOM     24  C   UNL d   1       3.665   1.190   0.395  0.00  0.00     0.015 A 
ENDBRANCH   4  18
TORSDOF 3
