REMARK  4 active torsions:
REMARK  status: ('A' for Active; 'I' for Inactive)
REMARK    1  A    between atoms: N_2  and  S_1 
REMARK    2  A    between atoms: C_4  and  S_1 
REMARK       I    between atoms: C_3  and  N_2 
REMARK       I    between atoms: N_8  and  C_3 
REMARK    3  A    between atoms: C_13  and  N_8 
REMARK    4  A    between atoms: C_22  and  C_16 
ROOT
ATOM      1  N   UNL d   1       4.397  -2.181  -9.392  0.00  0.00    -0.197 NA
ATOM      2  C   UNL d   1       3.403  -1.905  -8.861  0.00  0.00     0.063 C 
ATOM      3  C   UNL d   1       2.134  -1.535  -8.224  0.00  0.00     0.162 C 
ENDROOT
BRANCH   3   4
ATOM      4  C   UNL d   1       2.143  -1.643  -6.718  0.00  0.00    -0.045 A 
ATOM      5  C   UNL d   1       2.981  -0.844  -5.926  0.00  0.00     0.010 A 
ATOM      6  C   UNL d   1       2.843  -0.831  -4.531  0.00  0.00     0.030 A 
ATOM      7  C   UNL d   1       1.866  -1.613  -3.905  0.00  0.00     0.036 A 
ATOM      8  C   UNL d   1       1.102  -2.478  -4.690  0.00  0.00     0.030 A 
ATOM      9  C   UNL d   1       1.234  -2.491  -6.080  0.00  0.00     0.010 A 
BRANCH   7  10
ATOM     10  N   UNL d   1       1.650  -1.423  -2.520  0.00  0.00    -0.308 N 
ATOM     11  C   UNL d   1       0.682  -2.034  -1.760  0.00  0.00     0.334 C 
ATOM     12  N   UNL d   1       0.559  -1.480  -0.490  0.00  0.00    -0.232 N 
ATOM     13  O   UNL d   1      -0.015  -2.970  -2.110  0.00  0.00    -0.246 OA
ATOM     14  H   UNL d   1       1.153  -0.741  -0.143  0.00  0.00     0.183 HD
ATOM     15  H   UNL d   1       2.191  -0.700  -2.074  0.00  0.00     0.170 HD
BRANCH  12  16
ATOM     16  S   UNL d   1      -0.524  -2.050   0.646  0.00  0.00     0.266 S 
ATOM     17  O   UNL d   1      -1.863  -1.978   0.108  0.00  0.00    -0.200 OA
ATOM     18  O   UNL d   1      -0.182  -1.364   1.878  0.00  0.00    -0.200 OA
BRANCH  16  19
ATOM     19  C   UNL d   1      -0.033  -3.743   0.832  0.00  0.00     0.080 A 
ATOM     20  C   UNL d   1       1.193  -4.025   1.440  0.00  0.00     0.026 A 
ATOM     21  C   UNL d   1       1.654  -5.340   1.471  0.00  0.00     0.008 A 
ATOM     22  C   UNL d   1       0.892  -6.373   0.906  0.00  0.00    -0.062 A 
ATOM     23  C   UNL d   1      -0.360  -6.081   0.349  0.00  0.00     0.008 A 
ATOM     24  C   UNL d   1       1.443  -7.768   0.873  0.00  0.00     0.048 C 
ATOM     25  C   UNL d   1      -0.829  -4.766   0.314  0.00  0.00     0.026 A 
ENDBRANCH  16  19
ENDBRANCH  12  16
ENDBRANCH   7  10
ENDBRANCH   3   4
TORSDOF 4
