REMARK  8 active torsions:
REMARK  status: ('A' for Active; 'I' for Inactive)
REMARK    1  A    between atoms: C_5  and  C_1 
REMARK    2  A    between atoms: C_8  and  N_4 
REMARK       I    between atoms: C_9  and  N_10 
REMARK    3  A    between atoms: C_24  and  C_9 
REMARK    4  A    between atoms: N_10  and  C_19 
REMARK    5  A    between atoms: C_11  and  C_25 
REMARK    6  A    between atoms: O_21  and  C_11 
REMARK    7  A    between atoms: O_20  and  C_24 
REMARK    8  A    between atoms: C_25  and  O_20 
ROOT
ATOM      1  C   UNL d   1       1.979   1.551  -0.005  0.00  0.00     0.056 A 
ATOM      2  C   UNL d   1       2.918   1.378  -1.032  0.00  0.00     0.034 A 
ATOM      3  C   UNL d   1       2.210   2.525   0.972  0.00  0.00     0.034 A 
ATOM      4  C   UNL d   1       4.307   3.142  -0.095  0.00  0.00     0.034 A 
ATOM      5  C   UNL d   1       3.369   3.309   0.925  0.00  0.00     0.032 A 
ATOM      6  C   UNL d   1       4.067   2.179  -1.081  0.00  0.00     0.032 A 
ENDROOT
BRANCH   4   7
ATOM      7  N   UNL d   1       5.481   3.919  -0.198  0.00  0.00    -0.325 N 
ATOM      8  C   UNL d   1       5.999   4.763   0.769  0.00  0.00     0.245 C 
ATOM      9  O   UNL d   1       5.593   4.891   1.920  0.00  0.00    -0.271 OA
ATOM     10  H   UNL d   1       6.021   3.812  -1.048  0.00  0.00     0.169 HD
BRANCH   8  11
ATOM     11  C   UNL d   1       7.233   5.531   0.291  0.00  0.00     0.271 C 
BRANCH  11  12
ATOM     12  O   UNL d   1       6.963   6.270  -0.903  0.00  0.00    -0.372 OA
BRANCH  12  13
ATOM     13  C   UNL d   1       7.985   7.242  -1.152  0.00  0.00     0.277 C 
BRANCH  13  14
ATOM     14  C   UNL d   1       9.158   6.596  -1.871  0.00  0.00     0.164 C 
ATOM     15  O   UNL d   1      10.333   6.841  -1.652  0.00  0.00    -0.648 OA
BRANCH  14  16
ATOM     16  O   UNL d   1       8.743   5.701  -2.803  0.00  0.00    -0.775 OA
ATOM     17  H   UNL d   1       7.763   5.658  -2.810  0.00  0.00     0.167 HD
ENDBRANCH  14  16
ENDBRANCH  13  14
ENDBRANCH  12  13
ENDBRANCH  11  12
ENDBRANCH   8  11
ENDBRANCH   4   7
BRANCH   1  18
ATOM     18  N   UNL d   1       0.812   0.738   0.036  0.00  0.00    -0.267 N 
ATOM     19  N   UNL d   1       0.630  -0.273  -0.854  0.00  0.00    -0.290 N 
ATOM     20  C   UNL d   1      -0.537  -0.850  -0.509  0.00  0.00     0.134 A 
ATOM     21  HN  UNL d   1       1.247  -0.538  -1.621  1.00  0.00     0.187 HD
ATOM     22  C   UNL d   1      -1.126  -0.179   0.590  0.00  0.00     0.055 A 
ATOM     23  C   UNL d   1      -0.246   0.824   0.914  0.00  0.00     0.119 A 
BRANCH  20  24
ATOM     24  C   UNL d   1      -1.114  -2.046  -1.218  0.00  0.00     0.434 C 
ATOM     25  F   UNL d   1      -0.321  -2.535  -2.207  0.00  0.00    -0.165 F 
ATOM     26  F   UNL d   1      -1.340  -3.075  -0.354  0.00  0.00    -0.165 F 
ATOM     27  F   UNL d   1      -2.317  -1.757  -1.786  0.00  0.00    -0.165 F 
ENDBRANCH  20  24
ENDBRANCH   1  18
TORSDOF 8
