REMARK  2 active torsions:
REMARK  status: ('A' for Active; 'I' for Inactive)
REMARK    1  A    between atoms: C_11  and  N_5 
REMARK    2  A    between atoms: C_14  and  C_11 
ROOT
ATOM      1  C   UNL d   1       0.276  -0.727   0.013  0.00  0.00     0.069 A 
ATOM      2  C   UNL d   1       0.239   0.681   0.014  0.00  0.00     0.021 A 
ATOM      3  C   UNL d   1      -0.950  -1.503   0.025  0.00  0.00     0.275 A 
ATOM      4  C   UNL d   1       1.604  -1.111   0.002  0.00  0.00     0.022 A 
ATOM      5  N   UNL d   1      -2.113  -0.704   0.039  0.00  0.00    -0.253 N 
ATOM      6  N   UNL d   1       2.356   0.045  -0.003  0.00  0.00    -0.362 N 
ATOM      7  N   UNL d   1      -2.136   0.708   0.037  0.00  0.00    -0.306 N 
ATOM      8  HN  UNL d   1      -3.026   1.205   0.046  1.00  0.00     0.186 HD
ATOM      9  C   UNL d   1       1.535   1.153   0.008  0.00  0.00     0.018 A 
ATOM     10  C   UNL d   1      -1.018   1.372   0.023  0.00  0.00     0.121 A 
ATOM     11  O   UNL d   1      -0.957  -2.731   0.033  0.00  0.00    -0.266 OA
ATOM     12  C   UNL d   1       2.244  -2.451  -0.004  0.00  0.00     0.069 C 
ATOM     13  C   UNL d   1       2.089   2.529   0.013  0.00  0.00     0.069 C 
ATOM     14  H   UNL d   1       3.369   0.073  -0.010  0.00  0.00     0.165 HD
ENDROOT
BRANCH   5  15
ATOM     15  C   UNL d   1      -3.410  -1.367   0.009  0.00  0.00     0.191 C 
BRANCH  15  16
ATOM     16  C   UNL d   1      -3.903  -1.595  -1.401  0.00  0.00    -0.038 A 
ATOM     17  C   UNL d   1      -3.572  -2.770  -2.091  0.00  0.00     0.009 A 
ATOM     18  C   UNL d   1      -3.997  -2.964  -3.406  0.00  0.00     0.001 A 
ATOM     19  C   UNL d   1      -4.755  -1.986  -4.045  0.00  0.00     0.000 A 
ATOM     20  C   UNL d   1      -5.088  -0.812  -3.371  0.00  0.00     0.001 A 
ATOM     21  C   UNL d   1      -4.661  -0.615  -2.057  0.00  0.00     0.009 A 
ENDBRANCH  15  16
ENDBRANCH   5  15
TORSDOF 2
