REMARK  0 active torsions:
REMARK  status: ('A' for Active; 'I' for Inactive)
ROOT
ATOM      1  C   UNL d   1       0.002   1.414   0.018  0.00  0.00     0.051 A 
ATOM      2  C   UNL d   1      -0.002  -1.381  -0.002  0.00  0.00     0.051 A 
ATOM      3  C   UNL d   1       1.212   0.715   0.009  0.00  0.00     0.057 A 
ATOM      4  C   UNL d   1       1.210  -0.685   0.003  0.00  0.00     0.057 A 
ATOM      5  C   UNL d   1      -1.211   0.718   0.013  0.00  0.00     0.057 A 
ATOM      6  C   UNL d   1      -1.212  -0.682   0.001  0.00  0.00     0.057 A 
ATOM      7 CL   UNL d   1       2.671   1.638   0.004  0.00  0.00    -0.082 Cl
ATOM      8 CL   UNL d   1       2.667  -1.612   0.000  0.00  0.00    -0.082 Cl
ATOM      9 CL   UNL d   1      -2.668   1.645   0.020  0.00  0.00    -0.082 Cl
ATOM     10 CL   UNL d   1      -2.672  -1.606  -0.012  0.00  0.00    -0.082 Cl
ENDROOT
TORSDOF 0
