REMARK  7 active torsions:
REMARK  status: ('A' for Active; 'I' for Inactive)
REMARK       I    between atoms: C_2  and  N_1 
REMARK    1  A    between atoms: C_3  and  N_1 
REMARK    2  A    between atoms: C_4  and  C_2 
REMARK    3  A    between atoms: N_7  and  C_3 
REMARK    4  A    between atoms: C_5  and  C_13 
REMARK    5  A    between atoms: C_16  and  C_6 
REMARK    6  A    between atoms: C_15  and  N_7 
REMARK    7  A    between atoms: O_23  and  C_17 
ROOT
ATOM      1  N   UNL d   1       1.319   0.226  -0.015  0.00  0.00    -0.299 N 
ATOM      2  C   UNL d   1       0.498   0.990  -0.839  0.00  0.00     0.259 C 
ATOM      3  O   UNL d   1      -0.719   0.817  -0.801  0.00  0.00    -0.267 OA
ATOM      4  H   UNL d   1       0.741  -0.364   0.572  0.00  0.00     0.171 HD
ENDROOT
BRANCH   2   5
ATOM      5  C   UNL d   1       1.071   2.016  -1.732  0.00  0.00     0.049 A 
ATOM      6  C   UNL d   1       0.385   2.354  -2.902  0.00  0.00     0.040 A 
ATOM      7  C   UNL d   1       0.968   3.248  -3.795  0.00  0.00     0.034 A 
ATOM      8  C   UNL d   1       2.196   3.802  -3.459  0.00  0.00     0.108 A 
ATOM      9  N   UNL d   1       2.848   3.562  -2.296  0.00  0.00    -0.373 N 
ATOM     10  C   UNL d   1       2.262   2.679  -1.453  0.00  0.00     0.104 A 
ATOM     11  HN  UNL d   1       3.730   4.020  -2.068  1.00  0.00     0.164 HD
BRANCH   7  12
ATOM     12  C   UNL d   1       0.342   3.568  -5.032  0.00  0.00    -0.060 C 
ATOM     13  C   UNL d   1      -0.116   3.857  -6.102  0.00  0.00    -0.061 C 
BRANCH  13  14
ATOM     14  C   UNL d   1      -0.591   4.222  -7.399  0.00  0.00     0.018 A 
ATOM     15  C   UNL d   1       0.294   4.223  -8.480  0.00  0.00     0.020 A 
ATOM     16  C   UNL d   1      -0.151   4.604  -9.746  0.00  0.00     0.001 A 
ATOM     17  C   UNL d   1      -1.478   4.981  -9.931  0.00  0.00     0.000 A 
ATOM     18  C   UNL d   1      -2.368   4.976  -8.853  0.00  0.00     0.001 A 
ATOM     19  C   UNL d   1      -1.923   4.597  -7.585  0.00  0.00     0.020 A 
ENDBRANCH  13  14
ENDBRANCH   7  12
ENDBRANCH   2   5
BRANCH   1  20
ATOM     20  C   UNL d   1       2.592  -0.302  -0.129  0.00  0.00     0.179 C 
ATOM     21  S   UNL d   1       3.447  -0.525  -1.547  0.00  0.00    -0.040 SA
BRANCH  20  22
ATOM     22  N   UNL d   1       3.180  -0.720   1.038  0.00  0.00    -0.333 N 
ATOM     23  H   UNL d   1       4.061  -1.201   0.877  0.00  0.00     0.168 HD
BRANCH  22  24
ATOM     24  C   UNL d   1       2.832  -0.530   2.396  0.00  0.00     0.034 A 
ATOM     25  C   UNL d   1       1.797   0.288   2.853  0.00  0.00     0.032 A 
ATOM     26  C   UNL d   1       1.522   0.412   4.221  0.00  0.00     0.039 A 
ATOM     27  C   UNL d   1       2.305  -0.252   5.159  0.00  0.00     0.068 A 
ATOM     28  C   UNL d   1       3.356  -1.052   4.713  0.00  0.00     0.039 A 
ATOM     29  C   UNL d   1       3.618  -1.192   3.345  0.00  0.00     0.032 A 
BRANCH  27  30
ATOM     30  O   UNL d   1       2.155  -0.185   6.515  0.00  0.00    -0.356 OA
ATOM     31  C   UNL d   1       1.102   0.641   6.999  0.00  0.00     0.210 C 
ENDBRANCH  27  30
ENDBRANCH  22  24
ENDBRANCH  20  22
ENDBRANCH   1  20
TORSDOF 7
