REMARK  2 active torsions:
REMARK  status: ('A' for Active; 'I' for Inactive)
REMARK       I    between atoms: N_2  and  C_1 
REMARK    1  A    between atoms: C_4  and  C_1 
REMARK    2  A    between atoms: C_5  and  N_2 
ROOT
ATOM      1  C   UNL d   1       1.185  -0.121   0.053  0.00  0.00     0.256 C 
ATOM      2  N   UNL d   1       0.457  -1.295  -0.080  0.00  0.00    -0.323 N 
ATOM      3  O   UNL d   1       2.365  -0.053   0.395  0.00  0.00    -0.267 OA
ATOM      4  H   UNL d   1      -0.499  -1.232  -0.398  0.00  0.00     0.169 HD
ENDROOT
BRANCH   2   5
ATOM      5  C   UNL d   1       0.968  -2.606   0.070  0.00  0.00     0.035 A 
ATOM      6  C   UNL d   1       2.217  -2.888   0.624  0.00  0.00     0.030 A 
ATOM      7  C   UNL d   1       2.719  -4.192   0.636  0.00  0.00     0.009 A 
ATOM      8  C   UNL d   1       1.975  -5.244   0.097  0.00  0.00    -0.062 A 
ATOM      9  C   UNL d   1       0.696  -4.977  -0.402  0.00  0.00     0.009 A 
ATOM     10  C   UNL d   1       2.585  -6.611   0.009  0.00  0.00     0.048 C 
ATOM     11  C   UNL d   1       0.191  -3.670  -0.402  0.00  0.00     0.030 A 
ENDBRANCH   2   5
BRANCH   1  12
ATOM     12  C   UNL d   1       0.496   1.164  -0.265  0.00  0.00     0.032 A 
ATOM     13  C   UNL d   1       1.097   2.345   0.204  0.00  0.00     0.017 A 
ATOM     14  C   UNL d   1       0.553   3.595  -0.090  0.00  0.00     0.001 A 
ATOM     15  C   UNL d   1      -0.603   3.679  -0.860  0.00  0.00     0.000 A 
ATOM     16  C   UNL d   1      -1.209   2.517  -1.336  0.00  0.00     0.001 A 
ATOM     17  C   UNL d   1      -0.663   1.261  -1.047  0.00  0.00     0.017 A 
ENDBRANCH   1  12
TORSDOF 2
