REMARK  6 active torsions:
REMARK  status: ('A' for Active; 'I' for Inactive)
REMARK    1  A    between atoms: O_17  and  C_1 
REMARK    2  A    between atoms: C_8  and  C_2 
REMARK    3  A    between atoms: O_19  and  C_7 
REMARK    4  A    between atoms: O_20  and  C_12 
REMARK    5  A    between atoms: O_21  and  C_14 
REMARK    6  A    between atoms: O_22  and  C_15 
ROOT
ATOM      1  C   UNL d   1       2.469   0.524  -0.003  0.00  0.00     0.152 A 
ATOM      2  C   UNL d   1       1.963   1.773  -0.027  0.00  0.00     0.123 A 
ATOM      3  C   UNL d   1       1.510  -0.612   0.035  0.00  0.00     0.223 A 
ATOM      4  C   UNL d   1       0.079  -0.281   0.021  0.00  0.00     0.084 A 
ATOM      5  O   UNL d   1       0.616   2.088   0.006  0.00  0.00    -0.306 OA
ATOM      6  C   UNL d   1      -0.295   1.061   0.015  0.00  0.00     0.096 A 
ATOM      7  C   UNL d   1      -0.900  -1.281   0.007  0.00  0.00     0.085 A 
ATOM      8  C   UNL d   1      -1.648   1.411   0.009  0.00  0.00     0.075 A 
ATOM      9  C   UNL d   1      -2.249  -0.938  -0.007  0.00  0.00     0.074 A 
ATOM     10  O   UNL d   1       1.865  -1.787   0.066  0.00  0.00    -0.284 OA
ATOM     11  C   UNL d   1      -2.613   0.405  -0.004  0.00  0.00     0.071 A 
ENDROOT
BRANCH   2  12
ATOM     12  C   UNL d   1       2.835   2.952  -0.130  0.00  0.00     0.004 A 
ATOM     13  C   UNL d   1       3.349   3.565   1.020  0.00  0.00     0.053 A 
ATOM     14  C   UNL d   1       4.246   4.626   0.894  0.00  0.00     0.099 A 
ATOM     15  C   UNL d   1       4.632   5.080  -0.369  0.00  0.00     0.098 A 
ATOM     16  C   UNL d   1       4.114   4.486  -1.516  0.00  0.00     0.040 A 
ATOM     17  C   UNL d   1       3.215   3.423  -1.396  0.00  0.00     0.017 A 
BRANCH  14  18
ATOM     18  O   UNL d   1       4.772   5.224   2.005  0.00  0.00    -0.358 OA
ATOM     19  H   UNL d   1       4.387   4.831   2.802  0.00  0.00     0.217 HD
ENDBRANCH  14  18
BRANCH  15  20
ATOM     20  O   UNL d   1       5.529   6.105  -0.467  0.00  0.00    -0.358 OA
ATOM     21  H   UNL d   1       5.719   6.281  -1.401  0.00  0.00     0.217 HD
ENDBRANCH  15  20
ENDBRANCH   2  12
BRANCH   1  22
ATOM     22  O   UNL d   1       3.819   0.218  -0.029  0.00  0.00    -0.355 OA
ATOM     23  H   UNL d   1       4.341   1.038  -0.023  0.00  0.00     0.218 HD
ENDBRANCH   1  22
BRANCH   7  24
ATOM     24  O   UNL d   1      -0.604  -2.617   0.002  0.00  0.00    -0.360 OA
ATOM     25  H   UNL d   1       0.376  -2.716   0.020  0.00  0.00     0.217 HD
ENDBRANCH   7  24
BRANCH  11  26
ATOM     26  O   UNL d   1      -3.945   0.698  -0.019  0.00  0.00    -0.361 OA
ATOM     27  H   UNL d   1      -4.065   1.661  -0.029  0.00  0.00     0.217 HD
ENDBRANCH  11  26
TORSDOF 6
