REMARK  3 active torsions:
REMARK  status: ('A' for Active; 'I' for Inactive)
REMARK    1  A    between atoms: C_6  and  C_1 
REMARK    2  A    between atoms: C_9  and  N_2 
REMARK       I    between atoms: N_8  and  C_6 
REMARK    3  A    between atoms: O_19  and  C_14 
ROOT
ATOM      1  C   UNL d   1      -0.255   1.183  -0.091  0.00  0.00     0.073 C 
ATOM      2  N   UNL d   1       1.010  -0.651  -0.103  0.00  0.00    -0.260 N 
ATOM      3  C   UNL d   1       1.064   0.738  -0.043  0.00  0.00     0.048 C 
ATOM      4  N   UNL d   1      -0.276  -1.091  -0.153  0.00  0.00    -0.304 N 
ATOM      5  HN  UNL d   1      -0.608  -2.054  -0.104  1.00  0.00     0.186 HD
ATOM      6  C   UNL d   1      -1.001   0.011  -0.281  0.00  0.00     0.126 C 
ATOM      7  C   UNL d   1       2.306   1.541   0.139  0.00  0.00     0.071 C 
ENDROOT
BRANCH   1   8
ATOM      8  C   UNL d   1      -0.717   2.567  -0.023  0.00  0.00     0.257 C 
ATOM      9  N   UNL d   1      -1.915   2.837   0.654  0.00  0.00    -0.348 N 
ATOM     10  C   UNL d   1      -2.523   4.157   0.484  0.00  0.00     0.126 C 
ATOM     11  C   UNL d   1      -2.704   1.876   1.429  0.00  0.00     0.126 C 
ATOM     12  C   UNL d   1      -2.962   4.755   1.820  0.00  0.00     0.020 C 
ATOM     13  C   UNL d   1      -3.868   3.794   2.582  0.00  0.00     0.003 C 
ATOM     14  C   UNL d   1      -3.175   2.451   2.761  0.00  0.00     0.020 C 
ATOM     15  O   UNL d   1      -0.051   3.460  -0.544  0.00  0.00    -0.267 OA
ENDBRANCH   1   8
BRANCH   2  16
ATOM     16  C   UNL d   1       2.045  -1.623  -0.148  0.00  0.00     0.056 A 
ATOM     17  C   UNL d   1       1.789  -2.896   0.386  0.00  0.00     0.034 A 
ATOM     18  C   UNL d   1       2.748  -3.907   0.306  0.00  0.00     0.039 A 
ATOM     19  C   UNL d   1       3.960  -3.665  -0.337  0.00  0.00     0.068 A 
ATOM     20  C   UNL d   1       4.214  -2.397  -0.867  0.00  0.00     0.039 A 
ATOM     21  C   UNL d   1       3.266  -1.371  -0.774  0.00  0.00     0.034 A 
BRANCH  19  22
ATOM     22  O   UNL d   1       4.963  -4.578  -0.516  0.00  0.00    -0.356 OA
ATOM     23  C   UNL d   1       4.674  -5.920  -0.149  0.00  0.00     0.210 C 
ENDBRANCH  19  22
ENDBRANCH   2  16
TORSDOF 3
