REMARK  3 active torsions:
REMARK  status: ('A' for Active; 'I' for Inactive)
REMARK    1  A    between atoms: C_17  and  N_13 
REMARK    2  A    between atoms: O_16  and  C_18 
REMARK    3  A    between atoms: C_18  and  C_17 
ROOT
ATOM      1  C   UNL d   1      -0.988   0.679  -0.015  0.00  0.00     0.160 A 
ATOM      2  C   UNL d   1      -0.955  -0.677   0.019  0.00  0.00     0.162 A 
ATOM      3  N   UNL d   1       0.164   1.424  -0.013  0.00  0.00    -0.287 N 
ATOM      4  N   UNL d   1       1.390  -0.633   0.026  0.00  0.00    -0.269 N 
ATOM      5  C   UNL d   1       1.403   0.773   0.011  0.00  0.00     0.332 A 
ATOM      6  C   UNL d   1       0.239  -1.440   0.028  0.00  0.00     0.282 A 
ATOM      7  N   UNL d   1      -2.265   1.152  -0.059  0.00  0.00    -0.174 N 
ATOM      8  HN  UNL d   1      -2.566   2.124  -0.127  1.00  0.00     0.186 HD
ATOM      9  N   UNL d   1      -2.263  -1.066   0.050  0.00  0.00    -0.182 N 
ATOM     10  C   UNL d   1      -3.023   0.081   0.006  0.00  0.00     0.680 A 
ATOM     11  O   UNL d   1       2.456   1.417   0.018  0.00  0.00    -0.246 OA
ATOM     12  O   UNL d   1       0.254  -2.663   0.032  0.00  0.00    -0.265 OA
ATOM     13  N   UNL d   1      -4.361  -0.008   0.012  0.00  0.00    -0.224 N 
ATOM     14  C   UNL d   1       0.134   2.871  -0.003  0.00  0.00     0.163 C 
ATOM     15  C   UNL d   1       2.662  -1.331   0.057  0.00  0.00     0.164 C 
ATOM     16  H   UNL d   1      -2.615  -2.010   0.051  0.00  0.00     0.184 HD
ATOM     17  H   UNL d   1      -4.884  -0.829   0.299  0.00  0.00     0.177 HD
ENDROOT
BRANCH  13  18
ATOM     18  C   UNL d   1      -5.186   1.061  -0.534  0.00  0.00     0.164 C 
BRANCH  18  19
ATOM     19  C   UNL d   1      -6.109   0.484  -1.621  0.00  0.00     0.184 C 
BRANCH  19  20
ATOM     20  O   UNL d   1      -6.953  -0.528  -1.071  0.00  0.00    -0.399 OA
ATOM     21  H   UNL d   1      -7.513  -0.852  -1.800  0.00  0.00     0.209 HD
ENDBRANCH  19  20
ENDBRANCH  18  19
ENDBRANCH  13  18
TORSDOF 3
