REMARK  6 active torsions:
REMARK  status: ('A' for Active; 'I' for Inactive)
REMARK    1  A    between atoms: N_2  and  C_1 
REMARK    2  A    between atoms: N_3  and  C_7 
REMARK       I    between atoms: C_6  and  N_5 
REMARK    3  A    between atoms: O_24  and  C_6 
REMARK    4  A    between atoms: N_9  and  C_8 
REMARK    5  A    between atoms: N_10  and  N_9 
REMARK    6  A    between atoms: C_25  and  O_24 
ROOT
ATOM      1  N   UNL d   1       1.767   1.962  -0.183  0.00  0.00    -0.298 N 
ATOM      2  H   UNL d   1       1.067   1.770  -0.909  0.00  0.00     0.187 HD
ENDROOT
BRANCH   1   3
ATOM      3  C   UNL d   1       1.492   3.162   0.525  0.00  0.00     0.081 A 
ATOM      4  C   UNL d   1       0.252   3.835   0.468  0.00  0.00     0.133 A 
ATOM      5  C   UNL d   1       0.053   5.054   1.147  0.00  0.00     0.074 A 
ATOM      6  C   UNL d   1       1.090   5.590   1.921  0.00  0.00     0.105 A 
ATOM      7  C   UNL d   1       2.295   4.902   2.061  0.00  0.00     0.038 A 
ATOM      8  C   UNL d   1       2.482   3.699   1.377  0.00  0.00     0.036 A 
BRANCH   4   9
ATOM      9  N   UNL d   1      -0.869   3.303  -0.323  0.00  0.00    -0.113 N 
ATOM     10  O   UNL d   1      -1.982   3.824  -0.163  0.00  0.00    -0.532 OA
ATOM     11  O   UNL d   1      -0.639   2.373  -1.110  0.00  0.00    -0.532 OA
ENDBRANCH   4   9
BRANCH   6  12
ATOM     12  N   UNL d   1       0.919   6.894   2.573  0.00  0.00    -0.116 N 
ATOM     13  O   UNL d   1      -0.114   7.528   2.321  0.00  0.00    -0.532 OA
ATOM     14  O   UNL d   1       1.824   7.287   3.322  0.00  0.00    -0.532 OA
ENDBRANCH   6  12
ENDBRANCH   1   3
BRANCH   1  15
ATOM     15  N   UNL d   1       3.076   1.701  -0.424  0.00  0.00    -0.308 N 
ATOM     16  C   UNL d   1       3.414   0.863  -1.356  0.00  0.00     0.007 C 
ATOM     17  C   UNL d   1       2.494   0.080  -2.267  0.00  0.00     0.074 C 
ATOM     18  C   UNL d   1       4.896   0.614  -1.561  0.00  0.00     0.074 C 
ATOM     19  C   UNL d   1       2.814  -1.397  -2.069  0.00  0.00     0.134 C 
ATOM     20  N   UNL d   1       4.246  -1.645  -2.254  0.00  0.00    -0.327 N 
ATOM     21  C   UNL d   1       5.144  -0.878  -1.393  0.00  0.00     0.134 C 
ATOM     22  C   UNL d   1       4.765  -2.513  -3.198  0.00  0.00     0.362 C 
ATOM     23  O   UNL d   1       5.962  -2.736  -3.331  0.00  0.00    -0.238 OA
ATOM     24  HN  UNL d   1       3.797   2.164   0.129  1.00  0.00     0.186 HD
BRANCH  22  25
ATOM     25  O   UNL d   1       3.797  -3.061  -3.978  0.00  0.00    -0.304 OA
BRANCH  25  26
ATOM     26  C   UNL d   1       4.223  -3.896  -5.064  0.00  0.00     0.176 C 
ATOM     27  C   UNL d   1       3.792  -5.324  -4.793  0.00  0.00     0.034 C 
ENDBRANCH  25  26
ENDBRANCH  22  25
ENDBRANCH   1  15
TORSDOF 6
