REMARK  1 active torsions:
REMARK  status: ('A' for Active; 'I' for Inactive)
REMARK    1  A    between atoms: O_10  and  C_2 
ROOT
ATOM      1  C   UNL d   1       2.401  -0.706   0.001  0.00  0.00     0.120 A 
ATOM      2  C   UNL d   1       1.276  -1.428   0.018  0.00  0.00     0.084 A 
ATOM      3  C   UNL d   1      -0.022  -0.759   0.025  0.00  0.00     0.033 A 
ATOM      4  C   UNL d   1       2.382   0.765   0.001  0.00  0.00     0.290 A 
ATOM      5  C   UNL d   1      -0.048   0.636   0.011  0.00  0.00     0.092 A 
ATOM      6  O   UNL d   1       1.144   1.385   0.014  0.00  0.00    -0.275 OA
ATOM      7  C   UNL d   1      -1.240  -1.448   0.023  0.00  0.00     0.036 A 
ATOM      8  O   UNL d   1       3.433   1.397  -0.012  0.00  0.00    -0.260 OA
ATOM      9  C   UNL d   1      -1.244   1.352  -0.017  0.00  0.00     0.040 A 
ATOM     10  C   UNL d   1      -2.444  -0.740  -0.013  0.00  0.00     0.012 A 
ATOM     11  C   UNL d   1      -2.452   0.656  -0.036  0.00  0.00     0.022 A 
ATOM     12 BR   UNL d   1      -4.083  -1.682  -0.046  0.00  0.00    -0.051 Br
ENDROOT
BRANCH   2  13
ATOM     13  O   UNL d   1       1.261  -2.804   0.011  0.00  0.00    -0.360 OA
ATOM     14  H   UNL d   1       2.174  -3.135  -0.026  0.00  0.00     0.217 HD
ENDBRANCH   2  13
TORSDOF 1
