REMARK  4 active torsions:
REMARK  status: ('A' for Active; 'I' for Inactive)
REMARK    1  A    between atoms: C_4  and  C_1 
REMARK    2  A    between atoms: C_2  and  C_5 
REMARK    3  A    between atoms: C_3  and  C_6 
REMARK       I    between atoms: N_7  and  C_3 
REMARK    4  A    between atoms: C_11  and  N_7 
ROOT
ATOM      1  C   UNL d   1      -1.609  -5.449   4.731  0.00  0.00     0.049 A 
ATOM      2  C   UNL d   1       0.759  -6.032   4.634  0.00  0.00     0.049 A 
ATOM      3  C   UNL d   1       0.079  -3.684   4.733  0.00  0.00     0.033 A 
ATOM      4  C   UNL d   1      -0.595  -6.413   4.647  0.00  0.00     0.032 A 
ATOM      5  C   UNL d   1       1.080  -4.666   4.650  0.00  0.00     0.033 A 
ATOM      6  C   UNL d   1      -1.256  -4.094   4.840  0.00  0.00     0.033 A 
ENDROOT
BRANCH   3   7
ATOM      7  C   UNL d   1       0.474  -2.244   4.578  0.00  0.00     0.252 C 
ATOM      8  N   UNL d   1      -0.539  -1.307   4.607  0.00  0.00    -0.352 N 
ATOM      9  H   UNL d   1      -1.492  -1.618   4.668  0.00  0.00     0.163 HD
ATOM     10  O   UNL d   1       1.649  -1.962   4.368  0.00  0.00    -0.268 OA
BRANCH   8  11
ATOM     11  C   UNL d   1      -0.382   0.073   4.151  0.00  0.00     0.085 C 
ATOM     12  C   UNL d   1       0.617   0.908   4.964  0.00  0.00     0.034 C 
ATOM     13  C   UNL d   1       0.140   1.325   6.376  0.00  0.00    -0.045 C 
ATOM     14  C   UNL d   1       0.166   0.132   7.350  0.00  0.00     0.015 C 
ATOM     15  C   UNL d   1       1.119   2.387   6.918  0.00  0.00     0.015 C 
ATOM     16  C   UNL d   1      -1.277   1.941   6.301  0.00  0.00     0.013 C 
ATOM     17  C   UNL d   1      -2.282   1.064   5.537  0.00  0.00    -0.016 C 
ATOM     18  C   UNL d   1      -1.758   0.762   4.124  0.00  0.00     0.029 C 
ATOM     19  C   UNL d   1      -3.654   1.734   5.476  0.00  0.00     0.010 C 
ENDBRANCH   8  11
ENDBRANCH   3   7
BRANCH   1  20
ATOM     20  C   UNL d   1      -3.071  -5.814   4.628  0.00  0.00     0.417 C 
ATOM     21  F   UNL d   1      -3.287  -7.106   4.267  0.00  0.00    -0.166 F 
ATOM     22  F   UNL d   1      -3.711  -5.052   3.695  0.00  0.00    -0.166 F 
ATOM     23  F   UNL d   1      -3.744  -5.619   5.792  0.00  0.00    -0.166 F 
ENDBRANCH   1  20
BRANCH   2  24
ATOM     24  C   UNL d   1       1.855  -7.070   4.568  0.00  0.00     0.417 C 
ATOM     25  F   UNL d   1       1.386  -8.345   4.510  0.00  0.00    -0.166 F 
ATOM     26  F   UNL d   1       2.657  -6.921   3.474  0.00  0.00    -0.166 F 
ATOM     27  F   UNL d   1       2.676  -7.027   5.649  0.00  0.00    -0.166 F 
ENDBRANCH   2  24
TORSDOF 4
