REMARK  8 active torsions:
REMARK  status: ('A' for Active; 'I' for Inactive)
REMARK    1  A    between atoms: O_8  and  C_1 
REMARK    2  A    between atoms: C_2  and  C_11 
REMARK    3  A    between atoms: C_17  and  C_3 
REMARK       I    between atoms: C_4  and  N_7 
REMARK    4  A    between atoms: O_10  and  C_4 
REMARK    5  A    between atoms: N_5  and  O_10 
REMARK    6  A    between atoms: N_7  and  C_16 
REMARK    7  A    between atoms: C_18  and  O_8 
REMARK    8  A    between atoms: C_19  and  C_15 
ROOT
ATOM      1  N   UNL d   1       5.272  -6.907   4.230  0.00  0.00    -0.267 N 
ATOM      2  HN  UNL d   1       4.288  -6.673   4.364  1.00  0.00     0.194 HD
ATOM      3  C   UNL d   1       5.789  -8.070   4.481  0.00  0.00     0.126 C 
ENDROOT
BRANCH   1   4
ATOM      4  O   UNL d   1       6.244  -6.007   3.747  0.00  0.00    -0.181 OA
BRANCH   4   5
ATOM      5  C   UNL d   1       5.734  -4.746   3.543  0.00  0.00     0.387 C 
ATOM      6  N   UNL d   1       4.385  -4.685   3.796  0.00  0.00    -0.301 N 
ATOM      7  H   UNL d   1       4.024  -5.584   4.098  0.00  0.00     0.171 HD
ATOM      8  O   UNL d   1       6.473  -3.841   3.175  0.00  0.00    -0.236 OA
BRANCH   6   9
ATOM      9  C   UNL d   1       3.526  -3.603   3.620  0.00  0.00     0.037 A 
ATOM     10  C   UNL d   1       3.988  -2.381   3.149  0.00  0.00     0.032 A 
ATOM     11  C   UNL d   1       3.111  -1.333   2.915  0.00  0.00     0.039 A 
ATOM     12  C   UNL d   1       1.767  -1.456   3.239  0.00  0.00     0.078 A 
ATOM     13  C   UNL d   1       1.287  -2.687   3.700  0.00  0.00     0.039 A 
ATOM     14  C   UNL d   1       2.164  -3.762   3.893  0.00  0.00     0.032 A 
BRANCH  12  15
ATOM     15  O   UNL d   1       0.852  -0.457   3.115  0.00  0.00    -0.255 OA
BRANCH  15  16
ATOM     16  C   UNL d   1       1.298   0.893   3.227  0.00  0.00     0.530 C 
ATOM     17  F   UNL d   1       2.575   1.042   3.639  0.00  0.00    -0.144 F 
ATOM     18  F   UNL d   1       0.514   1.526   4.128  0.00  0.00    -0.144 F 
ATOM     19  F   UNL d   1       1.157   1.511   2.034  0.00  0.00    -0.144 F 
ENDBRANCH  15  16
ENDBRANCH  12  15
ENDBRANCH   6   9
ENDBRANCH   4   5
ENDBRANCH   1   4
BRANCH   3  20
ATOM     20  C   UNL d   1       7.200  -8.489   4.402  0.00  0.00    -0.019 A 
ATOM     21  C   UNL d   1       8.268  -7.628   4.680  0.00  0.00     0.014 A 
ATOM     22  C   UNL d   1       9.578  -8.084   4.557  0.00  0.00     0.021 A 
ATOM     23  C   UNL d   1       9.815  -9.407   4.189  0.00  0.00     0.018 A 
ATOM     24  C   UNL d   1       8.752 -10.279   3.949  0.00  0.00     0.021 A 
ATOM     25  C   UNL d   1       7.440  -9.822   4.059  0.00  0.00     0.014 A 
BRANCH  23  26
ATOM     26  C   UNL d   1      11.155  -9.879   4.058  0.00  0.00    -0.061 C 
ATOM     27  C   UNL d   1      12.280 -10.276   3.982  0.00  0.00    -0.061 C 
BRANCH  27  28
ATOM     28  C   UNL d   1      13.611 -10.783   3.905  0.00  0.00     0.018 A 
ATOM     29  C   UNL d   1      14.693  -9.962   4.225  0.00  0.00     0.020 A 
ATOM     30  C   UNL d   1      15.989 -10.474   4.175  0.00  0.00     0.001 A 
ATOM     31  C   UNL d   1      16.200 -11.803   3.804  0.00  0.00     0.000 A 
ATOM     32  C   UNL d   1      15.117 -12.620   3.478  0.00  0.00     0.001 A 
ATOM     33  C   UNL d   1      13.820 -12.110   3.528  0.00  0.00     0.020 A 
ENDBRANCH  27  28
ENDBRANCH  23  26
ENDBRANCH   3  20
TORSDOF 8
