REMARK  9 active torsions:
REMARK  status: ('A' for Active; 'I' for Inactive)
REMARK    1  A    between atoms: C_9  and  C_1 
REMARK    2  A    between atoms: N_19  and  C_3 
REMARK    3  A    between atoms: C_18  and  C_6 
REMARK       I    between atoms: N_13  and  C_9 
REMARK    4  A    between atoms: C_15  and  C_10 
REMARK    5  A    between atoms: C_12  and  N_14 
REMARK    6  A    between atoms: N_17  and  C_12 
REMARK    7  A    between atoms: N_14  and  N_13 
REMARK    8  A    between atoms: C_24  and  N_17 
REMARK    9  A    between atoms: C_28  and  C_24 
ROOT
ATOM      1  C   UNL d   1       2.427   0.048   0.091  0.00  0.00     0.174 A 
ATOM      2  C   UNL d   1       0.313   0.861   0.033  0.00  0.00     0.056 A 
ATOM      3  C   UNL d   1       1.686   1.212   0.157  0.00  0.00     0.081 A 
ATOM      4  C   UNL d   1       0.307  -0.538  -0.006  0.00  0.00     0.162 A 
ATOM      5  O   UNL d   1       1.585  -1.025   0.016  0.00  0.00    -0.285 OA
ATOM      6  C   UNL d   1      -0.938   1.517  -0.047  0.00  0.00    -0.007 A 
ATOM      7  N   UNL d   1      -0.762  -1.351  -0.066  0.00  0.00    -0.335 N 
ATOM      8  HN  UNL d   1      -0.682  -2.368  -0.073  1.00  0.00     0.168 HD
ATOM      9  C   UNL d   1      -1.952  -0.709  -0.116  0.00  0.00     0.045 A 
ATOM     10  C   UNL d   1      -2.069   0.683  -0.106  0.00  0.00     0.043 A 
ENDROOT
BRANCH   1  11
ATOM     11  C   UNL d   1       3.860  -0.133   0.110  0.00  0.00     0.296 C 
ATOM     12  N   UNL d   1       4.320  -1.438   0.087  0.00  0.00    -0.262 N 
ATOM     13  H   UNL d   1       3.705  -2.248   0.132  0.00  0.00     0.190 HD
ATOM     14  O   UNL d   1       4.663   0.806   0.155  0.00  0.00    -0.264 OA
BRANCH  12  15
ATOM     15  N   UNL d   1       5.704  -1.616   0.206  0.00  0.00    -0.273 N 
ATOM     16  H   UNL d   1       6.247  -0.758   0.131  0.00  0.00     0.189 HD
BRANCH  15  17
ATOM     17  C   UNL d   1       6.293  -2.800   0.603  0.00  0.00     0.186 C 
ATOM     18  S   UNL d   1       5.481  -4.255   0.724  0.00  0.00    -0.040 SA
BRANCH  17  19
ATOM     19  N   UNL d   1       7.639  -2.611   0.834  0.00  0.00    -0.362 N 
ATOM     20  H   UNL d   1       7.926  -1.663   1.036  0.00  0.00     0.162 HD
BRANCH  19  21
ATOM     21  C   UNL d   1       8.615  -3.631   1.189  0.00  0.00     0.160 C 
BRANCH  21  22
ATOM     22  C   UNL d   1      10.019  -3.082   1.093  0.00  0.00    -0.041 A 
ATOM     23  C   UNL d   1      10.931  -3.262   2.143  0.00  0.00     0.009 A 
ATOM     24  C   UNL d   1      12.230  -2.761   2.046  0.00  0.00     0.001 A 
ATOM     25  C   UNL d   1      12.637  -2.079   0.899  0.00  0.00     0.000 A 
ATOM     26  C   UNL d   1      11.744  -1.903  -0.155  0.00  0.00     0.001 A 
ATOM     27  C   UNL d   1      10.447  -2.409  -0.063  0.00  0.00     0.009 A 
ENDBRANCH  21  22
ENDBRANCH  19  21
ENDBRANCH  17  19
ENDBRANCH  15  17
ENDBRANCH  12  15
ENDBRANCH   1  11
BRANCH   3  28
ATOM     28  N   UNL d   1       2.212   2.446   0.308  0.00  0.00    -0.396 N 
ATOM     29  H   UNL d   1       1.656   3.233   0.634  0.00  0.00     0.156 HD
ATOM     30  H   UNL d   1       3.214   2.566   0.470  0.00  0.00     0.156 HD
ENDBRANCH   3  28
BRANCH   6  31
ATOM     31  C   UNL d   1      -1.066   2.984  -0.090  0.00  0.00    -0.025 A 
ATOM     32  C   UNL d   1      -0.278   3.768  -0.952  0.00  0.00     0.012 A 
ATOM     33  C   UNL d   1      -0.387   5.162  -0.976  0.00  0.00     0.001 A 
ATOM     34  C   UNL d   1      -1.326   5.800  -0.174  0.00  0.00     0.000 A 
ATOM     35  C   UNL d   1      -2.153   5.045   0.653  0.00  0.00     0.001 A 
ATOM     36  C   UNL d   1      -2.018   3.654   0.699  0.00  0.00     0.012 A 
ENDBRANCH   6  31
BRANCH   9  37
ATOM     37  C   UNL d   1      -3.149  -1.580  -0.183  0.00  0.00    -0.009 A 
ATOM     38  C   UNL d   1      -3.192  -2.809   0.503  0.00  0.00     0.015 A 
ATOM     39  C   UNL d   1      -4.330  -3.626   0.468  0.00  0.00     0.024 A 
ATOM     40  C   UNL d   1      -5.444  -3.228  -0.262  0.00  0.00     0.034 A 
ATOM     41  C   UNL d   1      -5.430  -2.027  -0.962  0.00  0.00     0.024 A 
ATOM     42 CL   UNL d   1      -6.846  -4.225  -0.306  0.00  0.00    -0.084 Cl
ATOM     43  C   UNL d   1      -4.291  -1.215  -0.924  0.00  0.00     0.015 A 
ENDBRANCH   9  37
TORSDOF 9
