REMARK  2 active torsions:
REMARK  status: ('A' for Active; 'I' for Inactive)
REMARK    1  A    between atoms: C_7  and  C_1 
REMARK    2  A    between atoms: O_17  and  C_12 
ROOT
ATOM      1  C   UNL d   1       0.005   1.162  -0.183  0.00  0.00     0.113 C 
ATOM      2  C   UNL d   1       1.287   0.350   0.031  0.00  0.00     0.058 C 
ATOM      3  C   UNL d   1      -1.280   0.348  -0.017  0.00  0.00     0.058 C 
ATOM      4  N   UNL d   1       0.006  -1.646  -0.057  0.00  0.00    -0.361 N 
ATOM      5  C   UNL d   1      -1.223  -1.004   0.014  0.00  0.00     0.023 C 
ATOM      6  C   UNL d   1       1.233  -1.003   0.060  0.00  0.00     0.023 C 
ATOM      7  C   UNL d   1      -2.515   1.052   0.096  0.00  0.00     0.098 C 
ATOM      8  C   UNL d   1       2.513   1.070   0.158  0.00  0.00     0.098 C 
ATOM      9  N   UNL d   1       3.505   1.660   0.270  0.00  0.00    -0.192 NA
ATOM     10  N   UNL d   1      -3.518   1.627   0.207  0.00  0.00    -0.192 NA
ATOM     11  C   UNL d   1      -2.454  -1.875   0.082  0.00  0.00     0.069 C 
ATOM     12  C   UNL d   1       2.439  -1.906   0.154  0.00  0.00     0.069 C 
ATOM     13  H   UNL d   1       0.006  -2.658   0.073  0.00  0.00     0.165 HD
ENDROOT
BRANCH   1  14
ATOM     14  C   UNL d   1       0.027   1.861  -1.546  0.00  0.00    -0.009 A 
ATOM     15  C   UNL d   1       0.106   1.183  -2.777  0.00  0.00     0.073 A 
ATOM     16  C   UNL d   1       0.129   1.883  -3.984  0.00  0.00     0.038 A 
ATOM     17  C   UNL d   1       0.072   3.273  -3.993  0.00  0.00     0.022 A 
ATOM     18  C   UNL d   1      -0.010   3.961  -2.787  0.00  0.00     0.011 A 
ATOM     19  C   UNL d   1      -0.035   3.269  -1.574  0.00  0.00     0.030 A 
ATOM     20 BR   UNL d   1      -0.085   5.849  -2.793  0.00  0.00    -0.051 Br
BRANCH  15  21
ATOM     21  O   UNL d   1       0.169  -0.173  -2.919  0.00  0.00    -0.360 OA
ATOM     22  H   UNL d   1       0.124  -0.629  -2.064  0.00  0.00     0.217 HD
ENDBRANCH  15  21
ENDBRANCH   1  14
TORSDOF 2
