REMARK  4 active torsions:
REMARK  status: ('A' for Active; 'I' for Inactive)
REMARK       I    between atoms: N_2  and  C_1 
REMARK       I    between atoms: N_3  and  C_1 
REMARK    1  A    between atoms: C_4  and  N_2 
REMARK    2  A    between atoms: C_5  and  N_3 
REMARK    3  A    between atoms: C_9  and  C_6 
REMARK    4  A    between atoms: C_20  and  C_13 
ROOT
ATOM      1  C   UNL d   1       1.156   1.779   1.108  0.00  0.00     0.326 C 
ATOM      2  N   UNL d   1       2.393   1.678   0.523  0.00  0.00    -0.294 N 
ATOM      3  N   UNL d   1       0.214   0.891   0.667  0.00  0.00    -0.308 N 
ATOM      4  O   UNL d   1       1.006   2.585   2.023  0.00  0.00    -0.247 OA
ATOM      5  H   UNL d   1       3.092   2.242   0.982  0.00  0.00     0.172 HD
ATOM      6  H   UNL d   1       0.552   0.251  -0.041  0.00  0.00     0.170 HD
ENDROOT
BRANCH   2   7
ATOM      7  C   UNL d   1       2.753   0.977  -0.633  0.00  0.00     0.109 A 
ATOM      8  N   UNL d   1       1.792   0.366  -1.357  0.00  0.00    -0.352 N 
ATOM      9  C   UNL d   1       2.160  -0.254  -2.496  0.00  0.00     0.090 A 
ATOM     10  HN  UNL d   1       0.818   0.373  -1.053  1.00  0.00     0.166 HD
ATOM     11  C   UNL d   1       3.467  -0.325  -2.937  0.00  0.00     0.024 A 
ATOM     12  C   UNL d   1       4.473   0.278  -2.174  0.00  0.00    -0.054 A 
ATOM     13  C   UNL d   1       4.095   0.952  -1.008  0.00  0.00     0.055 A 
BRANCH  12  14
ATOM     14  C   UNL d   1       5.895   0.150  -2.665  0.00  0.00     0.034 C 
ATOM     15  C   UNL d   1       6.974   0.833  -1.838  0.00  0.00     0.010 C 
ENDBRANCH  12  14
ENDBRANCH   2   7
BRANCH   3  16
ATOM     16  C   UNL d   1      -1.144   0.815   1.001  0.00  0.00     0.043 A 
ATOM     17  C   UNL d   1      -1.846  -0.415   0.964  0.00  0.00    -0.024 A 
ATOM     18  C   UNL d   1      -3.260  -0.339   1.077  0.00  0.00     0.010 A 
ATOM     19  C   UNL d   1      -3.937   0.868   1.260  0.00  0.00     0.001 A 
ATOM     20  C   UNL d   1      -3.220   2.048   1.359  0.00  0.00     0.002 A 
ATOM     21  C   UNL d   1      -1.834   2.019   1.235  0.00  0.00     0.030 A 
BRANCH  17  22
ATOM     22  C   UNL d   1      -1.225  -1.841   0.960  0.00  0.00    -0.022 C 
ATOM     23  C   UNL d   1       0.312  -1.972   0.876  0.00  0.00     0.019 C 
ATOM     24  C   UNL d   1      -1.609  -2.540   2.293  0.00  0.00     0.019 C 
ATOM     25  C   UNL d   1      -1.792  -2.660  -0.223  0.00  0.00     0.019 C 
ENDBRANCH  17  22
ENDBRANCH   3  16
TORSDOF 4
