REMARK  3 active torsions:
REMARK  status: ('A' for Active; 'I' for Inactive)
REMARK    1  A    between atoms: N_2  and  C_1 
REMARK    2  A    between atoms: N_4  and  N_2 
REMARK       I    between atoms: C_3  and  N_4 
REMARK    3  A    between atoms: C_8  and  C_3 
ROOT
ATOM      1  N   UNL d   1      -0.168   2.132  -0.336  0.00  0.00    -0.200 NA
ATOM      2  H   UNL d   1       0.684   2.703  -0.457  0.00  0.00     0.153 HD
ENDROOT
BRANCH   1   3
ATOM      3  C   UNL d   1       0.121   0.924   0.372  0.00  0.00     0.071 A 
ATOM      4  C   UNL d   1      -0.845   0.080   0.965  0.00  0.00     0.058 A 
ATOM      5 CL   UNL d   1      -2.538   0.461   1.044  0.00  0.00    -0.082 Cl
ATOM      6  C   UNL d   1      -0.489  -1.165   1.509  0.00  0.00     0.026 A 
ATOM      7  C   UNL d   1       0.826  -1.618   1.453  0.00  0.00     0.003 A 
ATOM      8  C   UNL d   1       1.797  -0.820   0.862  0.00  0.00     0.026 A 
ATOM      9  C   UNL d   1       1.448   0.427   0.327  0.00  0.00     0.058 A 
ATOM     10 CL   UNL d   1       2.719   1.360  -0.397  0.00  0.00    -0.082 Cl
ENDBRANCH   1   3
BRANCH   1  11
ATOM     11  N   UNL d   1      -1.211   2.910   0.183  0.00  0.00    -0.283 N 
ATOM     12  C   UNL d   1      -1.113   4.285   0.029  0.00  0.00     0.266 C 
ATOM     13  O   UNL d   1      -0.106   4.851  -0.384  0.00  0.00    -0.266 OA
ATOM     14  H   UNL d   1      -2.126   2.466   0.172  0.00  0.00     0.184 HD
BRANCH  12  15
ATOM     15  C   UNL d   1      -2.336   5.058   0.384  0.00  0.00     0.033 A 
ATOM     16  C   UNL d   1      -3.215   4.612   1.381  0.00  0.00     0.017 A 
ATOM     17  C   UNL d   1      -4.332   5.377   1.720  0.00  0.00     0.001 A 
ATOM     18  C   UNL d   1      -4.574   6.587   1.070  0.00  0.00     0.000 A 
ATOM     19  C   UNL d   1      -3.703   7.035   0.077  0.00  0.00     0.001 A 
ATOM     20  C   UNL d   1      -2.580   6.274  -0.263  0.00  0.00     0.017 A 
ENDBRANCH  12  15
ENDBRANCH   1  11
TORSDOF 3
