REMARK  4 active torsions:
REMARK  status: ('A' for Active; 'I' for Inactive)
REMARK    1  A    between atoms: C_8  and  C_1 
REMARK    2  A    between atoms: S_2  and  N_9 
REMARK    3  A    between atoms: C_11  and  S_2 
REMARK       I    between atoms: N_10  and  C_8 
REMARK    4  A    between atoms: N_9  and  N_10 
ROOT
ATOM      1  C   UNL d   1       2.105  -2.520  -0.190  0.00  0.00     0.289 C 
ATOM      2  N   UNL d   1       1.287  -3.639  -0.212  0.00  0.00    -0.255 N 
ATOM      3  O   UNL d   1       3.327  -2.629  -0.288  0.00  0.00    -0.264 OA
ATOM      4  H   UNL d   1       0.274  -3.576  -0.264  0.00  0.00     0.191 HD
ENDROOT
BRANCH   2   5
ATOM      5  N   UNL d   1       1.872  -4.967  -0.247  0.00  0.00    -0.220 N 
ATOM      6  H   UNL d   1       2.892  -5.067  -0.217  0.00  0.00     0.200 HD
BRANCH   5   7
ATOM      7  S   UNL d   1       0.860  -6.317  -0.228  0.00  0.00     0.276 S 
ATOM      8  O   UNL d   1       0.256  -6.388   1.084  0.00  0.00    -0.199 OA
ATOM      9  O   UNL d   1       0.042  -6.265  -1.421  0.00  0.00    -0.199 OA
BRANCH   7  10
ATOM     10  C   UNL d   1       2.008  -7.661  -0.394  0.00  0.00     0.081 A 
ATOM     11  C   UNL d   1       2.463  -8.336   0.744  0.00  0.00     0.027 A 
ATOM     12  C   UNL d   1       3.371  -9.390   0.602  0.00  0.00     0.025 A 
ATOM     13  C   UNL d   1       3.804  -9.769  -0.669  0.00  0.00     0.034 A 
ATOM     14  C   UNL d   1       3.319  -9.120  -1.806  0.00  0.00     0.025 A 
ATOM     15 CL   UNL d   1       4.948 -11.043  -0.838  0.00  0.00    -0.084 Cl
ATOM     16  C   UNL d   1       2.412  -8.066  -1.671  0.00  0.00     0.027 A 
ENDBRANCH   7  10
ENDBRANCH   5   7
ENDBRANCH   2   5
BRANCH   1  17
ATOM     17  C   UNL d   1       1.411  -1.258  -0.071  0.00  0.00     0.132 A 
ATOM     18  N   UNL d   1       1.855  -0.039  -0.575  0.00  0.00    -0.302 N 
ATOM     19  C   UNL d   1       0.869   0.902  -0.280  0.00  0.00     0.112 A 
ATOM     20  C   UNL d   1       3.022   0.301  -1.272  0.00  0.00     0.099 A 
ATOM     21  C   UNL d   1       1.060   2.235  -0.740  0.00  0.00     0.049 A 
ATOM     22  N   UNL d   1      -0.109   0.377   0.419  0.00  0.00    -0.344 N 
ATOM     23  C   UNL d   1       2.176   2.558  -1.417  0.00  0.00     0.005 A 
ATOM     24  C   UNL d   1       3.204   1.568  -1.688  0.00  0.00     0.018 A 
ATOM     25  C   UNL d   1       0.225  -0.943   0.591  0.00  0.00     0.040 A 
ATOM     26  HN  UNL d   1      -0.944   0.851   0.763  1.00  0.00     0.167 HD
ATOM     27  C   UNL d   1      -0.649  -1.783   1.446  0.00  0.00     0.071 C 
ENDBRANCH   1  17
TORSDOF 4
