REMARK  6 active torsions:
REMARK  status: ('A' for Active; 'I' for Inactive)
REMARK    1  A    between atoms: C_3  and  C_1 
REMARK    2  A    between atoms: C_12  and  N_2 
REMARK       I    between atoms: N_5  and  C_7 
REMARK    3  A    between atoms: C_8  and  N_5 
REMARK    4  A    between atoms: C_7  and  C_11 
REMARK    5  A    between atoms: C_18  and  C_8 
REMARK    6  A    between atoms: C_19  and  C_12 
ROOT
ATOM      1  C   UNL d   1      -3.787   3.404  -1.075  0.00  0.00     0.033 A 
ATOM      2  C   UNL d   1      -3.212   2.125  -1.222  0.00  0.00     0.026 A 
ATOM      3  C   UNL d   1      -3.365   1.136  -0.234  0.00  0.00    -0.039 A 
ATOM      4  C   UNL d   1      -4.535   3.678   0.076  0.00  0.00     0.017 A 
ATOM      5  C   UNL d   1      -4.717   2.690   1.048  0.00  0.00     0.002 A 
ATOM      6  C   UNL d   1      -4.144   1.429   0.891  0.00  0.00     0.009 A 
ENDROOT
BRANCH   1   7
ATOM      7  C   UNL d   1      -3.559   4.403  -2.173  0.00  0.00     0.257 C 
ATOM      8  N   UNL d   1      -4.080   5.685  -2.019  0.00  0.00    -0.309 N 
ATOM      9  H   UNL d   1      -4.538   5.912  -1.154  0.00  0.00     0.170 HD
ATOM     10  O   UNL d   1      -2.922   4.057  -3.171  0.00  0.00    -0.267 OA
BRANCH   8  11
ATOM     11  C   UNL d   1      -3.978   6.723  -2.931  0.00  0.00     0.112 C 
ATOM     12  N   UNL d   1      -3.308   6.614  -4.026  0.00  0.00    -0.385 N 
ATOM     13  H   UNL d   1      -2.917   5.657  -4.079  0.00  0.00     0.157 HD
ATOM     14  HN  UNL d   1      -3.183   7.348  -4.723  1.00  0.00     0.157 HD
BRANCH  11  15
ATOM     15  C   UNL d   1      -4.676   7.997  -2.603  0.00  0.00     0.007 A 
ATOM     16  C   UNL d   1      -4.110   9.203  -3.036  0.00  0.00     0.015 A 
ATOM     17  C   UNL d   1      -4.774  10.412  -2.819  0.00  0.00     0.001 A 
ATOM     18  C   UNL d   1      -6.011  10.421  -2.177  0.00  0.00     0.000 A 
ATOM     19  C   UNL d   1      -6.581   9.223  -1.744  0.00  0.00     0.001 A 
ATOM     20  C   UNL d   1      -5.917   8.010  -1.954  0.00  0.00     0.015 A 
ENDBRANCH  11  15
ENDBRANCH   8  11
ENDBRANCH   1   7
BRANCH   3  21
ATOM     21  C   UNL d   1      -2.688  -0.213  -0.356  0.00  0.00     0.170 C 
BRANCH  21  22
ATOM     22  N   UNL d   1      -3.495  -1.210  -1.056  0.00  0.00    -0.320 N 
ATOM     23  C   UNL d   1      -3.337  -1.376  -2.425  0.00  0.00     0.110 A 
ATOM     24  C   UNL d   1      -4.038  -2.292  -3.117  0.00  0.00     0.063 A 
ATOM     25  C   UNL d   1      -4.992  -3.121  -2.402  0.00  0.00     0.023 A 
ATOM     26  C   UNL d   1      -5.170  -2.986  -1.082  0.00  0.00     0.075 A 
ATOM     27  C   UNL d   1      -4.385  -1.984  -0.311  0.00  0.00     0.247 A 
ATOM     28  O   UNL d   1      -4.552  -1.899   0.902  0.00  0.00    -0.268 OA
BRANCH  24  29
ATOM     29  C   UNL d   1      -3.871  -2.461  -4.601  0.00  0.00     0.418 C 
ATOM     30  F   UNL d   1      -4.790  -3.297  -5.148  0.00  0.00    -0.166 F 
ATOM     31  F   UNL d   1      -3.981  -1.277  -5.256  0.00  0.00    -0.166 F 
ATOM     32  F   UNL d   1      -2.649  -2.967  -4.910  0.00  0.00    -0.166 F 
ENDBRANCH  24  29
ENDBRANCH  21  22
ENDBRANCH   3  21
TORSDOF 6
