REMARK  3 active torsions:
REMARK  status: ('A' for Active; 'I' for Inactive)
REMARK    1  A    between atoms: C_5  and  C_7 
REMARK    2  A    between atoms: C_6  and  C_8 
REMARK    3  A    between atoms: C_12  and  N_10 
ROOT
ATOM      1  C   UNL d   1      -5.642   1.354  -1.131  0.00  0.00     0.050 A 
ATOM      2  C   UNL d   1      -6.449   0.494   0.998  0.00  0.00     0.050 A 
ATOM      3  C   UNL d   1      -4.495  -0.541  -0.076  0.00  0.00     0.035 A 
ATOM      4  C   UNL d   1      -6.554   1.397  -0.065  0.00  0.00     0.032 A 
ATOM      5  C   UNL d   1      -5.424  -0.462   0.972  0.00  0.00     0.045 A 
ATOM      6  C   UNL d   1      -4.618   0.386  -1.120  0.00  0.00     0.045 A 
ENDROOT
BRANCH   3   7
ATOM      7  N   UNL d   1      -3.407  -1.437  -0.072  0.00  0.00    -0.337 N 
ATOM      8  C   UNL d   1      -2.978  -2.179   0.980  0.00  0.00     0.150 A 
ATOM      9  N   UNL d   1      -3.266  -1.957   2.241  0.00  0.00    -0.335 N 
ATOM     10  S   UNL d   1      -1.950  -3.542   0.721  0.00  0.00    -0.052 SA
ATOM     11  C   UNL d   1      -2.760  -2.947   3.053  0.00  0.00     0.051 A 
ATOM     12  HN  UNL d   1      -3.797  -1.153   2.576  1.00  0.00     0.168 HD
ATOM     13  C   UNL d   1      -2.952  -3.040   4.445  0.00  0.00     0.031 A 
ATOM     14  C   UNL d   1      -2.015  -3.926   2.400  0.00  0.00     0.035 A 
ATOM     15  C   UNL d   1      -2.412  -4.120   5.146  0.00  0.00     0.002 A 
ATOM     16  C   UNL d   1      -1.676  -5.093   4.477  0.00  0.00     0.002 A 
ATOM     17  C   UNL d   1      -1.457  -5.010   3.096  0.00  0.00     0.021 A 
ATOM     18  H   UNL d   1      -3.033  -1.660  -0.985  0.00  0.00     0.168 HD
ENDBRANCH   3   7
BRANCH   2  19
ATOM     19  C   UNL d   1      -7.391   0.525   2.176  0.00  0.00     0.417 C 
ATOM     20  F   UNL d   1      -8.319   1.519   2.100  0.00  0.00    -0.166 F 
ATOM     21  F   UNL d   1      -8.096  -0.633   2.310  0.00  0.00    -0.166 F 
ATOM     22  F   UNL d   1      -6.744   0.710   3.360  0.00  0.00    -0.166 F 
ENDBRANCH   2  19
BRANCH   1  23
ATOM     23  C   UNL d   1      -5.732   2.340  -2.270  0.00  0.00     0.417 C 
ATOM     24  F   UNL d   1      -6.759   3.226  -2.143  0.00  0.00    -0.166 F 
ATOM     25  F   UNL d   1      -4.604   3.091  -2.399  0.00  0.00    -0.166 F 
ATOM     26  F   UNL d   1      -5.914   1.727  -3.472  0.00  0.00    -0.166 F 
ENDBRANCH   1  23
TORSDOF 3
