REMARK  6 active torsions:
REMARK  status: ('A' for Active; 'I' for Inactive)
REMARK    1  A    between atoms: N_6  and  C_2 
REMARK    2  A    between atoms: C_9  and  C_3 
REMARK    3  A    between atoms: C_8  and  C_13 
REMARK    4  A    between atoms: O_24  and  C_12 
REMARK    5  A    between atoms: O_27  and  C_17 
REMARK    6  A    between atoms: O_28  and  C_20 
ROOT
ATOM      1  C   UNL d   1      -0.297  -1.143   0.144  0.00  0.00     0.085 A 
ATOM      2  C   UNL d   1       1.049  -0.844   0.231  0.00  0.00     0.096 A 
ATOM      3  C   UNL d   1      -0.409   1.204   0.096  0.00  0.00     0.025 A 
ATOM      4  S   UNL d   1       1.262   0.851   0.319  0.00  0.00    -0.070 SA
ATOM      5  C   UNL d   1      -1.158   0.028   0.079  0.00  0.00    -0.020 A 
ATOM      6  C   UNL d   1      -0.787  -2.492   0.079  0.00  0.00     0.103 C 
ATOM      7  N   UNL d   1      -1.204  -3.573   0.051  0.00  0.00    -0.191 NA
ATOM      8  C   UNL d   1      -2.649  -0.098  -0.049  0.00  0.00     0.051 C 
ENDROOT
BRANCH   2   9
ATOM      9  N   UNL d   1       2.193  -1.579   0.196  0.00  0.00    -0.358 N 
ATOM     10  C   UNL d   1       2.291  -2.635   0.936  0.00  0.00     0.103 C 
ATOM     11  HN  UNL d   1       2.966  -1.301  -0.409  1.00  0.00     0.166 HD
BRANCH  10  12
ATOM     12  C   UNL d   1       3.545  -3.422   0.947  0.00  0.00     0.015 A 
ATOM     13  C   UNL d   1       3.615  -4.635   1.637  0.00  0.00     0.094 A 
ATOM     14  C   UNL d   1       4.810  -5.366   1.633  0.00  0.00     0.046 A 
ATOM     15 BR   UNL d   1       4.934  -7.021   2.550  0.00  0.00    -0.048 Br
ATOM     16  C   UNL d   1       5.932  -4.890   0.954  0.00  0.00     0.041 A 
ATOM     17  C   UNL d   1       5.856  -3.675   0.275  0.00  0.00     0.013 A 
ATOM     18  C   UNL d   1       4.672  -2.940   0.265  0.00  0.00     0.034 A 
ATOM     19 BR   UNL d   1       7.374  -3.018  -0.640  0.00  0.00    -0.051 Br
BRANCH  13  20
ATOM     20  O   UNL d   1       2.512  -5.090   2.307  0.00  0.00    -0.358 OA
ATOM     21  H   UNL d   1       2.729  -5.960   2.695  0.00  0.00     0.217 HD
ENDBRANCH  13  20
ENDBRANCH  10  12
ENDBRANCH   2   9
BRANCH   3  22
ATOM     22  C   UNL d   1      -0.793   2.634  -0.015  0.00  0.00    -0.016 A 
ATOM     23  C   UNL d   1       0.035   3.551  -0.699  0.00  0.00     0.052 A 
ATOM     24  C   UNL d   1      -0.252   4.926  -0.774  0.00  0.00     0.102 A 
ATOM     25  C   UNL d   1      -1.435   5.397  -0.187  0.00  0.00     0.101 A 
ATOM     26  C   UNL d   1      -2.281   4.488   0.463  0.00  0.00     0.040 A 
ATOM     27  C   UNL d   1      -1.957   3.132   0.569  0.00  0.00     0.016 A 
BRANCH  24  28
ATOM     28  O   UNL d   1       0.573   5.822  -1.401  0.00  0.00    -0.353 OA
ATOM     29  C   UNL d   1       1.815   5.361  -1.917  0.00  0.00     0.210 C 
ENDBRANCH  24  28
BRANCH  25  30
ATOM     30  O   UNL d   1      -1.919   6.678  -0.139  0.00  0.00    -0.353 OA
ATOM     31  C   UNL d   1      -1.135   7.729  -0.680  0.00  0.00     0.210 C 
ENDBRANCH  25  30
ENDBRANCH   3  22
TORSDOF 6
