REMARK  5 active torsions:
REMARK  status: ('A' for Active; 'I' for Inactive)
REMARK       I    between atoms: N_2  and  C_1 
REMARK    1  A    between atoms: C_17  and  C_1 
REMARK    2  A    between atoms: C_5  and  N_2 
REMARK    3  A    between atoms: S_4  and  C_17 
REMARK    4  A    between atoms: C_20  and  S_4 
REMARK    5  A    between atoms: C_8  and  C_20 
ROOT
ATOM      1  C   UNL d   1       1.124   0.099  -0.214  0.00  0.00     0.231 C 
ATOM      2  N   UNL d   1       0.460  -0.052  -1.415  0.00  0.00    -0.327 N 
ATOM      3  O   UNL d   1       0.577   0.242   0.880  0.00  0.00    -0.272 OA
ATOM      4  H   UNL d   1       1.032  -0.324  -2.207  0.00  0.00     0.169 HD
ENDROOT
BRANCH   1   5
ATOM      5  C   UNL d   1       2.645   0.070  -0.244  0.00  0.00     0.177 C 
BRANCH   5   6
ATOM      6  S   UNL d   1       3.420  -0.140  -1.868  0.00  0.00    -0.155 SA
BRANCH   6   7
ATOM      7  C   UNL d   1       5.160  -0.075  -1.305  0.00  0.00     0.112 C 
BRANCH   7   8
ATOM      8  C   UNL d   1       6.123  -0.167  -2.462  0.00  0.00    -0.049 A 
ATOM      9  C   UNL d   1       6.616   0.996  -3.075  0.00  0.00     0.009 A 
ATOM     10  C   UNL d   1       7.463   0.909  -4.183  0.00  0.00     0.024 A 
ATOM     11  C   UNL d   1       7.821  -0.340  -4.684  0.00  0.00     0.034 A 
ATOM     12  C   UNL d   1       7.359  -1.504  -4.074  0.00  0.00     0.024 A 
ATOM     13 CL   UNL d   1       8.829  -0.447  -6.075  0.00  0.00    -0.084 Cl
ATOM     14  C   UNL d   1       6.513  -1.418  -2.965  0.00  0.00     0.009 A 
ENDBRANCH   7   8
ENDBRANCH   6   7
ENDBRANCH   5   6
ENDBRANCH   1   5
BRANCH   2  15
ATOM     15  C   UNL d   1      -0.932   0.087  -1.626  0.00  0.00     0.034 A 
ATOM     16  C   UNL d   1      -1.802   0.636  -0.675  0.00  0.00     0.032 A 
ATOM     17  C   UNL d   1      -3.167   0.782  -0.945  0.00  0.00     0.044 A 
ATOM     18  C   UNL d   1      -3.667   0.373  -2.174  0.00  0.00     0.116 A 
ATOM     19  C   UNL d   1      -2.829  -0.179  -3.130  0.00  0.00     0.044 A 
ATOM     20  F   UNL d   1      -4.974   0.513  -2.431  0.00  0.00    -0.206 F 
ATOM     21  C   UNL d   1      -1.459  -0.315  -2.862  0.00  0.00     0.032 A 
ENDBRANCH   2  15
TORSDOF 5
