REMARK  4 active torsions:
REMARK  status: ('A' for Active; 'I' for Inactive)
REMARK    1  A    between atoms: C_8  and  C_2 
REMARK    2  A    between atoms: N_10  and  C_9 
REMARK    3  A    between atoms: C_16  and  N_10 
REMARK    4  A    between atoms: C_15  and  C_16 
ROOT
ATOM      1  N   UNL d   1      10.034  -1.889  -4.629  0.00  0.00    -0.197 NA
ATOM      2  C   UNL d   1       8.903  -1.688  -4.510  0.00  0.00     0.060 C 
ATOM      3  C   UNL d   1       7.456  -1.430  -4.365  0.00  0.00     0.143 C 
ENDROOT
BRANCH   3   4
ATOM      4  C   UNL d   1       7.160   0.067  -4.482  0.00  0.00     0.136 C 
BRANCH   4   5
ATOM      5  N   UNL d   1       5.710   0.367  -4.511  0.00  0.00    -0.384 N 
ATOM      6  C   UNL d   1       5.207   0.797  -5.818  0.00  0.00     0.149 C 
BRANCH   5   7
ATOM      7  C   UNL d   1       4.876   0.301  -3.401  0.00  0.00     0.029 A 
ATOM      8  C   UNL d   1       5.366   0.289  -2.088  0.00  0.00     0.030 A 
ATOM      9  C   UNL d   1       4.515   0.199  -0.967  0.00  0.00     0.013 A 
ATOM     10  C   UNL d   1       3.124   0.121  -1.106  0.00  0.00    -0.015 A 
ATOM     11  C   UNL d   1       2.611   0.153  -2.401  0.00  0.00     0.013 A 
ATOM     12  C   UNL d   1       3.473   0.240  -3.513  0.00  0.00     0.030 A 
BRANCH  10  13
ATOM     13  C   UNL d   1       2.205   0.013   0.107  0.00  0.00     0.239 C 
ATOM     14  N   UNL d   1       2.492  -1.211   0.882  0.00  0.00    -0.260 NA
ATOM     15  C   UNL d   1       2.997  -0.651   2.070  0.00  0.00     0.044 A 
ATOM     16  H   UNL d   1       3.165  -1.826   0.439  0.00  0.00     0.130 HD
ATOM     17  C   UNL d   1       2.843   0.724   2.102  0.00  0.00     0.092 A 
ATOM     18  C   UNL d   1       3.557  -1.319   3.140  0.00  0.00     0.026 A 
ATOM     19  C   UNL d   1       3.217   1.489   3.186  0.00  0.00     0.039 A 
ATOM     20  O   UNL d   1       2.332   1.206   0.928  0.00  0.00    -0.324 OA
ATOM     21  C   UNL d   1       3.775   0.827   4.280  0.00  0.00     0.003 A 
ATOM     22  C   UNL d   1       3.952  -0.568   4.254  0.00  0.00     0.002 A 
ENDBRANCH  10  13
ENDBRANCH   5   7
ENDBRANCH   4   5
ENDBRANCH   3   4
TORSDOF 4
