REMARK  2 active torsions:
REMARK  status: ('A' for Active; 'I' for Inactive)
REMARK    1  A    between atoms: C_10  and  C_6 
REMARK    2  A    between atoms: O_18  and  C_7 
ROOT
ATOM      1  C   UNL d   1      -0.820  -0.371  -0.013  0.00  0.00     0.052 A 
ATOM      2  C   UNL d   1      -1.240   0.966   0.009  0.00  0.00    -0.012 A 
ATOM      3  N   UNL d   1      -1.629  -1.434  -0.028  0.00  0.00    -0.335 N 
ATOM      4  HN  UNL d   1      -1.277  -2.391  -0.038  1.00  0.00     0.168 HD
ATOM      5  C   UNL d   1      -3.483   0.161  -0.011  0.00  0.00     0.108 A 
ATOM      6  C   UNL d   1      -2.600   1.269   0.018  0.00  0.00     0.025 A 
ATOM      7  C   UNL d   1      -2.952  -1.144  -0.028  0.00  0.00     0.164 A 
ATOM      8  C   UNL d   1       0.623  -0.437  -0.019  0.00  0.00    -0.002 A 
ATOM      9  C   UNL d   1      -0.021   1.869   0.005  0.00  0.00     0.081 A 
ATOM     10  C   UNL d   1       1.123   0.880  -0.016  0.00  0.00    -0.041 A 
ATOM     11  C   UNL d   1      -4.906   0.335  -0.031  0.00  0.00     0.105 C 
ATOM     12  N   UNL d   1      -6.040   0.567  -0.108  0.00  0.00    -0.191 NA
ATOM     13  C   UNL d   1       1.488  -1.516  -0.016  0.00  0.00     0.014 A 
ATOM     14  C   UNL d   1       2.481   1.145  -0.003  0.00  0.00     0.008 A 
ATOM     15  C   UNL d   1       2.864  -1.260  -0.007  0.00  0.00     0.001 A 
ATOM     16  C   UNL d   1       3.355   0.058   0.000  0.00  0.00     0.001 A 
ENDROOT
BRANCH   7  17
ATOM     17  O   UNL d   1      -3.842  -2.206  -0.050  0.00  0.00    -0.340 OA
ATOM     18  C   UNL d   1      -3.199  -3.481  -0.035  0.00  0.00     0.211 C 
ENDBRANCH   7  17
BRANCH   6  19
ATOM     19  C   UNL d   1      -3.043   2.678   0.099  0.00  0.00     0.044 A 
ATOM     20  N   UNL d   1      -4.187   3.177  -0.501  0.00  0.00    -0.365 N 
ATOM     21  C   UNL d   1      -4.362   4.498  -0.179  0.00  0.00     0.088 A 
ATOM     22  H   UNL d   1      -4.845   2.645  -1.057  0.00  0.00     0.165 HD
ATOM     23  C   UNL d   1      -3.301   4.891   0.595  0.00  0.00     0.019 A 
ATOM     24  C   UNL d   1      -2.478   3.756   0.769  0.00  0.00     0.032 A 
ENDBRANCH   6  19
TORSDOF 2
