REMARK  5 active torsions:
REMARK  status: ('A' for Active; 'I' for Inactive)
REMARK    1  A    between atoms: N_2  and  C_1 
REMARK    2  A    between atoms: N_5  and  C_3 
REMARK       I    between atoms: C_6  and  N_5 
REMARK    3  A    between atoms: C_12  and  C_6 
REMARK    4  A    between atoms: C_11  and  C_7 
REMARK    5  A    between atoms: N_8  and  C_12 
ROOT
ATOM      1  C   UNL d   1       1.302  -0.242   1.290  0.00  0.00     0.130 A 
ATOM      2  C   UNL d   1       0.649  -1.385   0.799  0.00  0.00     0.068 A 
ATOM      3  C   UNL d   1       0.685   1.026   1.220  0.00  0.00     0.046 A 
ATOM      4  C   UNL d   1      -0.604   1.193   0.688  0.00  0.00    -0.048 A 
ATOM      5  C   UNL d   1      -0.673  -1.242   0.367  0.00  0.00     0.032 A 
ATOM      6  C   UNL d   1      -1.284   0.025   0.301  0.00  0.00     0.010 A 
ENDROOT
BRANCH   2   7
ATOM      7  N   UNL d   1       1.233  -2.670   0.636  0.00  0.00    -0.324 N 
ATOM      8  C   UNL d   1       2.509  -2.825   0.103  0.00  0.00     0.250 C 
ATOM      9  O   UNL d   1       3.210  -1.890  -0.279  0.00  0.00    -0.271 OA
ATOM     10  H   UNL d   1       0.631  -3.476   0.495  0.00  0.00     0.169 HD
BRANCH   8  11
ATOM     11  C   UNL d   1       2.995  -4.271   0.002  0.00  0.00     0.375 C 
BRANCH  11  12
ATOM     12  N   UNL d   1       2.046  -5.168  -0.696  0.00  0.00     0.101 N 
ATOM     13  C   UNL d   1       2.626  -6.540  -0.772  0.00  0.00     0.299 C 
ATOM     14  C   UNL d   1       3.657  -6.748  -1.899  0.00  0.00     0.198 C 
ATOM     15  O   UNL d   1       3.082  -6.429  -3.169  0.00  0.00    -0.388 OA
ATOM     16  C   UNL d   1       2.685  -5.056  -3.192  0.00  0.00     0.198 C 
ATOM     17  C   UNL d   1       1.683  -4.734  -2.067  0.00  0.00     0.299 C 
ENDBRANCH  11  12
ENDBRANCH   8  11
ENDBRANCH   2   7
BRANCH   1  18
ATOM     18  N   UNL d   1       2.564  -0.321   2.034  0.00  0.00    -0.113 N 
ATOM     19  O   UNL d   1       2.781  -1.346   2.706  0.00  0.00    -0.532 OA
ATOM     20  O   UNL d   1       3.298   0.680   2.037  0.00  0.00    -0.532 OA
ENDBRANCH   1  18
BRANCH   4  21
ATOM     21  C   UNL d   1      -1.212   2.604   0.560  0.00  0.00    -0.024 C 
ATOM     22  C   UNL d   1      -0.300   3.486  -0.324  0.00  0.00     0.019 C 
ATOM     23  C   UNL d   1      -2.615   2.627  -0.083  0.00  0.00     0.019 C 
ATOM     24  C   UNL d   1      -1.337   3.252   1.956  0.00  0.00     0.019 C 
ENDBRANCH   4  21
TORSDOF 5
