REMARK  4 active torsions:
REMARK  status: ('A' for Active; 'I' for Inactive)
REMARK    1  A    between atoms: S_8  and  C_3 
REMARK    2  A    between atoms: C_7  and  C_4 
REMARK    3  A    between atoms: C_14  and  S_8 
REMARK    4  A    between atoms: C_15  and  N_10 
ROOT
ATOM      1  N   UNL d   1       1.415  -1.259   0.000  0.00  0.00    -0.329 N 
ATOM      2  HN  UNL d   1       1.503  -2.275   0.014  1.00  0.00     0.168 HD
ATOM      3  C   UNL d   1       2.417  -0.306  -0.006  0.00  0.00     0.105 A 
ATOM      4  C   UNL d   1       1.913   0.992  -0.016  0.00  0.00     0.090 A 
ATOM      5  C   UNL d   1       0.331  -0.540  -0.016  0.00  0.00     0.156 A 
ATOM      6  N   UNL d   1       0.553   0.803  -0.022  0.00  0.00    -0.298 N 
ATOM      7  S   UNL d   1      -1.370  -0.902  -0.009  0.00  0.00    -0.064 SA
ATOM      8  C   UNL d   1      -0.588   1.581  -0.020  0.00  0.00     0.107 A 
ATOM      9  C   UNL d   1      -1.704   0.837  -0.012  0.00  0.00     0.071 A 
ENDROOT
BRANCH   4  10
ATOM     10  C   UNL d   1       2.595   2.254  -0.025  0.00  0.00     0.121 C 
ATOM     11  N   UNL d   1       1.911   3.344  -0.124  0.00  0.00    -0.364 N 
ATOM     12  HN  UNL d   1       0.893   3.296  -0.157  1.00  0.00     0.165 HD
BRANCH  11  13
ATOM     13  C   UNL d   1       2.543   4.594  -0.188  0.00  0.00     0.031 A 
ATOM     14  C   UNL d   1       3.774   4.822  -0.814  0.00  0.00     0.029 A 
ATOM     15  C   UNL d   1       4.291   6.116  -0.923  0.00  0.00     0.002 A 
ATOM     16  C   UNL d   1       3.573   7.201  -0.423  0.00  0.00     0.000 A 
ATOM     17  C   UNL d   1       2.344   6.991   0.196  0.00  0.00     0.002 A 
ATOM     18  C   UNL d   1       1.837   5.695   0.312  0.00  0.00     0.029 A 
ENDBRANCH  11  13
ENDBRANCH   4  10
BRANCH   3  19
ATOM     19  S   UNL d   1       4.111  -0.764   0.062  0.00  0.00    -0.070 SA
BRANCH  19  20
ATOM     20  C   UNL d   1       4.340  -1.689  -1.446  0.00  0.00     0.007 A 
ATOM     21  C   UNL d   1       5.316  -1.266  -2.358  0.00  0.00     0.020 A 
ATOM     22  C   UNL d   1       5.538  -1.976  -3.543  0.00  0.00     0.025 A 
ATOM     23  C   UNL d   1       4.790  -3.120  -3.814  0.00  0.00     0.034 A 
ATOM     24  C   UNL d   1       3.832  -3.564  -2.906  0.00  0.00     0.025 A 
ATOM     25 CL   UNL d   1       5.054  -3.987  -5.276  0.00  0.00    -0.084 Cl
ATOM     26  C   UNL d   1       3.613  -2.853  -1.721  0.00  0.00     0.020 A 
ENDBRANCH  19  20
ENDBRANCH   3  19
TORSDOF 4
