REMARK  7 active torsions:
REMARK  status: ('A' for Active; 'I' for Inactive)
REMARK    1  A    between atoms: N_2  and  C_1 
REMARK    2  A    between atoms: N_3  and  C_1 
REMARK    3  A    between atoms: C_5  and  N_2 
REMARK    4  A    between atoms: C_8  and  N_2 
REMARK    5  A    between atoms: C_9  and  N_3 
REMARK    6  A    between atoms: C_12  and  C_5 
REMARK    7  A    between atoms: N_7  and  C_6 
ROOT
ATOM      1  N   UNL d   1       0.493  -0.723  -0.117  0.00  0.00    -0.350 N 
ENDROOT
BRANCH   1   2
ATOM      2  C   UNL d   1       1.204   0.460   0.267  0.00  0.00     0.175 C 
ATOM      3  S   UNL d   1       0.484   1.789   1.031  0.00  0.00    -0.041 SA
BRANCH   2   4
ATOM      4  N   UNL d   1       2.576   0.395   0.006  0.00  0.00    -0.333 N 
ATOM      5  H   UNL d   1       2.988  -0.510   0.167  0.00  0.00     0.168 HD
BRANCH   4   6
ATOM      6  C   UNL d   1       3.521   1.448   0.027  0.00  0.00     0.034 A 
ATOM      7  C   UNL d   1       4.785   1.177   0.563  0.00  0.00     0.031 A 
ATOM      8  C   UNL d   1       5.742   2.191   0.660  0.00  0.00     0.026 A 
ATOM      9  C   UNL d   1       5.451   3.466   0.181  0.00  0.00     0.034 A 
ATOM     10  C   UNL d   1       4.220   3.728  -0.414  0.00  0.00     0.026 A 
ATOM     11 CL   UNL d   1       6.619   4.720   0.324  0.00  0.00    -0.084 Cl
ATOM     12  C   UNL d   1       3.258   2.717  -0.497  0.00  0.00     0.031 A 
ENDBRANCH   4   6
ENDBRANCH   2   4
ENDBRANCH   1   2
BRANCH   1  13
ATOM     13  C   UNL d   1      -0.984  -0.782   0.008  0.00  0.00     0.164 C 
BRANCH  13  14
ATOM     14  C   UNL d   1      -1.767  -0.354  -1.221  0.00  0.00    -0.040 A 
ATOM     15  C   UNL d   1      -2.929  -1.046  -1.577  0.00  0.00     0.011 A 
ATOM     16  C   UNL d   1      -3.802  -0.538  -2.550  0.00  0.00     0.030 A 
ATOM     17  C   UNL d   1      -3.575   0.691  -3.192  0.00  0.00     0.029 A 
ATOM     18  C   UNL d   1      -2.359   1.321  -2.898  0.00  0.00     0.030 A 
ATOM     19  C   UNL d   1      -1.476   0.812  -1.935  0.00  0.00     0.011 A 
BRANCH  17  20
ATOM     20  N   UNL d   1      -4.532   1.225  -4.077  0.00  0.00    -0.390 N 
ATOM     21  C   UNL d   1      -4.181   2.442  -4.813  0.00  0.00     0.149 C 
ATOM     22  C   UNL d   1      -5.896   1.248  -3.530  0.00  0.00     0.149 C 
ENDBRANCH  17  20
ENDBRANCH  13  14
ENDBRANCH   1  13
BRANCH   1  23
ATOM     23  C   UNL d   1       1.193  -2.011  -0.401  0.00  0.00     0.079 C 
ATOM     24  C   UNL d   1       1.671  -2.642   0.918  0.00  0.00     0.032 C 
ATOM     25  C   UNL d   1       0.397  -3.059  -1.190  0.00  0.00     0.032 C 
ENDBRANCH   1  23
TORSDOF 7
