REMARK  3 active torsions:
REMARK  status: ('A' for Active; 'I' for Inactive)
REMARK    1  A    between atoms: C_6  and  N_1 
REMARK    2  A    between atoms: S_9  and  C_2 
REMARK    3  A    between atoms: C_17  and  S_9 
ROOT
ATOM      1  N   UNL d   1       0.990  -0.760   0.024  0.00  0.00    -0.241 N 
ATOM      2  C   UNL d   1       1.020   0.584   0.234  0.00  0.00     0.170 A 
ATOM      3  N   UNL d   1      -0.140   1.175   0.157  0.00  0.00    -0.275 N 
ATOM      4  HN  UNL d   1      -0.349   2.166   0.279  1.00  0.00     0.189 HD
ATOM      5  C   UNL d   1      -0.339  -1.054  -0.211  0.00  0.00     0.347 A 
ATOM      6  N   UNL d   1      -1.010   0.162  -0.123  0.00  0.00    -0.249 N 
ATOM      7  O   UNL d   1      -0.882  -2.130  -0.396  0.00  0.00    -0.245 OA
ATOM      8  H   UNL d   1      -2.013   0.287  -0.181  0.00  0.00     0.192 HD
ENDROOT
BRANCH   1   9
ATOM      9  C   UNL d   1       1.971  -1.755   0.196  0.00  0.00     0.049 A 
ATOM     10  C   UNL d   1       2.777  -1.791   1.342  0.00  0.00     0.069 A 
ATOM     11  C   UNL d   1       3.615  -2.884   1.570  0.00  0.00     0.104 A 
ATOM     12  O   UNL d   1       4.308  -2.890   2.755  0.00  0.00    -0.346 OA
ATOM     13  C   UNL d   1       3.679  -3.929   0.643  0.00  0.00     0.102 A 
ATOM     14  C   UNL d   1       5.303  -3.921   2.788  0.00  0.00     0.202 C 
ATOM     15  C   UNL d   1       4.767  -5.222   2.214  0.00  0.00     0.202 C 
ATOM     16  O   UNL d   1       4.437  -5.056   0.831  0.00  0.00    -0.346 OA
ATOM     17  C   UNL d   1       2.933  -3.868  -0.528  0.00  0.00     0.042 A 
ATOM     18  C   UNL d   1       2.062  -2.798  -0.737  0.00  0.00     0.033 A 
ENDBRANCH   1   9
BRANCH   2  19
ATOM     19  S   UNL d   1       2.514   1.445   0.444  0.00  0.00    -0.088 SA
BRANCH  19  20
ATOM     20  C   UNL d   1       1.921   3.077   1.011  0.00  0.00     0.047 C 
ATOM     21  C   UNL d   1       1.477   2.986   2.468  0.00  0.00     0.021 C 
ATOM     22  C   UNL d   1       3.052   4.096   0.868  0.00  0.00     0.021 C 
ENDBRANCH  19  20
ENDBRANCH   2  19
TORSDOF 3
