REMARK  6 active torsions:
REMARK  status: ('A' for Active; 'I' for Inactive)
REMARK    1  A    between atoms: N_2  and  S_1 
REMARK    2  A    between atoms: C_3  and  S_1 
REMARK    3  A    between atoms: C_7  and  N_2 
REMARK    4  A    between atoms: C_14  and  N_2 
REMARK    5  A    between atoms: C_12  and  C_7 
REMARK    6  A    between atoms: C_13  and  C_14 
ROOT
ATOM      1  N   UNL d   1       3.178   4.911  -1.757  0.00  0.00    -0.197 NA
ATOM      2  C   UNL d   1       2.858   3.802  -1.647  0.00  0.00     0.060 C 
ATOM      3  C   UNL d   1       2.473   2.377  -1.493  0.00  0.00     0.139 C 
ENDROOT
BRANCH   3   4
ATOM      4  C   UNL d   1       0.955   2.229  -1.331  0.00  0.00     0.122 C 
BRANCH   4   5
ATOM      5  N   UNL d   1       0.433   0.809  -1.055  0.00  0.00    -0.203 NA
BRANCH   5   6
ATOM      6  S   UNL d   1       1.146   0.100   0.330  0.00  0.00     0.243 S 
ATOM      7  O   UNL d   1       0.903   1.008   1.433  0.00  0.00    -0.206 OA
ATOM      8  O   UNL d   1       2.506  -0.246  -0.036  0.00  0.00    -0.206 OA
BRANCH   6   9
ATOM      9  C   UNL d   1       0.342  -1.447   0.730  0.00  0.00     0.074 A 
ATOM     10  C   UNL d   1       0.600  -2.586  -0.039  0.00  0.00     0.025 A 
ATOM     11  C   UNL d   1       0.369  -3.859   0.503  0.00  0.00     0.008 A 
ATOM     12  C   UNL d   1      -0.114  -4.001   1.816  0.00  0.00    -0.062 A 
ATOM     13  C   UNL d   1      -0.445  -2.858   2.545  0.00  0.00     0.008 A 
ATOM     14  C   UNL d   1      -0.098  -5.348   2.491  0.00  0.00     0.048 C 
ATOM     15  C   UNL d   1      -0.226  -1.585   2.006  0.00  0.00     0.025 A 
ENDBRANCH   6   9
ENDBRANCH   5   6
BRANCH   5  16
ATOM     16  C   UNL d   1      -1.074   0.754  -1.183  0.00  0.00     0.139 C 
BRANCH  16  17
ATOM     17  C   UNL d   1      -1.874   1.588  -0.169  0.00  0.00     0.135 C 
ATOM     18  O   UNL d   1      -1.653   2.998  -0.353  0.00  0.00    -0.385 OA
ATOM     19  C   UNL d   1      -2.819   3.707   0.089  0.00  0.00     0.168 C 
ATOM     20  C   UNL d   1      -3.884   2.673   0.396  0.00  0.00     0.029 C 
ATOM     21  C   UNL d   1      -3.381   1.445  -0.330  0.00  0.00     0.035 C 
ENDBRANCH  16  17
ENDBRANCH   5  16
ENDBRANCH   4   5
ENDBRANCH   3   4
TORSDOF 6
