REMARK  8 active torsions:
REMARK  status: ('A' for Active; 'I' for Inactive)
REMARK    1  A    between atoms: N_5  and  C_1 
REMARK    2  A    between atoms: N_6  and  C_2 
REMARK    3  A    between atoms: C_13  and  N_5 
REMARK    4  A    between atoms: C_14  and  N_6 
REMARK    5  A    between atoms: C_7  and  O_11 
REMARK    6  A    between atoms: C_8  and  O_12 
REMARK    7  A    between atoms: O_11  and  C_21 
REMARK    8  A    between atoms: O_12  and  C_22 
ROOT
ATOM      1  C   UNL d   1       0.688  -1.373  -0.134  0.00  0.00     0.118 C 
ATOM      2  C   UNL d   1      -0.684  -1.427  -0.064  0.00  0.00     0.118 C 
ATOM      3  C   UNL d   1       0.685   0.095   0.072  0.00  0.00     0.253 C 
ATOM      4  C   UNL d   1      -0.791   0.050  -0.086  0.00  0.00     0.253 C 
ATOM      5  O   UNL d   1       1.477   0.986   0.233  0.00  0.00    -0.281 OA
ATOM      6  O   UNL d   1      -1.646   0.895  -0.130  0.00  0.00    -0.281 OA
ENDROOT
BRANCH   1   7
ATOM      7  N   UNL d   1       1.727  -2.173  -0.248  0.00  0.00    -0.351 N 
ATOM      8  H   UNL d   1       2.649  -1.815   0.004  0.00  0.00     0.166 HD
BRANCH   7   9
ATOM      9  C   UNL d   1       1.900  -3.165  -1.255  0.00  0.00     0.032 A 
ATOM     10  C   UNL d   1       1.031  -3.315  -2.346  0.00  0.00     0.032 A 
ATOM     11  C   UNL d   1       1.304  -4.234  -3.371  0.00  0.00     0.039 A 
ATOM     12  C   UNL d   1       2.447  -5.024  -3.313  0.00  0.00     0.078 A 
ATOM     13  C   UNL d   1       3.253  -4.962  -2.175  0.00  0.00     0.039 A 
ATOM     14  C   UNL d   1       2.985  -4.043  -1.156  0.00  0.00     0.032 A 
BRANCH  12  15
ATOM     15  O   UNL d   1       2.885  -5.887  -4.272  0.00  0.00    -0.255 OA
BRANCH  15  16
ATOM     16  C   UNL d   1       2.442  -5.696  -5.606  0.00  0.00     0.530 C 
ATOM     17  F   UNL d   1       2.233  -4.398  -5.914  0.00  0.00    -0.144 F 
ATOM     18  F   UNL d   1       3.393  -6.167  -6.444  0.00  0.00    -0.144 F 
ATOM     19  F   UNL d   1       1.306  -6.393  -5.822  0.00  0.00    -0.144 F 
ENDBRANCH  15  16
ENDBRANCH  12  15
ENDBRANCH   7   9
ENDBRANCH   1   7
BRANCH   2  20
ATOM     20  N   UNL d   1      -1.661  -2.311  -0.040  0.00  0.00    -0.351 N 
ATOM     21  H   UNL d   1      -2.615  -1.994  -0.216  0.00  0.00     0.166 HD
BRANCH  20  22
ATOM     22  C   UNL d   1      -1.714  -3.460   0.797  0.00  0.00     0.032 A 
ATOM     23  C   UNL d   1      -0.784  -3.709   1.816  0.00  0.00     0.032 A 
ATOM     24  C   UNL d   1      -0.920  -4.807   2.677  0.00  0.00     0.039 A 
ATOM     25  C   UNL d   1      -1.991  -5.681   2.525  0.00  0.00     0.078 A 
ATOM     26  C   UNL d   1      -2.863  -5.499   1.450  0.00  0.00     0.039 A 
ATOM     27  C   UNL d   1      -2.728  -4.402   0.594  0.00  0.00     0.032 A 
BRANCH  25  28
ATOM     28  O   UNL d   1      -2.299  -6.732   3.337  0.00  0.00    -0.255 OA
BRANCH  28  29
ATOM     29  C   UNL d   1      -1.732  -6.769   4.636  0.00  0.00     0.530 C 
ATOM     30  F   UNL d   1      -1.631  -5.545   5.200  0.00  0.00    -0.144 F 
ATOM     31  F   UNL d   1      -2.529  -7.521   5.430  0.00  0.00    -0.144 F 
ATOM     32  F   UNL d   1      -0.511  -7.344   4.597  0.00  0.00    -0.144 F 
ENDBRANCH  28  29
ENDBRANCH  25  28
ENDBRANCH  20  22
ENDBRANCH   2  20
TORSDOF 8
