REMARK  3 active torsions:
REMARK  status: ('A' for Active; 'I' for Inactive)
REMARK    1  A    between atoms: C_10  and  C_5 
REMARK    2  A    between atoms: N_14  and  C_8 
REMARK    3  A    between atoms: N_13  and  C_9 
ROOT
ATOM      1  N   UNL d   1      -1.173   1.018   0.103  0.00  0.00    -0.318 N 
ATOM      2  HN  UNL d   1      -2.056   1.527   0.154  1.00  0.00     0.170 HD
ATOM      3  N   UNL d   1       1.180   1.011  -0.076  0.00  0.00    -0.318 N 
ATOM      4  HN  UNL d   1       2.065   1.515  -0.127  1.00  0.00     0.170 HD
ATOM      5  C   UNL d   1       0.005   1.636   0.018  0.00  0.00     0.121 A 
ATOM      6  N   UNL d   1      -0.003  -1.014   0.009  0.00  0.00    -0.309 N 
ATOM      7  HN  UNL d   1      -0.006  -2.034   0.011  1.00  0.00     0.171 HD
ATOM      8  C   UNL d   1       1.111  -0.309  -0.098  0.00  0.00     0.158 A 
ATOM      9  C   UNL d   1      -1.112  -0.302   0.116  0.00  0.00     0.158 A 
ENDROOT
BRANCH   5  10
ATOM     10  C   UNL d   1       0.010   3.107   0.029  0.00  0.00     0.024 A 
ATOM     11  C   UNL d   1       1.198   3.840  -0.008  0.00  0.00     0.102 A 
ATOM     12  N   UNL d   1       1.285   5.197   0.010  0.00  0.00    -0.374 N 
ATOM     13  C   UNL d   1       0.123   5.875   0.069  0.00  0.00     0.087 A 
ATOM     14  HN  UNL d   1       2.184   5.676  -0.019  1.00  0.00     0.164 HD
ATOM     15  C   UNL d   1      -1.117   5.265   0.104  0.00  0.00     0.018 A 
ATOM     16  C   UNL d   1      -1.169   3.869   0.084  0.00  0.00     0.018 A 
ENDBRANCH   5  10
BRANCH   8  17
ATOM     17  N   UNL d   1       2.296  -1.004  -0.233  0.00  0.00    -0.274 NA
ATOM     18  H   UNL d   1       2.209  -1.942   0.131  0.00  0.00     0.127 HD
ATOM     19  H   UNL d   1       3.081  -0.451   0.079  0.00  0.00     0.127 HD
ENDBRANCH   8  17
BRANCH   9  20
ATOM     20  N   UNL d   1      -2.304  -0.991   0.212  0.00  0.00    -0.274 NA
ATOM     21  H   UNL d   1      -2.203  -1.923  -0.170  0.00  0.00     0.127 HD
ATOM     22  H   UNL d   1      -3.069  -0.431  -0.138  0.00  0.00     0.127 HD
ENDBRANCH   9  20
TORSDOF 3
