REMARK  4 active torsions:
REMARK  status: ('A' for Active; 'I' for Inactive)
REMARK    1  A    between atoms: C_2  and  S_1 
REMARK    2  A    between atoms: C_3  and  S_1 
REMARK    3  A    between atoms: C_6  and  C_5 
REMARK    4  A    between atoms: O_12  and  C_6 
ROOT
ATOM      1  C   UNL d   1       0.647   1.015   1.140  0.00  0.00     0.048 A 
ATOM      2  C   UNL d   1      -0.029   0.595   2.350  0.00  0.00     0.011 A 
ATOM      3  C   UNL d   1      -0.395  -0.730   2.788  0.00  0.00     0.050 A 
ATOM      4  C   UNL d   1      -0.373   1.637   3.265  0.00  0.00    -0.024 A 
ATOM      5  C   UNL d   1       0.900   2.382   0.893  0.00  0.00     0.022 A 
ATOM      6  C   UNL d   1      -1.045  -0.972   4.017  0.00  0.00     0.019 A 
ATOM      7  C   UNL d   1       0.525   3.359   1.799  0.00  0.00     0.002 A 
ATOM      8  C   UNL d   1      -1.329   0.073   4.875  0.00  0.00     0.002 A 
ATOM      9  C   UNL d   1      -0.993   1.365   4.496  0.00  0.00     0.012 A 
ATOM     10  C   UNL d   1      -0.097   2.982   2.979  0.00  0.00     0.012 A 
ENDROOT
BRANCH   1  11
ATOM     11  S   UNL d   1       1.383  -0.153  -0.044  0.00  0.00     0.086 S 
ATOM     12  O   UNL d   1       2.531   0.580  -0.680  0.00  0.00    -0.247 OA
BRANCH  11  13
ATOM     13  C   UNL d   1       0.095  -0.223  -1.353  0.00  0.00     0.047 A 
ATOM     14  C   UNL d   1       0.323  -1.074  -2.489  0.00  0.00    -0.006 A 
ATOM     15  C   UNL d   1      -0.713  -1.226  -3.449  0.00  0.00    -0.025 A 
ATOM     16  C   UNL d   1       1.519  -1.801  -2.731  0.00  0.00     0.014 A 
ATOM     17  C   UNL d   1      -0.541  -2.076  -4.557  0.00  0.00     0.012 A 
ATOM     18  C   UNL d   1      -1.921  -0.540  -3.289  0.00  0.00     0.012 A 
ATOM     19  C   UNL d   1       0.644  -2.780  -4.753  0.00  0.00     0.001 A 
ATOM     20  C   UNL d   1       1.679  -2.640  -3.838  0.00  0.00     0.001 A 
ATOM     21  C   UNL d   1      -2.127   0.298  -2.199  0.00  0.00     0.002 A 
ATOM     22  C   UNL d   1      -1.131   0.451  -1.237  0.00  0.00     0.022 A 
ENDBRANCH  11  13
ENDBRANCH   1  11
BRANCH   3  23
ATOM     23  C   UNL d   1      -0.208  -1.950   1.979  0.00  0.00     0.177 C 
ATOM     24  O   UNL d   1      -0.734  -2.129   0.898  0.00  0.00    -0.646 OA
BRANCH  23  25
ATOM     25  O   UNL d   1       0.564  -2.866   2.603  0.00  0.00    -0.773 OA
ATOM     26  H   UNL d   1       0.915  -2.590   3.472  0.00  0.00     0.167 HD
ENDBRANCH  23  25
ENDBRANCH   3  23
TORSDOF 4
