REMARK  3 active torsions:
REMARK  status: ('A' for Active; 'I' for Inactive)
REMARK    1  A    between atoms: C_5  and  C_1 
REMARK    2  A    between atoms: O_11  and  C_5 
REMARK    3  A    between atoms: O_12  and  C_7 
ROOT
ATOM      1  C   UNL d   1      -1.311   1.145   0.236  0.00  0.00     0.088 C 
ATOM      2  C   UNL d   1       0.012   1.724  -0.275  0.00  0.00     0.022 C 
ATOM      3  C   UNL d   1       1.087   1.108   0.644  0.00  0.00     0.015 C 
ATOM      4  C   UNL d   1      -0.902  -0.076   1.082  0.00  0.00     0.000 C 
ATOM      5  C   UNL d   1       0.283   0.544   1.825  0.00  0.00     0.012 C 
ATOM      6  C   UNL d   1       1.810  -0.037  -0.082  0.00  0.00     0.122 C 
ATOM      7  C   UNL d   1      -0.385  -1.333   0.345  0.00  0.00     0.008 C 
ATOM      8  C   UNL d   1       0.841  -1.129  -0.562  0.00  0.00     0.032 C 
ENDROOT
BRANCH   1   9
ATOM      9  C   UNL d   1      -2.350   0.968  -0.839  0.00  0.00     0.144 C 
ATOM     10  O   UNL d   1      -2.811  -0.099  -1.217  0.00  0.00    -0.650 OA
BRANCH   9  11
ATOM     11  O   UNL d   1      -2.775   2.152  -1.345  0.00  0.00    -0.776 OA
ATOM     12  H   UNL d   1      -2.359   2.935  -0.926  0.00  0.00     0.167 HD
ENDBRANCH   9  11
ENDBRANCH   1   9
BRANCH   6  13
ATOM     13  O   UNL d   1       2.812  -0.586   0.771  0.00  0.00    -0.395 OA
ATOM     14  H   UNL d   1       2.387  -1.171   1.419  0.00  0.00     0.210 HD
ENDBRANCH   6  13
TORSDOF 3
