REMARK  3 active torsions:
REMARK  status: ('A' for Active; 'I' for Inactive)
REMARK    1  A    between atoms: C_4  and  C_1 
REMARK    2  A    between atoms: O_12  and  C_4 
REMARK    3  A    between atoms: C_13  and  O_12 
ROOT
ATOM      1  C   UNL d   1       1.330   0.021  -0.016  0.00  0.00     0.128 C 
ATOM      2  C   UNL d   1       0.729   1.388  -0.315  0.00  0.00     0.236 C 
ATOM      3  N   UNL d   1      -0.658   1.333  -0.276  0.00  0.00    -0.355 N 
ATOM      4  C   UNL d   1       0.762  -0.949  -1.085  0.00  0.00     0.032 C 
ATOM      5  C   UNL d   1       0.782  -0.424   1.368  0.00  0.00     0.032 C 
ATOM      6  O   UNL d   1       1.338   2.414  -0.578  0.00  0.00    -0.272 OA
ATOM      7  C   UNL d   1      -1.264   0.043   0.001  0.00  0.00     0.084 C 
ATOM      8  C   UNL d   1      -0.775  -0.943  -1.068  0.00  0.00     0.027 C 
ATOM      9  C   UNL d   1      -0.757  -0.426   1.371  0.00  0.00     0.027 C 
ATOM     10  H   UNL d   1      -1.187   2.175  -0.480  0.00  0.00     0.162 HD
ENDROOT
BRANCH   1  11
ATOM     11  C   UNL d   1       2.839  -0.022  -0.020  0.00  0.00     0.277 C 
ATOM     12  O   UNL d   1       3.501  -0.754  -0.747  0.00  0.00    -0.264 OA
BRANCH  11  13
ATOM     13  O   UNL d   1       3.357   0.717   1.003  0.00  0.00    -0.321 OA
BRANCH  13  14
ATOM     14  C   UNL d   1       4.660   0.309   1.446  0.00  0.00     0.174 C 
ATOM     15  C   UNL d   1       4.464  -0.762   2.505  0.00  0.00     0.034 C 
ENDBRANCH  13  14
ENDBRANCH  11  13
ENDBRANCH   1  11
TORSDOF 3
