REMARK  5 active torsions:
REMARK  status: ('A' for Active; 'I' for Inactive)
REMARK    1  A    between atoms: C_2  and  C_1 
REMARK       I    between atoms: N_4  and  C_1 
REMARK    2  A    between atoms: N_7  and  C_2 
REMARK    3  A    between atoms: C_3  and  C_6 
REMARK    4  A    between atoms: C_5  and  N_4 
REMARK    5  A    between atoms: C_18  and  N_7 
ROOT
ATOM      1  C   UNL d   1       0.674  -0.026   0.371  0.00  0.00     0.283 C 
ATOM      2  N   UNL d   1       2.005   0.188   0.688  0.00  0.00    -0.319 N 
ATOM      3  O   UNL d   1      -0.212  -0.327   1.166  0.00  0.00    -0.265 OA
ATOM      4  H   UNL d   1       2.628   0.402  -0.089  0.00  0.00     0.169 HD
ENDROOT
BRANCH   2   5
ATOM      5  C   UNL d   1       2.640  -0.205   1.901  0.00  0.00     0.057 A 
ATOM      6  C   UNL d   1       1.913  -0.629   3.023  0.00  0.00     0.047 A 
ATOM      7  C   UNL d   1       2.543  -1.213   4.135  0.00  0.00     0.050 A 
ATOM      8  C   UNL d   1       3.938  -1.319   4.146  0.00  0.00     0.018 A 
ATOM      9  C   UNL d   1       4.688  -0.824   3.075  0.00  0.00     0.027 A 
ATOM     10  C   UNL d   1       4.043  -0.265   1.965  0.00  0.00     0.060 A 
ATOM     11 CL   UNL d   1       5.024   0.301   0.657  0.00  0.00    -0.082 Cl
BRANCH   7  12
ATOM     12  C   UNL d   1       1.719  -1.765   5.276  0.00  0.00     0.417 C 
ATOM     13  F   UNL d   1       0.384  -1.524   5.164  0.00  0.00    -0.166 F 
ATOM     14  F   UNL d   1       1.845  -3.117   5.394  0.00  0.00    -0.166 F 
ATOM     15  F   UNL d   1       2.089  -1.251   6.483  0.00  0.00    -0.166 F 
ENDBRANCH   7  12
ENDBRANCH   2   5
BRANCH   1  16
ATOM     16  C   UNL d   1       0.289   0.044  -1.116  0.00  0.00     0.165 C 
ATOM     17  S   UNL d   1       1.448  -0.327  -2.259  0.00  0.00    -0.055 SA
BRANCH  16  18
ATOM     18  N   UNL d   1      -1.015   0.320  -1.497  0.00  0.00    -0.372 N 
ATOM     19  H   UNL d   1      -1.209   0.188  -2.483  0.00  0.00     0.161 HD
BRANCH  18  20
ATOM     20  C   UNL d   1      -1.980   1.101  -0.714  0.00  0.00     0.082 C 
ATOM     21  C   UNL d   1      -2.927   0.238   0.149  0.00  0.00     0.025 C 
ATOM     22  C   UNL d   1      -4.335  -0.003  -0.385  0.00  0.00     0.002 C 
ATOM     23  C   UNL d   1      -4.933   1.224  -1.049  0.00  0.00     0.000 C 
ATOM     24  C   UNL d   1      -4.027   1.674  -2.180  0.00  0.00     0.002 C 
ATOM     25  C   UNL d   1      -2.678   2.122  -1.631  0.00  0.00     0.025 C 
ENDBRANCH  18  20
ENDBRANCH  16  18
ENDBRANCH   1  16
TORSDOF 5
