REMARK  5 active torsions:
REMARK  status: ('A' for Active; 'I' for Inactive)
REMARK       I    between atoms: N_2  and  C_1 
REMARK    1  A    between atoms: C_10  and  C_1 
REMARK    2  A    between atoms: C_7  and  N_2 
REMARK    3  A    between atoms: C_3  and  S_6 
REMARK    4  A    between atoms: S_6  and  C_10 
REMARK    5  A    between atoms: S_12  and  C_11 
ROOT
ATOM      1  C   UNL d   1       1.135  -0.076   0.125  0.00  0.00     0.231 C 
ATOM      2  N   UNL d   1       0.463   0.980   0.715  0.00  0.00    -0.326 N 
ATOM      3  O   UNL d   1       2.345  -0.100  -0.120  0.00  0.00    -0.272 OA
ATOM      4  H   UNL d   1      -0.488   0.792   1.011  0.00  0.00     0.169 HD
ENDROOT
BRANCH   1   5
ATOM      5  C   UNL d   1       0.309  -1.340  -0.086  0.00  0.00     0.184 C 
BRANCH   5   6
ATOM      6  S   UNL d   1      -1.470  -1.053  -0.367  0.00  0.00    -0.103 SA
BRANCH   6   7
ATOM      7  C   UNL d   1      -1.423  -0.158  -1.909  0.00  0.00     0.069 A 
ATOM      8  N   UNL d   1      -0.220   0.183  -2.412  0.00  0.00    -0.361 N 
ATOM      9  C   UNL d   1      -0.201   0.940  -3.529  0.00  0.00     0.089 A 
ATOM     10  HN  UNL d   1       0.645  -0.119  -1.964  1.00  0.00     0.165 HD
ATOM     11  C   UNL d   1      -1.341   1.364  -4.188  0.00  0.00     0.017 A 
ATOM     12  C   UNL d   1      -2.573   0.982  -3.671  0.00  0.00     0.004 A 
ATOM     13  C   UNL d   1      -2.618   0.209  -2.514  0.00  0.00     0.037 A 
ENDBRANCH   6   7
ENDBRANCH   5   6
ENDBRANCH   1   5
BRANCH   2  14
ATOM     14  C   UNL d   1       0.979   2.265   0.978  0.00  0.00     0.035 A 
ATOM     15  C   UNL d   1       2.175   2.732   0.425  0.00  0.00     0.048 A 
ATOM     16  C   UNL d   1       2.688   3.989   0.759  0.00  0.00     0.002 A 
ATOM     17  C   UNL d   1       1.957   4.805   1.627  0.00  0.00     0.018 A 
ATOM     18  C   UNL d   1       0.739   4.370   2.151  0.00  0.00     0.004 A 
ATOM     19  C   UNL d   1       0.248   3.105   1.822  0.00  0.00     0.029 A 
BRANCH  16  20
ATOM     20  S   UNL d   1       4.234   4.619   0.113  0.00  0.00    -0.134 SA
ATOM     21  C   UNL d   1       5.155   3.085  -0.208  0.00  0.00     0.095 C 
ENDBRANCH  16  20
ENDBRANCH   2  14
TORSDOF 5
