REMARK  3 active torsions:
REMARK  status: ('A' for Active; 'I' for Inactive)
REMARK    1  A    between atoms: C_6  and  N_1 
REMARK    2  A    between atoms: N_3  and  C_4 
REMARK    3  A    between atoms: N_5  and  C_10 
ROOT
ATOM      1  C   UNL d   1       0.013   1.640  -3.120  0.00  0.00     0.073 A 
ATOM      2  C   UNL d   1      -1.167   0.915  -3.424  0.00  0.00     0.051 A 
ATOM      3  C   UNL d   1       0.540   0.119  -1.289  0.00  0.00     0.104 A 
ATOM      4  C   UNL d   1       0.463   2.782  -3.870  0.00  0.00     0.102 C 
ATOM      5  N   UNL d   1       0.843   3.717  -4.441  0.00  0.00    -0.191 NA
ATOM      6  C   UNL d   1       0.852   1.246  -2.055  0.00  0.00     0.061 A 
ATOM      7  C   UNL d   1      -1.443  -0.206  -2.603  0.00  0.00     0.033 A 
ATOM      8  C   UNL d   1      -0.608  -0.614  -1.562  0.00  0.00     0.038 A 
ENDROOT
BRANCH   2   9
ATOM      9  N   UNL d   1      -2.107   1.226  -4.407  0.00  0.00    -0.380 N 
ATOM     10  C   UNL d   1      -2.269   2.585  -4.939  0.00  0.00     0.125 C 
ATOM     11  C   UNL d   1      -3.738   2.839  -5.261  0.00  0.00     0.045 C 
ATOM     12  C   UNL d   1      -4.361   1.749  -6.135  0.00  0.00     0.091 C 
ATOM     13  C   UNL d   1      -4.052   0.344  -5.605  0.00  0.00     0.045 C 
ATOM     14  C   UNL d   1      -2.575   0.141  -5.290  0.00  0.00     0.125 C 
BRANCH  12  15
ATOM     15  N   UNL d   1      -4.082   1.921  -7.561  0.00  0.00    -0.362 N 
ATOM     16  C   UNL d   1      -2.881   1.791  -8.206  0.00  0.00     0.091 A 
ATOM     17  C   UNL d   1      -3.079   2.018  -9.550  0.00  0.00     0.019 A 
ATOM     18  C   UNL d   1      -4.445   2.324  -9.727  0.00  0.00     0.019 A 
ATOM     19  C   UNL d   1      -5.040   2.263  -8.487  0.00  0.00     0.091 A 
ENDBRANCH  12  15
ENDBRANCH   2   9
BRANCH   3  20
ATOM     20  N   UNL d   1       1.422  -0.293  -0.192  0.00  0.00    -0.116 N 
ATOM     21  O   UNL d   1       2.427   0.396   0.025  0.00  0.00    -0.532 OA
ATOM     22  O   UNL d   1       1.109  -1.308   0.448  0.00  0.00    -0.532 OA
ENDBRANCH   3  20
TORSDOF 3
