REMARK  5 active torsions:
REMARK  status: ('A' for Active; 'I' for Inactive)
REMARK    1  A    between atoms: C_9  and  S_1 
REMARK    2  A    between atoms: N_18  and  S_1 
REMARK    3  A    between atoms: C_2  and  S_11 
REMARK    4  A    between atoms: N_4  and  C_3 
REMARK    5  A    between atoms: S_11  and  C_10 
ROOT
ATOM      1  C   UNL d   1       0.455   3.704  -1.397  0.00  0.00     0.121 A 
ATOM      2  C   UNL d   1       0.779   2.575  -0.627  0.00  0.00     0.062 A 
ATOM      3  C   UNL d   1       0.439   1.311  -1.109  0.00  0.00     0.076 A 
ATOM      4  C   UNL d   1      -0.185   3.592  -2.643  0.00  0.00     0.040 A 
ATOM      5  C   UNL d   1      -0.542   2.304  -3.082  0.00  0.00     0.023 A 
ATOM      6  C   UNL d   1      -0.236   1.169  -2.322  0.00  0.00     0.026 A 
ENDROOT
BRANCH   4   7
ATOM      7  S   UNL d   1      -0.610   4.952  -3.727  0.00  0.00    -0.063 SA
BRANCH   7   8
ATOM      8  C   UNL d   1       0.986   5.402  -4.311  0.00  0.00     0.118 A 
ATOM      9  N   UNL d   1       2.093   4.900  -3.814  0.00  0.00    -0.344 N 
ATOM     10  C   UNL d   1       3.188   5.442  -4.471  0.00  0.00     0.050 A 
ATOM     11  HN  UNL d   1       2.140   4.215  -3.059  1.00  0.00     0.167 HD
ATOM     12  C   UNL d   1       4.542   5.146  -4.212  0.00  0.00     0.031 A 
ATOM     13  C   UNL d   1       2.886   6.356  -5.483  0.00  0.00     0.034 A 
ATOM     14  C   UNL d   1       5.548   5.754  -4.974  0.00  0.00     0.002 A 
ATOM     15  C   UNL d   1       5.221   6.653  -5.984  0.00  0.00     0.002 A 
ATOM     16  C   UNL d   1       3.887   6.974  -6.252  0.00  0.00     0.021 A 
ATOM     17  S   UNL d   1       1.178   6.542  -5.574  0.00  0.00    -0.063 SA
ENDBRANCH   7   8
ENDBRANCH   4   7
BRANCH   1  18
ATOM     18  N   UNL d   1       0.780   5.002  -0.827  0.00  0.00    -0.114 N 
ATOM     19  O   UNL d   1       1.932   5.158  -0.402  0.00  0.00    -0.532 OA
ATOM     20  O   UNL d   1      -0.136   5.828  -0.728  0.00  0.00    -0.532 OA
ENDBRANCH   1  18
BRANCH   3  21
ATOM     21  S   UNL d   1       0.860  -0.120  -0.157  0.00  0.00     0.239 S 
ATOM     22  O   UNL d   1       0.484  -1.306  -0.889  0.00  0.00    -0.206 OA
ATOM     23  O   UNL d   1       0.469   0.114   1.212  0.00  0.00    -0.206 OA
BRANCH  21  24
ATOM     24  N   UNL d   1       2.537  -0.077  -0.193  0.00  0.00    -0.225 NA
ATOM     25  H   UNL d   1       2.897  -0.876  -0.717  0.00  0.00     0.136 HD
ATOM     26  H   UNL d   1       2.906  -0.013   0.757  0.00  0.00     0.136 HD
ENDBRANCH  21  24
ENDBRANCH   3  21
TORSDOF 5
