REMARK  5 active torsions:
REMARK  status: ('A' for Active; 'I' for Inactive)
REMARK    1  A    between atoms: C_11  and  N_1 
REMARK    2  A    between atoms: C_6  and  C_3 
REMARK    3  A    between atoms: C_17  and  N_5 
REMARK    4  A    between atoms: C_12  and  C_11 
REMARK       I    between atoms: N_19  and  C_12 
REMARK    5  A    between atoms: N_20  and  N_19 
ROOT
ATOM      1  N   UNL d   1      -0.752   1.130  -0.062  0.00  0.00    -0.256 N 
ATOM      2  C   UNL d   1      -1.398  -0.089  -0.228  0.00  0.00     0.332 C 
ATOM      3  C   UNL d   1       1.429   0.034   0.086  0.00  0.00     0.082 C 
ATOM      4  C   UNL d   1       0.611   1.270   0.134  0.00  0.00     0.266 C 
ATOM      5  N   UNL d   1      -0.605  -1.226  -0.018  0.00  0.00    -0.304 N 
ATOM      6  C   UNL d   1       0.774  -1.132   0.066  0.00  0.00     0.116 C 
ATOM      7  O   UNL d   1      -2.591  -0.164  -0.520  0.00  0.00    -0.246 OA
ATOM      8  O   UNL d   1       1.124   2.378   0.289  0.00  0.00    -0.267 OA
ENDROOT
BRANCH   1   9
ATOM      9  C   UNL d   1      -1.567   2.345  -0.050  0.00  0.00     0.241 C 
BRANCH   9  10
ATOM     10  C   UNL d   1      -1.551   3.129  -1.364  0.00  0.00     0.250 C 
ATOM     11  O   UNL d   1      -2.534   3.749  -1.777  0.00  0.00    -0.270 OA
ATOM     12  N   UNL d   1      -0.303   3.248  -1.979  0.00  0.00    -0.293 N 
ATOM     13  H   UNL d   1       0.522   3.156  -1.377  0.00  0.00     0.183 HD
BRANCH  12  14
ATOM     14  N   UNL d   1      -0.179   4.084  -3.117  0.00  0.00    -0.247 NA
ATOM     15  H   UNL d   1      -1.056   4.619  -3.191  0.00  0.00     0.143 HD
ATOM     16  H   UNL d   1      -0.182   3.485  -3.946  0.00  0.00     0.143 HD
ENDBRANCH  12  14
ENDBRANCH   9  10
ENDBRANCH   1   9
BRANCH   5  17
ATOM     17  C   UNL d   1      -1.265  -2.550  -0.047  0.00  0.00     0.086 C 
ATOM     18  C   UNL d   1      -1.196  -3.181  -1.439  0.00  0.00     0.032 C 
ATOM     19  C   UNL d   1      -0.760  -3.523   1.026  0.00  0.00     0.032 C 
ENDBRANCH   5  17
BRANCH   3  20
ATOM     20  C   UNL d   1       2.855   0.051   0.091  0.00  0.00     0.091 A 
ATOM     21  N   UNL d   1       3.635  -0.851   0.667  0.00  0.00    -0.353 N 
ATOM     22  C   UNL d   1       4.976  -0.559   0.471  0.00  0.00     0.012 A 
ATOM     23  HN  UNL d   1       3.293  -1.658   1.188  1.00  0.00     0.166 HD
ATOM     24  C   UNL d   1       6.005  -1.438   1.080  0.00  0.00     0.068 C 
ATOM     25  C   UNL d   1       5.215   0.557  -0.302  0.00  0.00     0.076 A 
ATOM     26  S   UNL d   1       3.740   1.244  -0.812  0.00  0.00    -0.081 SA
ENDBRANCH   3  20
TORSDOF 5
