REMARK  4 active torsions:
REMARK  status: ('A' for Active; 'I' for Inactive)
REMARK       I    between atoms: C_3  and  N_1 
REMARK    1  A    between atoms: C_2  and  C_3 
REMARK    2  A    between atoms: C_18  and  C_6 
REMARK    3  A    between atoms: C_7  and  C_8 
REMARK       I    between atoms: N_13  and  C_8 
REMARK    4  A    between atoms: C_19  and  N_13 
ROOT
ATOM      1  N   UNL d   1      -2.209  -0.537  -0.465  0.00  0.00    -0.334 N 
ATOM      2  C   UNL d   1      -2.791  -1.292  -1.496  0.00  0.00     0.259 C 
ATOM      3  C   UNL d   1      -2.142   0.953  -0.500  0.00  0.00     0.180 C 
ATOM      4  C   UNL d   1      -1.413  -1.133   0.612  0.00  0.00     0.132 C 
ATOM      5  C   UNL d   1      -0.659   1.410  -0.571  0.00  0.00     0.040 C 
ATOM      6  C   UNL d   1       0.049  -0.685   0.645  0.00  0.00     0.008 C 
ATOM      7  C   UNL d   1       0.162   0.839   0.597  0.00  0.00    -0.006 C 
ATOM      8  O   UNL d   1      -3.352  -0.725  -2.435  0.00  0.00    -0.267 OA
ATOM      9  C   UNL d   1       1.633   1.275   0.559  0.00  0.00     0.005 C 
ATOM     10  C   UNL d   1       0.857  -1.382  -0.459  0.00  0.00     0.006 C 
ATOM     11  C   UNL d   1       2.447   0.565  -0.521  0.00  0.00     0.000 C 
ATOM     12  C   UNL d   1       2.317  -0.951  -0.419  0.00  0.00     0.000 C 
ENDROOT
BRANCH   2  13
ATOM     13  C   UNL d   1      -2.745  -2.753  -1.471  0.00  0.00     0.092 C 
ATOM     14  C   UNL d   1      -2.517  -3.652  -2.579  0.00  0.00     0.083 C 
ATOM     15  N   UNL d   1      -2.545  -4.927  -2.151  0.00  0.00    -0.259 N 
ATOM     16  O   UNL d   1      -2.883  -4.896  -0.831  0.00  0.00    -0.241 OA
ATOM     17  HN  UNL d   1      -2.352  -5.759  -2.709  1.00  0.00     0.195 HD
ATOM     18  C   UNL d   1      -3.061  -3.616  -0.424  0.00  0.00     0.090 C 
ATOM     19  C   UNL d   1      -3.548  -3.500   0.971  0.00  0.00     0.080 C 
BRANCH  14  20
ATOM     20  C   UNL d   1      -2.299  -3.398  -4.013  0.00  0.00    -0.006 A 
ATOM     21  C   UNL d   1      -2.748  -4.345  -4.953  0.00  0.00     0.014 A 
ATOM     22  C   UNL d   1      -2.592  -4.136  -6.326  0.00  0.00     0.001 A 
ATOM     23  C   UNL d   1      -1.983  -2.971  -6.782  0.00  0.00     0.000 A 
ATOM     24  C   UNL d   1      -1.516  -2.030  -5.865  0.00  0.00     0.001 A 
ATOM     25  C   UNL d   1      -1.663  -2.245  -4.489  0.00  0.00     0.014 A 
ENDBRANCH  14  20
ENDBRANCH   2  13
BRANCH   3  26
ATOM     26  C   UNL d   1      -3.005   1.931  -1.376  0.00  0.00     0.241 C 
ATOM     27  N   UNL d   1      -4.309   1.568  -1.617  0.00  0.00    -0.351 N 
ATOM     28  H   UNL d   1      -4.393   0.576  -1.832  0.00  0.00     0.163 HD
ATOM     29  O   UNL d   1      -2.587   3.062  -1.646  0.00  0.00    -0.271 OA
BRANCH  27  30
ATOM     30  C   UNL d   1      -5.272   2.445  -2.317  0.00  0.00     0.022 C 
ATOM     31  C   UNL d   1      -4.785   2.791  -3.736  0.00  0.00     0.037 C 
ATOM     32  C   UNL d   1      -6.614   1.699  -2.430  0.00  0.00     0.037 C 
ATOM     33  C   UNL d   1      -5.526   3.738  -1.519  0.00  0.00     0.037 C 
ENDBRANCH  27  30
ENDBRANCH   3  26
TORSDOF 4
