REMARK  4 active torsions:
REMARK  status: ('A' for Active; 'I' for Inactive)
REMARK    1  A    between atoms: C_4  and  C_1 
REMARK    2  A    between atoms: C_12  and  C_3 
REMARK       I    between atoms: N_10  and  C_4 
REMARK    3  A    between atoms: N_8  and  C_7 
REMARK    4  A    between atoms: C_14  and  N_10 
ROOT
ATOM      1  C   UNL d   1      -2.776  -1.242  -0.380  0.00  0.00     0.258 C 
ATOM      2  N   UNL d   1      -4.001  -0.622  -0.176  0.00  0.00    -0.323 N 
ATOM      3  O   UNL d   1      -1.742  -0.651  -0.677  0.00  0.00    -0.267 OA
ATOM      4  H   UNL d   1      -4.721  -1.173   0.266  0.00  0.00     0.169 HD
ENDROOT
BRANCH   2   5
ATOM      5  C   UNL d   1      -4.235   0.774  -0.249  0.00  0.00     0.036 C 
ATOM      6  C   UNL d   1      -3.342   1.678  -0.821  0.00  0.00     0.055 C 
ATOM      7  C   UNL d   1      -3.518   3.062  -0.675  0.00  0.00     0.062 C 
ATOM      8 CL   UNL d   1      -2.224   4.058  -1.268  0.00  0.00    -0.082 Cl
ATOM      9  C   UNL d   1      -4.616   3.591   0.035  0.00  0.00     0.052 C 
ATOM     10  C   UNL d   1      -5.576   2.663   0.477  0.00  0.00     0.033 C 
ATOM     11  C   UNL d   1      -5.396   1.278   0.336  0.00  0.00     0.032 C 
BRANCH   9  12
ATOM     12  N   UNL d   1      -4.711   4.925   0.392  0.00  0.00    -0.375 N 
ATOM     13  C   UNL d   1      -5.234   5.313   1.714  0.00  0.00     0.149 C 
ATOM     14  C   UNL d   1      -4.483   6.567   2.192  0.00  0.00     0.187 C 
ATOM     15  O   UNL d   1      -4.582   7.638   1.238  0.00  0.00    -0.388 OA
ATOM     16  C   UNL d   1      -4.023   7.233  -0.028  0.00  0.00     0.187 C 
ATOM     17  C   UNL d   1      -4.759   6.007  -0.601  0.00  0.00     0.149 C 
ENDBRANCH   9  12
ENDBRANCH   2   5
BRANCH   1  18
ATOM     18  C   UNL d   1      -2.715  -2.683  -0.141  0.00  0.00     0.064 A 
ATOM     19  C   UNL d   1      -1.486  -3.400   0.040  0.00  0.00     0.053 A 
ATOM     20  C   UNL d   1      -1.792  -4.731   0.190  0.00  0.00     0.062 A 
ATOM     21  O   UNL d   1      -3.147  -4.880   0.143  0.00  0.00    -0.318 OA
ATOM     22  C   UNL d   1      -3.705  -3.653  -0.080  0.00  0.00     0.065 A 
ATOM     23  C   UNL d   1      -5.175  -3.691  -0.224  0.00  0.00     0.077 C 
BRANCH  20  24
ATOM     24  C   UNL d   1      -0.978  -5.989   0.359  0.00  0.00    -0.002 C 
ATOM     25  C   UNL d   1       0.531  -5.684   0.301  0.00  0.00     0.021 C 
ATOM     26  C   UNL d   1      -1.294  -6.637   1.717  0.00  0.00     0.021 C 
ATOM     27  C   UNL d   1      -1.315  -6.976  -0.774  0.00  0.00     0.021 C 
ENDBRANCH  20  24
ENDBRANCH   1  18
TORSDOF 4
