REMARK  6 active torsions:
REMARK  status: ('A' for Active; 'I' for Inactive)
REMARK    1  A    between atoms: N_2  and  C_1 
REMARK    2  A    between atoms: N_3  and  C_1 
REMARK    3  A    between atoms: C_4  and  N_3 
REMARK    4  A    between atoms: C_7  and  C_14 
REMARK    5  A    between atoms: O_19  and  C_7 
REMARK    6  A    between atoms: C_20  and  O_19 
ROOT
ATOM      1  N   UNL d   1       0.537  -1.273   0.781  0.00  0.00    -0.358 N 
ATOM      2  C   UNL d   1      -0.457  -2.126   0.129  0.00  0.00     0.126 C 
ATOM      3  C   UNL d   1       0.863  -1.655   2.158  0.00  0.00     0.126 C 
ATOM      4  C   UNL d   1      -1.542  -2.547   2.368  0.00  0.00     0.088 C 
ATOM      5  C   UNL d   1      -1.767  -2.129   0.909  0.00  0.00     0.034 C 
ATOM      6  C   UNL d   1      -0.404  -1.748   3.019  0.00  0.00     0.034 C 
ENDROOT
BRANCH   1   7
ATOM      7  C   UNL d   1       0.946  -0.051   0.241  0.00  0.00     0.170 C 
ATOM      8  S   UNL d   1      -0.050   0.947  -0.667  0.00  0.00    -0.041 SA
BRANCH   7   9
ATOM      9  N   UNL d   1       2.272   0.220   0.520  0.00  0.00    -0.362 N 
ATOM     10  H   UNL d   1       2.807  -0.576   0.838  0.00  0.00     0.162 HD
BRANCH   9  11
ATOM     11  C   UNL d   1       3.034   1.381   0.072  0.00  0.00     0.092 C 
ATOM     12  C   UNL d   1       2.919   2.625   0.996  0.00  0.00     0.031 C 
ATOM     13  C   UNL d   1       3.470   2.309   2.374  0.00  0.00    -0.024 C 
ATOM     14  C   UNL d   1       4.097   3.450   0.462  0.00  0.00     0.019 C 
ATOM     15  C   UNL d   1       4.800   2.168   2.251  0.00  0.00    -0.026 C 
ATOM     16  C   UNL d   1       5.130   2.368   0.792  0.00  0.00     0.010 C 
ATOM     17  C   UNL d   1       4.576   1.145   0.025  0.00  0.00     0.034 C 
ENDBRANCH   9  11
ENDBRANCH   7   9
ENDBRANCH   1   7
BRANCH   4  18
ATOM     18  C   UNL d   1      -1.302  -4.046   2.411  0.00  0.00     0.263 C 
ATOM     19  O   UNL d   1      -0.207  -4.586   2.444  0.00  0.00    -0.265 OA
BRANCH  18  20
ATOM     20  O   UNL d   1      -2.496  -4.689   2.269  0.00  0.00    -0.322 OA
BRANCH  20  21
ATOM     21  C   UNL d   1      -2.430  -6.047   1.810  0.00  0.00     0.174 C 
ATOM     22  C   UNL d   1      -2.510  -6.020   0.290  0.00  0.00     0.034 C 
ENDBRANCH  20  21
ENDBRANCH  18  20
ENDBRANCH   4  18
TORSDOF 6
