REMARK  4 active torsions:
REMARK  status: ('A' for Active; 'I' for Inactive)
REMARK    1  A    between atoms: C_4  and  C_2 
REMARK    2  A    between atoms: C_9  and  C_4 
REMARK    3  A    between atoms: S_8  and  C_9 
REMARK    4  A    between atoms: C_13  and  S_8 
ROOT
ATOM      1  C   UNL d   1      -3.726   1.292   0.107  0.00  0.00     0.169 C 
ATOM      2  O   UNL d   1      -3.730   2.522   0.166  0.00  0.00    -0.291 OA
ENDROOT
BRANCH   1   3
ATOM      3  C   UNL d   1      -2.410   0.572   0.043  0.00  0.00     0.013 A 
ATOM      4  C   UNL d   1      -1.232   1.337   0.095  0.00  0.00     0.054 A 
ATOM      5  C   UNL d   1       0.019   0.718   0.040  0.00  0.00     0.103 A 
ATOM      6  C   UNL d   1       0.108  -0.673  -0.034  0.00  0.00     0.102 A 
ATOM      7  O   UNL d   1       1.118   1.538   0.074  0.00  0.00    -0.346 OA
ATOM      8  O   UNL d   1       1.299  -1.353  -0.051  0.00  0.00    -0.346 OA
ATOM      9  C   UNL d   1      -1.052  -1.440  -0.105  0.00  0.00     0.040 A 
ATOM     10  C   UNL d   1       2.385  -0.516   0.365  0.00  0.00     0.202 C 
ATOM     11  C   UNL d   1       2.308   0.841  -0.316  0.00  0.00     0.202 C 
ATOM     12  C   UNL d   1      -2.309  -0.822  -0.070  0.00  0.00     0.018 A 
ENDBRANCH   1   3
BRANCH   1  13
ATOM     13  C   UNL d   1      -5.036   0.516   0.068  0.00  0.00     0.163 C 
BRANCH  13  14
ATOM     14  S   UNL d   1      -5.343  -0.271   1.684  0.00  0.00    -0.122 SA
BRANCH  14  15
ATOM     15  C   UNL d   1      -6.856  -1.178   1.396  0.00  0.00     0.001 A 
ATOM     16  C   UNL d   1      -6.963  -2.459   1.957  0.00  0.00     0.020 A 
ATOM     17  C   UNL d   1      -8.152  -3.189   1.860  0.00  0.00     0.025 A 
ATOM     18  C   UNL d   1      -9.248  -2.637   1.204  0.00  0.00     0.034 A 
ATOM     19  C   UNL d   1      -9.158  -1.367   0.637  0.00  0.00     0.025 A 
ATOM     20 CL   UNL d   1     -10.724  -3.515   1.116  0.00  0.00    -0.084 Cl
ATOM     21  C   UNL d   1      -7.964  -0.638   0.734  0.00  0.00     0.020 A 
ENDBRANCH  14  15
ENDBRANCH  13  14
ENDBRANCH   1  13
TORSDOF 4
