REMARK  7 active torsions:
REMARK  status: ('A' for Active; 'I' for Inactive)
REMARK    1  A    between atoms: N_5  and  S_1 
REMARK    2  A    between atoms: N_8  and  C_2 
REMARK    3  A    between atoms: C_3  and  N_5 
REMARK    4  A    between atoms: O_14  and  C_7 
REMARK    5  A    between atoms: O_15  and  C_9 
REMARK    6  A    between atoms: C_20  and  O_14 
REMARK    7  A    between atoms: C_21  and  O_15 
ROOT
ATOM      1  C   UNL d   1       1.454   4.784  -2.707  0.00  0.00     0.067 A 
ATOM      2  C   UNL d   1       0.990   2.067  -2.043  0.00  0.00     0.058 A 
ATOM      3  C   UNL d   1       2.471   3.952  -2.175  0.00  0.00     0.071 A 
ATOM      4  C   UNL d   1      -0.015   2.817  -2.634  0.00  0.00     0.066 A 
ATOM      5  C   UNL d   1       0.180   4.181  -2.917  0.00  0.00     0.097 A 
ATOM      6  C   UNL d   1       2.240   2.627  -1.798  0.00  0.00     0.093 A 
ENDROOT
BRANCH   1   7
ATOM      7  N   UNL d   1       1.696   6.146  -2.892  0.00  0.00    -0.374 N 
ATOM      8  C   UNL d   1       2.847   6.822  -2.261  0.00  0.00     0.149 C 
ATOM      9  C   UNL d   1       2.473   8.283  -1.960  0.00  0.00     0.187 C 
ATOM     10  O   UNL d   1       2.049   8.978  -3.143  0.00  0.00    -0.388 OA
ATOM     11  C   UNL d   1       0.912   8.313  -3.729  0.00  0.00     0.187 C 
ATOM     12  C   UNL d   1       1.243   6.855  -4.106  0.00  0.00     0.149 C 
ENDBRANCH   1   7
BRANCH   5  13
ATOM     13  O   UNL d   1      -0.870   4.976  -3.343  0.00  0.00    -0.349 OA
BRANCH  13  14
ATOM     14  C   UNL d   1      -2.183   4.447  -3.133  0.00  0.00     0.171 C 
ATOM     15  C   UNL d   1      -3.231   5.496  -3.451  0.00  0.00     0.034 C 
ENDBRANCH  13  14
ENDBRANCH   5  13
BRANCH   6  16
ATOM     16  O   UNL d   1       3.139   1.802  -1.174  0.00  0.00    -0.350 OA
BRANCH  16  17
ATOM     17  C   UNL d   1       4.263   2.417  -0.549  0.00  0.00     0.171 C 
ATOM     18  C   UNL d   1       4.868   1.394   0.396  0.00  0.00     0.034 C 
ENDBRANCH  16  17
ENDBRANCH   6  16
BRANCH   2  19
ATOM     19  N   UNL d   1       0.718   0.709  -1.682  0.00  0.00    -0.183 NA
ATOM     20  H   UNL d   1       1.231   0.434  -0.837  0.00  0.00     0.146 HD
BRANCH  19  21
ATOM     21  S   UNL d   1       1.050  -0.472  -2.858  0.00  0.00     0.210 S 
ATOM     22  O   UNL d   1       1.361  -1.671  -2.107  0.00  0.00    -0.211 OA
ATOM     23  O   UNL d   1       1.956   0.047  -3.862  0.00  0.00    -0.211 OA
ATOM     24  C   UNL d   1      -0.551  -0.696  -3.582  0.00  0.00     0.180 C 
ENDBRANCH  19  21
ENDBRANCH   2  19
TORSDOF 7
