REMARK  6 active torsions:
REMARK  status: ('A' for Active; 'I' for Inactive)
REMARK    1  A    between atoms: O_13  and  C_1 
REMARK    2  A    between atoms: O_15  and  C_2 
REMARK    3  A    between atoms: O_14  and  C_3 
REMARK    4  A    between atoms: C_4  and  C_5 
REMARK       I    between atoms: N_8  and  C_4 
REMARK    5  A    between atoms: C_6  and  C_7 
REMARK    6  A    between atoms: C_12  and  N_8 
ROOT
ATOM      1  C   UNL d   1      -3.421   1.406  -0.231  0.00  0.00     0.075 C 
ATOM      2  C   UNL d   1      -2.771   0.365   0.310  0.00  0.00     0.017 C 
ENDROOT
BRANCH   2   3
ATOM      3  C   UNL d   1      -1.339   0.099   0.131  0.00  0.00    -0.031 A 
ATOM      4  C   UNL d   1      -0.410   1.136   0.014  0.00  0.00     0.051 A 
ATOM      5  C   UNL d   1       0.964   0.886  -0.094  0.00  0.00     0.105 A 
ATOM      6  C   UNL d   1       1.427  -0.440  -0.065  0.00  0.00     0.135 A 
ATOM      7  C   UNL d   1       0.503  -1.496   0.129  0.00  0.00     0.105 A 
ATOM      8  C   UNL d   1      -0.871  -1.215   0.189  0.00  0.00     0.051 A 
BRANCH   5   9
ATOM      9  O   UNL d   1       1.672   2.053  -0.210  0.00  0.00    -0.353 OA
ATOM     10  C   UNL d   1       3.086   2.004  -0.307  0.00  0.00     0.210 C 
ENDBRANCH   5   9
BRANCH   6  11
ATOM     11  O   UNL d   1       2.779  -0.671  -0.087  0.00  0.00    -0.351 OA
ATOM     12  C   UNL d   1       3.222  -1.616  -1.062  0.00  0.00     0.210 C 
ENDBRANCH   6  11
BRANCH   7  13
ATOM     13  O   UNL d   1       1.015  -2.762   0.274  0.00  0.00    -0.353 OA
ATOM     14  C   UNL d   1       0.152  -3.754   0.818  0.00  0.00     0.210 C 
ENDBRANCH   7  13
ENDBRANCH   2   3
BRANCH   1  15
ATOM     15  C   UNL d   1      -4.859   1.610   0.087  0.00  0.00     0.245 C 
ATOM     16  N   UNL d   1      -5.426   2.605  -0.683  0.00  0.00    -0.324 N 
ATOM     17  H   UNL d   1      -4.866   2.998  -1.428  0.00  0.00     0.169 HD
ATOM     18  O   UNL d   1      -5.419   0.917   0.927  0.00  0.00    -0.268 OA
BRANCH  16  19
ATOM     19  C   UNL d   1      -6.772   3.023  -0.634  0.00  0.00     0.035 A 
ATOM     20  C   UNL d   1      -7.648   2.683   0.402  0.00  0.00     0.032 A 
ATOM     21  C   UNL d   1      -8.989   3.071   0.354  0.00  0.00     0.044 A 
ATOM     22  C   UNL d   1      -9.451   3.804  -0.729  0.00  0.00     0.116 A 
ATOM     23  C   UNL d   1      -8.589   4.185  -1.750  0.00  0.00     0.044 A 
ATOM     24  F   UNL d   1     -10.743   4.147  -0.793  0.00  0.00    -0.206 F 
ATOM     25  C   UNL d   1      -7.245   3.807  -1.696  0.00  0.00     0.032 A 
ENDBRANCH  16  19
ENDBRANCH   1  15
TORSDOF 6
