REMARK  6 active torsions:
REMARK  status: ('A' for Active; 'I' for Inactive)
REMARK    1  A    between atoms: C_13  and  N_9 
REMARK    2  A    between atoms: C_19  and  N_11 
REMARK    3  A    between atoms: N_12  and  C_20 
REMARK    4  A    between atoms: C_16  and  C_13 
REMARK    5  A    between atoms: C_20  and  C_16 
REMARK    6  A    between atoms: O_25  and  C_16 
ROOT
ATOM      1  C   UNL d   1       3.588   2.239   0.056  0.00  0.00     0.164 C 
ENDROOT
BRANCH   1   2
ATOM      2  C   UNL d   1       3.725   3.767   0.127  0.00  0.00     0.163 C 
BRANCH   2   3
ATOM      3  N   UNL d   1       3.103   4.382   1.290  0.00  0.00    -0.333 N 
ATOM      4  C   UNL d   1       3.711   5.011   2.345  0.00  0.00     0.149 C 
ATOM      5  C   UNL d   1       2.725   5.752   2.928  0.00  0.00     0.145 C 
ATOM      6  C   UNL d   1       5.049   5.003   2.830  0.00  0.00     0.282 C 
ATOM      7  N   UNL d   1       2.990   6.637   3.947  0.00  0.00    -0.287 N 
ATOM      8  N   UNL d   1       1.510   5.504   2.370  0.00  0.00    -0.336 N 
ATOM      9  C   UNL d   1       4.265   6.664   4.521  0.00  0.00     0.332 C 
ATOM     10  C   UNL d   1       1.983   7.546   4.457  0.00  0.00     0.163 C 
ATOM     11  N   UNL d   1       5.213   5.766   3.992  0.00  0.00    -0.269 N 
ATOM     12  O   UNL d   1       4.537   7.434   5.442  0.00  0.00    -0.246 OA
ATOM     13  C   UNL d   1       6.481   5.634   4.682  0.00  0.00     0.164 C 
ATOM     14  C   UNL d   1       1.755   4.615   1.428  0.00  0.00     0.185 C 
ATOM     15  HN  UNL d   1       0.611   5.914   2.623  1.00  0.00     0.168 HD
ATOM     16  O   UNL d   1       5.954   4.363   2.291  0.00  0.00    -0.265 OA
ENDBRANCH   2   3
ENDBRANCH   1   2
BRANCH   1  17
ATOM     17  C   UNL d   1       4.225   1.691  -1.264  0.00  0.00     0.305 C 
BRANCH  17  18
ATOM     18  N   UNL d   1       3.922   0.274  -1.572  0.00  0.00     0.094 N 
ATOM     19  C   UNL d   1       4.551  -0.656  -0.599  0.00  0.00     0.292 C 
ATOM     20  C   UNL d   1       4.249  -2.135  -0.917  0.00  0.00     0.153 C 
ATOM     21  N   UNL d   1       4.750  -2.452  -2.262  0.00  0.00    -0.378 N 
ATOM     22  C   UNL d   1       4.167  -1.598  -3.306  0.00  0.00     0.153 C 
ATOM     23  C   UNL d   1       4.399  -0.099  -2.936  0.00  0.00     0.292 C 
BRANCH  21  24
ATOM     24  C   UNL d   1       5.326  -3.683  -2.513  0.00  0.00     0.030 A 
ATOM     25  C   UNL d   1       6.261  -4.223  -1.613  0.00  0.00     0.029 A 
ATOM     26  C   UNL d   1       6.917  -5.436  -1.852  0.00  0.00     0.002 A 
ATOM     27  C   UNL d   1       6.647  -6.149  -3.011  0.00  0.00     0.000 A 
ATOM     28  C   UNL d   1       5.723  -5.646  -3.922  0.00  0.00     0.002 A 
ATOM     29  C   UNL d   1       5.076  -4.426  -3.674  0.00  0.00     0.029 A 
ENDBRANCH  21  24
ENDBRANCH  17  18
ENDBRANCH   1  17
BRANCH   1  30
ATOM     30  O   UNL d   1       4.219   1.677   1.214  0.00  0.00    -0.392 OA
ATOM     31  H   UNL d   1       5.160   1.925   1.206  0.00  0.00     0.210 HD
ENDBRANCH   1  30
TORSDOF 6
