REMARK  4 active torsions:
REMARK  status: ('A' for Active; 'I' for Inactive)
REMARK    1  A    between atoms: C_2  and  C_1 
REMARK    2  A    between atoms: C_10  and  N_3 
REMARK    3  A    between atoms: C_13  and  C_16 
REMARK    4  A    between atoms: C_14  and  C_17 
ROOT
ATOM      1  C   UNL d   1       4.173  -0.901  -0.898  0.00  0.00     0.114 C 
ATOM      2  N   UNL d   1       4.301   0.391  -1.383  0.00  0.00    -0.164 NA
ATOM      3  C   UNL d   1       5.589   0.657  -1.841  0.00  0.00     0.246 C 
ATOM      4  N   UNL d   1       5.038  -1.348  -0.027  0.00  0.00    -0.344 N 
ATOM      5  HN  UNL d   1       4.901  -2.226   0.474  1.00  0.00     0.167 HD
ATOM      6  C   UNL d   1       6.625   0.296  -0.857  0.00  0.00     0.054 C 
ATOM      7  C   UNL d   1       6.179  -0.535   0.175  0.00  0.00     0.048 C 
ATOM      8  O   UNL d   1       5.867   1.140  -2.931  0.00  0.00    -0.273 OA
ATOM      9  C   UNL d   1       7.886   0.885  -0.851  0.00  0.00     0.025 C 
ATOM     10  C   UNL d   1       6.906  -0.552   1.358  0.00  0.00     0.031 C 
ATOM     11  C   UNL d   1       8.670   0.765   0.298  0.00  0.00    -0.061 C 
ATOM     12  C   UNL d   1       8.132   0.124   1.428  0.00  0.00     0.009 C 
ATOM     13  C   UNL d   1      10.070   1.304   0.334  0.00  0.00     0.048 C 
ENDROOT
BRANCH   2  14
ATOM     14  C   UNL d   1       3.690   1.417  -0.535  0.00  0.00     0.026 A 
ATOM     15  C   UNL d   1       4.073   2.761  -0.610  0.00  0.00     0.040 A 
ATOM     16  C   UNL d   1       3.614   3.695   0.334  0.00  0.00     0.050 A 
ATOM     17  C   UNL d   1       2.727   3.280   1.346  0.00  0.00     0.032 A 
ATOM     18  C   UNL d   1       2.299   1.954   1.428  0.00  0.00     0.050 A 
ATOM     19  C   UNL d   1       2.765   1.047   0.466  0.00  0.00     0.040 A 
BRANCH  16  20
ATOM     20  C   UNL d   1       4.071   5.136   0.305  0.00  0.00     0.417 C 
ATOM     21  F   UNL d   1       5.022   5.389  -0.633  0.00  0.00    -0.166 F 
ATOM     22  F   UNL d   1       3.049   5.998   0.052  0.00  0.00    -0.166 F 
ATOM     23  F   UNL d   1       4.605   5.527   1.495  0.00  0.00    -0.166 F 
ENDBRANCH  16  20
BRANCH  18  24
ATOM     24  C   UNL d   1       1.378   1.485   2.531  0.00  0.00     0.417 C 
ATOM     25  F   UNL d   1       1.371   0.137   2.685  0.00  0.00    -0.166 F 
ATOM     26  F   UNL d   1       1.716   1.999   3.742  0.00  0.00    -0.166 F 
ATOM     27  F   UNL d   1       0.085   1.846   2.308  0.00  0.00    -0.166 F 
ENDBRANCH  18  24
ENDBRANCH   2  14
BRANCH   1  28
ATOM     28  C   UNL d   1       2.987  -1.648  -1.305  0.00  0.00     0.067 A 
ATOM     29  S   UNL d   1       2.533  -3.047  -0.427  0.00  0.00    -0.085 SA
ATOM     30  C   UNL d   1       1.055  -3.224  -1.285  0.00  0.00     0.017 A 
ATOM     31  C   UNL d   1       0.051  -4.186  -1.055  0.00  0.00     0.020 A 
ATOM     32  C   UNL d   1       0.933  -2.267  -2.293  0.00  0.00     0.004 A 
ATOM     33  C   UNL d   1      -1.097  -4.176  -1.851  0.00  0.00     0.001 A 
ATOM     34  C   UNL d   1      -1.244  -3.237  -2.862  0.00  0.00     0.001 A 
ATOM     35  C   UNL d   1      -0.242  -2.292  -3.091  0.00  0.00     0.014 A 
ATOM     36  C   UNL d   1       2.076  -1.391  -2.316  0.00  0.00     0.066 A 
ATOM     37 CL   UNL d   1       2.184  -0.134  -3.493  0.00  0.00    -0.082 Cl
ENDBRANCH   1  28
TORSDOF 4
