REMARK  4 active torsions:
REMARK  status: ('A' for Active; 'I' for Inactive)
REMARK    1  A    between atoms: C_2  and  C_12 
REMARK       I    between atoms: N_10  and  C_2 
REMARK    2  A    between atoms: N_9  and  C_11 
REMARK    3  A    between atoms: C_12  and  N_9 
REMARK    4  A    between atoms: N_14  and  N_10 
ROOT
ATOM      1  N   UNL d   1       3.456  -1.427   0.153  0.00  0.00    -0.284 NA
ATOM      2  H   UNL d   1       3.344  -2.427  -0.025  0.00  0.00     0.128 HD
ENDROOT
BRANCH   1   3
ATOM      3  C   UNL d   1       2.266  -0.705   0.043  0.00  0.00     0.011 A 
ATOM      4  C   UNL d   1       1.049  -1.405   0.084  0.00  0.00     0.063 A 
ATOM      5  C   UNL d   1      -0.131  -0.691   0.047  0.00  0.00     0.106 A 
ATOM      6  C   UNL d   1      -0.146   0.680  -0.003  0.00  0.00     0.105 A 
ATOM      7  O   UNL d   1      -1.383  -1.223   0.067  0.00  0.00    -0.323 OA
ATOM      8  O   UNL d   1      -1.407   1.188  -0.017  0.00  0.00    -0.323 OA
ATOM      9  C   UNL d   1       1.020   1.411  -0.015  0.00  0.00     0.041 A 
ATOM     10  C   UNL d   1      -2.186  -0.025   0.060  0.00  0.00     0.352 A 
ATOM     11  C   UNL d   1       2.232   0.708   0.020  0.00  0.00     0.026 A 
ENDBRANCH   1   3
BRANCH   1  12
ATOM     12  C   UNL d   1       4.674  -0.912  -0.478  0.00  0.00     0.196 C 
BRANCH  12  13
ATOM     13  C   UNL d   1       5.641  -2.068  -0.774  0.00  0.00     0.244 C 
ATOM     14  O   UNL d   1       5.383  -3.251  -0.545  0.00  0.00    -0.271 OA
ATOM     15  N   UNL d   1       6.840  -1.659  -1.356  0.00  0.00    -0.293 N 
ATOM     16  H   UNL d   1       6.930  -0.717  -1.729  0.00  0.00     0.183 HD
BRANCH  15  17
ATOM     17  N   UNL d   1       7.753  -2.643  -1.803  0.00  0.00    -0.247 NA
ATOM     18  H   UNL d   1       7.269  -3.552  -1.739  0.00  0.00     0.143 HD
ATOM     19  H   UNL d   1       8.501  -2.720  -1.107  0.00  0.00     0.143 HD
ENDBRANCH  15  17
ENDBRANCH  12  13
ENDBRANCH   1  12
TORSDOF 4
