REMARK  4 active torsions:
REMARK  status: ('A' for Active; 'I' for Inactive)
REMARK    1  A    between atoms: C_13  and  C_3 
REMARK    2  A    between atoms: N_12  and  C_6 
REMARK    3  A    between atoms: C_11  and  C_8 
REMARK    4  A    between atoms: O_18  and  C_13 
ROOT
ATOM      1  C   UNL d   1      -0.356  -0.768  -0.033  0.00  0.00     0.069 A 
ATOM      2  C   UNL d   1      -0.351   0.683  -0.053  0.00  0.00     0.025 A 
ATOM      3  C   UNL d   1      -1.623  -1.317  -0.050  0.00  0.00     0.107 A 
ATOM      4  N   UNL d   1       0.789  -1.496   0.006  0.00  0.00    -0.350 N 
ATOM      5  HN  UNL d   1       0.806  -2.515   0.035  1.00  0.00     0.166 HD
ATOM      6  C   UNL d   1       0.787   1.519  -0.005  0.00  0.00     0.045 A 
ATOM      7  C   UNL d   1       1.940   0.704   0.004  0.00  0.00     0.064 A 
ATOM      8  C   UNL d   1       1.919  -0.721   0.003  0.00  0.00     0.119 A 
ATOM      9  S   UNL d   1      -2.807  -0.070  -0.172  0.00  0.00    -0.093 SA
ATOM     10  C   UNL d   1      -1.629   1.164  -0.223  0.00  0.00     0.066 A 
ENDROOT
BRANCH   6  11
ATOM     11  N   UNL d   1       0.863   2.897   0.067  0.00  0.00    -0.380 N 
ATOM     12  C   UNL d   1       1.912   3.656  -0.620  0.00  0.00     0.123 C 
ATOM     13  C   UNL d   1       2.651   4.540   0.385  0.00  0.00     0.020 C 
ATOM     14  C   UNL d   1       1.678   5.432   1.156  0.00  0.00     0.003 C 
ATOM     15  C   UNL d   1       0.577   4.600   1.806  0.00  0.00     0.020 C 
ATOM     16  C   UNL d   1      -0.126   3.696   0.795  0.00  0.00     0.123 C 
ENDBRANCH   6  11
BRANCH   8  17
ATOM     17  C   UNL d   1       3.276  -1.423  -0.004  0.00  0.00     0.432 C 
ATOM     18  F   UNL d   1       3.213  -2.784   0.019  0.00  0.00    -0.165 F 
ATOM     19  F   UNL d   1       4.017  -1.105  -1.107  0.00  0.00    -0.165 F 
ATOM     20  F   UNL d   1       4.052  -1.070   1.064  0.00  0.00    -0.165 F 
ENDBRANCH   8  17
BRANCH   3  21
ATOM     21  C   UNL d   1      -2.100  -2.683   0.003  0.00  0.00     0.302 C 
ATOM     22  O   UNL d   1      -3.282  -3.022   0.035  0.00  0.00    -0.259 OA
BRANCH  21  23
ATOM     23  O   UNL d   1      -1.075  -3.582   0.002  0.00  0.00    -0.322 OA
ATOM     24  C   UNL d   1      -1.500  -4.944   0.025  0.00  0.00     0.213 C 
ENDBRANCH  21  23
ENDBRANCH   3  21
TORSDOF 4
