REMARK  4 active torsions:
REMARK  status: ('A' for Active; 'I' for Inactive)
REMARK    1  A    between atoms: C_6  and  C_2 
REMARK       I    between atoms: C_10  and  N_3 
REMARK    2  A    between atoms: C_7  and  S_16 
REMARK    3  A    between atoms: C_17  and  C_10 
REMARK    4  A    between atoms: S_16  and  C_17 
ROOT
ATOM      1  C   UNL d   1       0.401  -6.630   1.321  0.00  0.00     0.049 A 
ATOM      2  C   UNL d   1       1.089  -6.558  -0.026  0.00  0.00     0.245 C 
ATOM      3  N   UNL d   1       1.448  -7.953  -0.429  0.00  0.00    -0.333 N 
ATOM      4  C   UNL d   1      -0.054  -7.757   1.977  0.00  0.00    -0.019 A 
ATOM      5  N   UNL d   1       0.175  -5.550   2.125  0.00  0.00    -0.356 N 
ATOM      6  C   UNL d   1      -0.620  -7.336   3.214  0.00  0.00    -0.001 A 
ATOM      7  C   UNL d   1      -0.446  -5.952   3.286  0.00  0.00     0.043 A 
ATOM      8  C   UNL d   1       2.475  -8.294  -1.308  0.00  0.00     0.230 C 
ATOM      9  C   UNL d   1       0.446  -9.003  -0.108  0.00  0.00     0.131 C 
ATOM     10  C   UNL d   1       0.123  -9.115   1.397  0.00  0.00     0.061 C 
ATOM     11  O   UNL d   1       2.676  -9.483  -1.589  0.00  0.00    -0.273 OA
ATOM     12  C   UNL d   1      -1.253  -7.989   4.292  0.00  0.00     0.014 A 
ATOM     13  C   UNL d   1      -0.848  -5.191   4.390  0.00  0.00     0.030 A 
ATOM     14  C   UNL d   1      -1.670  -7.237   5.401  0.00  0.00     0.001 A 
ATOM     15  C   UNL d   1      -1.463  -5.860   5.448  0.00  0.00     0.002 A 
ATOM     16  H   UNL d   1       0.417  -4.590   1.922  0.00  0.00     0.166 HD
ENDROOT
BRANCH   2  17
ATOM     17  C   UNL d   1       0.301  -5.742  -1.090  0.00  0.00     0.413 C 
ATOM     18  F   UNL d   1      -0.837  -5.192  -0.607  0.00  0.00    -0.168 F 
ATOM     19  F   UNL d   1       1.064  -4.714  -1.544  0.00  0.00    -0.168 F 
ATOM     20  F   UNL d   1      -0.035  -6.489  -2.166  0.00  0.00    -0.168 F 
ENDBRANCH   2  17
BRANCH   8  21
ATOM     21  C   UNL d   1       3.275  -7.238  -2.070  0.00  0.00     0.184 C 
BRANCH  21  22
ATOM     22  S   UNL d   1       4.248  -6.056  -1.122  0.00  0.00    -0.096 SA
BRANCH  22  23
ATOM     23  C   UNL d   1       5.167  -7.094  -0.099  0.00  0.00     0.104 C 
ATOM     24  N   UNL d   1       5.673  -8.213  -0.481  0.00  0.00    -0.378 N 
ATOM     25  C   UNL d   1       6.285  -8.884   0.685  0.00  0.00     0.131 C 
ATOM     26  HN  UNL d   1       5.656  -8.578  -1.433  1.00  0.00     0.160 HD
ATOM     27  C   UNL d   1       6.647  -7.875   1.766  0.00  0.00     0.101 C 
ATOM     28  S   UNL d   1       5.451  -6.553   1.527  0.00  0.00    -0.104 SA
ENDBRANCH  22  23
ENDBRANCH  21  22
ENDBRANCH   8  21
TORSDOF 4
