REMARK  2 active torsions:
REMARK  status: ('A' for Active; 'I' for Inactive)
REMARK    1  A    between atoms: S_7  and  C_4 
REMARK    2  A    between atoms: C_6  and  S_7 
ROOT
ATOM      1  S   UNL d   1      -1.440  -1.788  -0.032  0.00  0.00     0.177 S 
ATOM      2  C   UNL d   1      -2.682  -0.511   0.090  0.00  0.00     0.166 A 
ATOM      3  C   UNL d   1      -0.069  -0.718   0.022  0.00  0.00     0.066 A 
ATOM      4  C   UNL d   1      -1.958   0.847   0.116  0.00  0.00     0.101 A 
ATOM      5  C   UNL d   1      -0.463   0.614   0.088  0.00  0.00    -0.022 A 
ATOM      6  O   UNL d   1      -1.488  -2.373  -1.355  0.00  0.00    -0.223 OA
ATOM      7  O   UNL d   1      -1.439  -2.579   1.179  0.00  0.00    -0.223 OA
ATOM      8  C   UNL d   1       0.526   1.595   0.083  0.00  0.00     0.010 A 
ATOM      9  C   UNL d   1       1.254  -1.129  -0.013  0.00  0.00     0.024 A 
ATOM     10  C   UNL d   1       1.873   1.213   0.045  0.00  0.00     0.001 A 
ATOM     11  C   UNL d   1       2.236  -0.141   0.004  0.00  0.00     0.002 A 
ENDROOT
BRANCH   4  12
ATOM     12  S   UNL d   1      -2.439   1.819   1.593  0.00  0.00    -0.112 SA
BRANCH  12  13
ATOM     13  C   UNL d   1      -4.161   2.071   1.345  0.00  0.00     0.041 A 
ATOM     14  S   UNL d   1      -4.821   2.812  -0.048  0.00  0.00    -0.095 SA
ATOM     15  C   UNL d   1      -6.413   2.715   0.574  0.00  0.00     0.051 A 
ATOM     16  C   UNL d   1      -6.444   2.124   1.817  0.00  0.00     0.009 A 
ATOM     17  C   UNL d   1      -5.141   1.755   2.263  0.00  0.00     0.026 A 
ENDBRANCH  12  13
ENDBRANCH   4  12
TORSDOF 2
