REMARK  4 active torsions:
REMARK  status: ('A' for Active; 'I' for Inactive)
REMARK    1  A    between atoms: C_7  and  N_1 
REMARK    2  A    between atoms: C_8  and  N_3 
REMARK    3  A    between atoms: C_9  and  C_7 
REMARK    4  A    between atoms: O_17  and  C_15 
ROOT
ATOM      1  N   UNL d   1      -0.426   1.017   0.130  0.00  0.00    -0.291 N 
ATOM      2  C   UNL d   1       0.871   0.588   0.252  0.00  0.00     0.150 C 
ATOM      3  N   UNL d   1       1.872   1.409   0.170  0.00  0.00    -0.334 N 
ATOM      4  HN  UNL d   1       1.672   2.407   0.111  1.00  0.00     0.168 HD
ATOM      5  C   UNL d   1      -1.394   0.046   0.037  0.00  0.00     0.235 C 
ATOM      6  S   UNL d   1       0.910  -1.142   0.467  0.00  0.00    -0.084 SA
ATOM      7  C   UNL d   1      -0.846  -1.339   0.155  0.00  0.00     0.185 C 
ATOM      8  O   UNL d   1      -2.591   0.253  -0.177  0.00  0.00    -0.272 OA
ENDROOT
BRANCH   1   9
ATOM      9  C   UNL d   1      -0.778   2.412  -0.082  0.00  0.00     0.199 C 
BRANCH   9  10
ATOM     10  C   UNL d   1      -0.931   3.117   1.219  0.00  0.00     0.070 A 
ATOM     11  O   UNL d   1      -2.193   3.191   1.732  0.00  0.00    -0.325 OA
ATOM     12  C   UNL d   1      -2.116   3.913   2.879  0.00  0.00     0.142 A 
ATOM     13  C   UNL d   1      -0.820   4.305   3.114  0.00  0.00     0.027 A 
ATOM     14  C   UNL d   1      -0.051   3.792   2.041  0.00  0.00     0.036 A 
ENDBRANCH   9  10
ENDBRANCH   1   9
BRANCH   3  15
ATOM     15  C   UNL d   1       3.227   1.000   0.157  0.00  0.00     0.067 C 
ATOM     16  C   UNL d   1       4.145   1.478  -0.803  0.00  0.00     0.094 C 
ATOM     17  C   UNL d   1       5.459   0.974  -0.829  0.00  0.00     0.039 C 
ATOM     18  C   UNL d   1       5.888   0.014   0.082  0.00  0.00     0.003 C 
ATOM     19  C   UNL d   1       5.021  -0.407   1.077  0.00  0.00     0.002 C 
ATOM     20  C   UNL d   1       3.727   0.117   1.137  0.00  0.00     0.032 C 
BRANCH  16  21
ATOM     21  O   UNL d   1       3.965   2.413  -1.789  0.00  0.00    -0.354 OA
ATOM     22  C   UNL d   1       2.737   3.108  -1.887  0.00  0.00     0.210 C 
ENDBRANCH  16  21
ENDBRANCH   3  15
TORSDOF 4
