REMARK  5 active torsions:
REMARK  status: ('A' for Active; 'I' for Inactive)
REMARK    1  A    between atoms: N_7  and  C_1 
REMARK    2  A    between atoms: C_2  and  C_3 
REMARK    3  A    between atoms: C_6  and  N_9 
REMARK       I    between atoms: N_9  and  C_10 
REMARK    4  A    between atoms: C_10  and  C_17 
REMARK    5  A    between atoms: C_17  and  N_12 
ROOT
ATOM      1  N   UNL d   1       0.310   2.320  -0.511  0.00  0.00    -0.266 NA
ATOM      2  N   UNL d   1       1.138   5.219   0.480  0.00  0.00     0.098 N 
ATOM      3  C   UNL d   1       0.662   2.671   0.880  0.00  0.00     0.127 C 
ATOM      4  C   UNL d   1       0.363   4.161   1.183  0.00  0.00     0.287 C 
ATOM      5  C   UNL d   1       1.154   4.168  -1.945  0.00  0.00     0.045 C 
ATOM      6  C   UNL d   1       1.338   2.727  -1.480  0.00  0.00     0.099 C 
ATOM      7  C   UNL d   1       0.780   5.264  -0.939  0.00  0.00     0.274 C 
ENDROOT
BRANCH   2   8
ATOM      8  C   UNL d   1       2.566   5.112   0.819  0.00  0.00     0.374 C 
BRANCH   8   9
ATOM      9  C   UNL d   1       3.485   6.263   0.403  0.00  0.00     0.250 C 
ATOM     10  N   UNL d   1       2.901   7.472   0.098  0.00  0.00    -0.321 N 
ATOM     11  H   UNL d   1       1.922   7.572   0.357  0.00  0.00     0.169 HD
ATOM     12  O   UNL d   1       4.699   6.069   0.481  0.00  0.00    -0.271 OA
BRANCH  10  13
ATOM     13  C   UNL d   1       3.597   8.653  -0.292  0.00  0.00     0.112 A 
ATOM     14  C   UNL d   1       4.900   8.684  -0.816  0.00  0.00     0.146 A 
ATOM     15  F   UNL d   1       5.548   7.566  -1.169  0.00  0.00    -0.204 F 
ATOM     16  C   UNL d   1       5.554   9.889  -1.089  0.00  0.00     0.045 A 
ATOM     17  C   UNL d   1       4.903  11.101  -0.887  0.00  0.00     0.006 A 
ATOM     18  C   UNL d   1       3.586  11.095  -0.437  0.00  0.00     0.045 A 
ATOM     19  C   UNL d   1       2.950   9.884  -0.150  0.00  0.00     0.146 A 
ATOM     20  F   UNL d   1       1.680   9.916   0.294  0.00  0.00    -0.204 F 
ENDBRANCH  10  13
ENDBRANCH   8   9
ENDBRANCH   2   8
BRANCH   1  21
ATOM     21  C   UNL d   1      -0.026   0.948  -0.646  0.00  0.00     0.104 A 
ATOM     22  N   UNL d   1       0.438   0.067   0.280  0.00  0.00    -0.354 N 
ATOM     23  C   UNL d   1       0.038  -1.229   0.214  0.00  0.00     0.105 A 
ATOM     24  HN  UNL d   1       1.078   0.374   1.012  1.00  0.00     0.166 HD
ATOM     25  C   UNL d   1      -0.820  -1.733  -0.750  0.00  0.00     0.065 A 
ATOM     26  C   UNL d   1      -1.271  -0.838  -1.722  0.00  0.00     0.044 A 
ATOM     27  C   UNL d   1      -0.881   0.502  -1.674  0.00  0.00     0.073 A 
ATOM     28 CL   UNL d   1      -1.547   1.566  -2.866  0.00  0.00    -0.081 Cl
BRANCH  25  29
ATOM     29  C   UNL d   1      -1.242  -3.167  -0.697  0.00  0.00     0.418 C 
ATOM     30  F   UNL d   1      -2.107  -3.516  -1.689  0.00  0.00    -0.166 F 
ATOM     31  F   UNL d   1      -0.191  -4.026  -0.798  0.00  0.00    -0.166 F 
ATOM     32  F   UNL d   1      -1.869  -3.481   0.470  0.00  0.00    -0.166 F 
ENDBRANCH  25  29
ENDBRANCH   1  21
TORSDOF 5
