REMARK  2 active torsions:
REMARK  status: ('A' for Active; 'I' for Inactive)
REMARK       I    between atoms: C_3  and  N_1 
REMARK    1  A    between atoms: S_8  and  C_2 
REMARK    2  A    between atoms: C_6  and  C_3 
ROOT
ATOM      1  N   UNL d   1       1.017  -0.701  -0.331  0.00  0.00    -0.293 N 
ATOM      2  C   UNL d   1      -0.292  -1.181  -0.228  0.00  0.00     0.144 C 
ATOM      3  C   UNL d   1       2.175  -1.378  -0.711  0.00  0.00     0.259 C 
ATOM      4  N   UNL d   1      -1.199  -0.335   0.154  0.00  0.00    -0.369 N 
ATOM      5  HN  UNL d   1      -2.184  -0.525   0.342  1.00  0.00     0.161 HD
ATOM      6  O   UNL d   1       2.283  -2.595  -0.834  0.00  0.00    -0.267 OA
ATOM      7  C   UNL d   1       0.977   0.624   0.238  0.00  0.00     0.154 C 
ATOM      8  C   UNL d   1      -0.501   0.957   0.258  0.00  0.00     0.142 C 
ENDROOT
BRANCH   3   9
ATOM      9  C   UNL d   1       3.417  -0.600  -0.938  0.00  0.00     0.032 A 
ATOM     10  C   UNL d   1       4.599  -1.036  -0.326  0.00  0.00     0.018 A 
ATOM     11  C   UNL d   1       5.803  -0.373  -0.579  0.00  0.00     0.025 A 
ATOM     12  C   UNL d   1       5.821   0.717  -1.447  0.00  0.00     0.034 A 
ATOM     13  C   UNL d   1       4.650   1.143  -2.077  0.00  0.00     0.025 A 
ATOM     14 CL   UNL d   1       7.303   1.531  -1.764  0.00  0.00    -0.084 Cl
ATOM     15  C   UNL d   1       3.447   0.473  -1.836  0.00  0.00     0.018 A 
ENDBRANCH   3   9
BRANCH   2  16
ATOM     16  S   UNL d   1      -0.731  -2.807  -0.613  0.00  0.00    -0.098 SA
ATOM     17  C   UNL d   1       0.011  -3.673   0.787  0.00  0.00     0.099 C 
ENDBRANCH   2  16
TORSDOF 2
