REMARK  6 active torsions:
REMARK  status: ('A' for Active; 'I' for Inactive)
REMARK    1  A    between atoms: S_8  and  C_1 
REMARK    2  A    between atoms: C_6  and  C_3 
REMARK    3  A    between atoms: C_12  and  C_7 
REMARK    4  A    between atoms: C_15  and  S_8 
REMARK       I    between atoms: C_9  and  N_11 
REMARK    5  A    between atoms: C_18  and  C_9 
REMARK    6  A    between atoms: N_11  and  C_16 
ROOT
ATOM      1  C   UNL d   1      -0.014  -3.041  -1.938  0.00  0.00     0.097 A 
ATOM      2  C   UNL d   1      -1.381  -2.929  -2.228  0.00  0.00     0.093 A 
ATOM      3  C   UNL d   1      -2.017  -4.009  -2.858  0.00  0.00     0.073 A 
ATOM      4  N   UNL d   1       0.703  -4.163  -2.213  0.00  0.00    -0.348 N 
ATOM      5  HN  UNL d   1       1.698  -4.210  -1.993  1.00  0.00     0.166 HD
ATOM      6  C   UNL d   1       0.076  -5.217  -2.785  0.00  0.00     0.051 A 
ATOM      7  C   UNL d   1      -1.272  -5.173  -3.112  0.00  0.00     0.048 A 
ATOM      8  C   UNL d   1      -2.092  -1.722  -1.914  0.00  0.00     0.103 C 
ATOM      9  N   UNL d   1      -2.684  -0.748  -1.687  0.00  0.00    -0.191 NA
ENDROOT
BRANCH   1  10
ATOM     10  S   UNL d   1       0.905  -1.597  -1.391  0.00  0.00    -0.069 SA
BRANCH  10  11
ATOM     11  C   UNL d   1       2.250  -2.233  -0.396  0.00  0.00     0.033 A 
ATOM     12  C   UNL d   1       2.462  -1.840   0.945  0.00  0.00     0.052 A 
ATOM     13  C   UNL d   1       3.769  -1.917   1.468  0.00  0.00     0.031 A 
ATOM     14  C   UNL d   1       4.815  -2.481   0.736  0.00  0.00     0.002 A 
ATOM     15  C   UNL d   1       4.571  -2.991  -0.531  0.00  0.00     0.002 A 
ATOM     16  C   UNL d   1       3.306  -2.846  -1.098  0.00  0.00     0.021 A 
BRANCH  12  17
ATOM     17  N   UNL d   1       1.480  -1.370   1.863  0.00  0.00    -0.322 N 
ATOM     18  C   UNL d   1       0.146  -1.760   1.907  0.00  0.00     0.256 C 
ATOM     19  O   UNL d   1      -0.449  -2.445   1.090  0.00  0.00    -0.267 OA
ATOM     20  H   UNL d   1       1.857  -1.041   2.739  0.00  0.00     0.169 HD
BRANCH  18  21
ATOM     21  C   UNL d   1      -0.546  -1.455   3.198  0.00  0.00     0.032 A 
ATOM     22  C   UNL d   1      -0.207  -0.363   4.007  0.00  0.00     0.017 A 
ATOM     23  C   UNL d   1      -0.686  -0.296   5.319  0.00  0.00     0.007 A 
ATOM     24  C   UNL d   1      -1.506  -1.312   5.829  0.00  0.00    -0.062 A 
ATOM     25  C   UNL d   1      -1.957  -2.319   4.971  0.00  0.00     0.007 A 
ATOM     26  C   UNL d   1      -1.860  -1.341   7.287  0.00  0.00     0.048 C 
ATOM     27  C   UNL d   1      -1.480  -2.390   3.663  0.00  0.00     0.017 A 
ENDBRANCH  18  21
ENDBRANCH  12  17
ENDBRANCH  10  11
ENDBRANCH   1  10
BRANCH   3  28
ATOM     28  C   UNL d   1      -3.447  -3.988  -3.333  0.00  0.00     0.419 C 
ATOM     29  F   UNL d   1      -4.089  -2.801  -3.218  0.00  0.00    -0.166 F 
ATOM     30  F   UNL d   1      -3.533  -4.318  -4.654  0.00  0.00    -0.166 F 
ATOM     31  F   UNL d   1      -4.216  -4.900  -2.678  0.00  0.00    -0.166 F 
ENDBRANCH   3  28
BRANCH   6  32
ATOM     32  C   UNL d   1       0.949  -6.368  -3.068  0.00  0.00     0.031 A 
ATOM     33  S   UNL d   1       0.555  -7.514  -4.293  0.00  0.00    -0.100 SA
ATOM     34  C   UNL d   1       1.977  -8.416  -4.027  0.00  0.00     0.050 A 
ATOM     35  C   UNL d   1       2.754  -7.870  -3.032  0.00  0.00     0.008 A 
ATOM     36  C   UNL d   1       2.162  -6.692  -2.482  0.00  0.00     0.021 A 
ENDBRANCH   6  32
TORSDOF 6
