REMARK  11 active torsions:
REMARK  status: ('A' for Active; 'I' for Inactive)
REMARK    1  A    between atoms: C_6  and  N_1 
REMARK    2  A    between atoms: C_7  and  C_6 
REMARK    3  A    between atoms: O_12  and  C_7 
REMARK    4  A    between atoms: C_14  and  C_7 
REMARK    5  A    between atoms: O_13  and  C_14 
REMARK    6  A    between atoms: C_15  and  O_13 
REMARK    7  A    between atoms: C_16  and  C_15 
REMARK    8  A    between atoms: C_19  and  C_16 
REMARK    9  A    between atoms: C_17  and  C_18 
REMARK   10  A    between atoms: C_18  and  C_20 
REMARK   11  A    between atoms: C_20  and  C_19 
ROOT
ATOM      1  N   UNL d   1       0.094  -1.559   0.032  0.00  0.00    -0.343 N 
ATOM      2  C   UNL d   1       0.009  -0.729   1.135  0.00  0.00     0.046 A 
ATOM      3  C   UNL d   1       0.163  -0.823  -1.136  0.00  0.00     0.046 A 
ATOM      4  C   UNL d   1       0.106   0.524  -0.768  0.00  0.00     0.003 A 
ATOM      5  C   UNL d   1       0.006   0.581   0.657  0.00  0.00     0.003 A 
ATOM      6  C   UNL d   1      -0.068  -1.014   2.510  0.00  0.00     0.030 A 
ATOM      7  C   UNL d   1       0.264  -1.219  -2.481  0.00  0.00     0.030 A 
ATOM      8  C   UNL d   1      -0.090   1.644   1.582  0.00  0.00     0.014 A 
ATOM      9  C   UNL d   1       0.149   1.507  -1.778  0.00  0.00     0.014 A 
ATOM     10  C   UNL d   1      -0.173   1.369   2.950  0.00  0.00     0.001 A 
ATOM     11  C   UNL d   1      -0.159   0.056   3.406  0.00  0.00     0.002 A 
ATOM     12  C   UNL d   1       0.303  -0.225  -3.462  0.00  0.00     0.002 A 
ATOM     13  C   UNL d   1       0.246   1.123  -3.119  0.00  0.00     0.001 A 
ENDROOT
BRANCH   1  14
ATOM     14  C   UNL d   1       0.028  -3.014   0.084  0.00  0.00     0.163 C 
BRANCH  14  15
ATOM     15  C   UNL d   1       1.408  -3.685   0.107  0.00  0.00     0.160 C 
BRANCH  15  16
ATOM     16  O   UNL d   1       2.096  -3.387   1.330  0.00  0.00    -0.392 OA
ATOM     17  H   UNL d   1       1.594  -3.832   2.039  0.00  0.00     0.210 HD
ENDBRANCH  15  16
BRANCH  15  18
ATOM     18  C   UNL d   1       1.262  -5.208   0.020  0.00  0.00     0.200 C 
BRANCH  18  19
ATOM     19  O   UNL d   1       0.452  -5.636   1.124  0.00  0.00    -0.389 OA
BRANCH  19  20
ATOM     20  C   UNL d   1       0.289  -7.051   1.143  0.00  0.00     0.167 C 
BRANCH  20  21
ATOM     21  C   UNL d   1      -0.589  -7.412   2.335  0.00  0.00     0.026 C 
BRANCH  21  22
ATOM     22  C   UNL d   1      -0.801  -8.919   2.409  0.00  0.00     0.002 C 
BRANCH  22  23
ATOM     23  C   UNL d   1      -1.678  -9.321   3.593  0.00  0.00     0.000 C 
BRANCH  23  24
ATOM     24  C   UNL d   1      -1.861 -10.839   3.617  0.00  0.00    -0.000 C 
BRANCH  24  25
ATOM     25  C   UNL d   1      -2.731 -11.291   4.786  0.00  0.00    -0.005 C 
ATOM     26  C   UNL d   1      -2.896 -12.802   4.785  0.00  0.00     0.005 C 
ENDBRANCH  24  25
ENDBRANCH  23  24
ENDBRANCH  22  23
ENDBRANCH  21  22
ENDBRANCH  20  21
ENDBRANCH  19  20
ENDBRANCH  18  19
ENDBRANCH  15  18
ENDBRANCH  14  15
ENDBRANCH   1  14
TORSDOF 11
