REMARK  1 active torsions:
REMARK  status: ('A' for Active; 'I' for Inactive)
REMARK    1  A    between atoms: O_11  and  C_2 
ROOT
ATOM      1  C   UNL d   1      -0.698   1.270  -0.001  0.00  0.00     0.103 A 
ATOM      2  C   UNL d   1      -1.329   0.029  -0.002  0.00  0.00     0.162 A 
ATOM      3  N   UNL d   1      -0.664  -1.142  -0.001  0.00  0.00    -0.338 N 
ATOM      4  HN  UNL d   1      -1.170  -2.028  -0.000  1.00  0.00     0.168 HD
ATOM      5  C   UNL d   1       0.711   1.307   0.000  0.00  0.00    -0.013 A 
ATOM      6  C   UNL d   1       1.414   0.082  -0.001  0.00  0.00     0.063 A 
ATOM      7  C   UNL d   1       0.694  -1.118   0.000  0.00  0.00     0.029 A 
ATOM      8  C   UNL d   1      -1.488   2.463  -0.000  0.00  0.00     0.104 C 
ATOM      9  N   UNL d   1      -2.173   3.398  -0.000  0.00  0.00    -0.191 NA
ATOM     10 CL   UNL d   1       3.147   0.082  -0.003  0.00  0.00    -0.082 Cl
ATOM     11  C   UNL d   1       1.472   2.610   0.003  0.00  0.00     0.052 C 
ATOM     12  C   UNL d   1       1.335  -2.476   0.003  0.00  0.00     0.070 C 
ENDROOT
BRANCH   2  13
ATOM     13  O   UNL d   1      -2.683  -0.136  -0.003  0.00  0.00    -0.345 OA
ATOM     14  H   UNL d   1      -3.146   0.716  -0.007  0.00  0.00     0.219 HD
ENDBRANCH   2  13
TORSDOF 1
