REMARK  6 active torsions:
REMARK  status: ('A' for Active; 'I' for Inactive)
REMARK    1  A    between atoms: N_2  and  C_1 
REMARK    2  A    between atoms: C_6  and  N_2 
REMARK    3  A    between atoms: N_3  and  C_13 
REMARK    4  A    between atoms: C_17  and  N_9 
REMARK    5  A    between atoms: C_13  and  C_14 
REMARK    6  A    between atoms: C_14  and  C_17 
ROOT
ATOM      1  C   UNL d   1       1.173   0.144  -0.790  0.00  0.00     0.172 C 
ATOM      2  S   UNL d   1       0.744   1.763  -0.870  0.00  0.00    -0.041 SA
ATOM      3  N   UNL d   1       2.043  -0.190   0.204  0.00  0.00    -0.367 N 
ATOM      4  H   UNL d   1       2.254   0.604   0.798  0.00  0.00     0.161 HD
ENDROOT
BRANCH   1   5
ATOM      5  N   UNL d   1       0.695  -0.900  -1.544  0.00  0.00    -0.333 N 
ATOM      6  H   UNL d   1       0.457  -1.711  -0.985  0.00  0.00     0.168 HD
BRANCH   5   7
ATOM      7  C   UNL d   1       0.025  -0.778  -2.781  0.00  0.00     0.034 A 
ATOM      8  C   UNL d   1       0.489   0.095  -3.762  0.00  0.00     0.036 A 
ATOM      9  C   UNL d   1      -0.211   0.292  -4.957  0.00  0.00    -0.054 A 
ATOM     10  C   UNL d   1       0.313   1.298  -5.941  0.00  0.00     0.049 C 
ATOM     11  C   UNL d   1      -1.383  -0.450  -5.195  0.00  0.00    -0.056 A 
ATOM     12  C   UNL d   1      -1.812  -1.379  -4.231  0.00  0.00     0.009 A 
ATOM     13  C   UNL d   1      -2.203  -0.231  -6.436  0.00  0.00     0.049 C 
ATOM     14  C   UNL d   1      -1.104  -1.556  -3.037  0.00  0.00     0.030 A 
ENDBRANCH   5   7
ENDBRANCH   1   5
BRANCH   3  15
ATOM     15  C   UNL d   1       3.005  -1.286   0.209  0.00  0.00     0.123 C 
BRANCH  15  16
ATOM     16  C   UNL d   1       4.448  -0.778   0.055  0.00  0.00     0.050 C 
BRANCH  16  17
ATOM     17  C   UNL d   1       4.865   0.151   1.211  0.00  0.00     0.274 C 
BRANCH  17  18
ATOM     18  N   UNL d   1       6.300   0.476   1.256  0.00  0.00     0.092 N 
ATOM     19  C   UNL d   1       6.608   1.322   2.438  0.00  0.00     0.298 C 
ATOM     20  C   UNL d   1       6.173   2.794   2.297  0.00  0.00     0.198 C 
ATOM     21  O   UNL d   1       6.721   3.392   1.117  0.00  0.00    -0.388 OA
ATOM     22  C   UNL d   1       6.346   2.649  -0.049  0.00  0.00     0.198 C 
ATOM     23  C   UNL d   1       6.802   1.184   0.057  0.00  0.00     0.298 C 
ENDBRANCH  17  18
ENDBRANCH  16  17
ENDBRANCH  15  16
ENDBRANCH   3  15
TORSDOF 6
