REMARK  3 active torsions:
REMARK  status: ('A' for Active; 'I' for Inactive)
REMARK    1  A    between atoms: C_7  and  C_4 
REMARK       I    between atoms: N_14  and  C_7 
REMARK    2  A    between atoms: N_8  and  C_10 
REMARK    3  A    between atoms: N_9  and  C_15 
ROOT
ATOM      1  C   UNL d   1      -0.618   0.681   0.214  0.00  0.00     0.005 A 
ATOM      2  C   UNL d   1      -1.118  -0.630  -0.014  0.00  0.00     0.029 A 
ATOM      3  C   UNL d   1       1.242  -0.715  -0.108  0.00  0.00     0.028 A 
ATOM      4  C   UNL d   1      -1.548   1.718   0.290  0.00  0.00     0.046 C 
ATOM      5  C   UNL d   1       0.843   0.591   0.239  0.00  0.00    -0.010 A 
ATOM      6  C   UNL d   1       0.028  -1.528  -0.255  0.00  0.00     0.194 A 
ATOM      7  C   UNL d   1      -3.363   0.070   0.127  0.00  0.00     0.104 C 
ATOM      8  C   UNL d   1      -2.457  -0.968  -0.076  0.00  0.00     0.052 C 
ATOM      9  C   UNL d   1      -2.917   1.388   0.352  0.00  0.00     0.054 C 
ATOM     10  C   UNL d   1       2.558  -1.126  -0.255  0.00  0.00     0.052 A 
ATOM     11  C   UNL d   1       3.538  -0.163   0.003  0.00  0.00     0.103 A 
ATOM     12  C   UNL d   1       1.833   1.497   0.584  0.00  0.00     0.016 A 
ATOM     13  O   UNL d   1      -0.031  -2.713  -0.522  0.00  0.00    -0.287 OA
ATOM     14  C   UNL d   1       3.182   1.123   0.465  0.00  0.00     0.037 A 
ENDROOT
BRANCH   4  15
ATOM     15  C   UNL d   1      -1.182   3.165   0.261  0.00  0.00     0.254 C 
ATOM     16  N   UNL d   1      -1.767   4.031  -0.693  0.00  0.00    -0.348 N 
ATOM     17  C   UNL d   1      -1.494   5.467  -0.536  0.00  0.00     0.126 C 
ATOM     18  C   UNL d   1      -2.928   3.708  -1.535  0.00  0.00     0.126 C 
ATOM     19  C   UNL d   1      -1.519   6.229  -1.862  0.00  0.00     0.020 C 
ATOM     20  C   UNL d   1      -2.804   5.965  -2.636  0.00  0.00     0.003 C 
ATOM     21  C   UNL d   1      -2.965   4.470  -2.854  0.00  0.00     0.020 C 
ATOM     22  O   UNL d   1      -0.370   3.553   1.094  0.00  0.00    -0.267 OA
ENDBRANCH   4  15
BRANCH   7  23
ATOM     23  N   UNL d   1      -4.802  -0.182   0.000  0.00  0.00    -0.116 N 
ATOM     24  O   UNL d   1      -5.177  -1.359  -0.072  0.00  0.00    -0.532 OA
ATOM     25  O   UNL d   1      -5.549   0.805  -0.054  0.00  0.00    -0.532 OA
ENDBRANCH   7  23
BRANCH  11  26
ATOM     26  N   UNL d   1       4.952  -0.478  -0.236  0.00  0.00    -0.116 N 
ATOM     27  O   UNL d   1       5.225  -1.607  -0.665  0.00  0.00    -0.532 OA
ATOM     28  O   UNL d   1       5.785   0.413  -0.017  0.00  0.00    -0.532 OA
ENDBRANCH  11  26
TORSDOF 3
