REMARK  7 active torsions:
REMARK  status: ('A' for Active; 'I' for Inactive)
REMARK    1  A    between atoms: N_3  and  C_1 
REMARK       I    between atoms: C_2  and  N_4 
REMARK    2  A    between atoms: O_8  and  C_2 
REMARK    3  A    between atoms: N_4  and  N_3 
REMARK    4  A    between atoms: C_9  and  N_6 
REMARK    5  A    between atoms: C_11  and  O_8 
REMARK    6  A    between atoms: C_10  and  C_9 
REMARK    7  A    between atoms: C_12  and  C_10 
ROOT
ATOM      1  C   UNL d   1       0.911  -0.379  -0.058  0.00  0.00     0.186 C 
ATOM      2  S   UNL d   1       0.017  -0.092  -1.441  0.00  0.00    -0.040 SA
ATOM      3  N   UNL d   1       2.272  -0.396  -0.166  0.00  0.00    -0.366 N 
ATOM      4  H   UNL d   1       2.595  -0.207  -1.108  0.00  0.00     0.161 HD
ENDROOT
BRANCH   1   5
ATOM      5  N   UNL d   1       0.395  -0.678   1.171  0.00  0.00    -0.272 N 
ATOM      6  H   UNL d   1       0.892  -0.398   2.015  0.00  0.00     0.189 HD
BRANCH   5   7
ATOM      7  N   UNL d   1      -0.976  -0.949   1.342  0.00  0.00    -0.243 N 
ATOM      8  C   UNL d   1      -1.379  -1.275   2.611  0.00  0.00     0.379 C 
ATOM      9  O   UNL d   1      -0.802  -0.931   3.629  0.00  0.00    -0.237 OA
ATOM     10  H   UNL d   1      -1.412  -1.482   0.595  0.00  0.00     0.192 HD
BRANCH   8  11
ATOM     11  O   UNL d   1      -2.423  -2.141   2.542  0.00  0.00    -0.303 OA
BRANCH  11  12
ATOM     12  C   UNL d   1      -2.664  -2.881   3.747  0.00  0.00     0.176 C 
ATOM     13  C   UNL d   1      -1.652  -4.013   3.851  0.00  0.00     0.034 C 
ENDBRANCH  11  12
ENDBRANCH   8  11
ENDBRANCH   5   7
ENDBRANCH   1   5
BRANCH   3  14
ATOM     14  C   UNL d   1       3.228  -1.050   0.721  0.00  0.00     0.126 C 
BRANCH  14  15
ATOM     15  C   UNL d   1       3.148  -2.592   0.691  0.00  0.00    -0.001 C 
ATOM     16  C   UNL d   1       4.229  -3.184   1.600  0.00  0.00     0.011 C 
BRANCH  15  17
ATOM     17  C   UNL d   1       3.209  -3.207  -0.724  0.00  0.00     0.001 C 
ATOM     18  C   UNL d   1       4.520  -3.007  -1.471  0.00  0.00     0.005 C 
ENDBRANCH  15  17
ENDBRANCH  14  15
ENDBRANCH   3  14
TORSDOF 7
