REMARK  4 active torsions:
REMARK  status: ('A' for Active; 'I' for Inactive)
REMARK    1  A    between atoms: C_4  and  N_9 
REMARK       I    between atoms: C_8  and  N_9 
REMARK    2  A    between atoms: C_17  and  C_8 
REMARK    3  A    between atoms: S_11  and  C_17 
REMARK    4  A    between atoms: C_12  and  S_11 
ROOT
ATOM      1  C   UNL d   1       3.199   5.010   2.703  0.00  0.00     0.227 C 
ATOM      2  N   UNL d   1       2.873   3.943   1.887  0.00  0.00    -0.356 N 
ATOM      3  O   UNL d   1       2.696   6.122   2.564  0.00  0.00    -0.273 OA
ATOM      4  H   UNL d   1       3.210   3.024   2.145  0.00  0.00     0.162 HD
ENDROOT
BRANCH   1   5
ATOM      5  C   UNL d   1       4.193   4.685   3.813  0.00  0.00     0.182 C 
BRANCH   5   6
ATOM      6  S   UNL d   1       3.432   5.125   5.422  0.00  0.00    -0.118 SA
BRANCH   6   7
ATOM      7  C   UNL d   1       4.769   5.018   6.598  0.00  0.00     0.039 A 
ATOM      8  C   UNL d   1       5.995   4.355   6.405  0.00  0.00     0.136 A 
ATOM      9  C   UNL d   1       6.956   4.300   7.409  0.00  0.00     0.086 A 
ATOM     10  F   UNL d   1       6.274   3.743   5.247  0.00  0.00    -0.205 F 
ATOM     11  C   UNL d   1       6.701   4.900   8.633  0.00  0.00     0.119 A 
ATOM     12  C   UNL d   1       5.503   5.564   8.866  0.00  0.00     0.044 A 
ATOM     13  F   UNL d   1       7.619   4.837   9.606  0.00  0.00    -0.206 F 
ATOM     14  C   UNL d   1       4.543   5.617   7.850  0.00  0.00     0.025 A 
ENDBRANCH   6   7
ENDBRANCH   5   6
ENDBRANCH   1   5
BRANCH   2  15
ATOM     15  C   UNL d   1       1.589   3.898   1.184  0.00  0.00     0.088 C 
ATOM     16  C   UNL d   1       1.618   2.820   0.064  0.00  0.00     0.061 C 
ATOM     17  C   UNL d   1       0.974   1.367   0.397  0.00  0.00     0.225 C 
ATOM     18  N   UNL d   1       1.621   1.433   1.704  0.00  0.00     0.093 N 
ATOM     19  C   UNL d   1      -0.361   0.758   1.017  0.00  0.00     0.038 C 
ATOM     20  C   UNL d   1       0.687   2.060   2.648  0.00  0.00     0.225 C 
ATOM     21  C   UNL d   1       2.281   0.212   2.130  0.00  0.00     0.310 C 
ATOM     22  C   UNL d   1       0.489   3.528   2.188  0.00  0.00     0.061 C 
ATOM     23  C   UNL d   1      -0.566   1.260   2.434  0.00  0.00     0.038 C 
ENDBRANCH   2  15
TORSDOF 4
