REMARK  7 active torsions:
REMARK  status: ('A' for Active; 'I' for Inactive)
REMARK    1  A    between atoms: N_2  and  S_1 
REMARK    2  A    between atoms: C_5  and  S_1 
REMARK    3  A    between atoms: S_4  and  N_2 
REMARK    4  A    between atoms: C_8  and  S_4 
REMARK    5  A    between atoms: C_9  and  S_4 
REMARK    6  A    between atoms: C_15  and  C_8 
REMARK    7  A    between atoms: C_16  and  C_9 
ROOT
ATOM      1  S   UNL d   1       0.793  -0.670  -2.815  0.00  0.00    -0.108 SA
ENDROOT
BRANCH   1   2
ATOM      2  N   UNL d   1       0.518  -1.142  -1.289  0.00  0.00    -0.263 N 
ATOM      3  HN  UNL d   1       0.097  -2.041  -1.055  1.00  0.00     0.186 HD
BRANCH   2   4
ATOM      4  S   UNL d   1       1.000   0.012  -0.086  0.00  0.00     0.267 S 
ATOM      5  O   UNL d   1       0.194   1.208  -0.219  0.00  0.00    -0.200 OA
ATOM      6  O   UNL d   1       2.451   0.093  -0.038  0.00  0.00    -0.200 OA
BRANCH   4   7
ATOM      7  C   UNL d   1       0.523  -0.797   1.425  0.00  0.00     0.080 A 
ATOM      8  C   UNL d   1       1.163  -1.981   1.803  0.00  0.00     0.026 A 
ATOM      9  C   UNL d   1       0.834  -2.583   3.019  0.00  0.00     0.008 A 
ATOM     10  C   UNL d   1      -0.122  -2.001   3.866  0.00  0.00    -0.062 A 
ATOM     11  C   UNL d   1      -0.731  -0.798   3.488  0.00  0.00     0.008 A 
ATOM     12  C   UNL d   1      -0.480  -2.669   5.162  0.00  0.00     0.048 C 
ATOM     13  C   UNL d   1      -0.412  -0.194   2.271  0.00  0.00     0.026 A 
ENDBRANCH   4   7
ENDBRANCH   2   4
ENDBRANCH   1   2
BRANCH   1  14
ATOM     14  C   UNL d   1       2.513  -1.281  -2.906  0.00  0.00     0.124 C 
BRANCH  14  15
ATOM     15  C   UNL d   1       3.278  -1.090  -4.193  0.00  0.00    -0.048 A 
ATOM     16  C   UNL d   1       3.088  -0.005  -5.058  0.00  0.00     0.008 A 
ATOM     17  C   UNL d   1       3.974   0.220  -6.119  0.00  0.00     0.001 A 
ATOM     18  C   UNL d   1       5.064  -0.624  -6.322  0.00  0.00     0.000 A 
ATOM     19  C   UNL d   1       5.265  -1.708  -5.475  0.00  0.00     0.001 A 
ATOM     20  C   UNL d   1       4.377  -1.939  -4.423  0.00  0.00     0.008 A 
ENDBRANCH  14  15
ENDBRANCH   1  14
BRANCH   1  21
ATOM     21  C   UNL d   1       0.025  -2.080  -3.682  0.00  0.00     0.124 C 
BRANCH  21  22
ATOM     22  C   UNL d   1      -1.456  -2.267  -3.438  0.00  0.00    -0.048 A 
ATOM     23  C   UNL d   1      -2.392  -1.257  -3.709  0.00  0.00     0.008 A 
ATOM     24  C   UNL d   1      -3.762  -1.489  -3.540  0.00  0.00     0.001 A 
ATOM     25  C   UNL d   1      -4.216  -2.733  -3.107  0.00  0.00     0.000 A 
ATOM     26  C   UNL d   1      -3.302  -3.748  -2.841  0.00  0.00     0.001 A 
ATOM     27  C   UNL d   1      -1.934  -3.517  -3.006  0.00  0.00     0.008 A 
ENDBRANCH  21  22
ENDBRANCH   1  21
TORSDOF 7
