REMARK  5 active torsions:
REMARK  status: ('A' for Active; 'I' for Inactive)
REMARK    1  A    between atoms: C_5  and  N_1 
REMARK    2  A    between atoms: C_6  and  C_5 
REMARK    3  A    between atoms: N_8  and  C_6 
REMARK    4  A    between atoms: C_9  and  N_8 
REMARK    5  A    between atoms: C_15  and  C_10 
ROOT
ATOM      1  N   UNL d   1       3.114  -0.774   8.615  0.00  0.00    -0.197 NA
ATOM      2  C   UNL d   1       2.639  -1.184   7.633  0.00  0.00     0.063 C 
ATOM      3  C   UNL d   1       2.043  -1.717   6.401  0.00  0.00     0.162 C 
ENDROOT
BRANCH   3   4
ATOM      4  C   UNL d   1       2.717  -1.309   5.109  0.00  0.00    -0.045 A 
ATOM      5  C   UNL d   1       3.952  -0.661   5.033  0.00  0.00     0.010 A 
ATOM      6  C   UNL d   1       4.469  -0.250   3.793  0.00  0.00     0.029 A 
ATOM      7  C   UNL d   1       3.803  -0.499   2.584  0.00  0.00     0.029 A 
ATOM      8  C   UNL d   1       2.616  -1.226   2.675  0.00  0.00     0.029 A 
ATOM      9  C   UNL d   1       2.071  -1.612   3.907  0.00  0.00     0.010 A 
BRANCH   7  10
ATOM     10  N   UNL d   1       4.317   0.073   1.430  0.00  0.00    -0.369 N 
ATOM     11  H   UNL d   1       5.317   0.221   1.491  0.00  0.00     0.161 HD
BRANCH  10  12
ATOM     12  C   UNL d   1       3.788   0.089   0.044  0.00  0.00     0.102 C 
ATOM     13  C   UNL d   1       4.427   1.264  -0.761  0.00  0.00     0.045 C 
ATOM     14  C   UNL d   1       4.926   2.508  -0.005  0.00  0.00     0.004 C 
ATOM     15  C   UNL d   1       6.157   3.153  -0.684  0.00  0.00     0.000 C 
ATOM     16  C   UNL d   1       7.529   2.744  -0.105  0.00  0.00     0.000 C 
ATOM     17  C   UNL d   1       8.145   1.473  -0.712  0.00  0.00     0.000 C 
ATOM     18  C   UNL d   1       8.056   0.273   0.231  0.00  0.00     0.000 C 
ATOM     19  C   UNL d   1       8.327  -1.053  -0.483  0.00  0.00     0.000 C 
ATOM     20  C   UNL d   1       7.594  -2.230   0.177  0.00  0.00     0.000 C 
ATOM     21  C   UNL d   1       6.361  -2.712  -0.610  0.00  0.00     0.000 C 
ATOM     22  C   UNL d   1       5.004  -2.354   0.024  0.00  0.00     0.004 C 
ATOM     23  C   UNL d   1       4.208  -1.255  -0.714  0.00  0.00     0.045 C 
BRANCH  12  24
ATOM     24  C   UNL d   1       2.268   0.089   0.044  0.00  0.00    -0.046 C 
BRANCH  24  25
ATOM     25  N   UNL d   1       1.007   0.089   0.044  0.00  0.00    -0.367 N 
ATOM     26  HN2 UNL d   1       2.027   0.089   0.044  1.00  0.00     0.165 HD
ATOM     27  HN1 UNL d   1      -0.013   0.089   0.044  1.00  0.00     0.165 HD
ENDBRANCH  24  25
ENDBRANCH  12  24
ENDBRANCH  10  12
ENDBRANCH   7  10
ENDBRANCH   3   4
TORSDOF 5
