REMARK  8 active torsions:
REMARK  status: ('A' for Active; 'I' for Inactive)
REMARK    1  A    between atoms: C_5  and  N_1 
REMARK    2  A    between atoms: S_2  and  C_7 
REMARK    3  A    between atoms: N_16  and  S_2 
REMARK    4  A    between atoms: O_25  and  C_14 
REMARK    5  A    between atoms: C_28  and  N_16 
REMARK    6  A    between atoms: O_29  and  C_19 
REMARK    7  A    between atoms: C_23  and  C_30 
REMARK    8  A    between atoms: C_30  and  C_28 
ROOT
ATOM      1  C   UNL d   1       2.853  -1.616   0.099  0.00  0.00     0.067 A 
ATOM      2  C   UNL d   1       5.051  -3.337   0.290  0.00  0.00     0.076 A 
ATOM      3  C   UNL d   1       3.056  -2.625  -0.862  0.00  0.00     0.062 A 
ATOM      4  C   UNL d   1       4.159  -3.481  -0.772  0.00  0.00     0.051 A 
ATOM      5  C   UNL d   1       3.779  -1.471   1.145  0.00  0.00     0.033 A 
ATOM      6  C   UNL d   1       4.865  -2.340   1.254  0.00  0.00     0.027 A 
ATOM      7 CL   UNL d   1       2.051  -2.772  -2.264  0.00  0.00    -0.082 Cl
ENDROOT
BRANCH   2   8
ATOM      8  S   UNL d   1       6.447  -4.426   0.398  0.00  0.00     0.241 S 
ATOM      9  O   UNL d   1       7.101  -4.428  -0.893  0.00  0.00    -0.206 OA
ATOM     10  O   UNL d   1       7.171  -4.139   1.615  0.00  0.00    -0.206 OA
BRANCH   8  11
ATOM     11  N   UNL d   1       5.731  -5.941   0.578  0.00  0.00    -0.215 NA
ATOM     12  H   UNL d   1       6.346  -6.662   0.198  0.00  0.00     0.139 HD
BRANCH  11  13
ATOM     13  C   UNL d   1       5.095  -6.220   1.878  0.00  0.00     0.109 C 
BRANCH  13  14
ATOM     14  C   UNL d   1       4.468  -7.617   1.884  0.00  0.00     0.054 C 
BRANCH  14  15
ATOM     15  C   UNL d   1       3.818  -7.888   3.220  0.00  0.00    -0.054 A 
ATOM     16  C   UNL d   1       4.577  -8.402   4.284  0.00  0.00     0.046 A 
ATOM     17  C   UNL d   1       4.020  -8.594   5.558  0.00  0.00     0.102 A 
ATOM     18  C   UNL d   1       2.676  -8.241   5.768  0.00  0.00     0.101 A 
ATOM     19  C   UNL d   1       1.913  -7.751   4.699  0.00  0.00     0.040 A 
ATOM     20  C   UNL d   1       2.477  -7.568   3.436  0.00  0.00     0.010 A 
BRANCH  17  21
ATOM     21  O   UNL d   1       4.715  -9.130   6.609  0.00  0.00    -0.353 OA
ATOM     22  C   UNL d   1       6.065  -9.519   6.390  0.00  0.00     0.210 C 
ENDBRANCH  17  21
BRANCH  18  23
ATOM     23  O   UNL d   1       1.956  -8.365   6.929  0.00  0.00    -0.353 OA
ATOM     24  C   UNL d   1       2.667  -8.181   8.147  0.00  0.00     0.210 C 
ENDBRANCH  18  23
ENDBRANCH  14  15
ENDBRANCH  13  14
ENDBRANCH  11  13
ENDBRANCH   8  11
ENDBRANCH   2   8
BRANCH   1  25
ATOM     25  N   UNL d   1       1.745  -0.745   0.034  0.00  0.00    -0.250 N 
ATOM     26  C   UNL d   1       1.848   0.622   0.002  0.00  0.00     0.232 C 
ATOM     27  C   UNL d   1       0.471   1.207  -0.148  0.00  0.00     0.123 C 
ATOM     28  O   UNL d   1       2.868   1.297   0.033  0.00  0.00    -0.273 OA
ATOM     29  C   UNL d   1      -0.469   0.024   0.082  0.00  0.00     0.050 C 
ATOM     30  C   UNL d   1       0.447  -1.182   0.123  0.00  0.00     0.240 C 
ATOM     31  C   UNL d   1      -1.552  -0.132  -0.985  0.00  0.00     0.020 C 
ATOM     32  C   UNL d   1      -1.281   0.162   1.373  0.00  0.00     0.020 C 
ATOM     33  O   UNL d   1       0.066  -2.330   0.309  0.00  0.00    -0.272 OA
ATOM     34  C   UNL d   1      -2.693   0.771  -0.531  0.00  0.00     0.001 C 
ATOM     35  C   UNL d   1      -2.527   0.949   0.976  0.00  0.00     0.001 C 
ENDBRANCH   1  25
TORSDOF 8
