REMARK  5 active torsions:
REMARK  status: ('A' for Active; 'I' for Inactive)
REMARK    1  A    between atoms: N_5  and  S_1 
REMARK    2  A    between atoms: C_6  and  S_1 
REMARK    3  A    between atoms: C_3  and  N_9 
REMARK    4  A    between atoms: C_27  and  C_4 
REMARK    5  A    between atoms: N_16  and  C_17 
REMARK       I    between atoms: C_24  and  N_16 
ROOT
ATOM      1  N   UNL d   1       0.158  -0.317  -0.536  0.00  0.00    -0.304 N 
ATOM      2  N   UNL d   1      -2.274  -1.630  -1.290  0.00  0.00    -0.265 NA
ATOM      3  C   UNL d   1      -1.063   0.456  -0.837  0.00  0.00     0.150 C 
ATOM      4  C   UNL d   1       0.257  -1.561  -1.329  0.00  0.00     0.150 C 
ATOM      5  C   UNL d   1      -2.265  -0.419  -0.438  0.00  0.00     0.117 C 
ATOM      6  C   UNL d   1      -1.012  -2.420  -1.113  0.00  0.00     0.117 C 
ENDROOT
BRANCH   2   7
ATOM      7  C   UNL d   1      -3.433  -2.427  -1.164  0.00  0.00     0.097 A 
ATOM      8  C   UNL d   1      -4.779  -2.020  -1.432  0.00  0.00     0.048 A 
ATOM      9  C   UNL d   1      -5.442  -0.798  -1.884  0.00  0.00    -0.003 A 
ATOM     10  C   UNL d   1      -5.743  -3.009  -1.243  0.00  0.00     0.089 A 
ATOM     11  C   UNL d   1      -6.819  -0.941  -1.959  0.00  0.00     0.065 A 
ATOM     12  S   UNL d   1      -7.341  -2.496  -1.527  0.00  0.00    -0.082 SA
ATOM     13  N   UNL d   1      -5.550  -4.284  -0.873  0.00  0.00    -0.346 N 
ATOM     14  C   UNL d   1      -4.270  -4.570  -0.694  0.00  0.00     0.182 A 
ATOM     15  HN  UNL d   1      -6.305  -4.958  -0.744  1.00  0.00     0.167 HD
ATOM     16  N   UNL d   1      -3.239  -3.732  -0.816  0.00  0.00    -0.342 N 
ATOM     17  HN  UNL d   1      -2.292  -4.071  -0.647  1.00  0.00     0.167 HD
BRANCH   9  18
ATOM     18  C   UNL d   1      -4.873   0.500  -2.240  0.00  0.00    -0.024 A 
ATOM     19  C   UNL d   1      -3.897   0.600  -3.237  0.00  0.00     0.012 A 
ATOM     20  C   UNL d   1      -3.305   1.836  -3.513  0.00  0.00     0.001 A 
ATOM     21  C   UNL d   1      -3.687   2.975  -2.804  0.00  0.00     0.000 A 
ATOM     22  C   UNL d   1      -4.681   2.888  -1.832  0.00  0.00     0.001 A 
ATOM     23  C   UNL d   1      -5.276   1.657  -1.554  0.00  0.00     0.012 A 
ENDBRANCH   9  18
ENDBRANCH   2   7
BRANCH   1  24
ATOM     24  S   UNL d   1       1.474   0.391   0.193  0.00  0.00     0.261 S 
ATOM     25  O   UNL d   1       1.582   1.751  -0.280  0.00  0.00    -0.200 OA
ATOM     26  O   UNL d   1       2.592  -0.526   0.129  0.00  0.00    -0.200 OA
BRANCH  24  27
ATOM     27  C   UNL d   1       0.967   0.473   1.908  0.00  0.00     0.081 A 
ATOM     28  C   UNL d   1       1.514  -0.419   2.832  0.00  0.00     0.051 A 
ATOM     29  C   UNL d   1       1.299  -0.208   4.199  0.00  0.00     0.062 A 
ATOM     30 CL   UNL d   1       2.055  -1.297   5.314  0.00  0.00    -0.082 Cl
ATOM     31  C   UNL d   1       0.529   0.878   4.663  0.00  0.00     0.056 A 
ATOM     32  C   UNL d   1      -0.066   1.719   3.717  0.00  0.00     0.033 A 
ATOM     33  C   UNL d   1       0.163   1.529   2.348  0.00  0.00     0.027 A 
BRANCH  31  34
ATOM     34  N   UNL d   1       0.427   1.088   6.063  0.00  0.00    -0.326 N 
ATOM     35  C   UNL d   1      -0.140   2.155   6.724  0.00  0.00     0.218 C 
ATOM     36  O   UNL d   1      -0.698   3.118   6.208  0.00  0.00    -0.274 OA
ATOM     37  C   UNL d   1      -0.025   2.053   8.226  0.00  0.00     0.117 C 
ATOM     38  H   UNL d   1       0.923   0.397   6.624  0.00  0.00     0.169 HD
ENDBRANCH  31  34
ENDBRANCH  24  27
ENDBRANCH   1  24
TORSDOF 5
