REMARK  9 active torsions:
REMARK  status: ('A' for Active; 'I' for Inactive)
REMARK    1  A    between atoms: C_3  and  N_1 
REMARK    2  A    between atoms: C_2  and  C_5 
REMARK    3  A    between atoms: C_18  and  C_3 
REMARK    4  A    between atoms: C_19  and  C_3 
REMARK    5  A    between atoms: C_4  and  C_20 
REMARK       I    between atoms: N_11  and  C_4 
REMARK    6  A    between atoms: S_12  and  C_8 
REMARK    7  A    between atoms: N_9  and  N_11 
REMARK    8  A    between atoms: C_20  and  S_12 
REMARK    9  A    between atoms: C_22  and  C_21 
ROOT
ATOM      1  S   UNL d   1      -0.390  -1.374  -1.967  0.00  0.00    -0.151 SA
ENDROOT
BRANCH   1   2
ATOM      2  C   UNL d   1      -0.397  -1.007  -0.140  0.00  0.00     0.104 C 
ATOM      3  C   UNL d   1       0.922  -0.286   0.272  0.00  0.00     0.290 C 
ATOM      4  N   UNL d   1       0.269   0.988  -0.168  0.00  0.00     0.104 N 
ATOM      5  C   UNL d   1      -1.030   0.367   0.221  0.00  0.00     0.290 C 
BRANCH   4   6
ATOM      6  C   UNL d   1       0.658   2.128   0.682  0.00  0.00     0.289 C 
BRANCH   6   7
ATOM      7  C   UNL d   1       2.025   2.672   0.249  0.00  0.00    -0.021 A 
ATOM      8  C   UNL d   1       2.246   3.115  -1.069  0.00  0.00     0.010 A 
ATOM      9  C   UNL d   1       3.462   3.690  -1.440  0.00  0.00     0.001 A 
ATOM     10  C   UNL d   1       4.485   3.815  -0.505  0.00  0.00     0.000 A 
ATOM     11  C   UNL d   1       4.296   3.355   0.798  0.00  0.00     0.001 A 
ATOM     12  C   UNL d   1       3.075   2.787   1.174  0.00  0.00     0.010 A 
ENDBRANCH   6   7
BRANCH   6  13
ATOM     13  C   UNL d   1      -0.377   3.263   0.682  0.00  0.00    -0.021 A 
ATOM     14  C   UNL d   1      -0.518   4.064   1.828  0.00  0.00     0.010 A 
ATOM     15  C   UNL d   1      -1.438   5.114   1.853  0.00  0.00     0.001 A 
ATOM     16  C   UNL d   1      -2.226   5.381   0.737  0.00  0.00     0.000 A 
ATOM     17  C   UNL d   1      -2.085   4.610  -0.415  0.00  0.00     0.001 A 
ATOM     18  C   UNL d   1      -1.163   3.564  -0.445  0.00  0.00     0.010 A 
ENDBRANCH   6  13
ENDBRANCH   4   6
ENDBRANCH   1   2
BRANCH   1  19
ATOM     19  C   UNL d   1      -1.852  -2.434  -2.041  0.00  0.00     0.178 C 
BRANCH  19  20
ATOM     20  C   UNL d   1      -3.176  -1.710  -1.918  0.00  0.00     0.245 C 
ATOM     21  N   UNL d   1      -3.192  -0.396  -2.360  0.00  0.00    -0.270 N 
ATOM     22  H   UNL d   1      -2.328   0.067  -2.631  0.00  0.00     0.190 HD
ATOM     23  O   UNL d   1      -4.170  -2.316  -1.510  0.00  0.00    -0.271 OA
BRANCH  21  24
ATOM     24  N   UNL d   1      -4.373   0.265  -2.365  0.00  0.00    -0.308 N 
ATOM     25  C   UNL d   1      -4.377   1.526  -2.638  0.00  0.00     0.118 C 
ATOM     26  HN  UNL d   1      -5.243  -0.225  -2.157  1.00  0.00     0.186 HD
BRANCH  25  27
ATOM     27  C   UNL d   1      -5.675   2.235  -2.726  0.00  0.00    -0.018 A 
ATOM     28  C   UNL d   1      -6.863   1.523  -2.510  0.00  0.00     0.029 A 
ATOM     29  C   UNL d   1      -8.109   2.143  -2.660  0.00  0.00     0.048 A 
ATOM     30  C   UNL d   1      -8.144   3.503  -3.019  0.00  0.00     0.016 A 
ATOM     31  C   UNL d   1      -6.958   4.217  -3.217  0.00  0.00     0.002 A 
ATOM     32  C   UNL d   1      -5.719   3.586  -3.072  0.00  0.00     0.013 A 
BRANCH  29  33
ATOM     33  C   UNL d   1      -9.390   1.370  -2.466  0.00  0.00     0.417 C 
ATOM     34  F   UNL d   1      -9.202   0.080  -2.075  0.00  0.00    -0.166 F 
ATOM     35  F   UNL d   1     -10.199   1.931  -1.526  0.00  0.00    -0.166 F 
ATOM     36  F   UNL d   1     -10.133   1.308  -3.607  0.00  0.00    -0.166 F 
ENDBRANCH  29  33
ENDBRANCH  25  27
ENDBRANCH  21  24
ENDBRANCH  19  20
ENDBRANCH   1  19
TORSDOF 9
