REMARK  6 active torsions:
REMARK  status: ('A' for Active; 'I' for Inactive)
REMARK    1  A    between atoms: N_3  and  C_1 
REMARK    2  A    between atoms: N_6  and  C_1 
REMARK    3  A    between atoms: C_2  and  C_5 
REMARK    4  A    between atoms: C_4  and  N_3 
REMARK    5  A    between atoms: O_15  and  C_4 
REMARK    6  A    between atoms: C_11  and  N_6 
ROOT
ATOM      1  N   UNL d   1       0.195  -0.487   0.935  0.00  0.00    -0.333 N 
ATOM      2  H   UNL d   1       0.650  -0.478   1.841  0.00  0.00     0.168 HD
ENDROOT
BRANCH   1   3
ATOM      3  C   UNL d   1       1.002  -0.047  -0.116  0.00  0.00     0.179 C 
ATOM      4  S   UNL d   1       0.573   1.129  -1.232  0.00  0.00    -0.040 SA
BRANCH   3   5
ATOM      5  N   UNL d   1       2.245  -0.689  -0.069  0.00  0.00    -0.299 N 
ATOM      6  H   UNL d   1       2.281  -1.514   0.512  0.00  0.00     0.171 HD
BRANCH   5   7
ATOM      7  C   UNL d   1       3.379  -0.562  -0.834  0.00  0.00     0.218 C 
ATOM      8  N   UNL d   1       3.619   0.375  -1.673  0.00  0.00    -0.365 N 
ATOM      9  H   UNL d   1       2.813   1.013  -1.690  0.00  0.00     0.159 HD
ATOM     10  HN  UNL d   1       4.467   0.471  -2.232  1.00  0.00     0.159 HD
BRANCH   7  11
ATOM     11  O   UNL d   1       4.243  -1.571  -0.589  0.00  0.00    -0.327 OA
ATOM     12  C   UNL d   1       5.384  -1.622  -1.455  0.00  0.00     0.213 C 
ENDBRANCH   7  11
ENDBRANCH   5   7
ENDBRANCH   3   5
ENDBRANCH   1   3
BRANCH   1  13
ATOM     13  C   UNL d   1      -1.216  -0.518   0.958  0.00  0.00     0.035 A 
ATOM     14  C   UNL d   1      -1.965  -0.841  -0.179  0.00  0.00     0.045 A 
ATOM     15  C   UNL d   1      -3.366  -0.896  -0.128  0.00  0.00     0.050 A 
ATOM     16  C   UNL d   1      -4.011  -0.619   1.086  0.00  0.00     0.016 A 
ATOM     17  C   UNL d   1      -3.268  -0.327   2.230  0.00  0.00     0.003 A 
ATOM     18  C   UNL d   1      -1.873  -0.298   2.171  0.00  0.00     0.029 A 
BRANCH  15  19
ATOM     19  C   UNL d   1      -4.173  -1.254  -1.351  0.00  0.00     0.417 C 
ATOM     20  F   UNL d   1      -3.414  -1.578  -2.434  0.00  0.00    -0.166 F 
ATOM     21  F   UNL d   1      -4.987  -2.326  -1.137  0.00  0.00    -0.166 F 
ATOM     22  F   UNL d   1      -4.989  -0.241  -1.754  0.00  0.00    -0.166 F 
ENDBRANCH  15  19
ENDBRANCH   1  13
TORSDOF 6
