REMARK  4 active torsions:
REMARK  status: ('A' for Active; 'I' for Inactive)
REMARK    1  A    between atoms: C_8  and  C_1 
REMARK    2  A    between atoms: C_12  and  C_2 
REMARK    3  A    between atoms: N_5  and  C_9 
REMARK    4  A    between atoms: C_16  and  C_8 
ROOT
ATOM      1  C   UNL d   1       2.179   0.652  -0.373  0.00  0.00     0.015 C 
ATOM      2  C   UNL d   1       2.336  -0.684  -0.237  0.00  0.00     0.026 C 
ATOM      3  S   UNL d   1       1.097  -1.814   0.191  0.00  0.00    -0.088 SA
ATOM      4  C   UNL d   1       0.866   1.315  -0.077  0.00  0.00     0.191 C 
ATOM      5  C   UNL d   1      -0.384   0.535  -0.071  0.00  0.00     0.032 A 
ATOM      6  C   UNL d   1      -0.377  -0.855  -0.007  0.00  0.00     0.019 A 
ATOM      7  O   UNL d   1       0.809   2.524   0.140  0.00  0.00    -0.287 OA
ATOM      8  C   UNL d   1      -1.604   1.232  -0.129  0.00  0.00     0.017 A 
ATOM      9  C   UNL d   1      -1.602  -1.540  -0.038  0.00  0.00     0.020 A 
ATOM     10  C   UNL d   1      -2.815   0.543  -0.152  0.00  0.00     0.001 A 
ATOM     11  C   UNL d   1      -2.813  -0.847  -0.116  0.00  0.00     0.001 A 
ENDROOT
BRANCH   1  12
ATOM     12  C   UNL d   1       3.281   1.635  -0.753  0.00  0.00     0.082 C 
BRANCH  12  13
ATOM     13  C   UNL d   1       3.823   1.585  -2.176  0.00  0.00    -0.054 A 
ATOM     14  C   UNL d   1       3.295   0.755  -3.175  0.00  0.00     0.010 A 
ATOM     15  C   UNL d   1       3.911   0.646  -4.426  0.00  0.00     0.036 A 
ATOM     16  C   UNL d   1       5.010   1.455  -4.724  0.00  0.00     0.102 A 
ATOM     17  C   UNL d   1       5.500   2.358  -3.777  0.00  0.00     0.036 A 
ATOM     18  C   UNL d   1       4.915   2.408  -2.506  0.00  0.00     0.010 A 
BRANCH  16  19
ATOM     19  N   UNL d   1       5.636   1.359  -6.045  0.00  0.00    -0.116 N 
ATOM     20  O   UNL d   1       5.239   0.466  -6.812  0.00  0.00    -0.532 OA
ATOM     21  O   UNL d   1       6.529   2.177  -6.325  0.00  0.00    -0.532 OA
ENDBRANCH  16  19
ENDBRANCH  12  13
ENDBRANCH   1  12
BRANCH   2  22
ATOM     22  C   UNL d   1       3.649  -1.348  -0.419  0.00  0.00    -0.018 A 
ATOM     23  C   UNL d   1       4.566  -1.403   0.639  0.00  0.00     0.013 A 
ATOM     24  C   UNL d   1       5.827  -1.975   0.451  0.00  0.00     0.001 A 
ATOM     25  C   UNL d   1       6.194  -2.475  -0.798  0.00  0.00     0.000 A 
ATOM     26  C   UNL d   1       5.282  -2.453  -1.848  0.00  0.00     0.001 A 
ATOM     27  C   UNL d   1       4.005  -1.926  -1.648  0.00  0.00     0.013 A 
ENDBRANCH   2  22
TORSDOF 4
