REMARK  7 active torsions:
REMARK  status: ('A' for Active; 'I' for Inactive)
REMARK    1  A    between atoms: N_8  and  S_1 
REMARK    2  A    between atoms: C_19  and  S_1 
REMARK    3  A    between atoms: C_12  and  C_2 
REMARK    4  A    between atoms: C_9  and  C_3 
REMARK    5  A    between atoms: C_4  and  N_11 
REMARK    6  A    between atoms: O_26  and  C_12 
REMARK    7  A    between atoms: C_29  and  O_26 
ROOT
ATOM      1  C   UNL d   1       5.447  -3.325  -5.712  0.00  0.00     0.072 A 
ATOM      2  C   UNL d   1       5.590  -2.060  -5.145  0.00  0.00     0.134 A 
ATOM      3  C   UNL d   1       3.478  -2.247  -4.061  0.00  0.00     0.125 A 
ATOM      4  N   UNL d   1       4.605  -1.541  -4.320  0.00  0.00    -0.337 N 
ATOM      5  HN  UNL d   1       4.729  -0.618  -3.903  1.00  0.00     0.167 HD
ATOM      6  C   UNL d   1       3.272  -3.489  -4.672  0.00  0.00     0.089 A 
ATOM      7  C   UNL d   1       4.269  -4.034  -5.474  0.00  0.00     0.046 A 
ATOM      8  C   UNL d   1       2.038  -4.200  -4.550  0.00  0.00     0.103 C 
ATOM      9  N   UNL d   1       1.048  -4.800  -4.444  0.00  0.00    -0.191 NA
ENDROOT
BRANCH   3  10
ATOM     10  N   UNL d   1       2.500  -1.706  -3.235  0.00  0.00    -0.363 N 
ATOM     11  C   UNL d   1       2.426  -0.242  -3.071  0.00  0.00     0.145 C 
ATOM     12  C   UNL d   1       0.993   0.109  -2.601  0.00  0.00     0.155 C 
ATOM     13  N   UNL d   1       0.602  -0.637  -1.361  0.00  0.00    -0.304 N 
ATOM     14  C   UNL d   1       0.820  -2.113  -1.490  0.00  0.00     0.155 C 
ATOM     15  C   UNL d   1       2.263  -2.414  -1.954  0.00  0.00     0.145 C 
BRANCH  13  16
ATOM     16  S   UNL d   1       0.988   0.057   0.135  0.00  0.00     0.260 S 
ATOM     17  O   UNL d   1       1.212   1.475  -0.053  0.00  0.00    -0.200 OA
ATOM     18  O   UNL d   1       1.973  -0.778   0.785  0.00  0.00    -0.200 OA
BRANCH  16  19
ATOM     19  C   UNL d   1      -0.558  -0.128   1.003  0.00  0.00     0.079 A 
ATOM     20  C   UNL d   1      -0.791  -1.252   1.801  0.00  0.00     0.025 A 
ATOM     21  C   UNL d   1      -2.009  -1.376   2.474  0.00  0.00     0.002 A 
ATOM     22  C   UNL d   1      -2.978  -0.376   2.362  0.00  0.00     0.000 A 
ATOM     23  C   UNL d   1      -2.729   0.757   1.587  0.00  0.00     0.002 A 
ATOM     24  C   UNL d   1      -1.517   0.886   0.907  0.00  0.00     0.025 A 
ENDBRANCH  16  19
ENDBRANCH  13  16
ENDBRANCH   3  10
BRANCH   1  25
ATOM     25  C   UNL d   1       6.459  -3.963  -6.577  0.00  0.00     0.295 C 
ATOM     26  O   UNL d   1       7.653  -3.971  -6.359  0.00  0.00    -0.259 OA
BRANCH  25  27
ATOM     27  O   UNL d   1       5.797  -4.509  -7.624  0.00  0.00    -0.318 OA
BRANCH  27  28
ATOM     28  C   UNL d   1       6.579  -4.975  -8.732  0.00  0.00     0.174 C 
ATOM     29  C   UNL d   1       6.451  -3.932  -9.824  0.00  0.00     0.034 C 
ENDBRANCH  27  28
ENDBRANCH  25  27
ENDBRANCH   1  25
BRANCH   2  30
ATOM     30  C   UNL d   1       6.780  -1.149  -5.430  0.00  0.00     0.433 C 
ATOM     31  F   UNL d   1       7.588  -1.525  -6.457  0.00  0.00    -0.165 F 
ATOM     32  F   UNL d   1       6.377   0.113  -5.775  0.00  0.00    -0.165 F 
ATOM     33  F   UNL d   1       7.592  -0.989  -4.347  0.00  0.00    -0.165 F 
ENDBRANCH   2  30
TORSDOF 7
