REMARK  6 active torsions:
REMARK  status: ('A' for Active; 'I' for Inactive)
REMARK    1  A    between atoms: C_8  and  C_1 
REMARK    2  A    between atoms: S_12  and  C_2 
REMARK    3  A    between atoms: O_9  and  C_3 
REMARK    4  A    between atoms: O_16  and  C_8 
REMARK    5  A    between atoms: C_11  and  O_9 
REMARK    6  A    between atoms: C_26  and  O_16 
ROOT
ATOM      1  C   UNL d   1       2.897   0.954   0.015  0.00  0.00     0.107 C 
ATOM      2  C   UNL d   1       1.891   1.914  -0.049  0.00  0.00     0.089 C 
ATOM      3  C   UNL d   1       2.509  -0.404   0.094  0.00  0.00     0.107 C 
ATOM      4  N   UNL d   1       0.581   1.563  -0.077  0.00  0.00    -0.348 N 
ATOM      5  HN  UNL d   1      -0.127   2.290  -0.177  1.00  0.00     0.166 HD
ATOM      6  C   UNL d   1       1.127  -0.762   0.184  0.00  0.00     0.027 C 
ATOM      7  C   UNL d   1       0.192   0.277   0.023  0.00  0.00     0.068 C 
ATOM      8  C   UNL d   1      -1.173  -0.054  -0.032  0.00  0.00     0.061 C 
ATOM      9 CL   UNL d   1      -2.375   1.183  -0.226  0.00  0.00    -0.082 Cl
ATOM     10  C   UNL d   1       0.625  -2.072   0.413  0.00  0.00     0.017 C 
ATOM     11  C   UNL d   1      -0.727  -2.385   0.300  0.00  0.00     0.003 C 
ATOM     12  C   UNL d   1      -1.631  -1.370   0.062  0.00  0.00     0.026 C 
ENDROOT
BRANCH   3  13
ATOM     13  O   UNL d   1       3.542  -1.327   0.188  0.00  0.00    -0.309 OA
BRANCH  13  14
ATOM     14  C   UNL d   1       3.529  -2.537  -0.472  0.00  0.00     0.077 C 
ATOM     15  C   UNL d   1       2.744  -2.870  -1.578  0.00  0.00     0.061 C 
ATOM     16  C   UNL d   1       2.622  -4.214  -1.943  0.00  0.00     0.036 C 
ATOM     17 CL   UNL d   1       1.462  -4.671  -3.132  0.00  0.00    -0.084 Cl
ATOM     18  C   UNL d   1       3.366  -5.203  -1.298  0.00  0.00     0.024 C 
ATOM     19  C   UNL d   1       4.264  -4.844  -0.296  0.00  0.00     0.004 C 
ATOM     20  C   UNL d   1       4.343  -3.513   0.114  0.00  0.00     0.037 C 
ENDBRANCH  13  14
ENDBRANCH   3  13
BRANCH   1  21
ATOM     21  C   UNL d   1       4.334   1.356  -0.018  0.00  0.00     0.299 C 
ATOM     22  O   UNL d   1       4.812   2.340   0.499  0.00  0.00    -0.259 OA
BRANCH  21  23
ATOM     23  O   UNL d   1       4.997   0.484  -0.820  0.00  0.00    -0.318 OA
BRANCH  23  24
ATOM     24  C   UNL d   1       6.263   0.905  -1.345  0.00  0.00     0.174 C 
ATOM     25  C   UNL d   1       5.976   1.438  -2.733  0.00  0.00     0.034 C 
ENDBRANCH  23  24
ENDBRANCH  21  23
ENDBRANCH   1  21
BRANCH   2  26
ATOM     26  S   UNL d   1       2.171   3.681  -0.169  0.00  0.00    -0.116 SA
ATOM     27  C   UNL d   1       0.475   4.340  -0.129  0.00  0.00     0.097 C 
ENDBRANCH   2  26
TORSDOF 6
