REMARK  10 active torsions:
REMARK  status: ('A' for Active; 'I' for Inactive)
REMARK    1  A    between atoms: C_2  and  C_1 
REMARK    2  A    between atoms: C_15  and  C_5 
REMARK    3  A    between atoms: C_6  and  O_11 
REMARK    4  A    between atoms: C_16  and  C_6 
REMARK    5  A    between atoms: O_11  and  N_8 
REMARK    6  A    between atoms: C_12  and  C_21 
REMARK    7  A    between atoms: N_22  and  C_12 
REMARK    8  A    between atoms: O_20  and  C_15 
REMARK    9  A    between atoms: C_24  and  O_20 
REMARK   10  A    between atoms: C_21  and  C_25 
ROOT
ATOM      1  C   UNL d   1      -0.322  -0.873  15.870  0.00  0.00     0.069 A 
ATOM      2  C   UNL d   1      -1.831   0.856  14.222  0.00  0.00    -0.051 A 
ATOM      3  C   UNL d   1      -0.291  -1.017  14.484  0.00  0.00     0.037 A 
ATOM      4  C   UNL d   1      -1.174   0.076  16.434  0.00  0.00     0.037 A 
ATOM      5  C   UNL d   1      -1.914   0.942  15.619  0.00  0.00     0.010 A 
ATOM      6  C   UNL d   1      -1.046  -0.164  13.669  0.00  0.00     0.010 A 
ENDROOT
BRANCH   2   7
ATOM      7  C   UNL d   1      -2.597   1.829  13.349  0.00  0.00     0.116 C 
BRANCH   7   8
ATOM      8  C   UNL d   1      -1.711   2.730  12.478  0.00  0.00     0.100 C 
ATOM      9  N   UNL d   1      -1.672   3.989  12.792  0.00  0.00    -0.245 N 
ATOM     10  HN  UNL d   1      -2.188   4.392  13.574  1.00  0.00     0.196 HD
BRANCH   9  11
ATOM     11  O   UNL d   1      -0.836   4.740  11.935  0.00  0.00    -0.193 OA
BRANCH  11  12
ATOM     12  C   UNL d   1      -1.035   6.075  12.170  0.00  0.00     0.315 C 
ATOM     13  O   UNL d   1      -1.897   6.589  12.877  0.00  0.00    -0.257 OA
BRANCH  12  14
ATOM     14  C   UNL d   1      -0.081   6.896  11.384  0.00  0.00     0.041 A 
ATOM     15  C   UNL d   1       1.198   6.440  11.042  0.00  0.00     0.017 A 
ATOM     16  C   UNL d   1       2.070   7.275  10.337  0.00  0.00     0.001 A 
ATOM     17  C   UNL d   1       1.672   8.562   9.970  0.00  0.00     0.000 A 
ATOM     18  C   UNL d   1       0.403   9.024  10.317  0.00  0.00     0.001 A 
ATOM     19  C   UNL d   1      -0.468   8.197  11.026  0.00  0.00     0.017 A 
ENDBRANCH  12  14
ENDBRANCH  11  12
ENDBRANCH   9  11
BRANCH   8  20
ATOM     20  N   UNL d   1      -1.058   2.171  11.403  0.00  0.00    -0.387 N 
ATOM     21  H   UNL d   1      -0.742   2.846  10.717  0.00  0.00     0.157 HD
ATOM     22  H   UNL d   1      -1.468   1.337  11.002  0.00  0.00     0.157 HD
ENDBRANCH   8  20
ENDBRANCH   7   8
ENDBRANCH   2   7
BRANCH   1  23
ATOM     23  O   UNL d   1       0.403  -1.629  16.753  0.00  0.00    -0.345 OA
BRANCH  23  24
ATOM     24  C   UNL d   1       1.705  -2.013  16.291  0.00  0.00     0.234 C 
BRANCH  24  25
ATOM     25  C   UNL d   1       2.482  -2.709  17.392  0.00  0.00     0.055 A 
ATOM     26  N   UNL d   1       3.656  -2.121  17.771  0.00  0.00    -0.365 N 
ATOM     27  C   UNL d   1       4.391  -2.726  18.735  0.00  0.00     0.104 A 
ATOM     28  HN  UNL d   1       3.970  -1.252  17.339  1.00  0.00     0.165 HD
ATOM     29  C   UNL d   1       4.024  -3.906  19.361  0.00  0.00     0.064 A 
ATOM     30  C   UNL d   1       2.829  -4.507  18.950  0.00  0.00     0.043 A 
ATOM     31  C   UNL d   1       2.052  -3.913  17.953  0.00  0.00     0.059 A 
ATOM     32 CL   UNL d   1       0.623  -4.731  17.444  0.00  0.00    -0.082 Cl
BRANCH  29  33
ATOM     33  C   UNL d   1       4.898  -4.490  20.426  0.00  0.00     0.418 C 
ATOM     34  F   UNL d   1       4.409  -5.646  20.954  0.00  0.00    -0.166 F 
ATOM     35  F   UNL d   1       5.074  -3.644  21.478  0.00  0.00    -0.166 F 
ATOM     36  F   UNL d   1       6.146  -4.787  19.972  0.00  0.00    -0.166 F 
ENDBRANCH  29  33
ENDBRANCH  24  25
ENDBRANCH  23  24
ENDBRANCH   1  23
TORSDOF 10
