REMARK  6 active torsions:
REMARK  status: ('A' for Active; 'I' for Inactive)
REMARK    1  A    between atoms: C_2  and  C_1 
REMARK       I    between atoms: N_4  and  C_1 
REMARK    2  A    between atoms: C_10  and  C_3 
REMARK    3  A    between atoms: C_11  and  N_4 
REMARK    4  A    between atoms: C_5  and  C_6 
REMARK    5  A    between atoms: O_19  and  C_12 
REMARK    6  A    between atoms: C_23  and  O_19 
ROOT
ATOM      1  C   UNL d   1       0.994  -0.183  -0.095  0.00  0.00     0.245 C 
ATOM      2  N   UNL d   1       0.202   0.464  -1.024  0.00  0.00    -0.324 N 
ATOM      3  O   UNL d   1       2.193  -0.028   0.094  0.00  0.00    -0.268 OA
ATOM      4  H   UNL d   1      -0.781   0.229  -1.049  0.00  0.00     0.169 HD
ENDROOT
BRANCH   1   5
ATOM      5  C   UNL d   1       0.216  -1.152   0.726  0.00  0.00     0.075 C 
ATOM      6  C   UNL d   1       0.847  -1.899   1.647  0.00  0.00     0.017 C 
BRANCH   6   7
ATOM      7  C   UNL d   1       0.174  -2.865   2.523  0.00  0.00    -0.036 A 
ATOM      8  C   UNL d   1       0.862  -4.003   2.950  0.00  0.00     0.012 A 
ATOM      9  C   UNL d   1       0.256  -4.922   3.818  0.00  0.00     0.009 A 
ATOM     10  C   UNL d   1      -1.052  -4.729   4.298  0.00  0.00    -0.051 A 
ATOM     11  C   UNL d   1      -1.725  -3.574   3.870  0.00  0.00     0.009 A 
ATOM     12  C   UNL d   1      -1.120  -2.655   3.005  0.00  0.00     0.012 A 
BRANCH  10  13
ATOM     13  C   UNL d   1      -1.693  -5.746   5.258  0.00  0.00    -0.024 C 
ATOM     14  C   UNL d   1      -3.122  -5.359   5.704  0.00  0.00     0.019 C 
ATOM     15  C   UNL d   1      -1.784  -7.125   4.572  0.00  0.00     0.019 C 
ATOM     16  C   UNL d   1      -0.837  -5.872   6.537  0.00  0.00     0.019 C 
ENDBRANCH  10  13
ENDBRANCH   6   7
ENDBRANCH   1   5
BRANCH   2  17
ATOM     17  C   UNL d   1       0.617   1.443  -1.953  0.00  0.00     0.035 A 
ATOM     18  C   UNL d   1       1.933   1.889  -2.066  0.00  0.00     0.032 A 
ATOM     19  C   UNL d   1       2.281   2.876  -2.995  0.00  0.00     0.039 A 
ATOM     20  C   UNL d   1       1.314   3.437  -3.825  0.00  0.00     0.068 A 
ATOM     21  C   UNL d   1      -0.002   2.983  -3.730  0.00  0.00     0.039 A 
ATOM     22  C   UNL d   1      -0.350   1.994  -2.801  0.00  0.00     0.032 A 
BRANCH  20  23
ATOM     23  O   UNL d   1       1.535   4.419  -4.752  0.00  0.00    -0.352 OA
BRANCH  23  24
ATOM     24  C   UNL d   1       2.860   4.950  -4.804  0.00  0.00     0.171 C 
ATOM     25  C   UNL d   1       2.893   6.077  -5.821  0.00  0.00     0.034 C 
ENDBRANCH  23  24
ENDBRANCH  20  23
ENDBRANCH   2  17
TORSDOF 6
