REMARK  4 active torsions:
REMARK  status: ('A' for Active; 'I' for Inactive)
REMARK    1  A    between atoms: C_7  and  N_1 
REMARK    2  A    between atoms: C_17  and  C_2 
REMARK    3  A    between atoms: C_9  and  C_11 
REMARK    4  A    between atoms: C_10  and  C_12 
ROOT
ATOM      1  N   UNL d   1       2.398  -0.709  -0.164  0.00  0.00    -0.263 N 
ATOM      2  C   UNL d   1       2.372   0.696  -0.133  0.00  0.00     0.126 A 
ATOM      3  C   UNL d   1       1.222  -1.466  -0.121  0.00  0.00     0.266 A 
ATOM      4  N   UNL d   1       1.263   1.368  -0.083  0.00  0.00    -0.340 N 
ATOM      5  HN  UNL d   1       1.281   2.387  -0.050  1.00  0.00     0.167 HD
ATOM      6  C   UNL d   1      -0.036  -0.707  -0.083  0.00  0.00     0.059 A 
ATOM      7  C   UNL d   1       0.042   0.682  -0.076  0.00  0.00     0.049 A 
ATOM      8  O   UNL d   1       1.177  -2.695  -0.097  0.00  0.00    -0.267 OA
ATOM      9  C   UNL d   1      -1.273  -1.366  -0.053  0.00  0.00     0.019 A 
ATOM     10  C   UNL d   1      -1.146   1.417  -0.057  0.00  0.00     0.030 A 
ATOM     11  C   UNL d   1      -2.450  -0.622  -0.031  0.00  0.00     0.001 A 
ATOM     12  C   UNL d   1      -2.387   0.771  -0.037  0.00  0.00     0.002 A 
ENDROOT
BRANCH   1  13
ATOM     13  C   UNL d   1       3.604  -1.454  -0.148  0.00  0.00     0.046 A 
ATOM     14  C   UNL d   1       4.080  -1.999  -1.348  0.00  0.00     0.046 A 
ATOM     15  C   UNL d   1       5.300  -2.683  -1.381  0.00  0.00     0.050 A 
ATOM     16  C   UNL d   1       5.981  -2.907  -0.174  0.00  0.00     0.032 A 
ATOM     17  C   UNL d   1       5.474  -2.429   1.049  0.00  0.00     0.050 A 
ATOM     18  C   UNL d   1       4.292  -1.675   1.048  0.00  0.00     0.046 A 
BRANCH  15  19
ATOM     19  C   UNL d   1       5.889  -3.149  -2.690  0.00  0.00     0.417 C 
ATOM     20  F   UNL d   1       5.167  -2.762  -3.778  0.00  0.00    -0.166 F 
ATOM     21  F   UNL d   1       7.143  -2.652  -2.889  0.00  0.00    -0.166 F 
ATOM     22  F   UNL d   1       6.003  -4.500  -2.769  0.00  0.00    -0.166 F 
ENDBRANCH  15  19
BRANCH  17  23
ATOM     23  C   UNL d   1       6.200  -2.741   2.336  0.00  0.00     0.417 C 
ATOM     24  F   UNL d   1       5.586  -2.247   3.446  0.00  0.00    -0.166 F 
ATOM     25  F   UNL d   1       6.329  -4.081   2.544  0.00  0.00    -0.166 F 
ATOM     26  F   UNL d   1       7.465  -2.238   2.351  0.00  0.00    -0.166 F 
ENDBRANCH  17  23
ENDBRANCH   1  13
BRANCH   2  27
ATOM     27  C   UNL d   1       3.646   1.488  -0.134  0.00  0.00     0.009 A 
ATOM     28  C   UNL d   1       4.689   1.251  -1.037  0.00  0.00     0.015 A 
ATOM     29  C   UNL d   1       5.877   1.981  -0.957  0.00  0.00     0.001 A 
ATOM     30  C   UNL d   1       6.004   3.003  -0.019  0.00  0.00     0.000 A 
ATOM     31  C   UNL d   1       4.939   3.305   0.828  0.00  0.00     0.001 A 
ATOM     32  C   UNL d   1       3.764   2.550   0.773  0.00  0.00     0.015 A 
ENDBRANCH   2  27
TORSDOF 4
