REMARK  5 active torsions:
REMARK  status: ('A' for Active; 'I' for Inactive)
REMARK    1  A    between atoms: C_2  and  C_1 
REMARK       I    between atoms: N_7  and  C_2 
REMARK    2  A    between atoms: C_10  and  C_5 
REMARK    3  A    between atoms: C_9  and  N_8 
REMARK    4  A    between atoms: C_16  and  C_9 
REMARK    5  A    between atoms: C_17  and  C_9 
ROOT
ATOM      1  C   UNL d   1      -2.755  -1.290  -0.021  0.00  0.00     0.256 C 
ATOM      2  N   UNL d   1      -3.950  -0.579   0.051  0.00  0.00    -0.345 N 
ATOM      3  N   UNL d   1      -6.051   1.385   0.729  0.00  0.00     0.105 N 
ATOM      4  O   UNL d   1      -2.526  -2.215   0.756  0.00  0.00    -0.267 OA
ATOM      5  C   UNL d   1      -4.514   0.284  -0.981  0.00  0.00     0.156 C 
ATOM      6  C   UNL d   1      -4.888  -0.870   1.138  0.00  0.00     0.156 C 
ATOM      7  C   UNL d   1      -5.485   0.430   1.725  0.00  0.00     0.293 C 
ATOM      8  C   UNL d   1      -5.033   1.581  -0.338  0.00  0.00     0.293 C 
ENDROOT
BRANCH   3   9
ATOM      9  C   UNL d   1      -7.379   0.944   0.204  0.00  0.00     0.289 C 
BRANCH   9  10
ATOM     10  C   UNL d   1      -8.424   0.784   1.315  0.00  0.00    -0.021 A 
ATOM     11  C   UNL d   1      -8.783   1.865   2.140  0.00  0.00     0.010 A 
ATOM     12  C   UNL d   1      -9.746   1.714   3.138  0.00  0.00     0.001 A 
ATOM     13  C   UNL d   1     -10.358   0.478   3.334  0.00  0.00     0.000 A 
ATOM     14  C   UNL d   1     -10.005  -0.607   2.535  0.00  0.00     0.001 A 
ATOM     15  C   UNL d   1      -9.048  -0.457   1.531  0.00  0.00     0.010 A 
ENDBRANCH   9  10
BRANCH   9  16
ATOM     16  C   UNL d   1      -7.938   1.843  -0.913  0.00  0.00    -0.021 A 
ATOM     17  C   UNL d   1      -8.667   1.268  -1.968  0.00  0.00     0.010 A 
ATOM     18  C   UNL d   1      -9.132   2.054  -3.025  0.00  0.00     0.001 A 
ATOM     19  C   UNL d   1      -8.880   3.425  -3.041  0.00  0.00     0.000 A 
ATOM     20  C   UNL d   1      -8.195   4.018  -1.985  0.00  0.00     0.001 A 
ATOM     21  C   UNL d   1      -7.747   3.237  -0.918  0.00  0.00     0.010 A 
ENDBRANCH   9  16
ENDBRANCH   3   9
BRANCH   1  22
ATOM     22  C   UNL d   1      -1.765  -0.966  -1.046  0.00  0.00     0.063 A 
ATOM     23  C   UNL d   1      -0.947  -1.928  -1.722  0.00  0.00     0.053 A 
ATOM     24  C   UNL d   1      -0.075  -1.240  -2.537  0.00  0.00     0.062 A 
ATOM     25  O   UNL d   1      -0.313   0.096  -2.410  0.00  0.00    -0.318 OA
ATOM     26  C   UNL d   1      -1.283   0.265  -1.470  0.00  0.00     0.065 A 
ATOM     27  C   UNL d   1      -1.524   1.680  -1.112  0.00  0.00     0.077 C 
BRANCH  24  28
ATOM     28  C   UNL d   1       1.063  -1.621  -3.445  0.00  0.00    -0.002 C 
ATOM     29  C   UNL d   1       1.361  -3.128  -3.364  0.00  0.00     0.021 C 
ATOM     30  C   UNL d   1       0.709  -1.262  -4.898  0.00  0.00     0.021 C 
ATOM     31  C   UNL d   1       2.330  -0.851  -3.021  0.00  0.00     0.021 C 
ENDBRANCH  24  28
ENDBRANCH   1  22
TORSDOF 5
