REMARK  4 active torsions:
REMARK  status: ('A' for Active; 'I' for Inactive)
REMARK    1  A    between atoms: C_2  and  C_1 
REMARK    2  A    between atoms: C_4  and  C_1 
REMARK    3  A    between atoms: C_5  and  C_3 
REMARK    4  A    between atoms: O_9  and  C_5 
ROOT
ATOM      1  C   UNL d   1       0.349   0.879  -0.952  0.00  0.00     0.032 A 
ATOM      2  C   UNL d   1       0.762   1.195  -2.265  0.00  0.00     0.051 A 
ATOM      3  C   UNL d   1      -0.759   1.562  -0.392  0.00  0.00     0.016 A 
ATOM      4  C   UNL d   1      -0.007   2.151  -2.978  0.00  0.00     0.019 A 
ATOM      5  C   UNL d   1      -1.502   2.481  -1.131  0.00  0.00     0.001 A 
ATOM      6  C   UNL d   1      -1.126   2.772  -2.431  0.00  0.00     0.001 A 
ENDROOT
BRANCH   1   7
ATOM      7  C   UNL d   1       1.033  -0.113  -0.077  0.00  0.00     0.194 C 
ATOM      8  O   UNL d   1       2.249  -0.234  -0.184  0.00  0.00    -0.287 OA
BRANCH   7   9
ATOM      9  C   UNL d   1       0.294  -0.954   0.920  0.00  0.00     0.021 A 
ATOM     10  C   UNL d   1       0.849  -1.312   2.168  0.00  0.00    -0.048 A 
ATOM     11  C   UNL d   1       2.233  -0.956   2.643  0.00  0.00     0.049 C 
ATOM     12  C   UNL d   1       0.072  -2.084   3.055  0.00  0.00     0.007 A 
ATOM     13  C   UNL d   1      -1.218  -2.493   2.723  0.00  0.00     0.001 A 
ATOM     14  C   UNL d   1      -1.749  -2.163   1.483  0.00  0.00     0.001 A 
ATOM     15  C   UNL d   1      -0.993  -1.415   0.581  0.00  0.00     0.016 A 
ENDBRANCH   7   9
ENDBRANCH   1   7
BRANCH   2  16
ATOM     16  C   UNL d   1       1.890   0.619  -3.078  0.00  0.00     0.177 C 
ATOM     17  O   UNL d   1       1.987   0.884  -4.270  0.00  0.00    -0.646 OA
BRANCH  16  18
ATOM     18  O   UNL d   1       2.795  -0.188  -2.508  0.00  0.00    -0.773 OA
ATOM     19  H   UNL d   1       2.773  -0.253  -1.525  0.00  0.00     0.167 HD
ENDBRANCH  16  18
ENDBRANCH   2  16
TORSDOF 4
