REMARK  5 active torsions:
REMARK  status: ('A' for Active; 'I' for Inactive)
REMARK    1  A    between atoms: C_7  and  C_1 
REMARK    2  A    between atoms: S_2  and  C_15 
REMARK    3  A    between atoms: N_5  and  S_2 
REMARK    4  A    between atoms: C_6  and  N_5 
REMARK       I    between atoms: N_14  and  C_7 
REMARK    5  A    between atoms: C_25  and  N_14 
ROOT
ATOM      1  C   UNL d   1       2.631  -5.036   0.037  0.00  0.00     0.075 A 
ATOM      2  C   UNL d   1       2.295  -4.121  -0.960  0.00  0.00     0.027 A 
ATOM      3  C   UNL d   1       3.679  -4.757   0.920  0.00  0.00     0.027 A 
ATOM      4  C   UNL d   1       3.960  -2.569  -0.099  0.00  0.00     0.035 A 
ATOM      5  C   UNL d   1       2.970  -2.901  -1.032  0.00  0.00     0.031 A 
ATOM      6  C   UNL d   1       4.355  -3.534   0.836  0.00  0.00     0.031 A 
ENDROOT
BRANCH   1   7
ATOM      7  S   UNL d   1       1.552  -6.417   0.337  0.00  0.00     0.248 S 
ATOM      8  O   UNL d   1       1.702  -6.759   1.739  0.00  0.00    -0.205 OA
ATOM      9  O   UNL d   1       0.239  -6.091  -0.189  0.00  0.00    -0.205 OA
BRANCH   7  10
ATOM     10  N   UNL d   1       2.227  -7.687  -0.503  0.00  0.00    -0.151 NA
ATOM     11  H   UNL d   1       2.053  -8.548   0.007  0.00  0.00     0.149 HD
BRANCH  10  12
ATOM     12  C   UNL d   1       1.790  -7.799  -1.820  0.00  0.00     0.171 A 
ATOM     13  N   UNL d   1       2.389  -7.039  -2.736  0.00  0.00    -0.336 N 
ATOM     14  C   UNL d   1       1.996  -7.253  -4.008  0.00  0.00     0.009 A 
ATOM     15  HN  UNL d   1       3.096  -6.345  -2.493  1.00  0.00     0.168 HD
ATOM     16  C   UNL d   1       2.707  -6.495  -5.090  0.00  0.00     0.068 C 
ATOM     17  C   UNL d   1       1.004  -8.161  -4.337  0.00  0.00     0.049 A 
ATOM     18  C   UNL d   1       0.437  -8.871  -3.293  0.00  0.00     0.009 A 
ATOM     19  N   UNL d   1       0.846  -8.723  -2.019  0.00  0.00    -0.336 N 
ATOM     20  C   UNL d   1      -0.656  -9.863  -3.561  0.00  0.00     0.068 C 
ATOM     21  HN  UNL d   1       0.461  -9.279  -1.255  1.00  0.00     0.168 HD
ENDBRANCH  10  12
ENDBRANCH   7  10
ENDBRANCH   1   7
BRANCH   4  22
ATOM     22  N   UNL d   1       4.541  -1.282  -0.012  0.00  0.00    -0.322 N 
ATOM     23  C   UNL d   1       4.008  -0.113  -0.551  0.00  0.00     0.264 C 
ATOM     24  O   UNL d   1       2.965  -0.100  -1.196  0.00  0.00    -0.267 OA
ATOM     25  H   UNL d   1       5.317  -1.168   0.629  0.00  0.00     0.169 HD
BRANCH  23  26
ATOM     26  C   UNL d   1       4.751   1.117  -0.288  0.00  0.00     0.096 C 
ATOM     27  S   UNL d   1       6.262   1.121   0.514  0.00  0.00    -0.082 SA
ATOM     28  C   UNL d   1       6.502   2.805   0.252  0.00  0.00     0.017 A 
ATOM     29  C   UNL d   1       7.611   3.583   0.642  0.00  0.00     0.020 A 
ATOM     30  C   UNL d   1       5.429   3.367  -0.442  0.00  0.00     0.004 A 
ATOM     31  C   UNL d   1       7.664   4.928   0.265  0.00  0.00     0.001 A 
ATOM     32  C   UNL d   1       6.642   5.492  -0.483  0.00  0.00     0.001 A 
ATOM     33  C   UNL d   1       5.522   4.732  -0.821  0.00  0.00     0.014 A 
ATOM     34  C   UNL d   1       4.381   2.403  -0.637  0.00  0.00     0.068 C 
ATOM     35 CL   UNL d   1       2.860   2.880  -1.292  0.00  0.00    -0.082 Cl
ENDBRANCH  23  26
ENDBRANCH   4  22
TORSDOF 5
