REMARK  7 active torsions:
REMARK  status: ('A' for Active; 'I' for Inactive)
REMARK    1  A    between atoms: O_9  and  C_1 
REMARK    2  A    between atoms: O_8  and  N_2 
REMARK    3  A    between atoms: C_4  and  C_12 
REMARK    4  A    between atoms: N_19  and  C_4 
REMARK    5  A    between atoms: C_5  and  O_8 
REMARK    6  A    between atoms: C_13  and  C_5 
REMARK    7  A    between atoms: C_20  and  O_9 
ROOT
ATOM      1  C   UNL d   1      -5.758  -5.037  -1.177  0.00  0.00     0.004 A 
ATOM      2  C   UNL d   1      -5.621  -3.947  -2.044  0.00  0.00     0.017 A 
ATOM      3  C   UNL d   1      -6.821  -5.932  -1.364  0.00  0.00     0.017 A 
ATOM      4  C   UNL d   1      -7.638  -4.608  -3.216  0.00  0.00     0.076 A 
ATOM      5  C   UNL d   1      -7.744  -5.734  -2.395  0.00  0.00     0.038 A 
ATOM      6  C   UNL d   1      -6.554  -3.740  -3.067  0.00  0.00     0.038 A 
ENDROOT
BRANCH   1   7
ATOM      7  C   UNL d   1      -4.792  -5.244  -0.047  0.00  0.00     0.109 C 
ATOM      8  N   UNL d   1      -4.053  -4.243   0.338  0.00  0.00    -0.246 N 
ATOM      9  HN  UNL d   1      -4.068  -3.316  -0.087  1.00  0.00     0.196 HD
BRANCH   8  10
ATOM     10  O   UNL d   1      -3.227  -4.613   1.423  0.00  0.00    -0.193 OA
BRANCH  10  11
ATOM     11  C   UNL d   1      -2.497  -3.544   1.864  0.00  0.00     0.315 C 
ATOM     12  O   UNL d   1      -2.476  -2.411   1.409  0.00  0.00    -0.257 OA
BRANCH  11  13
ATOM     13  C   UNL d   1      -1.659  -3.959   3.029  0.00  0.00     0.041 A 
ATOM     14  C   UNL d   1      -0.780  -3.013   3.579  0.00  0.00     0.019 A 
ATOM     15  C   UNL d   1       0.035  -3.346   4.665  0.00  0.00     0.025 A 
ATOM     16  C   UNL d   1      -0.025  -4.627   5.209  0.00  0.00     0.034 A 
ATOM     17  C   UNL d   1      -0.897  -5.576   4.678  0.00  0.00     0.025 A 
ATOM     18 CL   UNL d   1       0.980  -5.041   6.541  0.00  0.00    -0.084 Cl
ATOM     19  C   UNL d   1      -1.715  -5.244   3.592  0.00  0.00     0.019 A 
ENDBRANCH  11  13
ENDBRANCH  10  11
ENDBRANCH   8  10
BRANCH   7  20
ATOM     20  N   UNL d   1      -4.719  -6.491   0.536  0.00  0.00    -0.286 NA
ATOM     21  H   UNL d   1      -3.885  -6.592   1.103  0.00  0.00     0.125 HD
ATOM     22  H   UNL d   1      -4.844  -7.273  -0.096  0.00  0.00     0.125 HD
ENDBRANCH   7  20
ENDBRANCH   1   7
BRANCH   4  23
ATOM     23  O   UNL d   1      -8.563  -4.267  -4.182  0.00  0.00    -0.307 OA
BRANCH  23  24
ATOM     24  C   UNL d   1      -9.883  -4.615  -3.974  0.00  0.00     0.122 A 
ATOM     25  C   UNL d   1     -10.614  -4.231  -2.842  0.00  0.00     0.085 A 
ATOM     26 CL   UNL d   1      -9.999  -3.203  -1.602  0.00  0.00    -0.080 Cl
ATOM     27  C   UNL d   1     -11.926  -4.675  -2.730  0.00  0.00     0.114 A 
ATOM     28  N   UNL d   1     -12.562  -5.414  -3.669  0.00  0.00    -0.372 N 
ATOM     29  C   UNL d   1     -11.855  -5.707  -4.785  0.00  0.00     0.114 A 
ATOM     30  HN  UNL d   1     -13.523  -5.734  -3.542  1.00  0.00     0.164 HD
ATOM     31  C   UNL d   1     -10.531  -5.335  -4.983  0.00  0.00     0.085 A 
ATOM     32 CL   UNL d   1      -9.748  -5.772  -6.454  0.00  0.00    -0.080 Cl
ENDBRANCH  23  24
ENDBRANCH   4  23
TORSDOF 7
