REMARK  6 active torsions:
REMARK  status: ('A' for Active; 'I' for Inactive)
REMARK    1  A    between atoms: C_9  and  C_1 
REMARK    2  A    between atoms: C_8  and  C_2 
REMARK    3  A    between atoms: C_7  and  C_3 
REMARK    4  A    between atoms: O_13  and  C_8 
REMARK    5  A    between atoms: O_14  and  C_9 
REMARK    6  A    between atoms: O_19  and  C_15 
ROOT
ATOM      1  C   UNL d   1      -1.279  -0.974   0.125  0.00  0.00     0.052 C 
ATOM      2  C   UNL d   1       1.292  -0.989   0.116  0.00  0.00     0.052 C 
ATOM      3  C   UNL d   1       0.008  -1.806  -0.056  0.00  0.00     0.101 C 
ATOM      4  C   UNL d   1      -1.222   0.378   0.056  0.00  0.00     0.018 C 
ATOM      5  C   UNL d   1       1.237   0.363   0.050  0.00  0.00     0.018 C 
ATOM      6  N   UNL d   1       0.014   0.995  -0.109  0.00  0.00    -0.362 N 
ATOM      7  C   UNL d   1      -2.363   1.359   0.173  0.00  0.00     0.069 C 
ATOM      8  C   UNL d   1       2.436   1.276   0.139  0.00  0.00     0.069 C 
ATOM      9  H   UNL d   1       0.019   2.012  -0.062  0.00  0.00     0.165 HD
ENDROOT
BRANCH   3  10
ATOM     10  C   UNL d   1      -0.015  -2.498  -1.429  0.00  0.00    -0.042 A 
ATOM     11  C   UNL d   1      -0.076  -3.901  -1.520  0.00  0.00     0.044 A 
ATOM     12  C   UNL d   1      -0.111  -4.532  -2.768  0.00  0.00     0.068 A 
ATOM     13  C   UNL d   1      -0.087  -3.759  -3.931  0.00  0.00     0.037 A 
ATOM     14  C   UNL d   1      -0.028  -2.370  -3.859  0.00  0.00     0.003 A 
ATOM     15  C   UNL d   1       0.008  -1.743  -2.616  0.00  0.00     0.008 A 
BRANCH  12  16
ATOM     16  O   UNL d   1      -0.172  -5.881  -2.988  0.00  0.00    -0.356 OA
ATOM     17  C   UNL d   1      -0.191  -6.719  -1.841  0.00  0.00     0.210 C 
ENDBRANCH  12  16
ENDBRANCH   3  10
BRANCH   2  18
ATOM     18  C   UNL d   1       2.577  -1.702   0.372  0.00  0.00     0.291 C 
ATOM     19  O   UNL d   1       3.669  -1.162   0.468  0.00  0.00    -0.260 OA
BRANCH  18  20
ATOM     20  O   UNL d   1       2.376  -3.037   0.528  0.00  0.00    -0.323 OA
ATOM     21  C   UNL d   1       3.575  -3.772   0.783  0.00  0.00     0.213 C 
ENDBRANCH  18  20
ENDBRANCH   2  18
BRANCH   1  22
ATOM     22  C   UNL d   1      -2.476  -1.808   0.423  0.00  0.00     0.291 C 
ATOM     23  O   UNL d   1      -2.404  -2.898   0.971  0.00  0.00    -0.260 OA
BRANCH  22  24
ATOM     24  O   UNL d   1      -3.626  -1.228   0.008  0.00  0.00    -0.323 OA
ATOM     25  C   UNL d   1      -4.814  -1.919   0.396  0.00  0.00     0.213 C 
ENDBRANCH  22  24
ENDBRANCH   1  22
TORSDOF 6
