REMARK  3 active torsions:
REMARK  status: ('A' for Active; 'I' for Inactive)
REMARK    1  A    between atoms: C_1  and  O_7 
REMARK    2  A    between atoms: S_3  and  O_7 
REMARK    3  A    between atoms: C_5  and  C_12 
ROOT
ATOM      1  C   UNL d   1      -2.241  -0.042  -0.231  0.00  0.00     0.251 C 
ATOM      2  C   UNL d   1      -1.131  -1.008   0.156  0.00  0.00     0.195 C 
ATOM      3  O   UNL d   1      -0.566   1.772  -0.135  0.00  0.00    -0.337 OA
ATOM      4  C   UNL d   1      -1.823   1.300   0.404  0.00  0.00     0.200 C 
ATOM      5  C   UNL d   1       0.241  -0.513   0.016  0.00  0.00     0.046 A 
ATOM      6  C   UNL d   1       0.448   0.855  -0.108  0.00  0.00     0.083 A 
ATOM      7  O   UNL d   1      -1.304  -2.136   0.597  0.00  0.00    -0.289 OA
ATOM      8  C   UNL d   1       1.316  -1.408   0.041  0.00  0.00     0.018 A 
ATOM      9  C   UNL d   1       1.750   1.337  -0.225  0.00  0.00     0.038 A 
ATOM     10  C   UNL d   1       2.615  -0.922  -0.062  0.00  0.00     0.001 A 
ATOM     11  C   UNL d   1       2.832   0.451  -0.193  0.00  0.00     0.003 A 
ENDROOT
BRANCH   4  12
ATOM     12  C   UNL d   1      -2.851   2.415   0.236  0.00  0.00    -0.026 A 
ATOM     13  C   UNL d   1      -2.760   3.374  -0.787  0.00  0.00     0.010 A 
ATOM     14  C   UNL d   1      -3.675   4.429  -0.863  0.00  0.00     0.001 A 
ATOM     15  C   UNL d   1      -4.702   4.534   0.071  0.00  0.00     0.000 A 
ATOM     16  C   UNL d   1      -4.819   3.583   1.081  0.00  0.00     0.001 A 
ATOM     17  C   UNL d   1      -3.902   2.532   1.162  0.00  0.00     0.010 A 
ENDBRANCH   4  12
BRANCH   1  18
ATOM     18  O   UNL d   1      -3.490  -0.512   0.273  0.00  0.00    -0.260 OA
BRANCH  18  19
ATOM     19  S   UNL d   1      -4.247  -1.714  -0.542  0.00  0.00     0.262 S 
ATOM     20  O   UNL d   1      -4.296  -1.365  -1.944  0.00  0.00    -0.199 OA
ATOM     21  O   UNL d   1      -3.784  -3.005  -0.090  0.00  0.00    -0.199 OA
ATOM     22  C   UNL d   1      -5.864  -1.482   0.153  0.00  0.00     0.194 C 
ENDBRANCH  18  19
ENDBRANCH   1  18
TORSDOF 3
