REMARK  4 active torsions:
REMARK  status: ('A' for Active; 'I' for Inactive)
REMARK    1  A    between atoms: C_4  and  N_1 
REMARK    2  A    between atoms: C_5  and  N_2 
REMARK    3  A    between atoms: C_3  and  C_5 
REMARK    4  A    between atoms: O_13  and  C_9 
ROOT
ATOM      1  N   UNL d   1      -1.248   0.132   0.545  0.00  0.00    -0.375 N 
ATOM      2  N   UNL d   1       1.459   0.034  -0.616  0.00  0.00     0.095 N 
ATOM      3  C   UNL d   1      -0.760  -1.119  -0.049  0.00  0.00     0.153 C 
ATOM      4  C   UNL d   1      -0.724   1.334  -0.128  0.00  0.00     0.153 C 
ATOM      5  C   UNL d   1       0.786  -1.127   0.021  0.00  0.00     0.292 C 
ATOM      6  C   UNL d   1       0.830   1.290  -0.125  0.00  0.00     0.292 C 
ENDROOT
BRANCH   1   7
ATOM      7  C   UNL d   1      -2.530   0.197   1.094  0.00  0.00     0.064 A 
ATOM      8  C   UNL d   1      -2.862   1.097   2.134  0.00  0.00     0.094 A 
ATOM      9  C   UNL d   1      -4.160   1.124   2.674  0.00  0.00     0.039 A 
ATOM     10  C   UNL d   1      -5.144   0.260   2.209  0.00  0.00     0.003 A 
ATOM     11  C   UNL d   1      -4.844  -0.632   1.186  0.00  0.00     0.002 A 
ATOM     12  C   UNL d   1      -3.550  -0.659   0.644  0.00  0.00     0.032 A 
BRANCH   8  13
ATOM     13  O   UNL d   1      -2.019   2.060   2.636  0.00  0.00    -0.354 OA
ATOM     14  C   UNL d   1      -0.839   1.548   3.249  0.00  0.00     0.210 C 
ENDBRANCH   8  13
ENDBRANCH   1   7
BRANCH   2  15
ATOM     15  C   UNL d   1       1.411  -0.079  -2.082  0.00  0.00     0.314 C 
BRANCH  15  16
ATOM     16  C   UNL d   1       2.237   0.968  -2.788  0.00  0.00     0.009 A 
ATOM     17  C   UNL d   1       1.639   1.809  -3.735  0.00  0.00     0.124 A 
ATOM     18  F   UNL d   1       0.328   1.703  -3.990  0.00  0.00    -0.205 F 
ATOM     19  C   UNL d   1       2.379   2.772  -4.413  0.00  0.00     0.043 A 
ATOM     20  C   UNL d   1       3.737   2.909  -4.155  0.00  0.00     0.003 A 
ATOM     21  C   UNL d   1       4.353   2.085  -3.210  0.00  0.00     0.001 A 
ATOM     22  C   UNL d   1       3.605   1.119  -2.531  0.00  0.00     0.012 A 
ENDBRANCH  15  16
ENDBRANCH   2  15
TORSDOF 4
