REMARK  7 active torsions:
REMARK  status: ('A' for Active; 'I' for Inactive)
REMARK    1  A    between atoms: C_7  and  C_1 
REMARK       I    between atoms: C_2  and  N_8 
REMARK    2  A    between atoms: C_3  and  C_2 
REMARK    3  A    between atoms: C_6  and  C_4 
REMARK    4  A    between atoms: S_9  and  C_5 
REMARK    5  A    between atoms: O_14  and  C_6 
REMARK    6  A    between atoms: N_8  and  C_7 
REMARK    7  A    between atoms: C_13  and  S_9 
ROOT
ATOM      1  C   UNL d   1       0.293   1.081   0.096  0.00  0.00    -0.002 A 
ATOM      2  C   UNL d   1       1.704   1.164  -0.018  0.00  0.00     0.015 A 
ATOM      3  C   UNL d   1      -0.292  -0.205   0.083  0.00  0.00     0.043 A 
ATOM      4 CL   UNL d   1      -2.005  -0.456   0.193  0.00  0.00    -0.084 Cl
ATOM      5  C   UNL d   1       2.474  -0.015  -0.084  0.00  0.00     0.019 A 
ATOM      6  C   UNL d   1       1.872  -1.270  -0.086  0.00  0.00     0.003 A 
ATOM      7  C   UNL d   1       0.489  -1.363  -0.013  0.00  0.00     0.024 A 
ENDROOT
BRANCH   1   8
ATOM      8  C   UNL d   1      -0.557   2.317   0.279  0.00  0.00     0.164 C 
BRANCH   8   9
ATOM      9  N   UNL d   1      -0.510   3.021   1.558  0.00  0.00    -0.352 N 
ATOM     10  C   UNL d   1       0.182   2.658   2.683  0.00  0.00     0.253 C 
ATOM     11  O   UNL d   1       0.765   1.585   2.825  0.00  0.00    -0.268 OA
ATOM     12  H   UNL d   1      -1.085   3.863   1.595  0.00  0.00     0.163 HD
BRANCH  10  13
ATOM     13  C   UNL d   1       0.307   3.636   3.802  0.00  0.00     0.048 A 
ATOM     14  C   UNL d   1      -0.707   4.441   4.338  0.00  0.00     0.053 A 
ATOM     15  C   UNL d   1      -0.463   5.197   5.504  0.00  0.00     0.019 A 
ATOM     16  C   UNL d   1       0.778   5.149   6.139  0.00  0.00     0.001 A 
ATOM     17  C   UNL d   1       1.801   4.386   5.592  0.00  0.00     0.001 A 
ATOM     18  C   UNL d   1       1.569   3.641   4.435  0.00  0.00     0.018 A 
BRANCH  14  19
ATOM     19  C   UNL d   1      -2.040   4.565   3.704  0.00  0.00     0.177 C 
ATOM     20  O   UNL d   1      -2.178   4.798   2.521  0.00  0.00    -0.646 OA
BRANCH  19  21
ATOM     21  O   UNL d   1      -3.063   4.507   4.582  0.00  0.00    -0.773 OA
ATOM     22  H   UNL d   1      -2.826   4.246   5.488  0.00  0.00     0.167 HD
ENDBRANCH  19  21
ENDBRANCH  14  19
ENDBRANCH  10  13
ENDBRANCH   8   9
ENDBRANCH   1   8
BRANCH   2  23
ATOM     23  S   UNL d   1       2.624   2.699   0.084  0.00  0.00    -0.090 SA
BRANCH  23  24
ATOM     24  C   UNL d   1       2.960   3.182  -1.598  0.00  0.00     0.005 A 
ATOM     25  C   UNL d   1       3.249   4.538  -1.817  0.00  0.00     0.020 A 
ATOM     26  C   UNL d   1       3.533   5.016  -3.100  0.00  0.00     0.025 A 
ATOM     27  C   UNL d   1       3.538   4.135  -4.176  0.00  0.00     0.034 A 
ATOM     28  C   UNL d   1       3.281   2.781  -3.974  0.00  0.00     0.025 A 
ATOM     29 CL   UNL d   1       3.860   4.721  -5.760  0.00  0.00    -0.084 Cl
ATOM     30  C   UNL d   1       2.995   2.306  -2.687  0.00  0.00     0.020 A 
ENDBRANCH  23  24
ENDBRANCH   2  23
TORSDOF 7
