REMARK  3 active torsions:
REMARK  status: ('A' for Active; 'I' for Inactive)
REMARK    1  A    between atoms: N_2  and  S_1 
REMARK    2  A    between atoms: C_14  and  S_1 
REMARK       I    between atoms: C_5  and  N_2 
REMARK    3  A    between atoms: C_11  and  C_5 
ROOT
ATOM      1  N   UNL d   1       0.602  -1.099   1.001  0.00  0.00    -0.279 N 
ATOM      2  HN  UNL d   1      -0.149  -0.862   1.650  1.00  0.00     0.179 HD
ATOM      3  C   UNL d   1       1.169  -2.365   1.164  0.00  0.00     0.262 C 
ATOM      4  O   UNL d   1       2.130  -2.766   0.517  0.00  0.00    -0.267 OA
ENDROOT
BRANCH   3   5
ATOM      5  C   UNL d   1       0.578  -3.288   2.197  0.00  0.00     0.034 A 
ATOM      6  C   UNL d   1      -0.289  -2.759   3.169  0.00  0.00     0.039 A 
ATOM      7  C   UNL d   1      -0.905  -3.649   4.057  0.00  0.00     0.048 A 
ATOM      8  S   UNL d   1      -2.036  -3.370   5.326  0.00  0.00     0.002 SA
ATOM      9  C   UNL d   1      -0.674  -5.026   4.025  0.00  0.00     0.063 A 
ATOM     10  N   UNL d   1      -2.160  -4.991   5.711  0.00  0.00    -0.061 NA
ATOM     11  N   UNL d   1      -1.391  -5.761   4.962  0.00  0.00    -0.292 N 
ATOM     12  HN  UNL d   1      -1.330  -6.775   5.059  1.00  0.00     0.183 HD
ATOM     13  C   UNL d   1       0.233  -5.533   3.070  0.00  0.00     0.033 A 
ATOM     14  C   UNL d   1       0.854  -4.660   2.163  0.00  0.00     0.019 A 
ENDBRANCH   3   5
BRANCH   1  15
ATOM     15  S   UNL d   1       0.959  -0.023  -0.024  0.00  0.00     0.055 S 
ATOM     16  O   UNL d   1       0.475   1.341   0.108  0.00  0.00    -0.245 OA
ATOM     17  C   UNL d   1       2.711   0.151  -0.198  0.00  0.00     0.142 C 
BRANCH  15  18
ATOM     18  C   UNL d   1       0.383  -0.569  -1.628  0.00  0.00     0.038 A 
ATOM     19  C   UNL d   1      -0.678   0.117  -2.231  0.00  0.00     0.022 A 
ATOM     20  C   UNL d   1      -1.093  -0.234  -3.515  0.00  0.00     0.001 A 
ATOM     21  C   UNL d   1      -0.456  -1.273  -4.194  0.00  0.00     0.000 A 
ATOM     22  C   UNL d   1       0.592  -1.965  -3.587  0.00  0.00     0.001 A 
ATOM     23  C   UNL d   1       1.018  -1.614  -2.304  0.00  0.00     0.022 A 
ENDBRANCH  15  18
ENDBRANCH   1  15
TORSDOF 3
