REMARK  5 active torsions:
REMARK  status: ('A' for Active; 'I' for Inactive)
REMARK    1  A    between atoms: C_8  and  C_1 
REMARK    2  A    between atoms: C_11  and  C_2 
REMARK    3  A    between atoms: C_10  and  N_5 
REMARK    4  A    between atoms: N_7  and  C_8 
REMARK    5  A    between atoms: O_27  and  C_21 
ROOT
ATOM      1  C   UNL d   1       1.297   2.258  -0.693  0.00  0.00     0.016 A 
ATOM      2  C   UNL d   1       1.701   3.488  -1.318  0.00  0.00     0.067 A 
ATOM      3  N   UNL d   1       0.759   3.909  -2.182  0.00  0.00    -0.300 N 
ATOM      4  HN  UNL d   1       0.796   4.726  -2.792  1.00  0.00     0.187 HD
ATOM      5  N   UNL d   1      -0.234   3.024  -2.066  0.00  0.00    -0.311 N 
ATOM      6  C   UNL d   1       0.025   2.026  -1.183  0.00  0.00     0.118 A 
ATOM      7  H   UNL d   1      -1.068   3.166  -2.627  0.00  0.00     0.186 HD
ENDROOT
BRANCH   1   8
ATOM      8  C   UNL d   1       2.030   1.375   0.272  0.00  0.00     0.315 C 
BRANCH   8   9
ATOM      9  N   UNL d   1       3.346   0.984  -0.245  0.00  0.00     0.096 N 
ATOM     10  C   UNL d   1       4.096   0.185   0.754  0.00  0.00     0.292 C 
ATOM     11  C   UNL d   1       3.642  -1.290   0.936  0.00  0.00     0.153 C 
ATOM     12  N   UNL d   1       3.543  -1.954  -0.369  0.00  0.00    -0.378 N 
ATOM     13  C   UNL d   1       2.758  -1.229  -1.380  0.00  0.00     0.153 C 
ATOM     14  C   UNL d   1       3.289   0.215  -1.512  0.00  0.00     0.292 C 
BRANCH  12  15
ATOM     15  C   UNL d   1       3.885  -3.280  -0.546  0.00  0.00     0.030 A 
ATOM     16  C   UNL d   1       4.390  -3.731  -1.779  0.00  0.00     0.032 A 
ATOM     17  C   UNL d   1       4.821  -5.048  -1.963  0.00  0.00     0.044 A 
ATOM     18  C   UNL d   1       4.743  -5.942  -0.909  0.00  0.00     0.116 A 
ATOM     19  C   UNL d   1       4.234  -5.544   0.318  0.00  0.00     0.044 A 
ATOM     20  F   UNL d   1       5.172  -7.200  -1.074  0.00  0.00    -0.206 F 
ATOM     21  C   UNL d   1       3.812  -4.221   0.495  0.00  0.00     0.032 A 
ENDBRANCH  12  15
ENDBRANCH   8   9
ENDBRANCH   1   8
BRANCH   2  22
ATOM     22  C   UNL d   1       2.927   4.272  -1.136  0.00  0.00    -0.007 A 
ATOM     23  C   UNL d   1       3.535   4.907  -2.229  0.00  0.00     0.016 A 
ATOM     24  C   UNL d   1       4.686   5.693  -2.060  0.00  0.00     0.037 A 
ATOM     25  C   UNL d   1       5.239   5.856  -0.793  0.00  0.00     0.068 A 
ATOM     26  C   UNL d   1       4.636   5.231   0.297  0.00  0.00     0.037 A 
ATOM     27  C   UNL d   1       3.486   4.452   0.132  0.00  0.00     0.016 A 
BRANCH  25  28
ATOM     28  O   UNL d   1       6.348   6.592  -0.479  0.00  0.00    -0.356 OA
ATOM     29  C   UNL d   1       6.960   7.319  -1.535  0.00  0.00     0.210 C 
ENDBRANCH  25  28
ENDBRANCH   2  22
TORSDOF 5
