REMARK  4 active torsions:
REMARK  status: ('A' for Active; 'I' for Inactive)
REMARK    1  A    between atoms: C_5  and  C_1 
REMARK    2  A    between atoms: O_9  and  C_2 
REMARK    3  A    between atoms: C_11  and  C_5 
REMARK    4  A    between atoms: O_10  and  C_7 
ROOT
ATOM      1  C   UNL d   1       1.439  -0.343   0.060  0.00  0.00     0.043 A 
ATOM      2  C   UNL d   1       0.525  -1.411   0.073  0.00  0.00     0.084 A 
ATOM      3  C   UNL d   1      -0.859  -1.133  -0.002  0.00  0.00     0.074 A 
ATOM      4  C   UNL d   1       0.930   0.971  -0.000  0.00  0.00     0.021 A 
ATOM      5  C   UNL d   1      -1.346   0.169  -0.091  0.00  0.00     0.070 A 
ATOM      6  C   UNL d   1      -0.441   1.221  -0.081  0.00  0.00     0.038 A 
ENDROOT
BRANCH   1   7
ATOM      7  C   UNL d   1       2.932  -0.472   0.184  0.00  0.00     0.162 C 
ATOM      8  O   UNL d   1       3.437  -1.401   0.803  0.00  0.00    -0.292 OA
BRANCH   7   9
ATOM      9  C   UNL d   1       3.794   0.639  -0.413  0.00  0.00     0.079 C 
ATOM     10  C   UNL d   1       5.173   0.165  -0.838  0.00  0.00     0.013 C 
ENDBRANCH   7   9
ENDBRANCH   1   7
BRANCH   2  11
ATOM     11  O   UNL d   1       0.736  -2.753   0.224  0.00  0.00    -0.355 OA
ATOM     12  C   UNL d   1       1.877  -3.364  -0.356  0.00  0.00     0.210 C 
ENDBRANCH   2  11
BRANCH   5  13
ATOM     13  O   UNL d   1      -2.656   0.544  -0.176  0.00  0.00    -0.356 OA
ATOM     14  C   UNL d   1      -3.623  -0.498  -0.211  0.00  0.00     0.210 C 
ENDBRANCH   5  13
TORSDOF 4
