REMARK  3 active torsions:
REMARK  status: ('A' for Active; 'I' for Inactive)
REMARK    1  A    between atoms: S_2  and  N_1 
REMARK    2  A    between atoms: C_9  and  S_2 
REMARK    3  A    between atoms: C_7  and  C_3 
ROOT
ATOM      1  N   UNL d   1       1.018  -0.523  -0.271  0.00  0.00    -0.180 N 
ATOM      2  C   UNL d   1       1.012   0.827   0.096  0.00  0.00     0.072 A 
ATOM      3  N   UNL d   1      -0.231  -0.957  -0.638  0.00  0.00    -0.294 N 
ATOM      4  HN  UNL d   1      -0.486  -1.867  -1.021  1.00  0.00     0.187 HD
ATOM      5  C   UNL d   1      -0.329   1.197   0.037  0.00  0.00     0.087 A 
ATOM      6  C   UNL d   1      -1.035   0.069  -0.386  0.00  0.00     0.133 A 
ATOM      7  C   UNL d   1      -0.905   2.479   0.300  0.00  0.00     0.103 C 
ATOM      8  N   UNL d   1      -1.364   3.525   0.496  0.00  0.00    -0.191 NA
ENDROOT
BRANCH   2   9
ATOM      9  C   UNL d   1       2.072   1.851   0.518  0.00  0.00     0.040 A 
ATOM     10  C   UNL d   1       3.197   2.194  -0.429  0.00  0.00     0.011 A 
ATOM     11  C   UNL d   1       3.497   1.569   0.892  0.00  0.00     0.011 A 
ENDBRANCH   2   9
BRANCH   1  12
ATOM     12  S   UNL d   1       2.339  -1.650  -0.143  0.00  0.00     0.282 S 
ATOM     13  O   UNL d   1       2.908  -1.438   1.175  0.00  0.00    -0.198 OA
ATOM     14  O   UNL d   1       1.809  -2.945  -0.532  0.00  0.00    -0.198 OA
BRANCH  12  15
ATOM     15  C   UNL d   1       3.529  -1.226  -1.383  0.00  0.00     0.081 A 
ATOM     16  C   UNL d   1       4.873  -1.533  -1.132  0.00  0.00     0.027 A 
ATOM     17  C   UNL d   1       5.842  -1.237  -2.092  0.00  0.00     0.025 A 
ATOM     18  C   UNL d   1       5.466  -0.636  -3.292  0.00  0.00     0.034 A 
ATOM     19  C   UNL d   1       4.124  -0.347  -3.550  0.00  0.00     0.025 A 
ATOM     20 CL   UNL d   1       6.663  -0.255  -4.466  0.00  0.00    -0.084 Cl
ATOM     21  C   UNL d   1       3.144  -0.659  -2.601  0.00  0.00     0.027 A 
ENDBRANCH  12  15
ENDBRANCH   1  12
TORSDOF 3
