REMARK  7 active torsions:
REMARK  status: ('A' for Active; 'I' for Inactive)
REMARK    1  A    between atoms: C_7  and  C_1 
REMARK    2  A    between atoms: O_24  and  C_7 
REMARK    3  A    between atoms: C_12  and  C_21 
REMARK       I    between atoms: N_13  and  C_12 
REMARK    4  A    between atoms: C_16  and  N_13 
REMARK    5  A    between atoms: O_19  and  C_18 
REMARK    6  A    between atoms: C_21  and  O_19 
REMARK    7  A    between atoms: C_28  and  O_24 
ROOT
ATOM      1  N   UNL d   1      11.945  -0.825   3.751  0.00  0.00    -0.191 NA
ATOM      2  C   UNL d   1      11.135  -1.259   3.047  0.00  0.00     0.099 C 
ATOM      3  C   UNL d   1       7.888  -1.721   1.234  0.00  0.00     0.036 A 
ATOM      4  C   UNL d   1      10.139  -1.806   2.168  0.00  0.00     0.046 A 
ATOM      5  C   UNL d   1       8.866  -1.225   2.106  0.00  0.00     0.052 A 
ATOM      6  C   UNL d   1       9.458  -3.439   0.527  0.00  0.00     0.004 A 
ATOM      7  C   UNL d   1       8.186  -2.855   0.469  0.00  0.00     0.029 A 
ATOM      8  C   UNL d   1      10.436  -2.909   1.367  0.00  0.00     0.023 A 
ENDROOT
BRANCH   3   9
ATOM      9  N   UNL d   1       6.617  -1.118   1.075  0.00  0.00    -0.325 N 
ATOM     10  C   UNL d   1       6.270   0.154   1.496  0.00  0.00     0.246 C 
ATOM     11  O   UNL d   1       7.019   0.949   2.063  0.00  0.00    -0.271 OA
ATOM     12  H   UNL d   1       5.935  -1.596   0.493  0.00  0.00     0.169 HD
BRANCH  10  13
ATOM     13  C   UNL d   1       4.845   0.596   1.154  0.00  0.00     0.278 C 
BRANCH  13  14
ATOM     14  O   UNL d   1       4.011  -0.396   0.571  0.00  0.00    -0.342 OA
BRANCH  14  15
ATOM     15  C   UNL d   1       2.705  -0.001   0.397  0.00  0.00     0.072 A 
ATOM     16  C   UNL d   1       1.761  -1.030   0.403  0.00  0.00     0.075 A 
ATOM     17  C   UNL d   1       0.406  -0.741   0.222  0.00  0.00     0.093 A 
ATOM     18  O   UNL d   1      -0.462  -1.800   0.221  0.00  0.00    -0.303 OA
ATOM     19  C   UNL d   1      -0.014   0.573   0.046  0.00  0.00     0.048 A 
ATOM     20  C   UNL d   1      -1.809  -1.547   0.014  0.00  0.00     0.154 A 
ATOM     21  C   UNL d   1      -2.341  -0.328  -0.147  0.00  0.00     0.099 A 
ATOM     22  C   UNL d   1      -1.452   0.842  -0.120  0.00  0.00     0.187 A 
ATOM     23  O   UNL d   1      -1.895   1.977  -0.227  0.00  0.00    -0.287 OA
ATOM     24  C   UNL d   1       0.920   1.608   0.020  0.00  0.00     0.021 A 
ATOM     25  C   UNL d   1       2.280   1.318   0.185  0.00  0.00     0.038 A 
BRANCH  20  26
ATOM     26  C   UNL d   1      -2.744  -2.706   0.037  0.00  0.00     0.317 C 
ATOM     27  O   UNL d   1      -3.959  -2.624  -0.053  0.00  0.00    -0.257 OA
BRANCH  26  28
ATOM     28  O   UNL d   1      -2.029  -3.836   0.269  0.00  0.00    -0.316 OA
BRANCH  28  29
ATOM     29  C   UNL d   1      -2.781  -4.962   0.736  0.00  0.00     0.175 C 
ATOM     30  C   UNL d   1      -2.859  -4.876   2.249  0.00  0.00     0.034 C 
ENDBRANCH  28  29
ENDBRANCH  26  28
ENDBRANCH  20  26
ENDBRANCH  14  15
ENDBRANCH  13  14
ENDBRANCH  10  13
ENDBRANCH   3   9
TORSDOF 7
