REMARK  7 active torsions:
REMARK  status: ('A' for Active; 'I' for Inactive)
REMARK       I    between atoms: N_2  and  C_1 
REMARK    1  A    between atoms: C_4  and  C_1 
REMARK    2  A    between atoms: C_9  and  N_2 
REMARK    3  A    between atoms: C_3  and  C_5 
REMARK    4  A    between atoms: O_13  and  C_3 
REMARK    5  A    between atoms: C_5  and  O_6 
REMARK    6  A    between atoms: O_6  and  C_10 
REMARK    7  A    between atoms: C_19  and  O_13 
ROOT
ATOM      1  C   UNL d   1       1.328   1.877  -1.291  0.00  0.00     0.035 A 
ATOM      2  C   UNL d   1       2.675   3.729  -2.936  0.00  0.00     0.070 A 
ATOM      3  C   UNL d   1       2.499   1.520  -1.957  0.00  0.00     0.032 A 
ATOM      4  C   UNL d   1       0.813   3.164  -1.486  0.00  0.00     0.032 A 
ATOM      5  C   UNL d   1       1.482   4.082  -2.307  0.00  0.00     0.039 A 
ATOM      6  C   UNL d   1       3.166   2.437  -2.775  0.00  0.00     0.039 A 
ENDROOT
BRANCH   2   7
ATOM      7  O   UNL d   1       3.251   4.697  -3.715  0.00  0.00    -0.336 OA
BRANCH   7   8
ATOM      8  C   UNL d   1       4.680   4.678  -3.786  0.00  0.00     0.224 C 
ATOM      9  C   UNL d   1       5.131   6.117  -4.027  0.00  0.00     0.051 C 
BRANCH   8  10
ATOM     10  C   UNL d   1       5.250   3.775  -4.888  0.00  0.00     0.288 C 
ATOM     11  O   UNL d   1       4.596   3.119  -5.686  0.00  0.00    -0.262 OA
BRANCH  10  12
ATOM     12  O   UNL d   1       6.612   3.724  -4.767  0.00  0.00    -0.320 OA
BRANCH  12  13
ATOM     13  C   UNL d   1       7.277   2.689  -5.505  0.00  0.00     0.174 C 
ATOM     14  C   UNL d   1       7.502   1.515  -4.570  0.00  0.00     0.034 C 
ENDBRANCH  12  13
ENDBRANCH  10  12
ENDBRANCH   8  10
ENDBRANCH   7   8
ENDBRANCH   2   7
BRANCH   1  15
ATOM     15  N   UNL d   1       0.618   1.005  -0.441  0.00  0.00    -0.325 N 
ATOM     16  C   UNL d   1       1.005  -0.264  -0.022  0.00  0.00     0.255 C 
ATOM     17  O   UNL d   1       2.087  -0.797  -0.275  0.00  0.00    -0.270 OA
ATOM     18  H   UNL d   1      -0.266   1.350  -0.080  0.00  0.00     0.169 HD
BRANCH  16  19
ATOM     19  C   UNL d   1      -0.001  -0.981   0.878  0.00  0.00     0.270 C 
ATOM     20 CL   UNL d   1       0.135  -0.326   2.521  0.00  0.00    -0.098 Cl
ATOM     21 CL   UNL d   1      -1.658  -0.779   0.265  0.00  0.00    -0.098 Cl
ENDBRANCH  16  19
ENDBRANCH   1  15
TORSDOF 7
