REMARK  6 active torsions:
REMARK  status: ('A' for Active; 'I' for Inactive)
REMARK    1  A    between atoms: O_2  and  C_1 
REMARK    2  A    between atoms: C_4  and  C_1 
REMARK    3  A    between atoms: C_7  and  O_2 
REMARK    4  A    between atoms: C_3  and  C_7 
REMARK    5  A    between atoms: C_5  and  C_3 
REMARK    6  A    between atoms: O_20  and  C_14 
ROOT
ATOM      1  O   UNL d   1       0.195   0.987  -0.535  0.00  0.00    -0.310 OA
ENDROOT
BRANCH   1   2
ATOM      2  C   UNL d   1       0.988  -0.023  -0.104  0.00  0.00     0.293 C 
ATOM      3  O   UNL d   1       2.194  -0.110  -0.274  0.00  0.00    -0.259 OA
BRANCH   2   4
ATOM      4  C   UNL d   1       0.205  -1.013   0.687  0.00  0.00     0.039 A 
ATOM      5  C   UNL d   1       0.901  -2.034   1.350  0.00  0.00     0.020 A 
ATOM      6  C   UNL d   1       0.218  -2.980   2.126  0.00  0.00     0.038 A 
ATOM      7  C   UNL d   1      -1.170  -2.913   2.244  0.00  0.00     0.068 A 
ATOM      8  C   UNL d   1      -1.865  -1.890   1.595  0.00  0.00     0.038 A 
ATOM      9  C   UNL d   1      -1.188  -0.948   0.812  0.00  0.00     0.020 A 
BRANCH   7  10
ATOM     10  O   UNL d   1      -1.946  -3.759   2.987  0.00  0.00    -0.356 OA
ATOM     11  C   UNL d   1      -1.392  -5.039   3.268  0.00  0.00     0.210 C 
ENDBRANCH   7  10
ENDBRANCH   2   4
ENDBRANCH   1   2
BRANCH   1  12
ATOM     12  C   UNL d   1       0.847   2.047  -1.242  0.00  0.00     0.263 C 
BRANCH  12  13
ATOM     13  C   UNL d   1       0.410   2.122  -2.702  0.00  0.00     0.183 C 
ATOM     14  O   UNL d   1      -0.366   1.311  -3.204  0.00  0.00    -0.290 OA
BRANCH  13  15
ATOM     15  C   UNL d   1       0.936   3.246  -3.543  0.00  0.00     0.012 A 
ATOM     16  C   UNL d   1       1.843   4.196  -3.050  0.00  0.00     0.017 A 
ATOM     17  C   UNL d   1       2.296   5.234  -3.875  0.00  0.00     0.025 A 
ATOM     18  C   UNL d   1       1.847   5.327  -5.191  0.00  0.00     0.034 A 
ATOM     19  C   UNL d   1       0.951   4.389  -5.694  0.00  0.00     0.025 A 
ATOM     20 CL   UNL d   1       2.404   6.607  -6.195  0.00  0.00    -0.084 Cl
ATOM     21  C   UNL d   1       0.497   3.351  -4.873  0.00  0.00     0.017 A 
ENDBRANCH  13  15
ENDBRANCH  12  13
ENDBRANCH   1  12
TORSDOF 6
