REMARK  4 active torsions:
REMARK  status: ('A' for Active; 'I' for Inactive)
REMARK    1  A    between atoms: N_2  and  C_1 
REMARK    2  A    between atoms: C_5  and  N_2 
REMARK    3  A    between atoms: C_11  and  C_7 
REMARK    4  A    between atoms: O_12  and  C_11 
ROOT
ATOM      1  C   UNL d   1      -0.694  -0.974  -0.357  0.00  0.00     0.141 C 
ATOM      2  N   UNL d   1       0.592  -0.879   0.092  0.00  0.00    -0.359 N 
ATOM      3  S   UNL d   1      -1.538   0.540  -0.064  0.00  0.00    -0.092 SA
ATOM      4  C   UNL d   1       1.149   0.478   0.209  0.00  0.00     0.058 C 
ATOM      5  C   UNL d   1       0.012   1.481  -0.093  0.00  0.00     0.115 C 
ATOM      6  C   UNL d   1       2.278   0.647  -0.820  0.00  0.00     0.041 C 
ATOM      7  H   UNL d   1       1.219  -1.630  -0.169  0.00  0.00     0.162 HD
ENDROOT
BRANCH   1   8
ATOM      8  N   UNL d   1      -1.341  -1.906  -0.958  0.00  0.00    -0.336 N 
ATOM      9  HN  UNL d   1      -2.307  -1.733  -1.238  1.00  0.00     0.168 HD
BRANCH   8  10
ATOM     10  C   UNL d   1      -0.766  -3.157  -1.244  0.00  0.00     0.046 A 
ATOM     11  C   UNL d   1      -1.406  -4.317  -0.753  0.00  0.00    -0.035 A 
ATOM     12  C   UNL d   1      -0.874  -5.589  -1.028  0.00  0.00     0.009 A 
ATOM     13  C   UNL d   1      -2.709  -4.260   0.003  0.00  0.00     0.050 C 
ATOM     14  C   UNL d   1       0.281  -5.724  -1.792  0.00  0.00     0.001 A 
ATOM     15  C   UNL d   1       0.883  -4.594  -2.328  0.00  0.00     0.009 A 
ATOM     16  C   UNL d   1       0.350  -3.312  -2.098  0.00  0.00    -0.035 A 
ATOM     17  C   UNL d   1       1.005  -2.163  -2.812  0.00  0.00     0.050 C 
ENDBRANCH   8  10
ENDBRANCH   1   8
BRANCH   4  18
ATOM     18  C   UNL d   1       1.690   0.697   1.638  0.00  0.00     0.195 C 
BRANCH  18  19
ATOM     19  O   UNL d   1       2.739  -0.222   1.941  0.00  0.00    -0.398 OA
ATOM     20  H   UNL d   1       2.323  -1.102   1.976  0.00  0.00     0.209 HD
ENDBRANCH  18  19
ENDBRANCH   4  18
TORSDOF 4
