REMARK  6 active torsions:
REMARK  status: ('A' for Active; 'I' for Inactive)
REMARK    1  A    between atoms: N_2  and  C_1 
REMARK    2  A    between atoms: N_3  and  C_1 
REMARK    3  A    between atoms: C_4  and  N_2 
REMARK    4  A    between atoms: C_5  and  C_9 
REMARK    5  A    between atoms: O_15  and  C_5 
REMARK    6  A    between atoms: C_21  and  O_15 
ROOT
ATOM      1  C   UNL d   1       1.006   0.051   0.151  0.00  0.00     0.174 C 
ATOM      2  S   UNL d   1       0.381   0.411  -1.365  0.00  0.00    -0.041 SA
ENDROOT
BRANCH   1   3
ATOM      3  N   UNL d   1       2.360   0.080   0.484  0.00  0.00    -0.332 N 
ATOM      4  H   UNL d   1       2.624  -0.786   0.930  0.00  0.00     0.168 HD
BRANCH   3   5
ATOM      5  C   UNL d   1       3.393   0.787  -0.172  0.00  0.00     0.046 A 
ATOM      6  C   UNL d   1       3.320   2.190  -0.320  0.00  0.00    -0.035 A 
ATOM      7  C   UNL d   1       4.364   2.871  -0.968  0.00  0.00     0.009 A 
ATOM      8  C   UNL d   1       2.209   3.039   0.244  0.00  0.00     0.050 C 
ATOM      9  C   UNL d   1       5.494   2.193  -1.408  0.00  0.00     0.001 A 
ATOM     10  C   UNL d   1       5.599   0.823  -1.196  0.00  0.00     0.009 A 
ATOM     11  C   UNL d   1       4.567   0.102  -0.567  0.00  0.00    -0.035 A 
ATOM     12  C   UNL d   1       4.786  -1.380  -0.426  0.00  0.00     0.050 C 
ENDBRANCH   3   5
ENDBRANCH   1   3
BRANCH   1  13
ATOM     13  N   UNL d   1       0.233  -0.406   1.233  0.00  0.00    -0.358 N 
ATOM     14  C   UNL d   1      -1.010  -1.171   1.083  0.00  0.00     0.126 C 
ATOM     15  C   UNL d   1      -2.199  -0.454   1.720  0.00  0.00     0.034 C 
ATOM     16  C   UNL d   1      -1.910  -0.000   3.157  0.00  0.00     0.088 C 
ATOM     17  C   UNL d   1      -0.582   0.761   3.233  0.00  0.00     0.034 C 
ATOM     18  C   UNL d   1       0.566  -0.031   2.609  0.00  0.00     0.126 C 
BRANCH  16  19
ATOM     19  C   UNL d   1      -1.954  -1.157   4.142  0.00  0.00     0.263 C 
ATOM     20  O   UNL d   1      -2.144  -2.330   3.843  0.00  0.00    -0.265 OA
BRANCH  19  21
ATOM     21  O   UNL d   1      -1.837  -0.682   5.413  0.00  0.00    -0.322 OA
BRANCH  21  22
ATOM     22  C   UNL d   1      -2.121  -1.621   6.463  0.00  0.00     0.174 C 
ATOM     23  C   UNL d   1      -3.607  -1.571   6.766  0.00  0.00     0.034 C 
ENDBRANCH  21  22
ENDBRANCH  19  21
ENDBRANCH  16  19
ENDBRANCH   1  13
TORSDOF 6
