REMARK  5 active torsions:
REMARK  status: ('A' for Active; 'I' for Inactive)
REMARK    1  A    between atoms: C_2  and  S_1 
REMARK    2  A    between atoms: N_4  and  S_1 
REMARK    3  A    between atoms: C_12  and  N_4 
REMARK    4  A    between atoms: O_21  and  C_10 
REMARK    5  A    between atoms: O_22  and  C_18 
ROOT
ATOM      1  S   UNL d   1       1.228   0.211   0.118  0.00  0.00     0.266 S 
ATOM      2  O   UNL d   1       0.549  -0.223  -1.090  0.00  0.00    -0.200 OA
ATOM      3  O   UNL d   1       2.672   0.234   0.157  0.00  0.00    -0.200 OA
ENDROOT
BRANCH   1   4
ATOM      4  C   UNL d   1       0.538  -0.745   1.454  0.00  0.00     0.115 A 
ATOM      5  C   UNL d   1      -0.804  -1.162   1.314  0.00  0.00     0.065 A 
ATOM      6  C   UNL d   1      -1.373  -2.020   2.252  0.00  0.00     0.069 A 
ATOM      7  C   UNL d   1      -0.591  -2.476   3.310  0.00  0.00     0.039 A 
ATOM      8  C   UNL d   1       0.732  -2.052   3.461  0.00  0.00     0.041 A 
ATOM      9  C   UNL d   1       1.312  -1.174   2.538  0.00  0.00     0.091 A 
BRANCH   6  10
ATOM     10  O   UNL d   1      -2.650  -2.502   2.240  0.00  0.00    -0.356 OA
ATOM     11  C   UNL d   1      -3.561  -1.902   1.327  0.00  0.00     0.210 C 
ENDBRANCH   6  10
BRANCH   9  12
ATOM     12  O   UNL d   1       2.575  -0.676   2.672  0.00  0.00    -0.354 OA
ATOM     13  C   UNL d   1       3.471  -1.374   3.528  0.00  0.00     0.210 C 
ENDBRANCH   9  12
ENDBRANCH   1   4
BRANCH   1  14
ATOM     14  N   UNL d   1       0.626   1.756   0.406  0.00  0.00    -0.281 N 
ATOM     15  H   UNL d   1       0.214   2.159  -0.436  0.00  0.00     0.179 HD
BRANCH  14  16
ATOM     16  C   UNL d   1       1.292   2.642   1.290  0.00  0.00     0.043 A 
ATOM     17  C   UNL d   1       0.646   2.989   2.473  0.00  0.00     0.048 A 
ATOM     18  C   UNL d   1       1.208   4.007   3.224  0.00  0.00     0.050 A 
ATOM     19  C   UNL d   1       0.712   4.587   4.463  0.00  0.00     0.294 A 
ATOM     20  C   UNL d   1       2.351   4.678   2.844  0.00  0.00    -0.018 A 
ATOM     21  O   UNL d   1       1.571   5.599   4.791  0.00  0.00    -0.313 OA
ATOM     22  O   UNL d   1      -0.276   4.243   5.075  0.00  0.00    -0.259 OA
ATOM     23  C   UNL d   1       2.630   5.749   3.820  0.00  0.00     0.218 A 
ATOM     24  C   UNL d   1       3.015   4.325   1.683  0.00  0.00     0.012 A 
ATOM     25  C   UNL d   1       2.473   3.298   0.898  0.00  0.00     0.031 A 
ENDBRANCH  14  16
ENDBRANCH   1  14
TORSDOF 5
