REMARK  3 active torsions:
REMARK  status: ('A' for Active; 'I' for Inactive)
REMARK    1  A    between atoms: C_2  and  S_1 
REMARK    2  A    between atoms: N_5  and  S_1 
REMARK    3  A    between atoms: C_14  and  N_7 
ROOT
ATOM      1  N   UNL d   1       0.463   1.229  -0.336  0.00  0.00    -0.202 NA
ATOM      2  N   UNL d   1      -1.226   2.494   1.687  0.00  0.00    -0.379 N 
ATOM      3  C   UNL d   1       0.740   2.617   0.155  0.00  0.00     0.127 C 
ATOM      4  C   UNL d   1      -1.003   0.942  -0.234  0.00  0.00     0.127 C 
ATOM      5  C   UNL d   1       0.207   2.871   1.580  0.00  0.00     0.138 C 
ATOM      6  C   UNL d   1      -1.522   1.128   1.205  0.00  0.00     0.138 C 
ENDROOT
BRANCH   1   7
ATOM      7  S   UNL d   1       1.457  -0.012   0.272  0.00  0.00     0.260 S 
ATOM      8  O   UNL d   1       1.447   0.034   1.720  0.00  0.00    -0.204 OA
ATOM      9  O   UNL d   1       1.116  -1.233  -0.428  0.00  0.00    -0.204 OA
BRANCH   7  10
ATOM     10  C   UNL d   1       3.129   0.257  -0.141  0.00  0.00     0.160 A 
ATOM     11  N   UNL d   1       3.624   1.433  -0.687  0.00  0.00    -0.341 N 
ATOM     12  C   UNL d   1       4.902   1.203  -0.887  0.00  0.00     0.183 A 
ATOM     13  HN  UNL d   1       3.108   2.289  -0.889  1.00  0.00     0.167 HD
ATOM     14  N   UNL d   1       5.250  -0.061  -0.505  0.00  0.00    -0.354 N 
ATOM     15  C   UNL d   1       4.147  -0.662   0.024  0.00  0.00     0.134 A 
ATOM     16  C   UNL d   1       6.541  -0.670  -0.705  0.00  0.00     0.156 C 
ENDBRANCH   7  10
ENDBRANCH   1   7
BRANCH   2  17
ATOM     17  C   UNL d   1      -1.819   2.901   2.892  0.00  0.00     0.030 A 
ATOM     18  C   UNL d   1      -2.298   2.008   3.863  0.00  0.00     0.032 A 
ATOM     19  C   UNL d   1      -2.927   2.469   5.024  0.00  0.00     0.044 A 
ATOM     20  C   UNL d   1      -3.085   3.832   5.223  0.00  0.00     0.116 A 
ATOM     21  C   UNL d   1      -2.614   4.743   4.291  0.00  0.00     0.044 A 
ATOM     22  F   UNL d   1      -3.705   4.274   6.326  0.00  0.00    -0.206 F 
ATOM     23  C   UNL d   1      -1.983   4.277   3.136  0.00  0.00     0.032 A 
ENDBRANCH   2  17
TORSDOF 3
