REMARK  5 active torsions:
REMARK  status: ('A' for Active; 'I' for Inactive)
REMARK    1  A    between atoms: C_7  and  C_3 
REMARK    2  A    between atoms: N_13  and  C_12 
REMARK    3  A    between atoms: C_14  and  C_15 
REMARK    4  A    between atoms: O_22  and  C_14 
REMARK    5  A    between atoms: C_28  and  O_22 
ROOT
ATOM      1  N   UNL d   1       0.310   2.817   1.257  0.00  0.00    -0.308 N 
ATOM      2  C   UNL d   1       1.271   2.372   2.131  0.00  0.00     0.122 A 
ATOM      3  C   UNL d   1      -0.053   2.064   0.041  0.00  0.00     0.205 C 
ATOM      4  N   UNL d   1       1.517   3.277   3.058  0.00  0.00    -0.340 N 
ATOM      5  HN  UNL d   1       2.194   3.215   3.818  1.00  0.00     0.167 HD
ATOM      6  N   UNL d   1       0.405   0.663   0.024  0.00  0.00    -0.266 NA
ATOM      7  C   UNL d   1       1.896   1.074   1.934  0.00  0.00     0.029 A 
ATOM      8  C   UNL d   1      -0.152   4.038   1.695  0.00  0.00     0.064 A 
ATOM      9  C   UNL d   1       1.470   0.284   0.850  0.00  0.00     0.024 A 
ATOM     10  C   UNL d   1       0.668   4.323   2.785  0.00  0.00     0.060 A 
ATOM     11  C   UNL d   1       2.908   0.619   2.786  0.00  0.00     0.017 A 
ATOM     12  C   UNL d   1      -1.113   4.936   1.213  0.00  0.00     0.032 A 
ATOM     13  C   UNL d   1       2.033  -0.987   0.682  0.00  0.00     0.024 A 
ATOM     14  C   UNL d   1       0.563   5.572   3.416  0.00  0.00     0.032 A 
ATOM     15  C   UNL d   1       3.485  -0.633   2.581  0.00  0.00     0.001 A 
ATOM     16  C   UNL d   1      -1.195   6.179   1.851  0.00  0.00     0.002 A 
ATOM     17  C   UNL d   1       3.043  -1.438   1.533  0.00  0.00     0.002 A 
ATOM     18  C   UNL d   1      -0.367   6.499   2.929  0.00  0.00     0.002 A 
ATOM     19  H   UNL d   1       0.534   0.340  -0.936  0.00  0.00     0.130 HD
ENDROOT
BRANCH   3  20
ATOM     20  C   UNL d   1       0.307   2.750  -1.294  0.00  0.00     0.006 A 
ATOM     21  C   UNL d   1      -0.118   2.287  -2.585  0.00  0.00     0.039 A 
ATOM     22  C   UNL d   1       0.215   3.139  -3.677  0.00  0.00     0.030 A 
ATOM     23  C   UNL d   1       0.971   4.311  -3.563  0.00  0.00     0.002 A 
ATOM     24  C   UNL d   1       1.443   4.695  -2.332  0.00  0.00     0.001 A 
ATOM     25  C   UNL d   1       1.122   3.922  -1.225  0.00  0.00     0.013 A 
BRANCH  21  26
ATOM     26  N   UNL d   1      -0.692   1.021  -2.860  0.00  0.00    -0.380 N 
ATOM     27  C   UNL d   1      -1.829   0.484  -2.093  0.00  0.00     0.124 C 
ATOM     28  C   UNL d   1      -1.711  -1.048  -2.080  0.00  0.00     0.034 C 
ATOM     29  C   UNL d   1      -1.841  -1.611  -3.495  0.00  0.00     0.088 C 
ATOM     30  C   UNL d   1      -0.818  -0.937  -4.415  0.00  0.00     0.034 C 
ATOM     31  C   UNL d   1      -0.782   0.590  -4.285  0.00  0.00     0.124 C 
BRANCH  29  32
ATOM     32  C   UNL d   1      -3.266  -1.457  -3.994  0.00  0.00     0.263 C 
ATOM     33  O   UNL d   1      -3.595  -0.860  -5.011  0.00  0.00    -0.265 OA
BRANCH  32  34
ATOM     34  O   UNL d   1      -4.122  -2.054  -3.119  0.00  0.00    -0.322 OA
BRANCH  34  35
ATOM     35  C   UNL d   1      -5.523  -1.798  -3.293  0.00  0.00     0.174 C 
ATOM     36  C   UNL d   1      -6.213  -3.037  -3.823  0.00  0.00     0.034 C 
ENDBRANCH  34  35
ENDBRANCH  32  34
ENDBRANCH  29  32
ENDBRANCH  21  26
ENDBRANCH   3  20
TORSDOF 5
