REMARK  4 active torsions:
REMARK  status: ('A' for Active; 'I' for Inactive)
REMARK    1  A    between atoms: C_3  and  C_1 
REMARK    2  A    between atoms: C_9  and  C_2 
REMARK    3  A    between atoms: C_18  and  N_15 
REMARK    4  A    between atoms: O_24  and  C_19 
ROOT
ATOM      1  C   UNL d   1       0.571  -2.611  -0.370  0.00  0.00     0.056 A 
ATOM      2  N   UNL d   1       1.435  -3.030   0.614  0.00  0.00    -0.335 N 
ATOM      3  HN  UNL d   1       1.812  -2.423   1.342  1.00  0.00     0.168 HD
ATOM      4  C   UNL d   1       1.717  -4.308   0.501  0.00  0.00     0.149 A 
ATOM      5  S   UNL d   1       1.085  -5.029  -0.934  0.00  0.00    -0.064 SA
ATOM      6  C   UNL d   1       0.284  -3.557  -1.327  0.00  0.00     0.083 A 
ATOM      7  N   UNL d   1       2.425  -5.033   1.405  0.00  0.00    -0.334 N 
ATOM      8  H   UNL d   1       2.510  -6.027   1.238  0.00  0.00     0.168 HD
ENDROOT
BRANCH   1   9
ATOM      9  C   UNL d   1       0.069  -1.249  -0.238  0.00  0.00     0.052 A 
ATOM     10  C   UNL d   1      -1.251  -0.743  -0.442  0.00  0.00     0.081 A 
ATOM     11  N   UNL d   1      -1.293   0.557  -0.112  0.00  0.00    -0.259 N 
ATOM     12  O   UNL d   1      -0.025   0.912   0.296  0.00  0.00    -0.241 OA
ATOM     13  HN  UNL d   1      -2.109   1.168  -0.154  1.00  0.00     0.195 HD
ATOM     14  C   UNL d   1       0.784  -0.175   0.243  0.00  0.00     0.087 A 
ATOM     15  C   UNL d   1       2.169   0.015   0.719  0.00  0.00     0.080 C 
BRANCH  10  16
ATOM     16  C   UNL d   1      -2.492  -1.436  -0.820  0.00  0.00     0.015 A 
ATOM     17  C   UNL d   1      -3.440  -0.879  -1.704  0.00  0.00     0.048 A 
ATOM     18  C   UNL d   1      -4.643  -1.544  -1.972  0.00  0.00     0.048 A 
ATOM     19 CL   UNL d   1      -3.192   0.613  -2.549  0.00  0.00    -0.083 Cl
ATOM     20  C   UNL d   1      -4.903  -2.778  -1.385  0.00  0.00     0.035 A 
ATOM     21  C   UNL d   1      -3.976  -3.353  -0.522  0.00  0.00     0.025 A 
ATOM     22 CL   UNL d   1      -6.376  -3.596  -1.727  0.00  0.00    -0.084 Cl
ATOM     23  C   UNL d   1      -2.788  -2.678  -0.228  0.00  0.00     0.017 A 
ENDBRANCH  10  16
ENDBRANCH   1   9
BRANCH   7  24
ATOM     24  C   UNL d   1       2.523  -4.720   2.787  0.00  0.00     0.067 A 
ATOM     25  C   UNL d   1       3.582  -5.174   3.598  0.00  0.00     0.094 A 
ATOM     26  C   UNL d   1       3.600  -4.839   4.968  0.00  0.00     0.039 A 
ATOM     27  C   UNL d   1       2.601  -4.060   5.546  0.00  0.00     0.003 A 
ATOM     28  C   UNL d   1       1.556  -3.607   4.761  0.00  0.00     0.002 A 
ATOM     29  C   UNL d   1       1.521  -3.934   3.404  0.00  0.00     0.032 A 
BRANCH  25  30
ATOM     30  O   UNL d   1       4.649  -5.964   3.260  0.00  0.00    -0.354 OA
ATOM     31  C   UNL d   1       5.068  -6.037   1.908  0.00  0.00     0.210 C 
ENDBRANCH  25  30
ENDBRANCH   7  24
TORSDOF 4
