REMARK  8 active torsions:
REMARK  status: ('A' for Active; 'I' for Inactive)
REMARK    1  A    between atoms: C_2  and  C_1 
REMARK    2  A    between atoms: C_3  and  C_1 
REMARK    3  A    between atoms: C_4  and  C_1 
REMARK    4  A    between atoms: O_13  and  C_1 
REMARK    5  A    between atoms: O_16  and  C_4 
REMARK    6  A    between atoms: O_17  and  C_6 
REMARK    7  A    between atoms: N_15  and  C_7 
REMARK    8  A    between atoms: C_18  and  O_16 
ROOT
ATOM      1  C   UNL d   1       0.968  -0.093   0.014  0.00  0.00     0.271 C 
ENDROOT
BRANCH   1   2
ATOM      2  C   UNL d   1       2.507  -0.177   0.220  0.00  0.00     0.432 C 
ATOM      3  F   UNL d   1       3.200   0.711  -0.533  0.00  0.00    -0.167 F 
ATOM      4  F   UNL d   1       2.914  -0.007   1.497  0.00  0.00    -0.167 F 
ATOM      5  F   UNL d   1       2.952  -1.407  -0.168  0.00  0.00    -0.167 F 
ENDBRANCH   1   2
BRANCH   1   6
ATOM      6  C   UNL d   1       0.545   1.024  -0.949  0.00  0.00    -0.002 A 
ATOM      7  C   UNL d   1       0.868   2.370  -0.705  0.00  0.00     0.049 A 
ATOM      8  C   UNL d   1       0.571   3.408  -1.617  0.00  0.00     0.089 A 
ATOM      9  C   UNL d   1      -0.110   3.107  -2.808  0.00  0.00     0.039 A 
ATOM     10  C   UNL d   1      -0.404   1.757  -3.065  0.00  0.00     0.027 A 
ATOM     11  C   UNL d   1      -0.112   0.743  -2.153  0.00  0.00     0.013 A 
BRANCH   8  12
ATOM     12  O   UNL d   1       1.039   4.603  -1.146  0.00  0.00    -0.354 OA
ATOM     13  C   UNL d   1       0.878   5.791  -1.897  0.00  0.00     0.210 C 
ENDBRANCH   8  12
BRANCH   9  14
ATOM     14  N   UNL d   1      -0.330   3.996  -3.874  0.00  0.00    -0.300 NA
ATOM     15  H   UNL d   1      -1.027   3.666  -4.533  0.00  0.00     0.124 HD
ATOM     16  H   UNL d   1      -0.534   4.946  -3.598  0.00  0.00     0.124 HD
ENDBRANCH   9  14
ENDBRANCH   1   6
BRANCH   1  17
ATOM     17  C   UNL d   1       0.411   0.091   1.436  0.00  0.00     0.308 C 
ATOM     18  O   UNL d   1       0.195   1.174   1.974  0.00  0.00    -0.261 OA
BRANCH  17  19
ATOM     19  O   UNL d   1       0.244  -1.108   2.064  0.00  0.00    -0.319 OA
BRANCH  19  20
ATOM     20  C   UNL d   1      -0.211  -1.042   3.428  0.00  0.00     0.174 C 
ATOM     21  C   UNL d   1       0.968  -0.819   4.357  0.00  0.00     0.034 C 
ENDBRANCH  19  20
ENDBRANCH  17  19
ENDBRANCH   1  17
BRANCH   1  22
ATOM     22  O   UNL d   1       0.442  -1.336  -0.540  0.00  0.00    -0.368 OA
ATOM     23  H   UNL d   1       1.148  -1.714  -1.097  0.00  0.00     0.212 HD
ENDBRANCH   1  22
TORSDOF 8
