REMARK  10 active torsions:
REMARK  status: ('A' for Active; 'I' for Inactive)
REMARK    1  A    between atoms: N_14  and  C_1 
REMARK    2  A    between atoms: C_19  and  N_2 
REMARK    3  A    between atoms: S_15  and  C_3 
REMARK    4  A    between atoms: C_17  and  C_8 
REMARK    5  A    between atoms: C_18  and  C_9 
REMARK    6  A    between atoms: O_22  and  C_10 
REMARK    7  A    between atoms: C_11  and  C_16 
REMARK    8  A    between atoms: C_23  and  N_14 
REMARK    9  A    between atoms: C_20  and  S_15 
REMARK   10  A    between atoms: C_16  and  C_20 
ROOT
ATOM      1  C   UNL d   1       8.467  -2.175   0.011  0.00  0.00     0.706 A 
ATOM      2  N   UNL d   1       7.167  -2.478   0.442  0.00  0.00    -0.123 N 
ATOM      3  C   UNL d   1       6.466  -1.300   0.183  0.00  0.00     0.183 A 
ATOM      4  N   UNL d   1       8.499  -0.934  -0.433  0.00  0.00    -0.129 N 
ATOM      5  HN  UNL d   1       9.323  -0.459  -0.802  1.00  0.00     0.205 HD
ATOM      6  N   UNL d   1       7.263  -0.390  -0.321  0.00  0.00    -0.265 N 
ATOM      7  HN  UNL d   1       7.000   0.559  -0.583  1.00  0.00     0.189 HD
ENDROOT
BRANCH   3   8
ATOM      8  S   UNL d   1       4.837  -0.943   0.670  0.00  0.00    -0.084 SA
BRANCH   8   9
ATOM      9  C   UNL d   1       4.933   0.833   1.016  0.00  0.00     0.166 C 
BRANCH   9  10
ATOM     10  C   UNL d   1       5.014   1.689  -0.233  0.00  0.00     0.169 C 
ATOM     11  O   UNL d   1       5.029   1.258  -1.384  0.00  0.00    -0.291 OA
BRANCH  10  12
ATOM     12  C   UNL d   1       5.024   3.167  -0.060  0.00  0.00     0.012 A 
ATOM     13  C   UNL d   1       5.798   3.935  -0.933  0.00  0.00     0.026 A 
ATOM     14  C   UNL d   1       5.724   5.339  -0.944  0.00  0.00    -0.016 A 
ATOM     15  C   UNL d   1       4.758   5.921  -0.086  0.00  0.00     0.079 A 
ATOM     16  C   UNL d   1       3.977   5.187   0.843  0.00  0.00    -0.016 A 
ATOM     17  C   UNL d   1       4.175   3.793   0.856  0.00  0.00     0.026 A 
BRANCH  14  18
ATOM     18  C   UNL d   1       6.617   6.140  -1.925  0.00  0.00    -0.021 C 
ATOM     19  C   UNL d   1       5.884   6.231  -3.276  0.00  0.00     0.019 C 
ATOM     20  C   UNL d   1       6.969   7.572  -1.449  0.00  0.00     0.019 C 
ATOM     21  C   UNL d   1       7.993   5.460  -2.162  0.00  0.00     0.019 C 
ENDBRANCH  14  18
BRANCH  15  22
ATOM     22  O   UNL d   1       4.532   7.257  -0.226  0.00  0.00    -0.360 OA
ATOM     23  H   UNL d   1       4.838   7.672   0.601  0.00  0.00     0.217 HD
ENDBRANCH  15  22
BRANCH  16  24
ATOM     24  C   UNL d   1       2.948   5.813   1.824  0.00  0.00    -0.021 C 
ATOM     25  C   UNL d   1       3.695   6.197   3.118  0.00  0.00     0.019 C 
ATOM     26  C   UNL d   1       2.217   7.066   1.287  0.00  0.00     0.019 C 
ATOM     27  C   UNL d   1       1.811   4.826   2.212  0.00  0.00     0.019 C 
ENDBRANCH  16  24
ENDBRANCH  10  12
ENDBRANCH   9  10
ENDBRANCH   8   9
ENDBRANCH   3   8
BRANCH   2  28
ATOM     28  C   UNL d   1       6.721  -3.645   1.143  0.00  0.00     0.059 A 
ATOM     29  C   UNL d   1       7.602  -4.345   1.982  0.00  0.00     0.030 A 
ATOM     30  C   UNL d   1       7.141  -5.406   2.767  0.00  0.00     0.002 A 
ATOM     31  C   UNL d   1       5.799  -5.774   2.733  0.00  0.00     0.000 A 
ATOM     32  C   UNL d   1       4.923  -5.109   1.882  0.00  0.00     0.002 A 
ATOM     33  C   UNL d   1       5.385  -4.066   1.075  0.00  0.00     0.030 A 
ENDBRANCH   2  28
BRANCH   1  34
ATOM     34  N   UNL d   1       9.508  -3.049   0.024  0.00  0.00    -0.190 N 
ATOM     35  H   UNL d   1       9.351  -4.036  -0.147  0.00  0.00     0.184 HD
BRANCH  34  36
ATOM     36  C   UNL d   1      10.860  -2.643   0.014  0.00  0.00     0.049 A 
ATOM     37  C   UNL d   1      11.259  -1.406   0.548  0.00  0.00     0.030 A 
ATOM     38  C   UNL d   1      12.579  -0.963   0.455  0.00  0.00     0.002 A 
ATOM     39  C   UNL d   1      13.529  -1.755  -0.180  0.00  0.00     0.000 A 
ATOM     40  C   UNL d   1      13.159  -2.991  -0.705  0.00  0.00     0.002 A 
ATOM     41  C   UNL d   1      11.833  -3.434  -0.603  0.00  0.00     0.030 A 
ENDBRANCH  34  36
ENDBRANCH   1  34
TORSDOF 10
