REMARK  6 active torsions:
REMARK  status: ('A' for Active; 'I' for Inactive)
REMARK       I    between atoms: N_5  and  C_1 
REMARK    1  A    between atoms: O_9  and  C_1 
REMARK    2  A    between atoms: N_2  and  N_5 
REMARK    3  A    between atoms: C_4  and  C_8 
REMARK    4  A    between atoms: O_10  and  C_7 
REMARK    5  A    between atoms: C_13  and  O_9 
REMARK    6  A    between atoms: C_14  and  O_10 
ROOT
ATOM      1  N   UNL d   1      -0.087  -2.177  -2.605  0.00  0.00    -0.307 N 
ATOM      2  HN  UNL d   1      -0.292  -2.321  -3.594  1.00  0.00     0.186 HD
ATOM      3  C   UNL d   1       0.690  -2.996  -1.966  0.00  0.00     0.121 C 
ENDROOT
BRANCH   3   4
ATOM      4  C   UNL d   1       1.236  -4.202  -2.637  0.00  0.00     0.014 A 
ATOM      5  C   UNL d   1       2.216  -4.997  -2.020  0.00  0.00     0.080 A 
ATOM      6  C   UNL d   1       2.653  -6.156  -2.677  0.00  0.00     0.037 A 
ATOM      7  C   UNL d   1       2.147  -6.503  -3.934  0.00  0.00     0.003 A 
ATOM      8  C   UNL d   1       1.189  -5.703  -4.546  0.00  0.00     0.001 A 
ATOM      9  C   UNL d   1       0.731  -4.558  -3.899  0.00  0.00     0.015 A 
BRANCH   5  10
ATOM     10  O   UNL d   1       2.688  -4.595  -0.795  0.00  0.00    -0.351 OA
BRANCH  10  11
ATOM     11  C   UNL d   1       3.920  -5.185  -0.365  0.00  0.00     0.171 C 
ATOM     12  C   UNL d   1       4.443  -4.416   0.830  0.00  0.00     0.034 C 
ENDBRANCH  10  11
ENDBRANCH   5  10
ENDBRANCH   3   4
BRANCH   1  13
ATOM     13  N   UNL d   1      -0.625  -1.120  -1.931  0.00  0.00    -0.246 N 
ATOM     14  C   UNL d   1      -0.083  -0.311  -0.956  0.00  0.00     0.379 C 
ATOM     15  O   UNL d   1      -0.776   0.532  -0.391  0.00  0.00    -0.237 OA
ATOM     16  H   UNL d   1      -1.516  -0.795  -2.286  0.00  0.00     0.192 HD
BRANCH  14  17
ATOM     17  O   UNL d   1       1.243  -0.499  -0.727  0.00  0.00    -0.303 OA
BRANCH  17  18
ATOM     18  C   UNL d   1       1.830   0.333   0.286  0.00  0.00     0.176 C 
ATOM     19  C   UNL d   1       2.141  -0.528   1.492  0.00  0.00     0.034 C 
ENDBRANCH  17  18
ENDBRANCH  14  17
ENDBRANCH   1  13
TORSDOF 6
