REMARK  3 active torsions:
REMARK  status: ('A' for Active; 'I' for Inactive)
REMARK    1  A    between atoms: C_15  and  N_3 
REMARK    2  A    between atoms: C_12  and  C_6 
REMARK    3  A    between atoms: N_9  and  C_13 
ROOT
ATOM      1  C   UNL d   1       0.217  -0.630  -0.005  0.00  0.00     0.186 A 
ATOM      2  C   UNL d   1       0.282   0.740   0.016  0.00  0.00     0.052 A 
ATOM      3  N   UNL d   1       1.522  -1.093   0.055  0.00  0.00    -0.233 N 
ATOM      4  N   UNL d   1       2.395  -0.044   0.152  0.00  0.00    -0.295 N 
ATOM      5  HN  UNL d   1       3.410  -0.095   0.238  1.00  0.00     0.187 HD
ATOM      6  C   UNL d   1      -0.943   1.458  -0.043  0.00  0.00    -0.004 A 
ATOM      7  C   UNL d   1       1.643   1.065   0.112  0.00  0.00     0.038 A 
ATOM      8  O   UNL d   1      -0.869  -1.386  -0.049  0.00  0.00    -0.255 OA
ATOM      9  C   UNL d   1      -2.068  -0.743  -0.078  0.00  0.00     0.290 A 
ATOM     10  C   UNL d   1      -2.086   0.743  -0.086  0.00  0.00     0.096 A 
ATOM     11  O   UNL d   1      -3.130  -1.357  -0.107  0.00  0.00    -0.260 OA
ATOM     12  C   UNL d   1       2.319   2.385   0.172  0.00  0.00     0.070 C 
ENDROOT
BRANCH   6  13
ATOM     13  C   UNL d   1      -1.071   2.922  -0.079  0.00  0.00    -0.025 A 
ATOM     14  C   UNL d   1      -1.185   3.652   1.113  0.00  0.00     0.014 A 
ATOM     15  C   UNL d   1      -1.234   5.049   1.081  0.00  0.00     0.037 A 
ATOM     16  C   UNL d   1      -1.176   5.714  -0.151  0.00  0.00     0.102 A 
ATOM     17  C   UNL d   1      -1.088   4.992  -1.349  0.00  0.00     0.037 A 
ATOM     18  C   UNL d   1      -1.036   3.597  -1.308  0.00  0.00     0.014 A 
BRANCH  16  19
ATOM     19  N   UNL d   1      -1.188   7.182  -0.187  0.00  0.00    -0.116 N 
ATOM     20  O   UNL d   1      -1.227   7.784   0.895  0.00  0.00    -0.532 OA
ATOM     21  O   UNL d   1      -1.150   7.731  -1.297  0.00  0.00    -0.532 OA
ENDBRANCH  16  19
ENDBRANCH   6  13
BRANCH   3  22
ATOM     22  C   UNL d   1       2.018  -2.431   0.033  0.00  0.00     0.059 A 
ATOM     23  C   UNL d   1       1.182  -3.529  -0.211  0.00  0.00     0.031 A 
ATOM     24  C   UNL d   1       1.705  -4.826  -0.216  0.00  0.00     0.002 A 
ATOM     25  C   UNL d   1       3.061  -5.040   0.024  0.00  0.00     0.000 A 
ATOM     26  C   UNL d   1       3.902  -3.956   0.259  0.00  0.00     0.002 A 
ATOM     27  C   UNL d   1       3.387  -2.657   0.258  0.00  0.00     0.031 A 
ENDBRANCH   3  22
TORSDOF 3
