REMARK  1 active torsions:
REMARK  status: ('A' for Active; 'I' for Inactive)
REMARK    1  A    between atoms: C_2  and  C_1 
REMARK       I    between atoms: N_6  and  C_1 
ROOT
ATOM      1  C   UNL d   1       0.276  -1.263  -0.486  0.00  0.00     0.043 A 
ATOM      2  C   UNL d   1      -0.864  -1.151  -1.287  0.00  0.00    -0.003 A 
ATOM      3  C   UNL d   1      -1.628  -2.324  -1.540  0.00  0.00    -0.042 A 
ATOM      4  C   UNL d   1      -1.512  -0.049  -2.001  0.00  0.00    -0.018 A 
ATOM      5  C   UNL d   1      -2.677  -0.539  -2.640  0.00  0.00    -0.043 A 
ATOM      6  C   UNL d   1      -2.852  -2.011  -2.374  0.00  0.00     0.078 A 
ATOM      7  C   UNL d   1       0.694  -2.549  -0.087  0.00  0.00     0.018 A 
ATOM      8  C   UNL d   1      -1.257  -3.580  -1.081  0.00  0.00     0.008 A 
ATOM      9  C   UNL d   1      -1.152   1.273  -2.205  0.00  0.00     0.013 A 
ATOM     10  C   UNL d   1      -3.493   0.259  -3.431  0.00  0.00     0.008 A 
ATOM     11  C   UNL d   1      -0.070  -3.691  -0.366  0.00  0.00     0.002 A 
ATOM     12  C   UNL d   1      -1.954   2.087  -3.021  0.00  0.00     0.001 A 
ATOM     13  C   UNL d   1      -3.119   1.587  -3.624  0.00  0.00     0.001 A 
ENDROOT
BRANCH   1  14
ATOM     14  C   UNL d   1       1.109  -0.105  -0.075  0.00  0.00     0.254 C 
ATOM     15  N   UNL d   1       1.308   0.164   1.286  0.00  0.00    -0.348 N 
ATOM     16  C   UNL d   1       2.128   1.312   1.667  0.00  0.00     0.126 C 
ATOM     17  C   UNL d   1       0.903  -0.666   2.427  0.00  0.00     0.126 C 
ATOM     18  C   UNL d   1       3.402   0.853   2.376  0.00  0.00     0.020 C 
ATOM     19  C   UNL d   1       3.088  -0.080   3.547  0.00  0.00     0.003 C 
ATOM     20  C   UNL d   1       2.147  -1.214   3.128  0.00  0.00     0.020 C 
ATOM     21  O   UNL d   1       1.627   0.568  -0.963  0.00  0.00    -0.267 OA
ENDBRANCH   1  14
TORSDOF 1
