REMARK  5 active torsions:
REMARK  status: ('A' for Active; 'I' for Inactive)
REMARK       I    between atoms: C_2  and  N_5 
REMARK    1  A    between atoms: C_4  and  C_2 
REMARK    2  A    between atoms: N_5  and  C_6 
REMARK    3  A    between atoms: C_10  and  C_6 
REMARK    4  A    between atoms: C_11  and  C_6 
REMARK    5  A    between atoms: C_9  and  C_7 
ROOT
ATOM      1  C   UNL d   1       3.705   0.353  -0.850  0.00  0.00    -0.086 C 
ATOM      2  C   UNL d   1       4.591   0.647  -1.606  0.00  0.00     0.015 C 
ATOM      3  C   UNL d   1       2.625  -0.004   0.113  0.00  0.00     0.095 C 
ENDROOT
BRANCH   3   4
ATOM      4  N   UNL d   1       3.003  -1.290   0.715  0.00  0.00    -0.338 N 
ATOM      5  C   UNL d   1       2.387  -1.853   1.802  0.00  0.00     0.242 C 
ATOM      6  O   UNL d   1       1.485  -1.321   2.439  0.00  0.00    -0.269 OA
ATOM      7  H   UNL d   1       3.692  -1.834   0.214  0.00  0.00     0.164 HD
BRANCH   5   8
ATOM      8  C   UNL d   1       2.917  -3.198   2.170  0.00  0.00     0.075 C 
ATOM      9  C   UNL d   1       2.625  -3.677   3.390  0.00  0.00     0.017 C 
BRANCH   9  10
ATOM     10  C   UNL d   1       2.955  -5.004   3.936  0.00  0.00    -0.036 A 
ATOM     11  C   UNL d   1       3.131  -5.127   5.323  0.00  0.00     0.011 A 
ATOM     12  C   UNL d   1       3.290  -6.380   5.920  0.00  0.00     0.001 A 
ATOM     13  C   UNL d   1       3.272  -7.530   5.136  0.00  0.00     0.000 A 
ATOM     14  C   UNL d   1       3.113  -7.423   3.755  0.00  0.00     0.001 A 
ATOM     15  C   UNL d   1       2.956  -6.167   3.157  0.00  0.00     0.011 A 
ENDBRANCH   9  10
ENDBRANCH   5   8
ENDBRANCH   3   4
BRANCH   3  16
ATOM     16  C   UNL d   1       2.490   1.157   1.146  0.00  0.00     0.040 C 
ATOM     17  C   UNL d   1       3.711   1.396   2.027  0.00  0.00     0.009 C 
ENDBRANCH   3  16
BRANCH   3  18
ATOM     18  C   UNL d   1       1.269  -0.106  -0.645  0.00  0.00     0.040 C 
ATOM     19  C   UNL d   1       1.209  -1.153  -1.753  0.00  0.00     0.009 C 
ENDBRANCH   3  18
TORSDOF 5
