REMARK  3 active torsions:
REMARK  status: ('A' for Active; 'I' for Inactive)
REMARK    1  A    between atoms: C_2  and  C_1 
REMARK       I    between atoms: N_7  and  C_2 
REMARK    2  A    between atoms: N_5  and  N_7 
REMARK    3  A    between atoms: C_10  and  C_9 
ROOT
ATOM      1  N   UNL d   1      -1.521   0.039  -2.386  0.00  0.00    -0.312 N 
ATOM      2  HN  UNL d   1      -1.621  -0.496  -1.523  1.00  0.00     0.185 HD
ATOM      3  C   UNL d   1      -2.060  -0.347  -3.496  0.00  0.00     0.088 C 
ENDROOT
BRANCH   1   4
ATOM      4  N   UNL d   1      -0.812   1.198  -2.433  0.00  0.00    -0.270 N 
ATOM      5  C   UNL d   1      -0.188   1.716  -1.315  0.00  0.00     0.240 C 
ATOM      6  O   UNL d   1       0.469   2.752  -1.372  0.00  0.00    -0.271 OA
ATOM      7  H   UNL d   1      -0.692   1.707  -3.299  0.00  0.00     0.190 HD
BRANCH   5   8
ATOM      8  C   UNL d   1      -0.379   0.984  -0.027  0.00  0.00     0.080 A 
ATOM      9  C   UNL d   1      -1.012   1.705   1.141  0.00  0.00     0.015 A 
ATOM     10  C   UNL d   1       0.437   1.318   1.199  0.00  0.00     0.015 A 
ENDBRANCH   5   8
ENDBRANCH   1   4
BRANCH   3  11
ATOM     11  C   UNL d   1      -2.835  -1.657  -3.544  0.00  0.00    -0.018 C 
ATOM     12  C   UNL d   1      -3.986  -1.604  -2.533  0.00  0.00     0.020 C 
ATOM     13  C   UNL d   1      -3.396  -1.866  -4.954  0.00  0.00     0.020 C 
ATOM     14  C   UNL d   1      -1.875  -2.802  -3.195  0.00  0.00     0.020 C 
ENDBRANCH   3  11
TORSDOF 3
