REMARK  1 active torsions:
REMARK  status: ('A' for Active; 'I' for Inactive)
REMARK    1  A    between atoms: C_9  and  C_7 
ROOT
ATOM      1  C   UNL d   1       0.667  -0.928   0.568  0.00  0.00     0.111 A 
ATOM      2  N   UNL d   1       0.671   0.444   0.527  0.00  0.00    -0.335 N 
ATOM      3  HN  UNL d   1       1.383   1.069   0.148  1.00  0.00     0.168 HD
ATOM      4  C   UNL d   1      -0.572  -1.416   1.250  0.00  0.00     0.316 A 
ATOM      5  O   UNL d   1      -1.233  -0.256   1.535  0.00  0.00    -0.261 OA
ATOM      6  C   UNL d   1      -0.452   0.748   1.089  0.00  0.00     0.124 A 
ATOM      7  C   UNL d   1       1.632  -1.692   0.036  0.00  0.00     0.047 C 
ATOM      8  O   UNL d   1      -0.953  -2.536   1.517  0.00  0.00    -0.257 OA
ATOM      9  C   UNL d   1      -0.997   2.112   1.297  0.00  0.00     0.098 C 
ENDROOT
BRANCH   7  10
ATOM     10  C   UNL d   1       1.604  -3.153  -0.006  0.00  0.00    -0.033 A 
ATOM     11  C   UNL d   1       1.008  -3.804  -1.093  0.00  0.00     0.018 A 
ATOM     12  C   UNL d   1       0.882  -5.203  -1.119  0.00  0.00    -0.055 A 
ATOM     13  C   UNL d   1       0.158  -5.852  -2.266  0.00  0.00     0.049 C 
ATOM     14  C   UNL d   1       1.400  -5.961  -0.050  0.00  0.00    -0.056 A 
ATOM     15  C   UNL d   1       2.019  -5.301   1.023  0.00  0.00     0.008 A 
ATOM     16  C   UNL d   1       1.281  -7.461  -0.025  0.00  0.00     0.049 C 
ATOM     17  C   UNL d   1       2.117  -3.908   1.048  0.00  0.00     0.012 A 
ENDBRANCH   7  10
TORSDOF 1
