REMARK  1 active torsions:
REMARK  status: ('A' for Active; 'I' for Inactive)
REMARK    1  A    between atoms: N_5  and  N_1 
REMARK       I    between atoms: C_7  and  N_5 
ROOT
ATOM      1  N   UNL d   1       0.548  -1.066  -0.154  0.00  0.00    -0.203 N 
ATOM      2  C   UNL d   1      -0.616  -0.421   0.190  0.00  0.00     0.163 C 
ATOM      3  C   UNL d   1       1.705  -0.321  -0.322  0.00  0.00     0.254 C 
ATOM      4  S   UNL d   1      -0.289   1.284   0.430  0.00  0.00    -0.089 SA
ATOM      5  C   UNL d   1       1.485   1.107   0.103  0.00  0.00     0.186 C 
ATOM      6  S   UNL d   1      -2.140  -1.091   0.310  0.00  0.00    -0.051 SA
ATOM      7  O   UNL d   1       2.765  -0.723  -0.791  0.00  0.00    -0.270 OA
ENDROOT
BRANCH   1   8
ATOM      8  N   UNL d   1       0.581  -2.444  -0.422  0.00  0.00    -0.259 N 
ATOM      9  C   UNL d   1       1.154  -3.270   0.526  0.00  0.00     0.232 C 
ATOM     10  O   UNL d   1       1.726  -2.870   1.534  0.00  0.00    -0.272 OA
ATOM     11  C   UNL d   1       1.040  -4.732   0.182  0.00  0.00     0.119 C 
ATOM     12  H   UNL d   1      -0.111  -2.796  -1.074  0.00  0.00     0.190 HD
ENDBRANCH   1   8
TORSDOF 1
