REMARK  5 active torsions:
REMARK  status: ('A' for Active; 'I' for Inactive)
REMARK    1  A    between atoms: C_2  and  S_1 
REMARK    2  A    between atoms: N_3  and  S_1 
REMARK    3  A    between atoms: C_13  and  N_3 
REMARK    4  A    between atoms: C_17  and  C_13 
REMARK    5  A    between atoms: C_14  and  C_17 
ROOT
ATOM      1  N   UNL d   1      -2.889  -2.317   2.463  0.00  0.00    -0.197 NA
ATOM      2  C   UNL d   1      -2.380  -1.359   2.878  0.00  0.00     0.059 C 
ATOM      3  C   UNL d   1      -1.720  -0.162   3.402  0.00  0.00     0.125 C 
ENDROOT
BRANCH   3   4
ATOM      4  C   UNL d   1      -0.240  -0.412   3.699  0.00  0.00     0.030 C 
BRANCH   4   5
ATOM      5  C   UNL d   1       0.602  -0.752   2.461  0.00  0.00     0.108 C 
BRANCH   5   6
ATOM      6  N   UNL d   1       0.427   0.252   1.369  0.00  0.00    -0.211 NA
ATOM      7  C   UNL d   1       0.815   1.631   1.789  0.00  0.00     0.129 C 
BRANCH   6   8
ATOM      8  S   UNL d   1       1.228  -0.158  -0.111  0.00  0.00     0.243 S 
ATOM      9  O   UNL d   1       0.792   0.785  -1.120  0.00  0.00    -0.206 OA
ATOM     10  O   UNL d   1       2.632  -0.304   0.216  0.00  0.00    -0.206 OA
BRANCH   8  11
ATOM     11  C   UNL d   1       0.594  -1.748  -0.562  0.00  0.00     0.074 A 
ATOM     12  C   UNL d   1      -0.779  -1.925  -0.741  0.00  0.00     0.025 A 
ATOM     13  C   UNL d   1      -1.263  -3.178  -1.125  0.00  0.00     0.008 A 
ATOM     14  C   UNL d   1      -0.382  -4.249  -1.342  0.00  0.00    -0.062 A 
ATOM     15  C   UNL d   1       0.993  -4.054  -1.159  0.00  0.00     0.008 A 
ATOM     16  C   UNL d   1      -0.914  -5.580  -1.786  0.00  0.00     0.048 C 
ATOM     17  C   UNL d   1       1.483  -2.808  -0.768  0.00  0.00     0.025 A 
ENDBRANCH   8  11
ENDBRANCH   6   8
ENDBRANCH   5   6
ENDBRANCH   4   5
ENDBRANCH   3   4
TORSDOF 5
