REMARK  7 active torsions:
REMARK  status: ('A' for Active; 'I' for Inactive)
REMARK    1  A    between atoms: C_2  and  S_1 
REMARK    2  A    between atoms: N_4  and  S_1 
REMARK    3  A    between atoms: C_8  and  N_4 
REMARK    4  A    between atoms: C_22  and  N_4 
REMARK    5  A    between atoms: C_15  and  C_5 
REMARK    6  A    between atoms: C_10  and  C_8 
REMARK    7  A    between atoms: C_21  and  C_22 
ROOT
ATOM      1  N   UNL d   1      -3.035  -0.077   1.115  0.00  0.00    -0.197 NA
ATOM      2  C   UNL d   1      -2.008   0.228   1.562  0.00  0.00     0.060 C 
ATOM      3  C   UNL d   1      -0.722   0.637   2.138  0.00  0.00     0.139 C 
ENDROOT
BRANCH   3   4
ATOM      4  C   UNL d   1       0.304  -0.502   2.151  0.00  0.00     0.122 C 
BRANCH   4   5
ATOM      5  N   UNL d   1       0.524  -1.164   0.820  0.00  0.00    -0.200 NA
BRANCH   5   6
ATOM      6  S   UNL d   1       1.377  -0.203  -0.343  0.00  0.00     0.250 S 
ATOM      7  O   UNL d   1       1.111   1.193  -0.081  0.00  0.00    -0.205 OA
ATOM      8  O   UNL d   1       2.736  -0.698  -0.420  0.00  0.00    -0.205 OA
BRANCH   6   9
ATOM      9  C   UNL d   1       0.674  -0.569  -1.944  0.00  0.00     0.116 A 
ATOM     10  S   UNL d   1      -0.220   0.674  -2.711  0.00  0.00    -0.075 SA
ATOM     11  C   UNL d   1      -0.514  -0.272  -4.111  0.00  0.00     0.033 A 
ATOM     12  C   UNL d   1       0.058  -1.526  -3.973  0.00  0.00     0.023 A 
ATOM     13  C   UNL d   1       0.729  -1.700  -2.733  0.00  0.00     0.034 A 
BRANCH  11  14
ATOM     14  C   UNL d   1      -1.259   0.247  -5.268  0.00  0.00     0.049 A 
ATOM     15  N   UNL d   1      -0.928  -0.355  -6.440  0.00  0.00    -0.365 N 
ATOM     16  C   UNL d   1      -1.605   0.018  -7.547  0.00  0.00     0.088 A 
ATOM     17  HN  UNL d   1      -0.194  -1.062  -6.482  1.00  0.00     0.165 HD
ATOM     18  C   UNL d   1      -2.619   0.958  -7.548  0.00  0.00     0.017 A 
ATOM     19  C   UNL d   1      -2.947   1.567  -6.343  0.00  0.00     0.004 A 
ATOM     20  C   UNL d   1      -2.255   1.215  -5.184  0.00  0.00     0.031 A 
ENDBRANCH  11  14
ENDBRANCH   6   9
ENDBRANCH   5   6
BRANCH   5  21
ATOM     21  C   UNL d   1       1.154  -2.523   0.928  0.00  0.00     0.153 C 
BRANCH  21  22
ATOM     22  C   UNL d   1       0.383  -3.483   1.791  0.00  0.00    -0.004 A 
ATOM     23  S   UNL d   1       1.212  -4.334   3.035  0.00  0.00    -0.105 SA
ATOM     24  C   UNL d   1      -0.188  -5.210   3.467  0.00  0.00     0.050 A 
ATOM     25  C   UNL d   1      -1.270  -4.859   2.692  0.00  0.00     0.008 A 
ATOM     26  C   UNL d   1      -0.943  -3.865   1.727  0.00  0.00     0.016 A 
ENDBRANCH  21  22
ENDBRANCH   5  21
ENDBRANCH   4   5
ENDBRANCH   3   4
TORSDOF 7
