REMARK  3 active torsions:
REMARK  status: ('A' for Active; 'I' for Inactive)
REMARK    1  A    between atoms: S_12  and  C_6 
REMARK    2  A    between atoms: C_14  and  S_12 
REMARK    3  A    between atoms: C_16  and  C_14 
ROOT
ATOM      1  C   UNL d   1       0.243  -0.796   0.095  0.00  0.00     0.075 A 
ATOM      2  N   UNL d   1       2.303   0.173   0.217  0.00  0.00    -0.263 N 
ATOM      3  HN  UNL d   1       3.311   0.310   0.282  1.00  0.00     0.194 HD
ATOM      4  C   UNL d   1       0.096   0.576   0.067  0.00  0.00     0.186 A 
ATOM      5  O   UNL d   1       1.327   1.155   0.140  0.00  0.00    -0.218 OA
ATOM      6  C   UNL d   1      -0.934  -1.534   0.028  0.00  0.00     0.087 A 
ATOM      7  C   UNL d   1       1.645  -0.995   0.189  0.00  0.00     0.046 A 
ATOM      8  N   UNL d   1      -1.050   1.269  -0.017  0.00  0.00    -0.330 N 
ATOM      9  HN  UNL d   1      -1.106   2.287  -0.034  1.00  0.00     0.168 HD
ATOM     10  N   UNL d   1      -2.121  -0.892  -0.058  0.00  0.00    -0.346 N 
ATOM     11  HN  UNL d   1      -2.997  -1.412  -0.108  1.00  0.00     0.167 HD
ATOM     12  C   UNL d   1      -2.111   0.456  -0.076  0.00  0.00     0.183 A 
ATOM     13  C   UNL d   1       2.403  -2.268   0.252  0.00  0.00     0.071 C 
ENDROOT
BRANCH   6  14
ATOM     14  S   UNL d   1      -0.852  -3.295   0.062  0.00  0.00    -0.107 SA
BRANCH  14  15
ATOM     15  C   UNL d   1      -2.614  -3.752  -0.015  0.00  0.00     0.119 C 
BRANCH  15  16
ATOM     16  C   UNL d   1      -2.743  -5.256   0.080  0.00  0.00    -0.048 A 
ATOM     17  C   UNL d   1      -2.858  -5.881   1.332  0.00  0.00     0.009 A 
ATOM     18  C   UNL d   1      -2.894  -7.274   1.428  0.00  0.00     0.024 A 
ATOM     19  C   UNL d   1      -2.811  -8.050   0.274  0.00  0.00     0.034 A 
ATOM     20  C   UNL d   1      -2.698  -7.446  -0.976  0.00  0.00     0.024 A 
ATOM     21 CL   UNL d   1      -2.833  -9.766   0.396  0.00  0.00    -0.084 Cl
ATOM     22  C   UNL d   1      -2.664  -6.053  -1.074  0.00  0.00     0.009 A 
ENDBRANCH  15  16
ENDBRANCH  14  15
ENDBRANCH   6  14
TORSDOF 3
