REMARK  6 active torsions:
REMARK  status: ('A' for Active; 'I' for Inactive)
REMARK    1  A    between atoms: S_2  and  N_1 
REMARK    2  A    between atoms: C_8  and  S_2 
REMARK    3  A    between atoms: C_6  and  C_4 
REMARK    4  A    between atoms: O_13  and  C_6 
REMARK    5  A    between atoms: C_14  and  C_8 
REMARK    6  A    between atoms: C_15  and  O_13 
ROOT
ATOM      1  N   UNL d   1       0.013  -1.145   0.066  0.00  0.00    -0.244 N 
ATOM      2  C   UNL d   1       0.791   0.020  -0.004  0.00  0.00     0.247 C 
ATOM      3  C   UNL d   1      -0.138   1.188   0.134  0.00  0.00     0.180 C 
ATOM      4  C   UNL d   1      -1.431  -0.878   0.003  0.00  0.00     0.145 C 
ATOM      5  C   UNL d   1      -1.477   0.616  -0.340  0.00  0.00     0.045 C 
ATOM      6  O   UNL d   1       2.008   0.065  -0.043  0.00  0.00    -0.271 OA
ENDROOT
BRANCH   1   7
ATOM      7  S   UNL d   1       0.555  -2.720  -0.090  0.00  0.00     0.239 S 
ATOM      8  O   UNL d   1      -0.411  -3.539   0.619  0.00  0.00    -0.205 OA
ATOM      9  O   UNL d   1       0.813  -2.940  -1.497  0.00  0.00    -0.205 OA
BRANCH   7  10
ATOM     10  C   UNL d   1       2.092  -2.711   0.848  0.00  0.00     0.202 C 
BRANCH  10  11
ATOM     11  C   UNL d   1       2.718  -4.079   0.982  0.00  0.00    -0.043 A 
ATOM     12  C   UNL d   1       3.139  -4.809  -0.140  0.00  0.00     0.008 A 
ATOM     13  C   UNL d   1       3.875  -5.987   0.013  0.00  0.00     0.001 A 
ATOM     14  C   UNL d   1       4.210  -6.444   1.285  0.00  0.00     0.000 A 
ATOM     15  C   UNL d   1       3.796  -5.734   2.408  0.00  0.00     0.001 A 
ATOM     16  C   UNL d   1       3.053  -4.561   2.258  0.00  0.00     0.008 A 
ENDBRANCH  10  11
ENDBRANCH   7  10
ENDBRANCH   1   7
BRANCH   3  17
ATOM     17  C   UNL d   1       0.341   2.360  -0.663  0.00  0.00     0.272 C 
ATOM     18  O   UNL d   1       0.479   2.371  -1.876  0.00  0.00    -0.264 OA
BRANCH  17  19
ATOM     19  O   UNL d   1       0.657   3.380   0.183  0.00  0.00    -0.321 OA
BRANCH  19  20
ATOM     20  C   UNL d   1       1.509   4.399  -0.359  0.00  0.00     0.174 C 
ATOM     21  C   UNL d   1       2.949   3.980  -0.127  0.00  0.00     0.034 C 
ENDBRANCH  19  20
ENDBRANCH  17  19
ENDBRANCH   3  17
TORSDOF 6
