REMARK  4 active torsions:
REMARK  status: ('A' for Active; 'I' for Inactive)
REMARK    1  A    between atoms: C_3  and  C_1 
REMARK    2  A    between atoms: C_12  and  C_2 
REMARK    3  A    between atoms: C_19  and  C_8 
REMARK    4  A    between atoms: O_21  and  C_12 
ROOT
ATOM      1  C   UNL d   1       2.949   1.164  -1.561  0.00  0.00     0.052 C 
ATOM      2  C   UNL d   1       2.280   1.763  -0.308  0.00  0.00     0.102 C 
ATOM      3  C   UNL d   1       3.265   2.024   0.829  0.00  0.00     0.024 C 
ATOM      4  C   UNL d   1       4.547   1.620   0.752  0.00  0.00     0.021 C 
ATOM      5  C   UNL d   1       4.245   0.770  -1.527  0.00  0.00     0.018 C 
ATOM      6  N   UNL d   1       4.981   0.925  -0.364  0.00  0.00    -0.362 N 
ATOM      7  C   UNL d   1       2.873   2.973   1.910  0.00  0.00     0.159 C 
ATOM      8  C   UNL d   1       5.608   1.963   1.769  0.00  0.00     0.067 C 
ATOM      9  C   UNL d   1       5.082   2.541   3.096  0.00  0.00    -0.036 C 
ATOM     10  C   UNL d   1       3.957   3.543   2.806  0.00  0.00     0.092 C 
ATOM     11  O   UNL d   1       1.717   3.379   1.999  0.00  0.00    -0.293 OA
ATOM     12  C   UNL d   1       5.026   0.182  -2.674  0.00  0.00     0.069 C 
ATOM     13  C   UNL d   1       6.241   3.260   3.816  0.00  0.00     0.015 C 
ATOM     14  C   UNL d   1       4.569   1.419   4.019  0.00  0.00     0.015 C 
ATOM     15  H   UNL d   1       5.973   0.700  -0.411  0.00  0.00     0.165 HD
ENDROOT
BRANCH   2  16
ATOM     16  C   UNL d   1       1.084   0.916   0.076  0.00  0.00     0.001 A 
ATOM     17  C   UNL d   1      -0.304   1.294   0.225  0.00  0.00     0.067 A 
ATOM     18  N   UNL d   1      -1.062   0.197   0.428  0.00  0.00    -0.300 N 
ATOM     19  N   UNL d   1      -0.213  -0.831   0.388  0.00  0.00    -0.311 N 
ATOM     20  HN  UNL d   1      -2.070   0.161   0.581  1.00  0.00     0.187 HD
ATOM     21  C   UNL d   1       1.083  -0.461   0.231  0.00  0.00     0.117 A 
ATOM     22  H   UNL d   1      -0.594  -1.770   0.452  0.00  0.00     0.186 HD
BRANCH  17  23
ATOM     23  C   UNL d   1      -0.959   2.615   0.166  0.00  0.00    -0.007 A 
ATOM     24  C   UNL d   1      -0.492   3.664  -0.635  0.00  0.00     0.014 A 
ATOM     25  C   UNL d   1      -1.103   4.919  -0.641  0.00  0.00     0.001 A 
ATOM     26  C   UNL d   1      -2.232   5.141   0.136  0.00  0.00     0.000 A 
ATOM     27  C   UNL d   1      -2.748   4.104   0.908  0.00  0.00     0.001 A 
ATOM     28  C   UNL d   1      -2.117   2.854   0.924  0.00  0.00     0.014 A 
ENDBRANCH  17  23
ENDBRANCH   2  16
BRANCH   1  29
ATOM     29  C   UNL d   1       2.079   0.975  -2.757  0.00  0.00     0.291 C 
ATOM     30  O   UNL d   1       2.166   0.042  -3.545  0.00  0.00    -0.260 OA
BRANCH  29  31
ATOM     31  O   UNL d   1       1.153   1.961  -2.826  0.00  0.00    -0.323 OA
ATOM     32  C   UNL d   1       0.142   1.771  -3.819  0.00  0.00     0.213 C 
ENDBRANCH  29  31
ENDBRANCH   1  29
TORSDOF 4
