REMARK  10 active torsions:
REMARK  status: ('A' for Active; 'I' for Inactive)
REMARK    1  A    between atoms: O_14  and  C_1 
REMARK    2  A    between atoms: C_2  and  C_5 
REMARK    3  A    between atoms: O_10  and  N_3 
REMARK    4  A    between atoms: C_5  and  O_10 
REMARK    5  A    between atoms: C_6  and  C_18 
REMARK    6  A    between atoms: C_7  and  C_12 
REMARK    7  A    between atoms: N_27  and  C_7 
REMARK    8  A    between atoms: O_17  and  C_11 
REMARK    9  A    between atoms: C_28  and  O_14 
REMARK   10  A    between atoms: C_18  and  O_17 
ROOT
ATOM      1  N   UNL d   1       0.948   3.256   6.812  0.00  0.00    -0.246 N 
ATOM      2  HN  UNL d   1       1.216   3.692   7.694  1.00  0.00     0.196 HD
ATOM      3  C   UNL d   1       1.792   2.767   5.950  0.00  0.00     0.109 C 
ENDROOT
BRANCH   1   4
ATOM      4  O   UNL d   1      -0.381   3.106   6.374  0.00  0.00    -0.193 OA
BRANCH   4   5
ATOM      5  C   UNL d   1      -1.221   3.686   7.277  0.00  0.00     0.316 C 
ATOM      6  O   UNL d   1      -1.015   4.686   7.950  0.00  0.00    -0.257 OA
BRANCH   5   7
ATOM      7  C   UNL d   1      -2.472   2.900   7.374  0.00  0.00     0.057 A 
ATOM      8  C   UNL d   1      -2.646   1.675   6.743  0.00  0.00     0.107 A 
ATOM      9  N   UNL d   1      -3.769   0.918   6.859  0.00  0.00    -0.346 N 
ATOM     10  C   UNL d   1      -4.756   1.382   7.652  0.00  0.00     0.142 A 
ATOM     11  HN  UNL d   1      -3.862   0.031   6.365  1.00  0.00     0.167 HD
ATOM     12  C   UNL d   1      -4.672   2.595   8.323  0.00  0.00     0.057 A 
ATOM     13  C   UNL d   1      -3.513   3.360   8.182  0.00  0.00     0.023 A 
BRANCH  10  14
ATOM     14  O   UNL d   1      -5.872   0.594   7.663  0.00  0.00    -0.327 OA
BRANCH  14  15
ATOM     15  C   UNL d   1      -6.460   0.411   8.956  0.00  0.00     0.294 C 
BRANCH  15  16
ATOM     16  C   UNL d   1      -7.545  -0.663   8.926  0.00  0.00     0.408 C 
ATOM     17  F   UNL d   1      -7.527  -1.410   7.803  0.00  0.00    -0.169 F 
ATOM     18  F   UNL d   1      -7.409  -1.508   9.977  0.00  0.00    -0.169 F 
ATOM     19  F   UNL d   1      -8.775  -0.103   9.025  0.00  0.00    -0.169 F 
ENDBRANCH  15  16
ENDBRANCH  14  15
ENDBRANCH  10  14
ENDBRANCH   5   7
ENDBRANCH   4   5
ENDBRANCH   1   4
BRANCH   3  20
ATOM     20  C   UNL d   1       3.231   2.680   6.352  0.00  0.00     0.004 A 
ATOM     21  C   UNL d   1       4.087   1.752   5.746  0.00  0.00     0.017 A 
ATOM     22  C   UNL d   1       5.413   1.618   6.177  0.00  0.00     0.038 A 
ATOM     23  C   UNL d   1       5.880   2.388   7.244  0.00  0.00     0.078 A 
ATOM     24  C   UNL d   1       5.036   3.340   7.819  0.00  0.00     0.038 A 
ATOM     25  C   UNL d   1       3.714   3.484   7.386  0.00  0.00     0.017 A 
BRANCH  23  26
ATOM     26  O   UNL d   1       7.122   2.325   7.799  0.00  0.00    -0.255 OA
BRANCH  26  27
ATOM     27  C   UNL d   1       7.850   1.109   7.752  0.00  0.00     0.530 C 
ATOM     28  F   UNL d   1       7.087   0.023   7.496  0.00  0.00    -0.144 F 
ATOM     29  F   UNL d   1       8.441   0.917   8.953  0.00  0.00    -0.144 F 
ATOM     30  F   UNL d   1       8.818   1.194   6.815  0.00  0.00    -0.144 F 
ENDBRANCH  26  27
ENDBRANCH  23  26
ENDBRANCH   3  20
BRANCH   3  31
ATOM     31  N   UNL d   1       1.419   2.321   4.699  0.00  0.00    -0.286 NA
ATOM     32  H   UNL d   1       0.508   2.676   4.427  0.00  0.00     0.125 HD
ATOM     33  H   UNL d   1       2.107   2.472   3.968  0.00  0.00     0.125 HD
ENDBRANCH   3  31
TORSDOF 10
