REMARK  10 active torsions:
REMARK  status: ('A' for Active; 'I' for Inactive)
REMARK       I    between atoms: C_3  and  N_6 
REMARK       I    between atoms: N_15  and  C_3 
REMARK    1  A    between atoms: C_9  and  C_4 
REMARK    2  A    between atoms: C_8  and  C_5 
REMARK    3  A    between atoms: N_6  and  C_13 
REMARK    4  A    between atoms: S_10  and  C_7 
REMARK    5  A    between atoms: O_20  and  C_8 
REMARK    6  A    between atoms: O_19  and  C_9 
REMARK    7  A    between atoms: C_14  and  S_10 
REMARK    8  A    between atoms: C_21  and  N_15 
REMARK    9  A    between atoms: C_25  and  O_19 
REMARK   10  A    between atoms: C_24  and  O_20 
ROOT
ATOM      1  C   UNL d   1       4.806   1.547   2.390  0.00  0.00     0.053 A 
ATOM      2  C   UNL d   1       3.522   1.676   1.802  0.00  0.00     0.032 A 
ATOM      3  C   UNL d   1       5.731   2.599   2.255  0.00  0.00     0.031 A 
ATOM      4  C   UNL d   1       3.204   2.863   1.124  0.00  0.00     0.021 A 
ATOM      5  C   UNL d   1       4.139   3.896   1.006  0.00  0.00     0.002 A 
ATOM      6  C   UNL d   1       5.400   3.763   1.571  0.00  0.00     0.002 A 
ENDROOT
BRANCH   2   7
ATOM      7  S   UNL d   1       2.218   0.502   2.151  0.00  0.00    -0.088 SA
BRANCH   7   8
ATOM      8  C   UNL d   1       1.692  -0.312   0.649  0.00  0.00     0.010 A 
ATOM      9  C   UNL d   1       1.577   0.265  -0.617  0.00  0.00     0.054 A 
ATOM     10  C   UNL d   1       0.953  -0.471  -1.633  0.00  0.00     0.110 A 
ATOM     11  N   UNL d   1       0.483  -1.732  -1.466  0.00  0.00    -0.346 N 
ATOM     12  C   UNL d   1       0.608  -2.281  -0.237  0.00  0.00     0.110 A 
ATOM     13  HN  UNL d   1       0.054  -2.246  -2.235  1.00  0.00     0.166 HD
ATOM     14  C   UNL d   1       1.194  -1.610   0.828  0.00  0.00     0.054 A 
BRANCH  10  15
ATOM     15  C   UNL d   1       0.656   0.182  -2.950  0.00  0.00     0.310 C 
ATOM     16  O   UNL d   1       0.956   1.337  -3.220  0.00  0.00    -0.258 OA
BRANCH  15  17
ATOM     17  O   UNL d   1      -0.057  -0.672  -3.732  0.00  0.00    -0.317 OA
BRANCH  17  18
ATOM     18  C   UNL d   1      -0.659  -0.143  -4.922  0.00  0.00     0.175 C 
ATOM     19  C   UNL d   1      -2.089   0.260  -4.612  0.00  0.00     0.034 C 
ENDBRANCH  17  18
ENDBRANCH  15  17
ENDBRANCH  10  15
BRANCH  12  20
ATOM     20  C   UNL d   1       0.053  -3.651  -0.013  0.00  0.00     0.310 C 
ATOM     21  O   UNL d   1       0.037  -4.189   1.084  0.00  0.00    -0.258 OA
BRANCH  20  22
ATOM     22  O   UNL d   1      -0.386  -4.200  -1.175  0.00  0.00    -0.317 OA
BRANCH  22  23
ATOM     23  C   UNL d   1      -0.802  -5.572  -1.106  0.00  0.00     0.175 C 
ATOM     24  C   UNL d   1      -2.297  -5.670  -0.872  0.00  0.00     0.034 C 
ENDBRANCH  22  23
ENDBRANCH  20  22
ENDBRANCH  12  20
ENDBRANCH   7   8
ENDBRANCH   2   7
BRANCH   1  25
ATOM     25  N   UNL d   1       5.081   0.438   3.238  0.00  0.00    -0.307 N 
ATOM     26  C   UNL d   1       6.269   0.096   3.852  0.00  0.00     0.325 C 
ATOM     27  N   UNL d   1       7.368   0.218   3.037  0.00  0.00    -0.309 N 
ATOM     28  O   UNL d   1       6.253  -0.323   5.002  0.00  0.00    -0.247 OA
ATOM     29  H   UNL d   1       7.153   0.422   2.073  0.00  0.00     0.170 HD
ATOM     30  H   UNL d   1       4.265   0.050   3.700  0.00  0.00     0.170 HD
BRANCH  27  31
ATOM     31  C   UNL d   1       8.729   0.129   3.377  0.00  0.00     0.036 A 
ATOM     32  C   UNL d   1       9.205  -0.321   4.609  0.00  0.00     0.029 A 
ATOM     33  C   UNL d   1      10.578  -0.307   4.879  0.00  0.00     0.002 A 
ATOM     34  C   UNL d   1      11.479   0.172   3.929  0.00  0.00     0.000 A 
ATOM     35  C   UNL d   1      11.012   0.610   2.693  0.00  0.00     0.002 A 
ATOM     36  C   UNL d   1       9.645   0.570   2.413  0.00  0.00     0.029 A 
ENDBRANCH  27  31
ENDBRANCH   1  25
TORSDOF 10
