REMARK  6 active torsions:
REMARK  status: ('A' for Active; 'I' for Inactive)
REMARK    1  A    between atoms: C_7  and  C_1 
REMARK    2  A    between atoms: C_10  and  C_2 
REMARK    3  A    between atoms: C_13  and  N_3 
REMARK    4  A    between atoms: S_4  and  N_9 
REMARK    5  A    between atoms: C_12  and  S_4 
REMARK    6  A    between atoms: N_9  and  N_11 
REMARK       I    between atoms: N_11  and  C_10 
ROOT
ATOM      1  C   UNL d   1       1.111  -0.799   0.216  0.00  0.00     0.157 A 
ATOM      2  C   UNL d   1      -0.183  -1.328   0.126  0.00  0.00     0.084 A 
ATOM      3  N   UNL d   1       1.004   0.580   0.039  0.00  0.00    -0.251 N 
ATOM      4  N   UNL d   1      -0.284   0.934  -0.198  0.00  0.00    -0.303 N 
ATOM      5  HN  UNL d   1      -0.638   1.864  -0.421  1.00  0.00     0.186 HD
ATOM      6  C   UNL d   1      -0.985  -0.185  -0.080  0.00  0.00     0.127 A 
ENDROOT
BRANCH   2   7
ATOM      7  C   UNL d   1      -0.744  -2.685   0.166  0.00  0.00     0.274 C 
ATOM      8  N   UNL d   1       0.102  -3.754   0.386  0.00  0.00    -0.256 N 
ATOM      9  H   UNL d   1       1.109  -3.670   0.509  0.00  0.00     0.191 HD
ATOM     10  O   UNL d   1      -1.950  -2.871  -0.004  0.00  0.00    -0.266 OA
BRANCH   8  11
ATOM     11  N   UNL d   1      -0.439  -5.117   0.378  0.00  0.00    -0.220 N 
ATOM     12  H   UNL d   1      -1.437  -5.261   0.197  0.00  0.00     0.200 HD
BRANCH  11  13
ATOM     13  S   UNL d   1       0.620  -6.401   0.607  0.00  0.00     0.276 S 
ATOM     14  O   UNL d   1       1.464  -6.484  -0.569  0.00  0.00    -0.199 OA
ATOM     15  O   UNL d   1       1.204  -6.257   1.920  0.00  0.00    -0.199 OA
BRANCH  13  16
ATOM     16  C   UNL d   1      -0.430  -7.846   0.621  0.00  0.00     0.081 A 
ATOM     17  C   UNL d   1      -0.704  -8.514  -0.582  0.00  0.00     0.028 A 
ATOM     18  C   UNL d   1      -1.417  -9.716  -0.557  0.00  0.00     0.044 A 
ATOM     19  C   UNL d   1      -1.841 -10.243   0.660  0.00  0.00     0.116 A 
ATOM     20  C   UNL d   1      -1.562  -9.591   1.858  0.00  0.00     0.044 A 
ATOM     21  F   UNL d   1      -2.508 -11.403   0.679  0.00  0.00    -0.206 F 
ATOM     22  C   UNL d   1      -0.849  -8.390   1.842  0.00  0.00     0.028 A 
ENDBRANCH  13  16
ENDBRANCH  11  13
ENDBRANCH   8  11
ENDBRANCH   2   7
BRANCH   1  23
ATOM     23  C   UNL d   1       2.419  -1.448   0.364  0.00  0.00     0.435 C 
ATOM     24  F   UNL d   1       2.346  -2.787   0.159  0.00  0.00    -0.165 F 
ATOM     25  F   UNL d   1       3.342  -0.987  -0.510  0.00  0.00    -0.165 F 
ATOM     26  F   UNL d   1       2.914  -1.302   1.615  0.00  0.00    -0.165 F 
ENDBRANCH   1  23
BRANCH   3  27
ATOM     27  C   UNL d   1       1.976   1.640   0.068  0.00  0.00     0.057 A 
ATOM     28  C   UNL d   1       1.705   2.824  -0.648  0.00  0.00     0.033 A 
ATOM     29  C   UNL d   1       2.603   3.900  -0.632  0.00  0.00     0.026 A 
ATOM     30  C   UNL d   1       3.771   3.813   0.116  0.00  0.00     0.034 A 
ATOM     31  C   UNL d   1       4.051   2.656   0.836  0.00  0.00     0.026 A 
ATOM     32 CL   UNL d   1       4.859   5.144   0.179  0.00  0.00    -0.084 Cl
ATOM     33  C   UNL d   1       3.158   1.574   0.816  0.00  0.00     0.033 A 
ENDBRANCH   3  27
TORSDOF 6
