REMARK  2 active torsions:
REMARK  status: ('A' for Active; 'I' for Inactive)
REMARK       I    between atoms: C_3  and  N_2 
REMARK    1  A    between atoms: C_16  and  C_3 
REMARK    2  A    between atoms: N_4  and  C_5 
ROOT
ATOM      1  N   UNL d   1      -3.798  -5.219  -0.484  0.00  0.00    -0.349 N 
ATOM      2  C   UNL d   1      -4.556  -6.382  -0.430  0.00  0.00     0.224 C 
ATOM      3  N   UNL d   1      -2.897  -2.529  -0.197  0.00  0.00    -0.377 N 
ATOM      4  C   UNL d   1      -4.110  -4.211  -1.511  0.00  0.00     0.145 C 
ATOM      5  C   UNL d   1      -2.606  -4.919   0.324  0.00  0.00     0.145 C 
ATOM      6  C   UNL d   1      -4.163  -2.795  -0.914  0.00  0.00     0.143 C 
ATOM      7  C   UNL d   1      -2.671  -3.485   0.911  0.00  0.00     0.143 C 
ATOM      8  O   UNL d   1      -5.541  -6.514  -1.173  0.00  0.00    -0.273 OA
ENDROOT
BRANCH   3   9
ATOM      9  C   UNL d   1      -2.487  -1.201  -0.021  0.00  0.00     0.044 A 
ATOM     10  C   UNL d   1      -1.101  -0.855   0.045  0.00  0.00     0.017 A 
ATOM     11  C   UNL d   1      -0.760   0.516   0.132  0.00  0.00     0.046 A 
ATOM     12  C   UNL d   1      -0.042  -1.797  -0.018  0.00  0.00     0.018 A 
ATOM     13  C   UNL d   1       0.577   0.889   0.177  0.00  0.00     0.054 A 
ATOM     14  N   UNL d   1      -1.672   1.496   0.152  0.00  0.00    -0.365 N 
ATOM     15  C   UNL d   1       1.595  -0.057   0.151  0.00  0.00     0.036 A 
ATOM     16  C   UNL d   1       1.293  -1.405   0.057  0.00  0.00     0.025 A 
ATOM     17 CL   UNL d   1       3.240   0.446   0.214  0.00  0.00    -0.084 Cl
ATOM     18  C   UNL d   1      -2.969   1.150   0.085  0.00  0.00     0.090 A 
ATOM     19  HN  UNL d   1      -1.391   2.475   0.216  1.00  0.00     0.165 HD
ATOM     20  C   UNL d   1      -3.416  -0.155   0.005  0.00  0.00     0.047 A 
ENDBRANCH   3   9
BRANCH   2  21
ATOM     21  C   UNL d   1      -4.138  -7.494   0.572  0.00  0.00     0.078 C 
ATOM     22  C   UNL d   1      -5.076  -8.736   0.636  0.00  0.00     0.014 C 
ATOM     23  C   UNL d   1      -4.997  -8.698   2.165  0.00  0.00     0.002 C 
ATOM     24  C   UNL d   1      -4.436  -7.274   2.077  0.00  0.00     0.014 C 
ENDBRANCH   2  21
TORSDOF 2
