REMARK  1 active torsions:
REMARK  status: ('A' for Active; 'I' for Inactive)
REMARK    1  A    between atoms: C_2  and  C_1 
ROOT
ATOM      1  C   UNL d   1       2.833   0.533  -0.489  0.00  0.00     0.143 C 
ATOM      2  S   UNL d   1       2.082  -1.071  -0.982  0.00  0.00    -0.144 SA
ATOM      3  S   UNL d   1       1.655   1.939  -0.406  0.00  0.00    -0.144 SA
ATOM      4  C   UNL d   1      -0.292  -0.804   0.372  0.00  0.00    -0.041 A 
ATOM      5  C   UNL d   1      -0.480   0.566   0.622  0.00  0.00    -0.041 A 
ATOM      6  C   UNL d   1      -1.379  -1.572  -0.081  0.00  0.00     0.015 A 
ATOM      7  C   UNL d   1      -1.743   1.138   0.387  0.00  0.00     0.015 A 
ATOM      8  C   UNL d   1      -2.641  -1.000  -0.311  0.00  0.00    -0.056 A 
ATOM      9  C   UNL d   1      -2.821   0.376  -0.087  0.00  0.00    -0.056 A 
ATOM     10  C   UNL d   1       0.662   1.459   1.032  0.00  0.00     0.114 C 
ATOM     11  C   UNL d   1       1.069  -1.443   0.478  0.00  0.00     0.114 C 
ATOM     12  C   UNL d   1      -3.758  -1.863  -0.831  0.00  0.00     0.049 C 
ATOM     13  C   UNL d   1      -4.129   1.057  -0.380  0.00  0.00     0.049 C 
ENDROOT
BRANCH   1  14
ATOM     14  C   UNL d   1       3.943   0.891  -1.476  0.00  0.00    -0.013 A 
ATOM     15  C   UNL d   1       5.277   1.091  -1.082  0.00  0.00     0.042 A 
ATOM     16 CL   UNL d   1       5.793   0.946   0.561  0.00  0.00    -0.084 Cl
ATOM     17  C   UNL d   1       6.257   1.429  -2.025  0.00  0.00     0.024 A 
ATOM     18  C   UNL d   1       5.925   1.579  -3.372  0.00  0.00     0.002 A 
ATOM     19  C   UNL d   1       4.611   1.395  -3.783  0.00  0.00     0.001 A 
ATOM     20  C   UNL d   1       3.633   1.058  -2.848  0.00  0.00     0.011 A 
ENDBRANCH   1  14
TORSDOF 1
