REMARK  0 active torsions:
REMARK  status: ('A' for Active; 'I' for Inactive)
ROOT
ATOM      1  C   UNL d   1      -0.092  -0.782  -0.749  0.00  0.00     0.152 C 
ATOM      2  C   UNL d   1       0.104   0.779  -0.748  0.00  0.00     0.152 C 
ATOM      3  N   UNL d   1      -1.357  -0.963  -0.097  0.00  0.00    -0.313 N 
ATOM      4  N   UNL d   1       0.974  -1.240   0.101  0.00  0.00    -0.313 N 
ATOM      5  N   UNL d   1      -0.958   1.237   0.108  0.00  0.00    -0.313 N 
ATOM      6  N   UNL d   1       1.371   0.960  -0.102  0.00  0.00    -0.313 N 
ATOM      7  C   UNL d   1      -1.762   0.198   0.523  0.00  0.00     0.320 C 
ATOM      8  C   UNL d   1       1.777  -0.202   0.518  0.00  0.00     0.320 C 
ATOM      9  O   UNL d   1      -2.676   0.288   1.324  0.00  0.00    -0.247 OA
ATOM     10  O   UNL d   1       2.687  -0.290   1.321  0.00  0.00    -0.247 OA
ATOM     11  C   UNL d   1      -0.048  -1.482  -2.098  0.00  0.00     0.068 C 
ATOM     12  C   UNL d   1       0.048   1.482  -2.096  0.00  0.00     0.068 C 
ATOM     13  H   UNL d   1      -1.725  -1.845   0.225  0.00  0.00     0.167 HD
ATOM     14  H   UNL d   1       1.022  -2.136   0.563  0.00  0.00     0.167 HD
ATOM     15  H   UNL d   1      -1.006   2.134   0.568  0.00  0.00     0.167 HD
ATOM     16  H   UNL d   1       1.735   1.841   0.228  0.00  0.00     0.167 HD
ENDROOT
TORSDOF 0
