REMARK  5 active torsions:
REMARK  status: ('A' for Active; 'I' for Inactive)
REMARK    1  A    between atoms: C_5  and  C_1 
REMARK    2  A    between atoms: N_9  and  C_2 
REMARK    3  A    between atoms: C_11  and  C_3 
REMARK    4  A    between atoms: C_4  and  N_10 
REMARK       I    between atoms: C_8  and  N_9 
REMARK       I    between atoms: N_10  and  C_8 
REMARK    5  A    between atoms: O_21  and  C_11 
ROOT
ATOM      1  C   UNL d   1       1.311  -3.475  -0.267  0.00  0.00     0.325 C 
ATOM      2  N   UNL d   1       0.246  -2.646  -0.577  0.00  0.00    -0.306 N 
ATOM      3  N   UNL d   1       2.501  -2.933  -0.719  0.00  0.00    -0.307 N 
ATOM      4  O   UNL d   1       1.185  -4.542   0.321  0.00  0.00    -0.247 OA
ATOM      5  H   UNL d   1       0.423  -1.654  -0.492  0.00  0.00     0.171 HD
ATOM      6  H   UNL d   1       2.434  -2.208  -1.427  0.00  0.00     0.170 HD
ENDROOT
BRANCH   2   7
ATOM      7  C   UNL d   1      -1.082  -3.049  -0.556  0.00  0.00     0.077 A 
ATOM      8  C   UNL d   1      -1.632  -4.303  -0.782  0.00  0.00     0.186 A 
ATOM      9  O   UNL d   1      -3.001  -4.218  -0.680  0.00  0.00    -0.308 OA
ATOM     10  C   UNL d   1      -3.321  -2.922  -0.435  0.00  0.00     0.052 A 
ATOM     11  C   UNL d   1      -4.760  -2.611  -0.315  0.00  0.00     0.077 C 
ATOM     12  C   UNL d   1      -2.176  -2.162  -0.362  0.00  0.00     0.064 A 
BRANCH   8  13
ATOM     13  C   UNL d   1      -1.113  -5.640  -1.178  0.00  0.00     0.441 C 
ATOM     14  F   UNL d   1       0.074  -5.583  -1.837  0.00  0.00    -0.164 F 
ATOM     15  F   UNL d   1      -0.966  -6.483  -0.125  0.00  0.00    -0.164 F 
ATOM     16  F   UNL d   1      -1.968  -6.264  -2.042  0.00  0.00    -0.164 F 
ENDBRANCH   8  13
ENDBRANCH   2   7
BRANCH   3  17
ATOM     17  C   UNL d   1       3.759  -3.519  -0.561  0.00  0.00     0.060 A 
ATOM     18  C   UNL d   1       4.859  -3.120  -1.315  0.00  0.00     0.106 A 
ATOM     19  S   UNL d   1       6.261  -4.024  -0.909  0.00  0.00    -0.094 SA
ATOM     20  C   UNL d   1       5.424  -4.939   0.256  0.00  0.00     0.053 A 
ATOM     21  C   UNL d   1       4.103  -4.567   0.347  0.00  0.00     0.038 A 
BRANCH  18  22
ATOM     22  C   UNL d   1       4.884  -2.095  -2.347  0.00  0.00     0.302 C 
ATOM     23  O   UNL d   1       3.921  -1.393  -2.641  0.00  0.00    -0.259 OA
BRANCH  22  24
ATOM     24  O   UNL d   1       6.099  -2.024  -2.966  0.00  0.00    -0.322 OA
ATOM     25  C   UNL d   1       6.181  -1.071  -4.025  0.00  0.00     0.213 C 
ENDBRANCH  22  24
ENDBRANCH  18  22
ENDBRANCH   3  17
TORSDOF 5
