REMARK  7 active torsions:
REMARK  status: ('A' for Active; 'I' for Inactive)
REMARK    1  A    between atoms: C_7  and  N_1 
REMARK    2  A    between atoms: C_13  and  C_7 
REMARK    3  A    between atoms: C_15  and  C_13 
REMARK    4  A    between atoms: O_21  and  C_13 
REMARK    5  A    between atoms: N_17  and  C_15 
REMARK    6  A    between atoms: C_22  and  N_17 
REMARK    7  A    between atoms: C_23  and  N_17 
ROOT
ATOM      1  N   UNL d   1       0.317  -1.706  -0.589  0.00  0.00    -0.342 N 
ATOM      2  C   UNL d   1       0.546  -1.239  -1.883  0.00  0.00     0.064 A 
ATOM      3  C   UNL d   1       1.365  -0.102  -1.733  0.00  0.00     0.006 A 
ATOM      4  C   UNL d   1       1.417   0.232  -0.348  0.00  0.00     0.005 A 
ATOM      5  C   UNL d   1       0.698  -0.740   0.338  0.00  0.00     0.046 A 
ATOM      6  C   UNL d   1       0.145  -1.637  -3.185  0.00  0.00     0.040 A 
ATOM      7  C   UNL d   1       0.654  -0.950  -4.295  0.00  0.00     0.040 A 
ATOM      8  C   UNL d   1       0.478  -0.646   1.725  0.00  0.00     0.032 A 
ATOM      9  C   UNL d   1       1.886   0.551  -2.871  0.00  0.00     0.033 A 
ATOM     10  C   UNL d   1       1.963   1.321   0.366  0.00  0.00     0.033 A 
ATOM     11  C   UNL d   1       1.532   0.111  -4.144  0.00  0.00     0.013 A 
ATOM     12 BR   UNL d   1      -1.139  -2.977  -3.571  0.00  0.00    -0.049 Br
ATOM     13  C   UNL d   1       1.738   1.418   1.741  0.00  0.00     0.011 A 
ATOM     14  C   UNL d   1       1.002   0.452   2.414  0.00  0.00     0.021 A 
ATOM     15 BR   UNL d   1       2.202   1.007  -5.663  0.00  0.00    -0.051 Br
ATOM     16 BR   UNL d   1       2.419   2.905   2.692  0.00  0.00    -0.051 Br
ENDROOT
BRANCH   1  17
ATOM     17  C   UNL d   1      -0.338  -2.942  -0.189  0.00  0.00     0.163 C 
BRANCH  17  18
ATOM     18  C   UNL d   1       0.513  -4.036   0.485  0.00  0.00     0.164 C 
BRANCH  18  19
ATOM     19  C   UNL d   1       1.734  -4.545  -0.322  0.00  0.00     0.305 C 
BRANCH  19  20
ATOM     20  N   UNL d   1       2.494  -5.603   0.409  0.00  0.00     0.090 N 
BRANCH  20  21
ATOM     21  C   UNL d   1       1.686  -6.785   0.779  0.00  0.00     0.268 C 
ATOM     22  C   UNL d   1       1.178  -7.648  -0.373  0.00  0.00     0.037 C 
ENDBRANCH  20  21
BRANCH  20  23
ATOM     23  C   UNL d   1       3.703  -6.033  -0.324  0.00  0.00     0.268 C 
ATOM     24  C   UNL d   1       4.797  -4.975  -0.384  0.00  0.00     0.037 C 
ENDBRANCH  20  23
ENDBRANCH  19  20
ENDBRANCH  18  19
BRANCH  18  25
ATOM     25  O   UNL d   1       0.935  -3.655   1.799  0.00  0.00    -0.392 OA
ATOM     26  H   UNL d   1       1.728  -4.200   1.984  0.00  0.00     0.210 HD
ENDBRANCH  18  25
ENDBRANCH  17  18
ENDBRANCH   1  17
TORSDOF 7
