REMARK  4 active torsions:
REMARK  status: ('A' for Active; 'I' for Inactive)
REMARK    1  A    between atoms: N_2  and  C_1 
REMARK    2  A    between atoms: N_6  and  C_1 
REMARK    3  A    between atoms: C_3  and  N_2 
REMARK    4  A    between atoms: C_12  and  N_6 
ROOT
ATOM      1  C   UNL d   1       1.044   0.001  -0.005  0.00  0.00     0.168 C 
ATOM      2  S   UNL d   1       2.686  -0.307   0.001  0.00  0.00    -0.041 SA
ENDROOT
BRANCH   1   3
ATOM      3  N   UNL d   1       0.451   1.229   0.005  0.00  0.00    -0.362 N 
ATOM      4  H   UNL d   1      -0.553   1.263   0.092  0.00  0.00     0.162 HD
BRANCH   3   5
ATOM      5  C   UNL d   1       1.155   2.502   0.165  0.00  0.00     0.092 C 
ATOM      6  C   UNL d   1       0.532   3.718  -0.575  0.00  0.00     0.031 C 
ATOM      7  C   UNL d   1      -0.867   3.987  -0.071  0.00  0.00    -0.024 C 
ATOM      8  C   UNL d   1       1.262   4.859   0.154  0.00  0.00     0.019 C 
ATOM      9  C   UNL d   1      -0.755   4.431   1.189  0.00  0.00    -0.026 C 
ATOM     10  C   UNL d   1       0.717   4.456   1.529  0.00  0.00     0.010 C 
ATOM     11  C   UNL d   1       1.205   2.994   1.643  0.00  0.00     0.034 C 
ENDBRANCH   3   5
ENDBRANCH   1   3
BRANCH   1  12
ATOM     12  N   UNL d   1       0.238  -1.090  -0.052  0.00  0.00    -0.363 N 
ATOM     13  H   UNL d   1       0.791  -1.940  -0.062  0.00  0.00     0.162 HD
BRANCH  12  14
ATOM     14  C   UNL d   1      -1.183  -1.262   0.260  0.00  0.00     0.083 C 
ATOM     15  C   UNL d   1      -1.439  -1.113   1.767  0.00  0.00     0.025 C 
ATOM     16  C   UNL d   1      -0.843  -2.263   2.580  0.00  0.00     0.002 C 
ATOM     17  C   UNL d   1      -1.331  -3.621   2.084  0.00  0.00     0.000 C 
ATOM     18  C   UNL d   1      -1.085  -3.801   0.590  0.00  0.00     0.002 C 
ATOM     19  C   UNL d   1      -1.666  -2.641  -0.227  0.00  0.00     0.025 C 
ENDBRANCH  12  14
ENDBRANCH   1  12
TORSDOF 4
