REMARK  3 active torsions:
REMARK  status: ('A' for Active; 'I' for Inactive)
REMARK    1  A    between atoms: C_9  and  N_1 
REMARK    2  A    between atoms: C_7  and  C_4 
REMARK    3  A    between atoms: C_10  and  C_5 
ROOT
ATOM      1  N   UNL d   1       0.160  -1.101   0.121  0.00  0.00    -0.283 N 
ATOM      2  N   UNL d   1       1.164  -0.178   0.085  0.00  0.00    -0.301 N 
ATOM      3  HN  UNL d   1       2.166  -0.370   0.107  1.00  0.00     0.187 HD
ATOM      4  C   UNL d   1      -1.179  -0.516   0.008  0.00  0.00     0.148 A 
ATOM      5  C   UNL d   1       0.602   0.992   0.017  0.00  0.00     0.038 A 
ATOM      6  C   UNL d   1      -0.903   0.985   0.061  0.00  0.00     0.091 A 
ENDROOT
BRANCH   4   7
ATOM      7  C   UNL d   1      -2.122  -0.972   1.121  0.00  0.00    -0.022 A 
ATOM      8  C   UNL d   1      -3.527  -1.114   0.912  0.00  0.00    -0.018 A 
ATOM      9  C   UNL d   1      -4.320  -1.645   1.964  0.00  0.00    -0.025 A 
ATOM     10  C   UNL d   1      -4.196  -0.768  -0.287  0.00  0.00     0.013 A 
ATOM     11  C   UNL d   1      -5.701  -1.829   1.789  0.00  0.00     0.012 A 
ATOM     12  C   UNL d   1      -3.730  -2.001   3.185  0.00  0.00     0.012 A 
ATOM     13  C   UNL d   1      -6.324  -1.487   0.593  0.00  0.00     0.001 A 
ATOM     14  C   UNL d   1      -5.573  -0.953  -0.444  0.00  0.00     0.001 A 
ATOM     15  C   UNL d   1      -2.370  -1.822   3.398  0.00  0.00     0.002 A 
ATOM     16  C   UNL d   1      -1.580  -1.300   2.384  0.00  0.00     0.010 A 
ENDBRANCH   4   7
BRANCH   1  17
ATOM     17  C   UNL d   1       0.441  -2.466   0.024  0.00  0.00     0.051 A 
ATOM     18  C   UNL d   1       1.661  -2.979   0.487  0.00  0.00     0.031 A 
ATOM     19  C   UNL d   1       1.934  -4.351   0.469  0.00  0.00     0.002 A 
ATOM     20  C   UNL d   1       0.993  -5.242  -0.039  0.00  0.00     0.000 A 
ATOM     21  C   UNL d   1      -0.218  -4.759  -0.524  0.00  0.00     0.002 A 
ATOM     22  C   UNL d   1      -0.489  -3.389  -0.485  0.00  0.00     0.031 A 
ENDBRANCH   1  17
BRANCH   5  23
ATOM     23  C   UNL d   1       1.369   2.255  -0.102  0.00  0.00    -0.012 A 
ATOM     24  C   UNL d   1       2.769   2.202  -0.124  0.00  0.00     0.013 A 
ATOM     25  C   UNL d   1       3.516   3.372  -0.276  0.00  0.00     0.001 A 
ATOM     26  C   UNL d   1       2.870   4.600  -0.409  0.00  0.00     0.000 A 
ATOM     27  C   UNL d   1       1.477   4.660  -0.383  0.00  0.00     0.001 A 
ATOM     28  C   UNL d   1       0.726   3.492  -0.227  0.00  0.00     0.013 A 
ENDBRANCH   5  23
TORSDOF 3
