REMARK  5 active torsions:
REMARK  status: ('A' for Active; 'I' for Inactive)
REMARK    1  A    between atoms: C_2  and  C_1 
REMARK    2  A    between atoms: C_8  and  C_2 
REMARK    3  A    between atoms: C_11  and  C_8 
REMARK    4  A    between atoms: S_9  and  C_11 
REMARK    5  A    between atoms: C_10  and  S_9 
ROOT
ATOM      1  C   UNL d   1      -0.175   5.035  -0.053  0.00  0.00     0.087 C 
ENDROOT
BRANCH   1   2
ATOM      2  S   UNL d   1       1.177   6.270  -0.064  0.00  0.00    -0.130 SA
BRANCH   2   3
ATOM      3  C   UNL d   1       0.307   7.832  -0.039  0.00  0.00     0.000 A 
ATOM      4  C   UNL d   1       0.948   8.917   0.571  0.00  0.00     0.019 A 
ATOM      5  C   UNL d   1       0.360  10.186   0.583  0.00  0.00     0.008 A 
ATOM      6  C   UNL d   1      -0.881  10.396  -0.024  0.00  0.00    -0.062 A 
ATOM      7  C   UNL d   1      -1.521   9.316  -0.640  0.00  0.00     0.008 A 
ATOM      8  C   UNL d   1      -1.498  11.764  -0.021  0.00  0.00     0.048 C 
ATOM      9  C   UNL d   1      -0.931   8.046  -0.650  0.00  0.00     0.019 A 
ENDBRANCH   2   3
ENDBRANCH   1   2
BRANCH   1  10
ATOM     10  C   UNL d   1       0.440   3.640  -0.022  0.00  0.00     0.096 C 
BRANCH  10  11
ATOM     11  C   UNL d   1      -0.619   2.548  -0.028  0.00  0.00     0.183 C 
ATOM     12  O   UNL d   1      -1.822   2.815  -0.049  0.00  0.00    -0.290 OA
BRANCH  11  13
ATOM     13  C   UNL d   1      -0.120   1.186  -0.012  0.00  0.00     0.120 A 
ATOM     14  O   UNL d   1       1.231   0.967   0.007  0.00  0.00    -0.319 OA
ATOM     15  C   UNL d   1       1.425  -0.377   0.019  0.00  0.00     0.142 A 
ATOM     16  C   UNL d   1       0.218  -1.036   0.008  0.00  0.00     0.027 A 
ATOM     17  C   UNL d   1      -0.779  -0.030  -0.013  0.00  0.00     0.043 A 
ENDBRANCH  11  13
ENDBRANCH  10  11
ENDBRANCH   1  10
TORSDOF 5
