REMARK  9 active torsions:
REMARK  status: ('A' for Active; 'I' for Inactive)
REMARK    1  A    between atoms: C_3  and  C_1 
REMARK    2  A    between atoms: C_4  and  C_1 
REMARK    3  A    between atoms: C_8  and  C_1 
REMARK    4  A    between atoms: C_2  and  C_3 
REMARK    5  A    between atoms: C_6  and  C_2 
REMARK    6  A    between atoms: C_10  and  C_3 
REMARK    7  A    between atoms: C_5  and  C_4 
REMARK    8  A    between atoms: C_11  and  C_5 
REMARK    9  A    between atoms: C_12  and  C_6 
ROOT
ATOM      1  C   UNL d   1       0.874   0.005  -0.262  0.00  0.00     0.041 C 
ENDROOT
BRANCH   1   2
ATOM      2  C   UNL d   1       0.606  -0.924   0.985  0.00  0.00     0.097 C 
BRANCH   2   3
ATOM      3  C   UNL d   1      -0.861  -0.875   1.466  0.00  0.00     0.140 C 
ATOM      4  O   UNL d   1      -1.801  -0.554   0.734  0.00  0.00    -0.297 OA
BRANCH   3   5
ATOM      5  C   UNL d   1      -1.139  -1.231   2.924  0.00  0.00     0.117 C 
BRANCH   5   6
ATOM      6  C   UNL d   1      -1.093  -0.021   3.822  0.00  0.00    -0.051 A 
ATOM      7  C   UNL d   1      -1.987   1.043   3.625  0.00  0.00     0.007 A 
ATOM      8  C   UNL d   1      -1.877   2.210   4.381  0.00  0.00     0.001 A 
ATOM      9  C   UNL d   1      -0.888   2.317   5.356  0.00  0.00     0.000 A 
ATOM     10  C   UNL d   1      -0.033   1.243   5.600  0.00  0.00     0.001 A 
ATOM     11  C   UNL d   1      -0.139   0.076   4.841  0.00  0.00     0.007 A 
ENDBRANCH   5   6
ENDBRANCH   3   5
ENDBRANCH   2   3
BRANCH   2  12
ATOM     12  C   UNL d   1       1.137  -2.348   0.862  0.00  0.00    -0.046 A 
ATOM     13  C   UNL d   1       0.315  -3.425   0.496  0.00  0.00     0.008 A 
ATOM     14  C   UNL d   1       0.858  -4.697   0.298  0.00  0.00     0.001 A 
ATOM     15  C   UNL d   1       2.228  -4.909   0.438  0.00  0.00     0.000 A 
ATOM     16  C   UNL d   1       3.053  -3.861   0.826  0.00  0.00     0.001 A 
ATOM     17  C   UNL d   1       2.504  -2.603   1.071  0.00  0.00     0.008 A 
ENDBRANCH   2  12
ENDBRANCH   1   2
BRANCH   1  18
ATOM     18  C   UNL d   1       2.348   0.070  -0.745  0.00  0.00     0.094 C 
BRANCH  18  19
ATOM     19  C   UNL d   1       3.385   0.524   0.265  0.00  0.00     0.160 C 
ATOM     20  O   UNL d   1       3.083   0.974   1.357  0.00  0.00    -0.292 OA
BRANCH  19  21
ATOM     21  C   UNL d   1       4.831   0.395  -0.116  0.00  0.00     0.010 A 
ATOM     22  C   UNL d   1       5.238  -0.001  -1.400  0.00  0.00     0.015 A 
ATOM     23  C   UNL d   1       6.596  -0.051  -1.727  0.00  0.00     0.001 A 
ATOM     24  C   UNL d   1       7.557   0.284  -0.776  0.00  0.00     0.000 A 
ATOM     25  C   UNL d   1       7.164   0.645   0.512  0.00  0.00     0.001 A 
ATOM     26  C   UNL d   1       5.808   0.696   0.843  0.00  0.00     0.015 A 
ENDBRANCH  19  21
ENDBRANCH  18  19
ENDBRANCH   1  18
BRANCH   1  27
ATOM     27  C   UNL d   1       0.057  -0.267  -1.534  0.00  0.00    -0.052 A 
ATOM     28  C   UNL d   1      -0.765   0.745  -2.056  0.00  0.00     0.007 A 
ATOM     29  C   UNL d   1      -1.388   0.594  -3.299  0.00  0.00     0.001 A 
ATOM     30  C   UNL d   1      -1.202  -0.572  -4.037  0.00  0.00     0.000 A 
ATOM     31  C   UNL d   1      -0.410  -1.595  -3.525  0.00  0.00     0.001 A 
ATOM     32  C   UNL d   1       0.214  -1.443  -2.286  0.00  0.00     0.007 A 
ENDBRANCH   1  27
TORSDOF 9
