REMARK  7 active torsions:
REMARK  status: ('A' for Active; 'I' for Inactive)
REMARK    1  A    between atoms: C_3  and  S_1 
REMARK    2  A    between atoms: O_5  and  S_1 
REMARK    3  A    between atoms: S_2  and  C_4 
REMARK    4  A    between atoms: C_10  and  S_2 
REMARK    5  A    between atoms: C_4  and  C_8 
REMARK    6  A    between atoms: N_6  and  O_5 
REMARK    7  A    between atoms: C_8  and  N_6 
ROOT
ATOM      1  N   UNL d   1       0.822   2.383   0.722  0.00  0.00    -0.236 N 
ATOM      2  HN  UNL d   1       0.436   1.554   0.270  1.00  0.00     0.197 HD
ENDROOT
BRANCH   1   3
ATOM      3  O   UNL d   1       1.799   2.352   1.754  0.00  0.00    -0.146 OA
BRANCH   3   4
ATOM      4  S   UNL d   1       2.219   0.835   2.238  0.00  0.00     0.321 S 
ATOM      5  O   UNL d   1       1.293   0.408   3.272  0.00  0.00    -0.191 OA
ATOM      6  O   UNL d   1       2.468   0.012   1.066  0.00  0.00    -0.191 OA
BRANCH   4   7
ATOM      7  C   UNL d   1       3.790   0.967   3.043  0.00  0.00     0.126 A 
ATOM      8  C   UNL d   1       4.437   2.187   3.185  0.00  0.00     0.143 A 
ATOM      9  C   UNL d   1       5.720   2.239   3.728  0.00  0.00     0.086 A 
ATOM     10  F   UNL d   1       3.862   3.336   2.808  0.00  0.00    -0.204 F 
ATOM     11  C   UNL d   1       6.339   1.061   4.134  0.00  0.00     0.119 A 
ATOM     12  C   UNL d   1       5.689  -0.165   4.029  0.00  0.00     0.044 A 
ATOM     13  F   UNL d   1       7.583   1.105   4.627  0.00  0.00    -0.206 F 
ATOM     14  C   UNL d   1       4.407  -0.216   3.482  0.00  0.00     0.032 A 
ENDBRANCH   4   7
ENDBRANCH   3   4
ENDBRANCH   1   3
BRANCH   1  15
ATOM     15  C   UNL d   1       0.485   3.604   0.431  0.00  0.00     0.110 C 
ATOM     16  N   UNL d   1       0.949   4.703   1.093  0.00  0.00    -0.387 N 
ATOM     17  H   UNL d   1       0.625   5.642   0.871  0.00  0.00     0.157 HD
ATOM     18  H   UNL d   1       1.486   4.582   1.944  0.00  0.00     0.157 HD
BRANCH  15  19
ATOM     19  C   UNL d   1      -0.521   3.782  -0.680  0.00  0.00     0.218 C 
BRANCH  19  20
ATOM     20  S   UNL d   1       0.108   4.685  -2.078  0.00  0.00     0.158 S 
ATOM     21  O   UNL d   1      -1.002   4.790  -3.011  0.00  0.00    -0.227 OA
ATOM     22  O   UNL d   1       0.710   5.912  -1.574  0.00  0.00    -0.227 OA
BRANCH  20  23
ATOM     23  C   UNL d   1       1.411   3.688  -2.905  0.00  0.00     0.053 C 
ATOM     24  C   UNL d   1       0.860   2.305  -3.274  0.00  0.00     0.031 C 
ATOM     25  C   UNL d   1       1.817   4.425  -4.197  0.00  0.00     0.031 C 
ATOM     26  C   UNL d   1       2.659   3.553  -2.029  0.00  0.00     0.031 C 
ENDBRANCH  20  23
ENDBRANCH  19  20
ENDBRANCH  15  19
ENDBRANCH   1  15
TORSDOF 7
