REMARK  4 active torsions:
REMARK  status: ('A' for Active; 'I' for Inactive)
REMARK    1  A    between atoms: C_7  and  C_1 
REMARK    2  A    between atoms: C_13  and  C_4 
REMARK    3  A    between atoms: C_5  and  N_9 
REMARK       I    between atoms: N_10  and  C_7 
REMARK    4  A    between atoms: N_9  and  N_10 
ROOT
ATOM      1  C   UNL d   1       0.303  -2.717   0.123  0.00  0.00     0.271 C 
ATOM      2  N   UNL d   1      -0.401  -3.546   0.986  0.00  0.00    -0.282 N 
ATOM      3  O   UNL d   1       1.236  -3.114  -0.573  0.00  0.00    -0.266 OA
ATOM      4  H   UNL d   1      -0.943  -3.138   1.743  0.00  0.00     0.184 HD
ENDROOT
BRANCH   1   5
ATOM      5  C   UNL d   1      -0.116  -1.329   0.108  0.00  0.00     0.093 A 
ATOM      6  C   UNL d   1      -1.400  -0.693   0.183  0.00  0.00     0.083 A 
ATOM      7  N   UNL d   1      -1.254   0.642   0.094  0.00  0.00    -0.259 N 
ATOM      8  O   UNL d   1       0.085   0.894  -0.032  0.00  0.00    -0.241 OA
ATOM      9  HN  UNL d   1      -2.002   1.336   0.116  1.00  0.00     0.195 HD
ATOM     10  C   UNL d   1       0.768  -0.272  -0.014  0.00  0.00     0.090 A 
ATOM     11  C   UNL d   1       2.238  -0.155  -0.087  0.00  0.00     0.080 C 
BRANCH   6  12
ATOM     12  C   UNL d   1      -2.756  -1.242   0.319  0.00  0.00    -0.006 A 
ATOM     13  C   UNL d   1      -3.112  -2.502  -0.175  0.00  0.00     0.014 A 
ATOM     14  C   UNL d   1      -4.418  -2.982  -0.026  0.00  0.00     0.001 A 
ATOM     15  C   UNL d   1      -5.392  -2.197   0.590  0.00  0.00     0.000 A 
ATOM     16  C   UNL d   1      -5.062  -0.931   1.062  0.00  0.00     0.001 A 
ATOM     17  C   UNL d   1      -3.754  -0.462   0.933  0.00  0.00     0.014 A 
ENDBRANCH   6  12
ENDBRANCH   1   5
BRANCH   2  18
ATOM     18  N   UNL d   1       0.113  -4.845   1.185  0.00  0.00    -0.200 NA
ATOM     19  H   UNL d   1       0.041  -5.415   0.333  0.00  0.00     0.153 HD
BRANCH  18  20
ATOM     20  C   UNL d   1      -0.337  -5.553   2.338  0.00  0.00     0.071 A 
ATOM     21  C   UNL d   1      -0.522  -6.952   2.251  0.00  0.00     0.058 A 
ATOM     22 CL   UNL d   1      -0.330  -7.778   0.735  0.00  0.00    -0.082 Cl
ATOM     23  C   UNL d   1      -0.869  -7.730   3.363  0.00  0.00     0.026 A 
ATOM     24  C   UNL d   1      -1.025  -7.128   4.606  0.00  0.00     0.003 A 
ATOM     25  C   UNL d   1      -0.823  -5.757   4.733  0.00  0.00     0.026 A 
ATOM     26  C   UNL d   1      -0.474  -4.977   3.620  0.00  0.00     0.058 A 
ATOM     27 CL   UNL d   1      -0.184  -3.296   3.935  0.00  0.00    -0.082 Cl
ENDBRANCH  18  20
ENDBRANCH   2  18
TORSDOF 4
