REMARK  3 active torsions:
REMARK  status: ('A' for Active; 'I' for Inactive)
REMARK    1  A    between atoms: N_5  and  C_1 
REMARK    2  A    between atoms: C_16  and  N_5 
REMARK    3  A    between atoms: C_22  and  C_17 
ROOT
ATOM      1  C   UNL d   1      -0.770   1.068   1.217  0.00  0.00     0.127 C 
ATOM      2  C   UNL d   1      -1.476   0.279   0.054  0.00  0.00     0.029 C 
ATOM      3  C   UNL d   1       0.758   0.748   1.119  0.00  0.00     0.029 C 
ATOM      4  C   UNL d   1      -1.042   2.543   1.031  0.00  0.00     0.091 C 
ATOM      5  N   UNL d   1      -1.214   3.683   0.913  0.00  0.00    -0.195 NA
ATOM      6  C   UNL d   1       0.299  -1.529   0.112  0.00  0.00    -0.013 C 
ATOM      7  C   UNL d   1       0.598   0.466  -1.393  0.00  0.00    -0.013 C 
ATOM      8  C   UNL d   1      -0.915   0.735  -1.319  0.00  0.00     0.012 C 
ATOM      9  C   UNL d   1      -1.210  -1.243   0.174  0.00  0.00     0.012 C 
ATOM     10  C   UNL d   1       1.311   1.209  -0.252  0.00  0.00     0.012 C 
ATOM     11  C   UNL d   1       1.015  -0.772   1.242  0.00  0.00     0.012 C 
ATOM     12  C   UNL d   1       0.845  -1.043  -1.241  0.00  0.00     0.009 C 
ENDROOT
BRANCH   1  13
ATOM     13  N   UNL d   1      -1.317   0.612   2.522  0.00  0.00    -0.368 N 
ATOM     14  H   UNL d   1      -1.548  -0.367   2.636  0.00  0.00     0.161 HD
BRANCH  13  15
ATOM     15  C   UNL d   1      -1.304   1.350   3.695  0.00  0.00     0.029 A 
ATOM     16  C   UNL d   1      -2.322   1.143   4.632  0.00  0.00     0.029 A 
ATOM     17  C   UNL d   1      -2.460   1.976   5.749  0.00  0.00     0.010 A 
ATOM     18  C   UNL d   1      -1.558   3.021   5.975  0.00  0.00    -0.045 A 
ATOM     19  C   UNL d   1      -0.511   3.206   5.072  0.00  0.00     0.010 A 
ATOM     20  C   UNL d   1      -0.404   2.391   3.945  0.00  0.00     0.029 A 
BRANCH  18  21
ATOM     21  C   UNL d   1      -1.741   3.967   7.133  0.00  0.00     0.162 C 
ATOM     22  C   UNL d   1      -2.589   5.123   6.801  0.00  0.00     0.063 C 
ATOM     23  N   UNL d   1      -3.257   6.045   6.576  0.00  0.00    -0.197 NA
ENDBRANCH  18  21
ENDBRANCH  13  15
ENDBRANCH   1  13
TORSDOF 3
