REMARK  4 active torsions:
REMARK  status: ('A' for Active; 'I' for Inactive)
REMARK    1  A    between atoms: C_5  and  C_1 
REMARK    2  A    between atoms: C_8  and  C_2 
REMARK    3  A    between atoms: N_13  and  C_8 
REMARK    4  A    between atoms: O_16  and  N_11 
ROOT
ATOM      1  C   UNL d   1       2.236  -4.336   0.001  0.00  0.00     0.086 A 
ATOM      2  C   UNL d   1       1.688  -3.006  -0.061  0.00  0.00     0.065 A 
ATOM      3  N   UNL d   1       3.571  -4.276   0.143  0.00  0.00    -0.259 N 
ATOM      4  HN  UNL d   1       4.206  -5.067   0.255  1.00  0.00     0.195 HD
ATOM      5  O   UNL d   1       3.916  -2.950   0.109  0.00  0.00    -0.241 OA
ATOM      6  C   UNL d   1       2.801  -2.186  -0.008  0.00  0.00     0.088 A 
ATOM      7  C   UNL d   1       3.051  -0.735  -0.071  0.00  0.00     0.080 C 
ENDROOT
BRANCH   1   8
ATOM      8  C   UNL d   1       1.553  -5.633   0.010  0.00  0.00     0.054 A 
ATOM      9  C   UNL d   1       2.010  -6.749  -0.716  0.00  0.00     0.049 A 
ATOM     10 CL   UNL d   1       3.392  -6.710  -1.762  0.00  0.00    -0.083 Cl
ATOM     11  C   UNL d   1       1.332  -7.978  -0.646  0.00  0.00     0.025 A 
ATOM     12  C   UNL d   1       0.177  -8.108   0.122  0.00  0.00     0.005 A 
ATOM     13  C   UNL d   1      -0.289  -7.016   0.842  0.00  0.00     0.043 A 
ATOM     14  C   UNL d   1       0.407  -5.807   0.800  0.00  0.00     0.130 A 
ATOM     15  F   UNL d   1      -0.048  -4.810   1.577  0.00  0.00    -0.205 F 
ENDBRANCH   1   8
BRANCH   2  16
ATOM     16  C   UNL d   1       0.310  -2.589  -0.160  0.00  0.00     0.113 C 
ATOM     17  N   UNL d   1      -0.524  -3.287  -0.864  0.00  0.00    -0.257 N 
ATOM     18  HN  UNL d   1      -0.275  -4.106  -1.419  1.00  0.00     0.195 HD
BRANCH  17  19
ATOM     19  O   UNL d   1      -1.821  -2.755  -0.751  0.00  0.00    -0.289 OA
ATOM     20  H   UNL d   1      -2.350  -3.392  -1.266  0.00  0.00     0.244 HD
ENDBRANCH  17  19
BRANCH  16  21
ATOM     21  N   UNL d   1       0.001  -1.471   0.570  0.00  0.00    -0.286 NA
ATOM     22  H   UNL d   1       0.439  -1.429   1.482  0.00  0.00     0.125 HD
ATOM     23  H   UNL d   1      -1.011  -1.382   0.633  0.00  0.00     0.125 HD
ENDBRANCH  16  21
ENDBRANCH   2  16
TORSDOF 4
