REMARK  4 active torsions:
REMARK  status: ('A' for Active; 'I' for Inactive)
REMARK    1  A    between atoms: C_4  and  C_1 
REMARK    2  A    between atoms: N_11  and  C_1 
REMARK    3  A    between atoms: O_12  and  N_2 
REMARK    4  A    between atoms: C_5  and  C_6 
ROOT
ATOM      1  C   UNL d   1       0.157   0.835   0.702  0.00  0.00     0.004 A 
ATOM      2  C   UNL d   1      -1.471   2.462   2.359  0.00  0.00    -0.051 A 
ATOM      3  C   UNL d   1       0.556   2.134   1.017  0.00  0.00     0.015 A 
ATOM      4  C   UNL d   1      -1.039   0.341   1.221  0.00  0.00     0.015 A 
ATOM      5  C   UNL d   1      -0.253   2.938   1.832  0.00  0.00     0.009 A 
ATOM      6  C   UNL d   1      -1.839   1.145   2.041  0.00  0.00     0.009 A 
ENDROOT
BRANCH   1   7
ATOM      7  C   UNL d   1       0.993  -0.028  -0.184  0.00  0.00     0.108 C 
ATOM      8  N   UNL d   1       2.278   0.182  -0.242  0.00  0.00    -0.258 N 
ATOM      9  HN  UNL d   1       2.772   0.902   0.286  1.00  0.00     0.195 HD
BRANCH   8  10
ATOM     10  O   UNL d   1       2.889  -0.720  -1.130  0.00  0.00    -0.289 OA
ATOM     11  H   UNL d   1       3.836  -0.557  -0.962  0.00  0.00     0.244 HD
ENDBRANCH   8  10
BRANCH   7  12
ATOM     12  N   UNL d   1       0.377  -1.014  -0.921  0.00  0.00    -0.287 NA
ATOM     13  H   UNL d   1       1.031  -1.372  -1.613  0.00  0.00     0.125 HD
ATOM     14  H   UNL d   1      -0.505  -0.741  -1.338  0.00  0.00     0.125 HD
ENDBRANCH   7  12
ENDBRANCH   1   7
BRANCH   2  15
ATOM     15  C   UNL d   1      -2.341   3.365   3.253  0.00  0.00    -0.024 C 
ATOM     16  C   UNL d   1      -3.634   2.678   3.750  0.00  0.00     0.019 C 
ATOM     17  C   UNL d   1      -1.543   3.793   4.503  0.00  0.00     0.019 C 
ATOM     18  C   UNL d   1      -2.768   4.625   2.472  0.00  0.00     0.019 C 
ENDBRANCH   2  15
TORSDOF 4
