REMARK  5 active torsions:
REMARK  status: ('A' for Active; 'I' for Inactive)
REMARK    1  A    between atoms: C_2  and  S_1 
REMARK    2  A    between atoms: N_4  and  S_1 
REMARK    3  A    between atoms: C_13  and  C_11 
REMARK    4  A    between atoms: O_21  and  C_13 
REMARK    5  A    between atoms: C_24  and  O_21 
ROOT
ATOM      1  S   UNL d   1       0.675  -0.101  -0.128  0.00  0.00     0.246 S 
ATOM      2  O   UNL d   1       0.231  -1.454   0.141  0.00  0.00    -0.206 OA
ATOM      3  O   UNL d   1       0.163   0.605  -1.287  0.00  0.00    -0.206 OA
ENDROOT
BRANCH   1   4
ATOM      4  C   UNL d   1       2.420  -0.130  -0.252  0.00  0.00     0.104 A 
ATOM      5  C   UNL d   1       3.247  -0.652   0.765  0.00  0.00     0.090 A 
ATOM      6  N   UNL d   1       2.888  -1.132   1.966  0.00  0.00    -0.309 N 
ATOM      7  C   UNL d   1       4.746  -0.726   0.547  0.00  0.00     0.068 A 
ATOM      8  S   UNL d   1       4.271  -1.613   2.736  0.00  0.00     0.068 SA
ATOM      9  HN  UNL d   1       1.939  -1.188   2.336  1.00  0.00     0.176 HD
ATOM     10  N   UNL d   1       5.410  -1.255   1.585  0.00  0.00    -0.310 N 
ATOM     11  HN  UNL d   1       6.417  -1.406   1.653  1.00  0.00     0.176 HD
ATOM     12  C   UNL d   1       5.335  -0.275  -0.660  0.00  0.00     0.032 A 
ATOM     13  C   UNL d   1       4.458   0.238  -1.629  0.00  0.00     0.004 A 
ATOM     14  C   UNL d   1       3.059   0.308  -1.436  0.00  0.00     0.027 A 
ENDBRANCH   1   4
BRANCH   1  15
ATOM     15  N   UNL d   1       0.310   0.891   1.232  0.00  0.00    -0.205 NA
ATOM     16  C   UNL d   1       0.714   2.325   1.070  0.00  0.00     0.122 C 
ATOM     17  C   UNL d   1       0.451   3.137   2.342  0.00  0.00     0.100 C 
ATOM     18  C   UNL d   1      -1.019   2.990   2.757  0.00  0.00     0.017 C 
ATOM     19  C   UNL d   1      -1.407   1.522   2.910  0.00  0.00     0.016 C 
ATOM     20  C   UNL d   1      -1.120   0.740   1.636  0.00  0.00     0.107 C 
BRANCH  17  21
ATOM     21  C   UNL d   1       1.457   2.757   3.423  0.00  0.00     0.264 C 
ATOM     22  O   UNL d   1       2.643   2.544   3.205  0.00  0.00    -0.265 OA
BRANCH  21  23
ATOM     23  O   UNL d   1       0.878   2.732   4.654  0.00  0.00    -0.322 OA
BRANCH  23  24
ATOM     24  C   UNL d   1       1.628   2.121   5.712  0.00  0.00     0.174 C 
ATOM     25  C   UNL d   1       2.238   3.178   6.609  0.00  0.00     0.034 C 
ENDBRANCH  23  24
ENDBRANCH  21  23
ENDBRANCH  17  21
ENDBRANCH   1  15
TORSDOF 5
