REMARK  4 active torsions:
REMARK  status: ('A' for Active; 'I' for Inactive)
REMARK    1  A    between atoms: C_7  and  C_3 
REMARK    2  A    between atoms: C_9  and  N_4 
REMARK    3  A    between atoms: S_8  and  C_7 
REMARK    4  A    between atoms: C_11  and  S_8 
ROOT
ATOM      1  N   UNL d   1       0.851  -0.431   0.228  0.00  0.00    -0.293 N 
ATOM      2  HN  UNL d   1       1.738  -0.924   0.334  1.00  0.00     0.187 HD
ATOM      3  C   UNL d   1      -0.374  -0.978   0.116  0.00  0.00     0.107 A 
ATOM      4  N   UNL d   1       0.663   0.918   0.169  0.00  0.00    -0.287 N 
ATOM      5  C   UNL d   1      -1.345   0.046   0.002  0.00  0.00     0.062 A 
ATOM      6  C   UNL d   1      -0.675   1.246   0.054  0.00  0.00     0.028 A 
ATOM      7  C   UNL d   1      -1.285   2.598  -0.014  0.00  0.00     0.070 C 
ENDROOT
BRANCH   3   8
ATOM      8  C   UNL d   1      -0.709  -2.413   0.105  0.00  0.00     0.241 C 
ATOM      9  O   UNL d   1      -1.867  -2.782  -0.061  0.00  0.00    -0.278 OA
BRANCH   8  10
ATOM     10  S   UNL d   1       0.617  -3.534   0.384  0.00  0.00    -0.046 SA
BRANCH  10  11
ATOM     11  C   UNL d   1       0.056  -5.206   0.061  0.00  0.00     0.008 A 
ATOM     12  C   UNL d   1      -1.216  -5.598  -0.379  0.00  0.00     0.021 A 
ATOM     13  C   UNL d   1      -1.519  -6.946  -0.630  0.00  0.00     0.025 A 
ATOM     14  C   UNL d   1      -0.550  -7.924  -0.447  0.00  0.00     0.034 A 
ATOM     15  C   UNL d   1       0.715  -7.569   0.000  0.00  0.00     0.025 A 
ATOM     16 CL   UNL d   1      -0.918  -9.570  -0.779  0.00  0.00    -0.084 Cl
ATOM     17  C   UNL d   1       1.014  -6.221   0.254  0.00  0.00     0.021 A 
ENDBRANCH  10  11
ENDBRANCH   8  10
ENDBRANCH   3   8
BRANCH   4  18
ATOM     18  C   UNL d   1       1.843   1.813   0.161  0.00  0.00     0.043 C 
ATOM     19  C   UNL d   1       3.173   1.023   0.291  0.00  0.00     0.039 C 
ATOM     20  C   UNL d   1       1.918   2.578  -1.177  0.00  0.00     0.039 C 
ATOM     21  C   UNL d   1       1.814   2.796   1.352  0.00  0.00     0.039 C 
ENDBRANCH   4  18
TORSDOF 4
