REMARK  6 active torsions:
REMARK  status: ('A' for Active; 'I' for Inactive)
REMARK    1  A    between atoms: C_11  and  C_1 
REMARK    2  A    between atoms: N_20  and  C_3 
REMARK    3  A    between atoms: C_10  and  C_6 
REMARK    4  A    between atoms: N_9  and  C_16 
REMARK    5  A    between atoms: C_18  and  C_11 
REMARK    6  A    between atoms: C_14  and  C_12 
ROOT
ATOM      1  C   UNL d   1      -2.094  -0.245  -0.010  0.00  0.00     0.085 A 
ATOM      2  C   UNL d   1       0.034   0.798  -0.004  0.00  0.00     0.041 A 
ATOM      3  C   UNL d   1      -1.398   0.951   0.027  0.00  0.00     0.061 A 
ATOM      4  C   UNL d   1       0.351  -0.561  -0.029  0.00  0.00     0.088 A 
ATOM      5  S   UNL d   1      -1.023  -1.570  -0.102  0.00  0.00    -0.065 SA
ATOM      6  C   UNL d   1       1.130   1.700  -0.008  0.00  0.00     0.065 A 
ATOM      7  N   UNL d   1       1.581  -1.116  -0.004  0.00  0.00    -0.349 N 
ATOM      8  HN  UNL d   1       1.727  -2.125  -0.029  1.00  0.00     0.166 HD
ATOM      9  C   UNL d   1       2.602  -0.240   0.057  0.00  0.00     0.051 A 
ATOM     10  C   UNL d   1       2.422   1.135   0.018  0.00  0.00     0.048 A 
ENDROOT
BRANCH   1  11
ATOM     11  C   UNL d   1      -3.543  -0.392  -0.071  0.00  0.00     0.201 C 
ATOM     12  O   UNL d   1      -4.265   0.480  -0.565  0.00  0.00    -0.286 OA
BRANCH  11  13
ATOM     13  C   UNL d   1      -4.259  -1.566   0.501  0.00  0.00     0.015 A 
ATOM     14  C   UNL d   1      -5.458  -1.968  -0.113  0.00  0.00     0.018 A 
ATOM     15  C   UNL d   1      -6.215  -3.016   0.417  0.00  0.00     0.037 A 
ATOM     16  C   UNL d   1      -5.772  -3.665   1.576  0.00  0.00     0.102 A 
ATOM     17  C   UNL d   1      -4.587  -3.261   2.209  0.00  0.00     0.037 A 
ATOM     18  C   UNL d   1      -3.838  -2.204   1.676  0.00  0.00     0.018 A 
BRANCH  16  19
ATOM     19  N   UNL d   1      -6.561  -4.766   2.138  0.00  0.00    -0.116 N 
ATOM     20  O   UNL d   1      -7.609  -5.082   1.555  0.00  0.00    -0.532 OA
ATOM     21  O   UNL d   1      -6.134  -5.317   3.163  0.00  0.00    -0.532 OA
ENDBRANCH  16  19
ENDBRANCH  11  13
ENDBRANCH   1  11
BRANCH   3  22
ATOM     22  N   UNL d   1      -2.044   2.135   0.105  0.00  0.00    -0.397 N 
ATOM     23  H   UNL d   1      -1.590   3.034  -0.049  0.00  0.00     0.156 HD
ATOM     24  H   UNL d   1      -3.048   2.179  -0.098  0.00  0.00     0.156 HD
ENDBRANCH   3  22
BRANCH   6  25
ATOM     25  C   UNL d   1       1.069   3.207  -0.022  0.00  0.00     0.418 C 
ATOM     26  F   UNL d   1      -0.172   3.756  -0.095  0.00  0.00    -0.166 F 
ATOM     27  F   UNL d   1       1.646   3.748   1.088  0.00  0.00    -0.166 F 
ATOM     28  F   UNL d   1       1.754   3.729  -1.080  0.00  0.00    -0.166 F 
ENDBRANCH   6  25
BRANCH   9  29
ATOM     29  C   UNL d   1       3.937  -0.853   0.193  0.00  0.00     0.031 A 
ATOM     30  S   UNL d   1       5.213  -0.013   0.994  0.00  0.00    -0.100 SA
ATOM     31  C   UNL d   1       6.310  -1.299   0.780  0.00  0.00     0.050 A 
ATOM     32  C   UNL d   1       5.732  -2.362   0.125  0.00  0.00     0.008 A 
ATOM     33  C   UNL d   1       4.366  -2.108  -0.206  0.00  0.00     0.021 A 
ENDBRANCH   9  29
TORSDOF 6
