REMARK  7 active torsions:
REMARK  status: ('A' for Active; 'I' for Inactive)
REMARK    1  A    between atoms: C_6  and  C_1 
REMARK    2  A    between atoms: C_8  and  N_2 
REMARK    3  A    between atoms: C_9  and  C_5 
REMARK    4  A    between atoms: O_18  and  C_6 
REMARK    5  A    between atoms: C_7  and  C_9 
REMARK       I    between atoms: N_11  and  C_7 
REMARK    6  A    between atoms: C_16  and  N_11 
REMARK    7  A    between atoms: C_29  and  O_18 
ROOT
ATOM      1  C   UNL d   1      -1.076  -1.118   0.504  0.00  0.00     0.053 C 
ATOM      2  N   UNL d   1      -0.437   1.024   0.509  0.00  0.00    -0.285 N 
ATOM      3  C   UNL d   1       0.739   0.289   0.757  0.00  0.00     0.238 C 
ATOM      4  C   UNL d   1      -1.511   0.154   0.401  0.00  0.00     0.029 C 
ATOM      5  C   UNL d   1       0.420  -1.180   0.521  0.00  0.00     0.128 C 
ATOM      6  O   UNL d   1       1.828   0.698   1.134  0.00  0.00    -0.272 OA
ATOM      7  C   UNL d   1      -2.902   0.587   0.054  0.00  0.00     0.069 C 
ENDROOT
BRANCH   5   8
ATOM      8  C   UNL d   1       1.234  -2.104   1.415  0.00  0.00     0.122 C 
BRANCH   8   9
ATOM      9  C   UNL d   1       0.867  -2.176   2.880  0.00  0.00     0.223 C 
ATOM     10  N   UNL d   1       1.284  -1.091   3.622  0.00  0.00    -0.327 N 
ATOM     11  H   UNL d   1       1.579  -0.257   3.120  0.00  0.00     0.169 HD
ATOM     12  O   UNL d   1       0.301  -3.171   3.324  0.00  0.00    -0.273 OA
BRANCH  10  13
ATOM     13  C   UNL d   1       1.443  -1.052   5.026  0.00  0.00     0.034 A 
ATOM     14  C   UNL d   1       1.384  -2.186   5.847  0.00  0.00     0.032 A 
ATOM     15  C   UNL d   1       1.671  -2.090   7.213  0.00  0.00     0.044 A 
ATOM     16  C   UNL d   1       1.998  -0.856   7.760  0.00  0.00     0.116 A 
ATOM     17  C   UNL d   1       2.035   0.283   6.969  0.00  0.00     0.044 A 
ATOM     18  F   UNL d   1       2.295  -0.768   9.063  0.00  0.00    -0.206 F 
ATOM     19  C   UNL d   1       1.763   0.185   5.601  0.00  0.00     0.032 A 
ENDBRANCH  10  13
ENDBRANCH   8   9
ENDBRANCH   5   8
BRANCH   1  20
ATOM     20  C   UNL d   1      -1.958  -2.294   0.474  0.00  0.00     0.292 C 
ATOM     21  O   UNL d   1      -3.165  -2.249   0.650  0.00  0.00    -0.260 OA
BRANCH  20  22
ATOM     22  O   UNL d   1      -1.222  -3.411   0.271  0.00  0.00    -0.318 OA
BRANCH  22  23
ATOM     23  C   UNL d   1      -1.927  -4.648   0.461  0.00  0.00     0.174 C 
ATOM     24  C   UNL d   1      -1.865  -5.047   1.924  0.00  0.00     0.034 C 
ENDBRANCH  22  23
ENDBRANCH  20  22
ENDBRANCH   1  20
BRANCH   2  25
ATOM     25  C   UNL d   1      -0.417   2.448   0.464  0.00  0.00     0.042 A 
ATOM     26  C   UNL d   1       0.672   3.109  -0.133  0.00  0.00     0.033 A 
ATOM     27  C   UNL d   1       0.694   4.501  -0.250  0.00  0.00     0.044 A 
ATOM     28  C   UNL d   1      -0.363   5.245   0.252  0.00  0.00     0.116 A 
ATOM     29  C   UNL d   1      -1.438   4.622   0.872  0.00  0.00     0.044 A 
ATOM     30  F   UNL d   1      -0.344   6.579   0.141  0.00  0.00    -0.206 F 
ATOM     31  C   UNL d   1      -1.467   3.226   0.975  0.00  0.00     0.033 A 
ENDBRANCH   2  25
TORSDOF 7
