REMARK  7 active torsions:
REMARK  status: ('A' for Active; 'I' for Inactive)
REMARK    1  A    between atoms: N_12  and  C_3 
REMARK    2  A    between atoms: C_9  and  C_4 
REMARK    3  A    between atoms: C_8  and  C_5 
REMARK    4  A    between atoms: O_24  and  C_9 
REMARK       I    between atoms: C_10  and  N_13 
REMARK    5  A    between atoms: C_15  and  C_10 
REMARK    6  A    between atoms: N_13  and  N_12 
REMARK    7  A    between atoms: C_28  and  O_24 
ROOT
ATOM      1  N   UNL d   1       1.235   0.459  -0.153  0.00  0.00    -0.330 N 
ATOM      2  HN  UNL d   1       2.147   0.912  -0.204  1.00  0.00     0.168 HD
ATOM      3  C   UNL d   1       1.125  -0.899  -0.171  0.00  0.00     0.117 A 
ATOM      4  C   UNL d   1      -0.116  -1.520  -0.096  0.00  0.00     0.094 A 
ATOM      5  C   UNL d   1       0.109   1.182  -0.067  0.00  0.00     0.123 A 
ATOM      6  N   UNL d   1      -1.130   0.674  -0.019  0.00  0.00    -0.350 N 
ATOM      7  HN  UNL d   1      -1.960   1.266   0.024  1.00  0.00     0.166 HD
ATOM      8  C   UNL d   1      -1.207  -0.672  -0.030  0.00  0.00     0.110 A 
ENDROOT
BRANCH   3   9
ATOM      9  N   UNL d   1       2.345  -1.613  -0.146  0.00  0.00    -0.186 NA
ATOM     10  H   UNL d   1       2.340  -2.452  -0.729  0.00  0.00     0.154 HD
BRANCH   9  11
ATOM     11  N   UNL d   1       3.453  -0.772  -0.407  0.00  0.00    -0.281 N 
ATOM     12  C   UNL d   1       4.710  -1.240  -0.077  0.00  0.00     0.266 C 
ATOM     13  O   UNL d   1       4.974  -2.414   0.166  0.00  0.00    -0.266 OA
ATOM     14  H   UNL d   1       3.230   0.221  -0.307  0.00  0.00     0.184 HD
BRANCH  12  15
ATOM     15  C   UNL d   1       5.777  -0.196  -0.001  0.00  0.00     0.033 A 
ATOM     16  C   UNL d   1       6.849  -0.392   0.879  0.00  0.00     0.018 A 
ATOM     17  C   UNL d   1       7.857   0.571   0.989  0.00  0.00     0.025 A 
ATOM     18  C   UNL d   1       7.800   1.726   0.208  0.00  0.00     0.034 A 
ATOM     19  C   UNL d   1       6.745   1.922  -0.682  0.00  0.00     0.025 A 
ATOM     20 CL   UNL d   1       9.039   2.910   0.341  0.00  0.00    -0.084 Cl
ATOM     21  C   UNL d   1       5.734   0.964  -0.790  0.00  0.00     0.018 A 
ENDBRANCH  12  15
ENDBRANCH   9  11
ENDBRANCH   3   9
BRANCH   4  22
ATOM     22  C   UNL d   1      -0.403  -2.961  -0.007  0.00  0.00     0.298 C 
ATOM     23  O   UNL d   1      -1.543  -3.390   0.118  0.00  0.00    -0.259 OA
BRANCH  22  24
ATOM     24  O   UNL d   1       0.720  -3.714  -0.009  0.00  0.00    -0.318 OA
BRANCH  24  25
ATOM     25  C   UNL d   1       0.552  -5.057   0.478  0.00  0.00     0.174 C 
ATOM     26  C   UNL d   1       0.688  -5.043   1.991  0.00  0.00     0.034 C 
ENDBRANCH  24  25
ENDBRANCH  22  24
ENDBRANCH   4  22
BRANCH   5  27
ATOM     27  C   UNL d   1       0.218   2.641   0.008  0.00  0.00     0.049 A 
ATOM     28  S   UNL d   1       1.749   3.425  -0.000  0.00  0.00    -0.098 SA
ATOM     29  C   UNL d   1       1.040   4.976   0.104  0.00  0.00     0.050 A 
ATOM     30  C   UNL d   1      -0.333   4.914   0.151  0.00  0.00     0.009 A 
ATOM     31  C   UNL d   1      -0.805   3.572   0.102  0.00  0.00     0.023 A 
ENDBRANCH   5  27
TORSDOF 7
