REMARK  9 active torsions:
REMARK  status: ('A' for Active; 'I' for Inactive)
REMARK    1  A    between atoms: C_2  and  C_1 
REMARK    2  A    between atoms: C_5  and  C_1 
REMARK       I    between atoms: N_3  and  C_2 
REMARK       I    between atoms: C_4  and  N_3 
REMARK    3  A    between atoms: O_16  and  C_4 
REMARK    4  A    between atoms: O_17  and  C_5 
REMARK    5  A    between atoms: N_14  and  C_6 
REMARK    6  A    between atoms: C_7  and  C_18 
REMARK    7  A    between atoms: C_18  and  N_14 
REMARK    8  A    between atoms: C_19  and  O_16 
REMARK    9  A    between atoms: C_20  and  O_17 
ROOT
ATOM      1  C   UNL d   1       0.988   0.039  -0.199  0.00  0.00     0.117 C 
ATOM      2  C   UNL d   1       2.335   0.125  -0.110  0.00  0.00     0.080 C 
ENDROOT
BRANCH   1   3
ATOM      3  C   UNL d   1       0.223   0.863   0.805  0.00  0.00     0.267 C 
ATOM      4  N   UNL d   1      -1.147   0.706   0.808  0.00  0.00    -0.269 N 
ATOM      5  C   UNL d   1      -1.999   1.069   1.832  0.00  0.00     0.367 C 
ATOM      6  H   UNL d   1      -1.554  -0.004   0.202  0.00  0.00     0.174 HD
ATOM      7  O   UNL d   1      -3.086   0.527   1.980  0.00  0.00    -0.238 OA
ATOM      8  O   UNL d   1       0.826   1.631   1.553  0.00  0.00    -0.267 OA
BRANCH   5   9
ATOM      9  O   UNL d   1      -1.497   2.028   2.645  0.00  0.00    -0.304 OA
BRANCH   9  10
ATOM     10  C   UNL d   1      -2.213   2.329   3.849  0.00  0.00     0.176 C 
ATOM     11  C   UNL d   1      -3.188   3.468   3.622  0.00  0.00     0.034 C 
ENDBRANCH   9  10
ENDBRANCH   5   9
ENDBRANCH   1   3
BRANCH   1  12
ATOM     12  C   UNL d   1       0.313  -0.825  -1.205  0.00  0.00     0.299 C 
ATOM     13  O   UNL d   1      -0.899  -0.976  -1.253  0.00  0.00    -0.259 OA
BRANCH  12  14
ATOM     14  O   UNL d   1       1.212  -1.408  -2.034  0.00  0.00    -0.318 OA
BRANCH  14  15
ATOM     15  C   UNL d   1       0.773  -2.396  -2.974  0.00  0.00     0.174 C 
ATOM     16  C   UNL d   1       0.602  -3.724  -2.262  0.00  0.00     0.034 C 
ENDBRANCH  14  15
ENDBRANCH  12  14
ENDBRANCH   1  12
BRANCH   2  17
ATOM     17  N   UNL d   1       3.332  -0.592  -0.763  0.00  0.00    -0.295 NA
ATOM     18  H   UNL d   1       2.954  -1.486  -1.102  0.00  0.00     0.127 HD
BRANCH  17  19
ATOM     19  C   UNL d   1       4.026  -0.029  -1.931  0.00  0.00     0.156 C 
BRANCH  19  20
ATOM     20  C   UNL d   1       4.844  -1.043  -2.663  0.00  0.00     0.065 A 
ATOM     21  O   UNL d   1       4.423  -2.344  -2.583  0.00  0.00    -0.326 OA
ATOM     22  C   UNL d   1       5.316  -3.096  -3.274  0.00  0.00     0.142 A 
ATOM     23  C   UNL d   1       6.288  -2.298  -3.829  0.00  0.00     0.027 A 
ATOM     24  C   UNL d   1       5.979  -0.969  -3.444  0.00  0.00     0.036 A 
ENDBRANCH  19  20
ENDBRANCH  17  19
ENDBRANCH   2  17
TORSDOF 9
