REMARK  1 active torsions:
REMARK  status: ('A' for Active; 'I' for Inactive)
REMARK    1  A    between atoms: C_9  and  C_5 
ROOT
ATOM      1  C   UNL d   1       1.369  -1.364  -0.062  0.00  0.00     0.302 A 
ATOM      2  N   UNL d   1       1.192   1.425  -0.028  0.00  0.00    -0.335 N 
ATOM      3  HN  UNL d   1       1.168   2.444  -0.011  1.00  0.00     0.168 HD
ATOM      4  O   UNL d   1       2.457  -0.559  -0.089  0.00  0.00    -0.257 OA
ATOM      5  C   UNL d   1       2.305   0.780  -0.074  0.00  0.00     0.162 A 
ATOM      6  C   UNL d   1       0.036  -0.728   0.049  0.00  0.00     0.072 A 
ATOM      7  C   UNL d   1       0.021   0.668  -0.003  0.00  0.00     0.051 A 
ATOM      8  O   UNL d   1       1.512  -2.576  -0.162  0.00  0.00    -0.259 OA
ATOM      9  C   UNL d   1      -1.177  -1.447   0.161  0.00  0.00    -0.043 A 
ATOM     10  C   UNL d   1      -1.197   1.352  -0.030  0.00  0.00     0.030 A 
ATOM     11  C   UNL d   1      -2.400   0.655  -0.008  0.00  0.00     0.003 A 
ATOM     12  C   UNL d   1      -2.389  -0.733   0.095  0.00  0.00     0.008 A 
ATOM     13  C   UNL d   1      -1.285  -2.938   0.327  0.00  0.00     0.049 C 
ENDROOT
BRANCH   5  14
ATOM     14  C   UNL d   1       3.631   1.433  -0.098  0.00  0.00     0.015 A 
ATOM     15  C   UNL d   1       4.706   0.852  -0.786  0.00  0.00     0.016 A 
ATOM     16  C   UNL d   1       5.951   1.482  -0.798  0.00  0.00     0.001 A 
ATOM     17  C   UNL d   1       6.128   2.689  -0.121  0.00  0.00     0.000 A 
ATOM     18  C   UNL d   1       5.060   3.274   0.560  0.00  0.00     0.001 A 
ATOM     19  C   UNL d   1       3.809   2.653   0.566  0.00  0.00     0.016 A 
ENDBRANCH   5  14
TORSDOF 1
