REMARK  3 active torsions:
REMARK  status: ('A' for Active; 'I' for Inactive)
REMARK    1  A    between atoms: C_7  and  C_5 
REMARK       I    between atoms: N_15  and  C_7 
REMARK    2  A    between atoms: N_8  and  C_10 
REMARK    3  A    between atoms: N_9  and  C_16 
ROOT
ATOM      1  C   UNL d   1      -1.523   0.475  -0.178  0.00  0.00     0.002 C 
ATOM      2  C   UNL d   1       0.785   0.058   0.199  0.00  0.00     0.018 C 
ATOM      3  C   UNL d   1      -0.268   1.128   0.070  0.00  0.00    -0.008 C 
ATOM      4  C   UNL d   1       0.073  -1.260   0.158  0.00  0.00    -0.009 C 
ATOM      5  C   UNL d   1      -2.700   1.251  -0.250  0.00  0.00     0.046 C 
ATOM      6  C   UNL d   1      -1.271  -0.976  -0.212  0.00  0.00    -0.013 C 
ATOM      7  C   UNL d   1      -1.340   3.263   0.015  0.00  0.00     0.104 C 
ATOM      8  C   UNL d   1       2.133   0.246   0.164  0.00  0.00     0.136 C 
ATOM      9  C   UNL d   1      -0.187   2.508   0.227  0.00  0.00     0.049 C 
ATOM     10  C   UNL d   1      -2.558   2.647  -0.301  0.00  0.00     0.054 C 
ATOM     11  C   UNL d   1       0.495  -2.570   0.385  0.00  0.00     0.049 C 
ATOM     12  C   UNL d   1      -0.402  -3.615   0.118  0.00  0.00     0.103 C 
ATOM     13  C   UNL d   1       2.747   1.525   0.042  0.00  0.00     0.111 C 
ATOM     14  C   UNL d   1       3.061  -0.837   0.162  0.00  0.00     0.111 C 
ATOM     15  N   UNL d   1       3.241   2.572  -0.069  0.00  0.00    -0.191 NA
ATOM     16  N   UNL d   1       3.831  -1.711   0.151  0.00  0.00    -0.191 NA
ATOM     17  C   UNL d   1      -2.097  -2.030  -0.582  0.00  0.00     0.015 C 
ATOM     18  C   UNL d   1      -1.668  -3.351  -0.418  0.00  0.00     0.037 C 
ENDROOT
BRANCH   5  19
ATOM     19  C   UNL d   1      -4.110   0.719  -0.242  0.00  0.00     0.254 C 
ATOM     20  N   UNL d   1      -5.093   1.258   0.634  0.00  0.00    -0.348 N 
ATOM     21  C   UNL d   1      -6.485   0.824   0.417  0.00  0.00     0.126 C 
ATOM     22  C   UNL d   1      -4.945   2.503   1.399  0.00  0.00     0.126 C 
ATOM     23  C   UNL d   1      -7.365   0.926   1.667  0.00  0.00     0.020 C 
ATOM     24  C   UNL d   1      -7.255   2.290   2.335  0.00  0.00     0.003 C 
ATOM     25  C   UNL d   1      -5.798   2.571   2.654  0.00  0.00     0.020 C 
ATOM     26  O   UNL d   1      -4.386  -0.174  -1.038  0.00  0.00    -0.267 OA
ENDBRANCH   5  19
BRANCH   7  27
ATOM     27  N   UNL d   1      -1.317   4.716   0.240  0.00  0.00    -0.116 N 
ATOM     28  O   UNL d   1      -0.222   5.249   0.454  0.00  0.00    -0.532 OA
ATOM     29  O   UNL d   1      -2.406   5.308   0.243  0.00  0.00    -0.532 OA
ENDBRANCH   7  27
BRANCH  12  30
ATOM     30  N   UNL d   1      -0.022  -5.006   0.406  0.00  0.00    -0.116 N 
ATOM     31  O   UNL d   1       1.116  -5.212   0.849  0.00  0.00    -0.532 OA
ATOM     32  O   UNL d   1      -0.871  -5.887   0.208  0.00  0.00    -0.532 OA
ENDBRANCH  12  30
TORSDOF 3
