REMARK  3 active torsions:
REMARK  status: ('A' for Active; 'I' for Inactive)
REMARK    1  A    between atoms: C_9  and  C_3 
REMARK    2  A    between atoms: C_11  and  C_7 
REMARK       I    between atoms: N_10  and  C_9 
REMARK    3  A    between atoms: C_13  and  N_10 
ROOT
ATOM      1  C   UNL d   1       0.023  -0.939  -0.015  0.00  0.00     0.030 A 
ATOM      2  C   UNL d   1      -0.190   0.403   0.003  0.00  0.00     0.024 A 
ATOM      3  C   UNL d   1      -2.302  -0.907   0.120  0.00  0.00     0.081 A 
ATOM      4  C   UNL d   1      -1.174  -1.716   0.013  0.00  0.00    -0.021 A 
ATOM      5  S   UNL d   1      -1.907   0.769   0.029  0.00  0.00    -0.083 SA
ATOM      6  S   UNL d   1       1.709  -1.344  -0.050  0.00  0.00    -0.092 SA
ATOM      7  C   UNL d   1       2.152   0.324  -0.013  0.00  0.00    -0.008 A 
ATOM      8  C   UNL d   1       1.035   1.149   0.000  0.00  0.00     0.035 A 
ATOM      9  C   UNL d   1      -1.072  -3.200  -0.008  0.00  0.00     0.051 C 
ENDROOT
BRANCH   3  10
ATOM     10  C   UNL d   1      -3.668  -1.389   0.342  0.00  0.00     0.263 C 
ATOM     11  N   UNL d   1      -4.722  -0.542   0.010  0.00  0.00    -0.323 N 
ATOM     12  H   UNL d   1      -4.503   0.256  -0.570  0.00  0.00     0.169 HD
ATOM     13  O   UNL d   1      -3.862  -2.536   0.751  0.00  0.00    -0.267 OA
BRANCH  11  14
ATOM     14  C   UNL d   1      -6.083  -0.916   0.156  0.00  0.00     0.035 A 
ATOM     15  C   UNL d   1      -6.511  -1.769   1.182  0.00  0.00     0.030 A 
ATOM     16  C   UNL d   1      -7.843  -2.180   1.271  0.00  0.00     0.009 A 
ATOM     17  C   UNL d   1      -8.776  -1.752   0.326  0.00  0.00    -0.062 A 
ATOM     18  C   UNL d   1      -8.359  -0.875  -0.682  0.00  0.00     0.009 A 
ATOM     19  C   UNL d   1     -10.196  -2.230   0.421  0.00  0.00     0.048 C 
ATOM     20  C   UNL d   1      -7.027  -0.438  -0.753  0.00  0.00     0.030 A 
ENDBRANCH  11  14
ENDBRANCH   3  10
BRANCH   7  21
ATOM     21  C   UNL d   1       3.654   0.675  -0.015  0.00  0.00    -0.018 C 
ATOM     22  C   UNL d   1       4.327   0.136  -1.297  0.00  0.00     0.020 C 
ATOM     23  C   UNL d   1       3.886   2.198   0.029  0.00  0.00     0.020 C 
ATOM     24  C   UNL d   1       4.358   0.063   1.218  0.00  0.00     0.020 C 
ENDBRANCH   7  21
TORSDOF 3
