REMARK  1 active torsions:
REMARK  status: ('A' for Active; 'I' for Inactive)
REMARK    1  A    between atoms: C_14  and  C_11 
ROOT
ATOM      1  C   UNL d   1       0.145   1.668  -0.103  0.00  0.00    -0.013 C 
ATOM      2  C   UNL d   1       1.514   0.963  -0.310  0.00  0.00    -0.013 C 
ATOM      3  C   UNL d   1       1.451  -0.524  -0.668  0.00  0.00    -0.007 C 
ATOM      4  C   UNL d   1      -0.264  -0.653  -0.385  0.00  0.00    -0.013 C 
ATOM      5  C   UNL d   1      -0.909   0.653  -0.198  0.00  0.00    -0.014 C 
ATOM      6  C   UNL d   1      -0.129   3.003   0.115  0.00  0.00     0.024 C 
ATOM      7  C   UNL d   1       3.065  -1.409  -0.874  0.00  0.00    -0.040 C 
ATOM      8  C   UNL d   1       2.733   1.420   0.048  0.00  0.00     0.014 C 
ATOM      9  C   UNL d   1       3.354  -1.020   0.316  0.00  0.00    -0.051 C 
ATOM     10  C   UNL d   1       3.675   0.404   0.291  0.00  0.00     0.008 C 
ATOM     11  C   UNL d   1      -1.295  -1.627  -0.179  0.00  0.00     0.013 C 
ATOM     12  C   UNL d   1      -2.327   0.956  -0.084  0.00  0.00     0.013 C 
ATOM     13  C   UNL d   1       4.626  -2.257  -1.072  0.00  0.00     0.040 C 
ATOM     14  C   UNL d   1       3.910  -2.107   1.072  0.00  0.00     0.039 C 
ATOM     15  C   UNL d   1      -2.763  -1.289  -0.035  0.00  0.00     0.001 C 
ATOM     16  C   UNL d   1      -3.296  -0.002  -0.028  0.00  0.00     0.001 C 
ATOM     17  C   UNL d   1       5.499  -2.815  -0.225  0.00  0.00     0.005 C 
ATOM     18  C   UNL d   1       5.323  -2.116   0.918  0.00  0.00     0.005 C 
ENDROOT
BRANCH   6  19
ATOM     19  C   UNL d   1      -1.483   3.883   0.188  0.00  0.00    -0.034 C 
ATOM     20  C   UNL d   1      -2.283   4.659  -0.953  0.00  0.00     0.020 C 
ATOM     21  C   UNL d   1      -3.388   5.635  -0.765  0.00  0.00    -0.037 C 
ATOM     22  C   UNL d   1      -4.561   6.869  -1.367  0.00  0.00     0.054 C 
ATOM     23  C   UNL d   1      -3.663   5.537   0.583  0.00  0.00    -0.012 C 
ATOM     24  C   UNL d   1      -5.483   6.378  -0.504  0.00  0.00     0.054 C 
ATOM     25  C   UNL d   1      -5.578   7.514  -2.271  0.00  0.00    -0.016 C 
ATOM     26  C   UNL d   1      -6.261   5.386  -1.157  0.00  0.00    -0.016 C 
ATOM     27  C   UNL d   1      -4.839   6.155   0.751  0.00  0.00    -0.038 C 
ATOM     28  C   UNL d   1      -7.048   5.719  -2.244  0.00  0.00    -0.004 C 
ATOM     29  C   UNL d   1      -6.871   6.985  -2.669  0.00  0.00    -0.004 C 
ATOM     30  C   UNL d   1      -5.116   6.718   1.960  0.00  0.00     0.009 C 
ATOM     31  C   UNL d   1      -4.345   6.348   3.056  0.00  0.00     0.001 C 
ATOM     32  C   UNL d   1      -3.478   5.258   2.960  0.00  0.00     0.012 C 
ATOM     33  C   UNL d   1      -3.012   4.909   1.698  0.00  0.00    -0.024 C 
ATOM     34  C   UNL d   1      -1.917   4.062   1.509  0.00  0.00     0.023 C 
ENDBRANCH   6  19
TORSDOF 1
