REMARK  2 active torsions:
REMARK  status: ('A' for Active; 'I' for Inactive)
REMARK       I    between atoms: C_4  and  N_8 
REMARK    1  A    between atoms: C_9  and  C_4 
REMARK    2  A    between atoms: N_8  and  C_13 
ROOT
ATOM      1  C   UNL d   1       4.690  -0.470   0.037  0.00  0.00     0.256 C 
ATOM      2  N   UNL d   1       3.460  -1.098  -0.081  0.00  0.00    -0.323 N 
ATOM      3  O   UNL d   1       4.912   0.733  -0.005  0.00  0.00    -0.267 OA
ATOM      4  H   UNL d   1       3.435  -2.105   0.005  0.00  0.00     0.169 HD
ENDROOT
BRANCH   2   5
ATOM      5  C   UNL d   1       2.207  -0.480  -0.282  0.00  0.00     0.037 A 
ATOM      6  C   UNL d   1       2.035   0.912  -0.299  0.00  0.00     0.062 A 
ATOM      7  C   UNL d   1       0.745   1.387  -0.547  0.00  0.00     0.076 A 
ATOM      8  N   UNL d   1       0.215   2.644  -0.634  0.00  0.00    -0.282 N 
ATOM      9  C   UNL d   1      -0.349   0.569  -0.769  0.00  0.00     0.074 A 
ATOM     10  N   UNL d   1      -1.099   2.613  -0.916  0.00  0.00    -0.022 NA
ATOM     11  H   UNL d   1       0.671   3.539  -0.519  0.00  0.00     0.184 HD
ATOM     12  N   UNL d   1      -1.459   1.337  -0.999  0.00  0.00    -0.282 N 
ATOM     13  HN  UNL d   1      -2.397   0.991  -1.198  1.00  0.00     0.184 HD
ATOM     14  C   UNL d   1      -0.183  -0.821  -0.728  0.00  0.00     0.035 A 
ATOM     15  C   UNL d   1       1.104  -1.328  -0.474  0.00  0.00     0.032 A 
ENDBRANCH   2   5
BRANCH   1  16
ATOM     16  C   UNL d   1       5.843  -1.383   0.277  0.00  0.00     0.034 A 
ATOM     17  C   UNL d   1       5.919  -2.658  -0.295  0.00  0.00     0.042 A 
ATOM     18  C   UNL d   1       6.988  -3.502   0.026  0.00  0.00     0.056 A 
ATOM     19 CL   UNL d   1       6.998  -5.079  -0.682  0.00  0.00    -0.083 Cl
ATOM     20  C   UNL d   1       7.992  -3.068   0.901  0.00  0.00     0.055 A 
ATOM     21  C   UNL d   1       7.940  -1.775   1.428  0.00  0.00     0.026 A 
ATOM     22 CL   UNL d   1       9.309  -4.078   1.377  0.00  0.00    -0.083 Cl
ATOM     23  C   UNL d   1       6.872  -0.932   1.113  0.00  0.00     0.019 A 
ENDBRANCH   1  16
TORSDOF 2
