REMARK  2 active torsions:
REMARK  status: ('A' for Active; 'I' for Inactive)
REMARK    1  A    between atoms: C_2  and  N_10 
REMARK    2  A    between atoms: C_4  and  C_3 
REMARK       I    between atoms: N_10  and  C_4 
ROOT
ATOM      1  C   UNL d   1       0.171  -0.497   0.099  0.00  0.00     0.086 A 
ATOM      2  C   UNL d   1      -2.189  -0.654  -0.147  0.00  0.00     0.034 A 
ATOM      3  C   UNL d   1       0.097   0.950  -0.040  0.00  0.00     0.085 A 
ATOM      4  C   UNL d   1      -0.965  -1.332   0.039  0.00  0.00     0.051 A 
ATOM      5  O   UNL d   1       2.163   0.353   0.261  0.00  0.00    -0.156 OA
ATOM      6  N   UNL d   1       1.452  -0.837   0.278  0.00  0.00    -0.240 N 
ATOM      7  HN  UNL d   1       1.829  -1.777   0.402  1.00  0.00     0.197 HD
ATOM      8  N   UNL d   1       1.335   1.445   0.063  0.00  0.00    -0.240 N 
ATOM      9  HN  UNL d   1       1.612   2.425   0.008  1.00  0.00     0.197 HD
ATOM     10  C   UNL d   1      -2.242   0.774  -0.292  0.00  0.00     0.019 A 
ATOM     11  C   UNL d   1      -1.117   1.621  -0.247  0.00  0.00     0.035 A 
ENDROOT
BRANCH   2  12
ATOM     12  C   UNL d   1      -3.499  -1.383  -0.253  0.00  0.00     0.257 C 
ATOM     13  N   UNL d   1      -3.508  -2.722   0.088  0.00  0.00    -0.307 N 
ATOM     14  H   UNL d   1      -2.701  -3.161   0.496  0.00  0.00     0.170 HD
ATOM     15  O   UNL d   1      -4.472  -0.735  -0.631  0.00  0.00    -0.267 OA
BRANCH  13  16
ATOM     16  C   UNL d   1      -4.589  -3.562  -0.140  0.00  0.00     0.130 A 
ATOM     17  N   UNL d   1      -5.748  -3.211  -0.702  0.00  0.00    -0.245 N 
ATOM     18  O   UNL d   1      -6.494  -4.363  -0.820  0.00  0.00    -0.241 OA
ATOM     19  HN  UNL d   1      -6.028  -2.272  -0.987  1.00  0.00     0.196 HD
ATOM     20  C   UNL d   1      -5.786  -5.410  -0.329  0.00  0.00     0.076 A 
ATOM     21  C   UNL d   1      -4.585  -4.949   0.153  0.00  0.00     0.084 A 
ATOM     22  C   UNL d   1      -6.419  -6.734  -0.449  0.00  0.00     0.079 C 
ENDBRANCH  13  16
ENDBRANCH   2  12
TORSDOF 2
