REMARK  9 active torsions:
REMARK  status: ('A' for Active; 'I' for Inactive)
REMARK    1  A    between atoms: N_2  and  C_1 
REMARK    2  A    between atoms: C_3  and  C_1 
REMARK    3  A    between atoms: N_4  and  C_1 
REMARK    4  A    between atoms: C_8  and  C_1 
REMARK       I    between atoms: C_7  and  N_2 
REMARK    5  A    between atoms: C_9  and  N_4 
REMARK    6  A    between atoms: C_5  and  C_6 
REMARK    7  A    between atoms: C_10  and  C_7 
REMARK    8  A    between atoms: O_21  and  C_8 
REMARK    9  A    between atoms: C_28  and  O_21 
ROOT
ATOM      1  C   UNL d   1       1.234   0.045   0.147  0.00  0.00     0.297 C 
ENDROOT
BRANCH   1   2
ATOM      2  N   UNL d   1       0.840  -0.724   1.338  0.00  0.00    -0.315 N 
ATOM      3  C   UNL d   1       1.122  -2.063   1.483  0.00  0.00     0.254 C 
ATOM      4  O   UNL d   1       1.780  -2.699   0.674  0.00  0.00    -0.268 OA
ATOM      5  H   UNL d   1       0.025  -0.366   1.816  0.00  0.00     0.166 HD
BRANCH   3   6
ATOM      6  C   UNL d   1       0.561  -2.711   2.705  0.00  0.00     0.033 A 
ATOM      7  C   UNL d   1       0.413  -4.103   2.724  0.00  0.00     0.041 A 
ATOM      8  C   UNL d   1      -0.120  -4.723   3.855  0.00  0.00     0.035 A 
ATOM      9 CL   UNL d   1      -0.318  -6.432   3.882  0.00  0.00    -0.084 Cl
ATOM     10  C   UNL d   1      -0.500  -3.973   4.968  0.00  0.00     0.024 A 
ATOM     11  C   UNL d   1      -0.329  -2.589   4.962  0.00  0.00     0.003 A 
ATOM     12  C   UNL d   1       0.208  -1.961   3.837  0.00  0.00     0.017 A 
ENDBRANCH   3   6
ENDBRANCH   1   2
BRANCH   1  13
ATOM     13  C   UNL d   1       1.064   1.595   0.371  0.00  0.00     0.442 C 
ATOM     14  F   UNL d   1       0.208   1.812   1.419  0.00  0.00    -0.166 F 
ATOM     15  F   UNL d   1       2.202   2.248   0.707  0.00  0.00    -0.166 F 
ATOM     16  F   UNL d   1       0.533   2.244  -0.691  0.00  0.00    -0.166 F 
ENDBRANCH   1  13
BRANCH   1  17
ATOM     17  N   UNL d   1       0.477  -0.536  -0.996  0.00  0.00    -0.347 N 
ATOM     18  H   UNL d   1       0.999  -1.336  -1.371  0.00  0.00     0.163 HD
BRANCH  17  19
ATOM     19  C   UNL d   1      -0.896  -0.605  -1.183  0.00  0.00     0.045 A 
ATOM     20  C   UNL d   1      -1.451  -1.452  -2.172  0.00  0.00     0.074 A 
ATOM     21  C   UNL d   1      -2.844  -1.438  -2.427  0.00  0.00     0.018 A 
ATOM     22  C   UNL d   1      -3.696  -0.592  -1.732  0.00  0.00     0.001 A 
ATOM     23  C   UNL d   1      -3.167   0.251  -0.771  0.00  0.00     0.002 A 
ATOM     24  C   UNL d   1      -1.791   0.243  -0.509  0.00  0.00     0.030 A 
BRANCH  20  25
ATOM     25  C   UNL d   1      -0.637  -2.425  -2.996  0.00  0.00     0.419 C 
ATOM     26  F   UNL d   1       0.700  -2.427  -2.728  0.00  0.00    -0.166 F 
ATOM     27  F   UNL d   1      -1.046  -3.715  -2.814  0.00  0.00    -0.166 F 
ATOM     28  F   UNL d   1      -0.747  -2.195  -4.336  0.00  0.00    -0.166 F 
ENDBRANCH  20  25
ENDBRANCH  17  19
ENDBRANCH   1  17
BRANCH   1  29
ATOM     29  C   UNL d   1       2.763  -0.009  -0.131  0.00  0.00     0.318 C 
ATOM     30  O   UNL d   1       3.277   0.206  -1.228  0.00  0.00    -0.260 OA
BRANCH  29  31
ATOM     31  O   UNL d   1       3.475  -0.172   1.029  0.00  0.00    -0.318 OA
BRANCH  31  32
ATOM     32  C   UNL d   1       4.900  -0.043   0.921  0.00  0.00     0.174 C 
ATOM     33  C   UNL d   1       5.526  -1.338   0.445  0.00  0.00     0.034 C 
ENDBRANCH  31  32
ENDBRANCH  29  31
ENDBRANCH   1  29
TORSDOF 9
