REMARK  7 active torsions:
REMARK  status: ('A' for Active; 'I' for Inactive)
REMARK    1  A    between atoms: C_5  and  N_1 
REMARK    2  A    between atoms: C_2  and  N_9 
REMARK    3  A    between atoms: N_13  and  C_2 
REMARK    4  A    between atoms: N_9  and  C_16 
REMARK    5  A    between atoms: N_17  and  N_13 
REMARK    6  A    between atoms: C_21  and  N_17 
REMARK    7  A    between atoms: C_18  and  C_21 
ROOT
ATOM      1  N   UNL d   1       9.198   4.273  -6.635  0.00  0.00    -0.197 NA
ATOM      2  C   UNL d   1       8.227   4.896  -6.513  0.00  0.00     0.060 C 
ATOM      3  C   UNL d   1       6.974   5.696  -6.365  0.00  0.00     0.140 C 
ENDROOT
BRANCH   3   4
ATOM      4  C   UNL d   1       6.869   6.319  -4.962  0.00  0.00     0.124 C 
BRANCH   4   5
ATOM      5  N   UNL d   1       5.659   7.159  -4.793  0.00  0.00    -0.237 NA
ATOM      6  H   UNL d   1       5.730   7.615  -3.870  0.00  0.00     0.146 HD
BRANCH   5   7
ATOM      7  N   UNL d   1       4.492   6.349  -4.757  0.00  0.00    -0.298 N 
ATOM      8  H   UNL d   1       3.840   6.451  -5.534  0.00  0.00     0.183 HD
BRANCH   7   9
ATOM      9  C   UNL d   1       3.950   5.893  -3.539  0.00  0.00     0.186 C 
ATOM     10  S   UNL d   1       4.500   6.458  -2.055  0.00  0.00    -0.040 SA
BRANCH   9  11
ATOM     11  N   UNL d   1       3.037   4.866  -3.796  0.00  0.00    -0.332 N 
ATOM     12  H   UNL d   1       3.152   4.455  -4.715  0.00  0.00     0.168 HD
BRANCH  11  13
ATOM     13  C   UNL d   1       2.363   4.040  -2.864  0.00  0.00     0.034 A 
ATOM     14  C   UNL d   1       1.903   4.488  -1.632  0.00  0.00     0.032 A 
ATOM     15  C   UNL d   1       1.349   3.590  -0.712  0.00  0.00     0.031 A 
ATOM     16  C   UNL d   1       1.228   2.224  -0.994  0.00  0.00     0.030 A 
ATOM     17  C   UNL d   1       1.621   1.802  -2.268  0.00  0.00     0.031 A 
ATOM     18  C   UNL d   1       2.159   2.700  -3.203  0.00  0.00     0.032 A 
BRANCH  16  19
ATOM     19  N   UNL d   1       0.773   1.365  -0.012  0.00  0.00    -0.376 N 
ATOM     20  C   UNL d   1       1.276  -0.010   0.113  0.00  0.00     0.154 C 
ATOM     21  C   UNL d   1       0.235  -1.033  -0.382  0.00  0.00     0.136 C 
ATOM     22  C   UNL d   1       0.690  -2.454  -0.074  0.00  0.00     0.041 C 
ATOM     23  O   UNL d   1      -1.035  -0.835   0.267  0.00  0.00    -0.378 OA
ATOM     24  C   UNL d   1      -1.542   0.489   0.001  0.00  0.00     0.136 C 
ATOM     25  C   UNL d   1      -0.579   1.572   0.537  0.00  0.00     0.154 C 
ATOM     26  C   UNL d   1      -2.907   0.592   0.666  0.00  0.00     0.041 C 
ENDBRANCH  16  19
ENDBRANCH  11  13
ENDBRANCH   9  11
ENDBRANCH   7   9
ENDBRANCH   5   7
ENDBRANCH   4   5
ENDBRANCH   3   4
TORSDOF 7
