REMARK  2 active torsions:
REMARK  status: ('A' for Active; 'I' for Inactive)
REMARK    1  A    between atoms: C_4  and  C_1 
REMARK    2  A    between atoms: O_9  and  C_4 
ROOT
ATOM      1  C   UNL d   1      -2.657   0.699  -0.002  0.00  0.00     0.151 A 
ATOM      2  O   UNL d   1      -1.340   1.078   0.006  0.00  0.00    -0.297 OA
ATOM      3  C   UNL d   1      -0.590  -0.053   0.005  0.00  0.00     0.122 A 
ATOM      4  C   UNL d   1      -2.731  -0.684  -0.007  0.00  0.00     0.047 A 
ATOM      5  C   UNL d   1      -1.398  -1.166  -0.002  0.00  0.00     0.048 A 
ATOM      6 BR   UNL d   1       1.275  -0.073   0.013  0.00  0.00    -0.023 Br
ENDROOT
BRANCH   1   7
ATOM      7  C   UNL d   1      -3.695   1.703  -0.003  0.00  0.00     0.317 C 
ATOM      8  O   UNL d   1      -4.899   1.476  -0.009  0.00  0.00    -0.257 OA
BRANCH   7   9
ATOM      9  O   UNL d   1      -3.141   2.949   0.004  0.00  0.00    -0.321 OA
ATOM     10  C   UNL d   1      -4.082   4.020   0.002  0.00  0.00     0.213 C 
ENDBRANCH   7   9
ENDBRANCH   1   7
TORSDOF 2
