REMARK  1 active torsions:
REMARK  status: ('A' for Active; 'I' for Inactive)
REMARK    1  A    between atoms: C_10  and  N_2 
ROOT
ATOM      1  C   UNL d   1      -1.613  -1.262   0.061  0.00  0.00     0.277 C 
ATOM      2  N   UNL d   1      -2.395  -0.108  -0.031  0.00  0.00    -0.236 N 
ATOM      3  C   UNL d   1      -0.223  -0.826  -0.065  0.00  0.00     0.079 A 
ATOM      4  C   UNL d   1      -0.275   0.555  -0.191  0.00  0.00     0.115 A 
ATOM      5  N   UNL d   1      -1.606   1.034  -0.311  0.00  0.00    -0.179 NA
ATOM      6  N   UNL d   1       0.812   1.343  -0.173  0.00  0.00    -0.349 N 
ATOM      7  HN  UNL d   1       0.743   2.359  -0.222  1.00  0.00     0.167 HD
ATOM      8  C   UNL d   1       0.986  -1.497   0.005  0.00  0.00    -0.041 A 
ATOM      9  O   UNL d   1      -1.940  -2.423   0.227  0.00  0.00    -0.266 OA
ATOM     10  C   UNL d   1       2.132  -0.691  -0.008  0.00  0.00     0.032 A 
ATOM     11  C   UNL d   1       2.009   0.705  -0.085  0.00  0.00     0.007 A 
ATOM     12  C   UNL d   1       1.121  -2.983   0.098  0.00  0.00     0.049 C 
ATOM     13  C   UNL d   1       3.232   1.575  -0.051  0.00  0.00     0.068 C 
ATOM     14  H   UNL d   1      -1.715   1.821   0.327  0.00  0.00     0.155 HD
ENDROOT
BRANCH   2  15
ATOM     15  C   UNL d   1      -3.806  -0.011  -0.036  0.00  0.00     0.055 A 
ATOM     16  C   UNL d   1      -4.605  -1.075   0.405  0.00  0.00     0.031 A 
ATOM     17  C   UNL d   1      -6.000  -0.990   0.378  0.00  0.00     0.002 A 
ATOM     18  C   UNL d   1      -6.620   0.160  -0.098  0.00  0.00     0.000 A 
ATOM     19  C   UNL d   1      -5.844   1.231  -0.534  0.00  0.00     0.002 A 
ATOM     20  C   UNL d   1      -4.448   1.151  -0.494  0.00  0.00     0.031 A 
ENDBRANCH   2  15
TORSDOF 1
