REMARK  8 active torsions:
REMARK  status: ('A' for Active; 'I' for Inactive)
REMARK    1  A    between atoms: C_5  and  S_1 
REMARK    2  A    between atoms: N_13  and  S_1 
REMARK    3  A    between atoms: N_3  and  C_2 
REMARK    4  A    between atoms: S_10  and  C_6 
REMARK    5  A    between atoms: C_17  and  S_10 
REMARK    6  A    between atoms: C_12  and  C_17 
REMARK    7  A    between atoms: O_18  and  C_12 
REMARK    8  A    between atoms: C_19  and  O_18 
ROOT
ATOM      1  C   UNL d   1      -1.512  -3.191   0.471  0.00  0.00     0.121 A 
ATOM      2  C   UNL d   1      -0.977  -1.890   0.425  0.00  0.00     0.062 A 
ATOM      3  C   UNL d   1       0.366  -1.727   0.094  0.00  0.00     0.076 A 
ATOM      4  C   UNL d   1      -0.746  -4.330   0.179  0.00  0.00     0.034 A 
ATOM      5  C   UNL d   1       1.167  -2.837  -0.172  0.00  0.00     0.026 A 
ATOM      6  C   UNL d   1       0.612  -4.122  -0.127  0.00  0.00     0.023 A 
ENDROOT
BRANCH   4   7
ATOM      7  S   UNL d   1      -1.232  -6.048   0.332  0.00  0.00    -0.118 SA
BRANCH   7   8
ATOM      8  C   UNL d   1      -2.407  -6.332  -1.037  0.00  0.00     0.190 C 
BRANCH   8   9
ATOM      9  C   UNL d   1      -1.979  -5.836  -2.400  0.00  0.00     0.268 C 
ATOM     10  O   UNL d   1      -0.945  -5.254  -2.689  0.00  0.00    -0.264 OA
BRANCH   9  11
ATOM     11  O   UNL d   1      -3.006  -6.082  -3.274  0.00  0.00    -0.321 OA
BRANCH  11  12
ATOM     12  C   UNL d   1      -3.000  -5.311  -4.483  0.00  0.00     0.174 C 
ATOM     13  C   UNL d   1      -3.686  -3.987  -4.196  0.00  0.00     0.034 C 
ENDBRANCH  11  12
ENDBRANCH   9  11
ENDBRANCH   8   9
ENDBRANCH   7   8
ENDBRANCH   4   7
BRANCH   1  14
ATOM     14  N   UNL d   1      -2.888  -3.299   0.904  0.00  0.00    -0.114 N 
ATOM     15  O   UNL d   1      -3.139  -2.957   2.066  0.00  0.00    -0.532 OA
ATOM     16  O   UNL d   1      -3.720  -3.651   0.058  0.00  0.00    -0.532 OA
ENDBRANCH   1  14
BRANCH   3  17
ATOM     17  S   UNL d   1       1.068  -0.104   0.057  0.00  0.00     0.239 S 
ATOM     18  O   UNL d   1       2.406  -0.175  -0.481  0.00  0.00    -0.206 OA
ATOM     19  O   UNL d   1       0.753   0.556   1.298  0.00  0.00    -0.206 OA
BRANCH  17  20
ATOM     20  N   UNL d   1       0.151   0.654  -1.128  0.00  0.00    -0.225 NA
ATOM     21  H   UNL d   1       0.732   0.836  -1.948  0.00  0.00     0.136 HD
ATOM     22  H   UNL d   1      -0.269   1.501  -0.740  0.00  0.00     0.136 HD
ENDBRANCH  17  20
ENDBRANCH   3  17
TORSDOF 8
