REMARK  5 active torsions:
REMARK  status: ('A' for Active; 'I' for Inactive)
REMARK    1  A    between atoms: C_10  and  N_1 
REMARK    2  A    between atoms: S_9  and  C_2 
REMARK    3  A    between atoms: C_12  and  C_10 
REMARK    4  A    between atoms: C_15  and  C_12 
REMARK    5  A    between atoms: O_14  and  C_15 
ROOT
ATOM      1  N   UNL d   1       2.378  -0.486   0.004  0.00  0.00    -0.294 N 
ATOM      2  C   UNL d   1       2.206   0.886   0.116  0.00  0.00     0.147 A 
ATOM      3  C   UNL d   1       1.259  -1.322  -0.046  0.00  0.00     0.262 A 
ATOM      4  N   UNL d   1       1.059   1.479   0.112  0.00  0.00    -0.336 N 
ATOM      5  HN  UNL d   1       1.001   2.496   0.175  1.00  0.00     0.168 HD
ATOM      6  C   UNL d   1      -0.064  -0.679  -0.024  0.00  0.00     0.059 A 
ATOM      7  C   UNL d   1      -0.101   0.709   0.020  0.00  0.00     0.049 A 
ATOM      8  O   UNL d   1       1.318  -2.549  -0.117  0.00  0.00    -0.267 OA
ATOM      9  C   UNL d   1      -1.242  -1.434  -0.056  0.00  0.00     0.019 A 
ATOM     10  C   UNL d   1      -1.342   1.350  -0.002  0.00  0.00     0.030 A 
ATOM     11  C   UNL d   1      -2.476  -0.785  -0.064  0.00  0.00     0.001 A 
ATOM     12  C   UNL d   1      -2.526   0.608  -0.046  0.00  0.00     0.002 A 
ENDROOT
BRANCH   1  13
ATOM     13  C   UNL d   1       3.674  -1.179  -0.043  0.00  0.00     0.136 C 
BRANCH  13  14
ATOM     14  C   UNL d   1       4.070  -1.621  -1.461  0.00  0.00     0.046 C 
BRANCH  14  15
ATOM     15  C   UNL d   1       4.446  -0.478  -2.397  0.00  0.00     0.168 C 
BRANCH  15  16
ATOM     16  O   UNL d   1       5.504   0.274  -1.805  0.00  0.00    -0.396 OA
ATOM     17  C   UNL d   1       5.963   1.313  -2.663  0.00  0.00     0.201 C 
ENDBRANCH  15  16
ENDBRANCH  14  15
ENDBRANCH  13  14
ENDBRANCH   1  13
BRANCH   2  18
ATOM     18  S   UNL d   1       3.583   1.951   0.305  0.00  0.00    -0.107 SA
ATOM     19  H   UNL d   1       4.470   1.268  -0.430  0.00  0.00     0.110 HD
ENDBRANCH   2  18
TORSDOF 5
