REMARK  2 active torsions:
REMARK  status: ('A' for Active; 'I' for Inactive)
REMARK    1  A    between atoms: C_11  and  C_3 
REMARK    2  A    between atoms: C_12  and  C_8 
ROOT
ATOM      1  C   UNL d   1       0.072   0.598   0.030  0.00  0.00     0.172 A 
ATOM      2  N   UNL d   1      -0.173  -0.743   0.051  0.00  0.00    -0.235 N 
ATOM      3  C   UNL d   1      -1.997   0.310   0.050  0.00  0.00     0.207 A 
ATOM      4  N   UNL d   1      -1.020   1.305   0.026  0.00  0.00    -0.316 N 
ATOM      5  HN  UNL d   1      -1.132   2.319   0.010  1.00  0.00     0.169 HD
ATOM      6  N   UNL d   1      -1.503  -0.955   0.072  0.00  0.00    -0.273 N 
ATOM      7  HN  UNL d   1      -2.010  -1.840   0.098  1.00  0.00     0.189 HD
ATOM      8  C   UNL d   1       2.084  -0.806  -0.021  0.00  0.00     0.060 A 
ATOM      9  C   UNL d   1       0.955  -1.551   0.025  0.00  0.00     0.052 A 
ATOM     10  S   UNL d   1       1.762   0.946  -0.025  0.00  0.00    -0.048 SA
ATOM     11  C   UNL d   1       0.801  -3.034   0.004  0.00  0.00     0.072 C 
ENDROOT
BRANCH   8  12
ATOM     12  C   UNL d   1       3.397  -1.327  -0.062  0.00  0.00     0.068 A 
ATOM     13  N   UNL d   1       4.404  -0.589  -0.638  0.00  0.00    -0.300 N 
ATOM     14  N   UNL d   1       5.598  -1.202  -0.642  0.00  0.00    -0.311 N 
ATOM     15  H   UNL d   1       4.338   0.336  -1.053  0.00  0.00     0.187 HD
ATOM     16  C   UNL d   1       5.359  -2.361  -0.029  0.00  0.00     0.109 A 
ATOM     17  HN  UNL d   1       6.481  -0.862  -1.023  1.00  0.00     0.186 HD
ATOM     18  C   UNL d   1       4.013  -2.491   0.355  0.00  0.00     0.051 A 
ENDBRANCH   8  12
BRANCH   3  19
ATOM     19  C   UNL d   1      -3.482   0.616   0.032  0.00  0.00     0.450 C 
ATOM     20  F   UNL d   1      -3.746   1.951   0.045  0.00  0.00    -0.163 F 
ATOM     21  F   UNL d   1      -4.093   0.114  -1.077  0.00  0.00    -0.163 F 
ATOM     22  F   UNL d   1      -4.129   0.086   1.107  0.00  0.00    -0.163 F 
ENDBRANCH   3  19
TORSDOF 2
