REMARK  2 active torsions:
REMARK  status: ('A' for Active; 'I' for Inactive)
REMARK    1  A    between atoms: C_6  and  C_1 
REMARK       I    between atoms: N_11  and  C_6 
REMARK    2  A    between atoms: N_14  and  N_11 
ROOT
ATOM      1  C   UNL d   1       1.258  -1.466   0.042  0.00  0.00     0.047 A 
ATOM      2  C   UNL d   1      -0.001  -0.812   0.011  0.00  0.00     0.008 A 
ATOM      3  N   UNL d   1       1.172   1.304  -0.072  0.00  0.00    -0.359 N 
ATOM      4  HN  UNL d   1       1.144   2.323  -0.123  1.00  0.00     0.166 HD
ATOM      5  C   UNL d   1       0.033   0.597  -0.038  0.00  0.00     0.043 A 
ATOM      6  C   UNL d   1       2.442  -0.719   0.025  0.00  0.00     0.042 A 
ATOM      7  C   UNL d   1       2.355   0.658  -0.036  0.00  0.00     0.006 A 
ATOM      8  C   UNL d   1      -1.272  -1.451   0.016  0.00  0.00     0.033 A 
ATOM      9  C   UNL d   1      -1.158   1.310  -0.063  0.00  0.00     0.031 A 
ATOM     10  C   UNL d   1      -2.452  -0.709  -0.010  0.00  0.00     0.011 A 
ATOM     11  C   UNL d   1      -2.402   0.675  -0.045  0.00  0.00     0.021 A 
ATOM     12 BR   UNL d   1      -4.125  -1.586   0.001  0.00  0.00    -0.051 Br
ATOM     13  C   UNL d   1       3.596   1.498  -0.077  0.00  0.00     0.068 C 
ENDROOT
BRANCH   1  14
ATOM     14  C   UNL d   1       1.376  -2.949   0.146  0.00  0.00     0.266 C 
ATOM     15  O   UNL d   1       0.605  -3.611   0.833  0.00  0.00    -0.266 OA
ATOM     16  N   UNL d   1       2.419  -3.528  -0.575  0.00  0.00    -0.290 N 
ATOM     17  H   UNL d   1       2.937  -2.995  -1.270  0.00  0.00     0.183 HD
BRANCH  16  18
ATOM     18  N   UNL d   1       2.563  -4.933  -0.567  0.00  0.00    -0.247 NA
ATOM     19  H   UNL d   1       1.650  -5.322  -0.290  0.00  0.00     0.143 HD
ATOM     20  H   UNL d   1       3.169  -5.180   0.222  0.00  0.00     0.143 HD
ENDBRANCH  16  18
ENDBRANCH   1  14
TORSDOF 2
