REMARK  4 active torsions:
REMARK  status: ('A' for Active; 'I' for Inactive)
REMARK    1  A    between atoms: C_6  and  C_1 
REMARK    2  A    between atoms: C_12  and  N_2 
REMARK    3  A    between atoms: O_11  and  C_4 
REMARK    4  A    between atoms: C_13  and  C_12 
ROOT
ATOM      1  N   UNL d   1      -3.285  -2.439  -0.026  0.00  0.00    -0.394 N 
ATOM      2  HN  UNL d   1      -3.805  -1.562   0.004  1.00  0.00     0.159 HD
ATOM      3  C   UNL d   1      -1.996  -2.465  -0.023  0.00  0.00     0.097 C 
ENDROOT
BRANCH   3   4
ATOM      4  C   UNL d   1      -1.233  -1.196  -0.010  0.00  0.00     0.014 A 
ATOM      5  C   UNL d   1      -1.886   0.046  -0.035  0.00  0.00     0.077 A 
ATOM      6  C   UNL d   1      -1.157   1.230  -0.034  0.00  0.00     0.039 A 
ATOM      7  C   UNL d   1       0.236   1.183  -0.003  0.00  0.00     0.026 A 
ATOM      8  C   UNL d   1       0.887  -0.052   0.024  0.00  0.00     0.035 A 
ATOM      9  C   UNL d   1       0.163  -1.247   0.019  0.00  0.00     0.039 A 
ATOM     10 CL   UNL d   1       2.607  -0.101   0.063  0.00  0.00    -0.084 Cl
BRANCH   5  11
ATOM     11  O   UNL d   1      -3.248   0.166  -0.066  0.00  0.00    -0.360 OA
ATOM     12  H   UNL d   1      -3.613  -0.749  -0.050  0.00  0.00     0.217 HD
ENDBRANCH   5  11
ENDBRANCH   3   4
BRANCH   1  13
ATOM     13  C   UNL d   1      -3.964  -3.739  -0.076  0.00  0.00     0.157 C 
BRANCH  13  14
ATOM     14  C   UNL d   1      -4.825  -3.900  -1.311  0.00  0.00    -0.041 A 
ATOM     15  C   UNL d   1      -5.093  -5.183  -1.811  0.00  0.00     0.009 A 
ATOM     16  C   UNL d   1      -5.924  -5.357  -2.920  0.00  0.00     0.001 A 
ATOM     17  C   UNL d   1      -6.506  -4.253  -3.537  0.00  0.00     0.000 A 
ATOM     18  C   UNL d   1      -6.260  -2.974  -3.045  0.00  0.00     0.001 A 
ATOM     19  C   UNL d   1      -5.430  -2.799  -1.936  0.00  0.00     0.009 A 
ENDBRANCH  13  14
ENDBRANCH   1  13
TORSDOF 4
