REMARK  7 active torsions:
REMARK  status: ('A' for Active; 'I' for Inactive)
REMARK    1  A    between atoms: C_3  and  C_1 
REMARK    2  A    between atoms: N_8  and  C_2 
REMARK       I    between atoms: C_13  and  N_8 
REMARK    3  A    between atoms: C_19  and  C_13 
REMARK    4  A    between atoms: C_14  and  C_20 
REMARK    5  A    between atoms: O_18  and  C_14 
REMARK    6  A    between atoms: O_17  and  C_19 
REMARK    7  A    between atoms: C_20  and  O_17 
ROOT
ATOM      1  C   UNL d   1      -3.892  -2.315   0.863  0.00  0.00     0.090 A 
ATOM      2  C   UNL d   1      -3.382  -1.394  -0.047  0.00  0.00     0.038 A 
ATOM      3  S   UNL d   1      -5.489  -2.756   0.482  0.00  0.00    -0.083 SA
ATOM      4  C   UNL d   1      -4.321  -1.115  -1.119  0.00  0.00    -0.040 A 
ATOM      5  C   UNL d   1      -5.511  -1.785  -0.907  0.00  0.00     0.059 A 
ATOM      6  C   UNL d   1      -4.111  -0.293  -2.351  0.00  0.00     0.049 C 
ENDROOT
BRANCH   1   7
ATOM      7  N   UNL d   1      -3.273  -2.810   2.008  0.00  0.00    -0.319 N 
ATOM      8  C   UNL d   1      -3.818  -3.704   2.918  0.00  0.00     0.246 C 
ATOM      9  O   UNL d   1      -4.899  -4.283   2.855  0.00  0.00    -0.271 OA
ATOM     10  H   UNL d   1      -2.328  -2.470   2.158  0.00  0.00     0.169 HD
BRANCH   8  11
ATOM     11  C   UNL d   1      -2.948  -3.895   4.168  0.00  0.00     0.271 C 
BRANCH  11  12
ATOM     12  O   UNL d   1      -3.124  -2.890   5.167  0.00  0.00    -0.372 OA
BRANCH  12  13
ATOM     13  C   UNL d   1      -4.460  -2.910   5.713  0.00  0.00     0.277 C 
BRANCH  13  14
ATOM     14  C   UNL d   1      -4.547  -1.890   6.843  0.00  0.00     0.164 C 
ATOM     15  O   UNL d   1      -5.553  -1.644   7.484  0.00  0.00    -0.648 OA
BRANCH  14  16
ATOM     16  O   UNL d   1      -3.356  -1.278   7.067  0.00  0.00    -0.775 OA
ATOM     17  H   UNL d   1      -2.707  -1.645   6.422  0.00  0.00     0.167 HD
ENDBRANCH  14  16
ENDBRANCH  13  14
ENDBRANCH  12  13
ENDBRANCH  11  12
ENDBRANCH   8  11
ENDBRANCH   1   7
BRANCH   2  18
ATOM     18  C   UNL d   1      -1.992  -0.810   0.103  0.00  0.00     0.089 C 
ATOM     19  N   UNL d   1      -1.017  -1.483   0.687  0.00  0.00    -0.349 N 
ATOM     20  C   UNL d   1       0.187  -0.807   0.504  0.00  0.00     0.050 A 
ATOM     21  HN  UNL d   1      -1.129  -2.361   1.194  1.00  0.00     0.166 HD
ATOM     22  C   UNL d   1       1.475  -1.293   0.814  0.00  0.00     0.031 A 
ATOM     23  C   UNL d   1       0.078   0.467  -0.053  0.00  0.00     0.033 A 
ATOM     24  C   UNL d   1       2.600  -0.495   0.570  0.00  0.00     0.002 A 
ATOM     25  C   UNL d   1       2.458   0.785   0.042  0.00  0.00     0.002 A 
ATOM     26  C   UNL d   1       1.196   1.290  -0.274  0.00  0.00     0.021 A 
ATOM     27  S   UNL d   1      -1.571   0.777  -0.406  0.00  0.00    -0.069 SA
ENDBRANCH   2  18
TORSDOF 7
