REMARK  2 active torsions:
REMARK  status: ('A' for Active; 'I' for Inactive)
REMARK    1  A    between atoms: C_4  and  N_1 
REMARK    2  A    between atoms: C_2  and  C_3 
ROOT
ATOM      1  C   UNL d   1      -1.569   5.096  -0.011  0.00  0.00     0.063 A 
ATOM      2  C   UNL d   1      -0.771   2.452   0.048  0.00  0.00     0.112 A 
ATOM      3  N   UNL d   1      -0.246   3.277  -0.895  0.00  0.00    -0.351 N 
ATOM      4  HN  UNL d   1       0.435   2.935  -1.574  1.00  0.00     0.166 HD
ATOM      5  C   UNL d   1      -0.655   4.568  -0.906  0.00  0.00     0.106 A 
ATOM      6  C   UNL d   1      -2.086   4.236   0.962  0.00  0.00     0.021 A 
ATOM      7  C   UNL d   1      -1.687   2.898   0.996  0.00  0.00     0.050 A 
ENDROOT
BRANCH   2   8
ATOM      8  N   UNL d   1      -0.360   1.091   0.030  0.00  0.00    -0.303 N 
ATOM      9  C   UNL d   1       0.562   0.550  -0.840  0.00  0.00     0.189 A 
ATOM     10  N   UNL d   1       0.739  -0.740  -0.647  0.00  0.00    -0.360 N 
ATOM     11  C   UNL d   1      -0.095  -1.061   0.385  0.00  0.00     0.106 A 
ATOM     12  HN  UNL d   1       1.363  -1.363  -1.158  1.00  0.00     0.166 HD
ATOM     13  C   UNL d   1      -0.779   0.048   0.828  0.00  0.00     0.116 A 
ENDBRANCH   2   8
BRANCH   1  14
ATOM     14  C   UNL d   1      -1.990   6.532  -0.090  0.00  0.00     0.418 C 
ATOM     15  F   UNL d   1      -1.392   7.222  -1.099  0.00  0.00    -0.166 F 
ATOM     16  F   UNL d   1      -3.330   6.668  -0.287  0.00  0.00    -0.166 F 
ATOM     17  F   UNL d   1      -1.709   7.219   1.051  0.00  0.00    -0.166 F 
ENDBRANCH   1  14
TORSDOF 2
