REMARK  6 active torsions:
REMARK  status: ('A' for Active; 'I' for Inactive)
REMARK    1  A    between atoms: C_9  and  C_1 
REMARK    2  A    between atoms: N_17  and  C_3 
REMARK    3  A    between atoms: C_16  and  C_6 
REMARK       I    between atoms: N_15  and  C_9 
REMARK    4  A    between atoms: C_19  and  C_12 
REMARK    5  A    between atoms: N_13  and  N_15 
REMARK    6  A    between atoms: C_21  and  C_20 
ROOT
ATOM      1  C   UNL d   1      -2.582  -0.748   0.009  0.00  0.00     0.103 A 
ATOM      2  C   UNL d   1      -0.216  -1.002  -0.003  0.00  0.00     0.040 A 
ATOM      3  C   UNL d   1      -1.515  -1.629  -0.095  0.00  0.00     0.062 A 
ATOM      4  C   UNL d   1      -0.399   0.372   0.072  0.00  0.00     0.103 A 
ATOM      5  S   UNL d   1      -2.031   0.861   0.102  0.00  0.00    -0.062 SA
ATOM      6  C   UNL d   1       1.138  -1.466   0.022  0.00  0.00     0.018 A 
ATOM      7  N   UNL d   1       1.831   0.862   0.138  0.00  0.00    -0.298 N 
ATOM      8  HN  UNL d   1       2.588   1.544   0.169  1.00  0.00     0.187 HD
ATOM      9  N   UNL d   1       0.582   1.289   0.129  0.00  0.00    -0.292 N 
ATOM     10  HN  UNL d   1       0.368   2.285   0.162  1.00  0.00     0.187 HD
ATOM     11  C   UNL d   1       2.136  -0.465   0.108  0.00  0.00     0.070 A 
ENDROOT
BRANCH   1  12
ATOM     12  C   UNL d   1      -3.995  -1.122   0.017  0.00  0.00     0.279 C 
ATOM     13  N   UNL d   1      -4.942  -0.098  -0.012  0.00  0.00    -0.266 N 
ATOM     14  H   UNL d   1      -4.672   0.877  -0.061  0.00  0.00     0.190 HD
ATOM     15  O   UNL d   1      -4.341  -2.306   0.023  0.00  0.00    -0.265 OA
BRANCH  13  16
ATOM     16  N   UNL d   1      -6.250  -0.470  -0.095  0.00  0.00    -0.308 N 
ATOM     17  C   UNL d   1      -7.158   0.439  -0.209  0.00  0.00     0.118 C 
ATOM     18  HN  UNL d   1      -6.508  -1.456  -0.066  1.00  0.00     0.186 HD
BRANCH  17  19
ATOM     19  C   UNL d   1      -8.577   0.036  -0.343  0.00  0.00    -0.019 A 
ATOM     20  C   UNL d   1      -8.930  -1.320  -0.316  0.00  0.00     0.013 A 
ATOM     21  C   UNL d   1     -10.263  -1.701  -0.472  0.00  0.00     0.001 A 
ATOM     22  C   UNL d   1     -11.246  -0.731  -0.653  0.00  0.00     0.000 A 
ATOM     23  C   UNL d   1     -10.897   0.620  -0.675  0.00  0.00     0.001 A 
ATOM     24  C   UNL d   1      -9.563   1.008  -0.522  0.00  0.00     0.013 A 
ENDBRANCH  17  19
ENDBRANCH  13  16
ENDBRANCH   1  12
BRANCH   3  25
ATOM     25  N   UNL d   1      -1.723  -2.956  -0.249  0.00  0.00    -0.397 N 
ATOM     26  H   UNL d   1      -1.033  -3.591  -0.641  0.00  0.00     0.156 HD
ATOM     27  H   UNL d   1      -2.681  -3.322  -0.305  0.00  0.00     0.156 HD
ENDBRANCH   3  25
BRANCH   6  28
ATOM     28  C   UNL d   1       1.426  -2.914  -0.040  0.00  0.00    -0.023 A 
ATOM     29  C   UNL d   1       2.257  -3.456  -1.038  0.00  0.00     0.012 A 
ATOM     30  C   UNL d   1       2.546  -4.824  -1.076  0.00  0.00     0.001 A 
ATOM     31  C   UNL d   1       1.975  -5.685  -0.144  0.00  0.00     0.000 A 
ATOM     32  C   UNL d   1       1.145  -5.176   0.849  0.00  0.00     0.001 A 
ATOM     33  C   UNL d   1       0.901  -3.802   0.918  0.00  0.00     0.012 A 
ENDBRANCH   6  28
BRANCH  11  34
ATOM     34  C   UNL d   1       3.600  -0.725   0.157  0.00  0.00    -0.007 A 
ATOM     35  C   UNL d   1       4.488   0.047  -0.619  0.00  0.00     0.014 A 
ATOM     36  C   UNL d   1       5.863  -0.215  -0.638  0.00  0.00     0.001 A 
ATOM     37  C   UNL d   1       6.384  -1.259   0.120  0.00  0.00     0.000 A 
ATOM     38  C   UNL d   1       5.537  -2.016   0.922  0.00  0.00     0.001 A 
ATOM     39  C   UNL d   1       4.166  -1.735   0.956  0.00  0.00     0.014 A 
ENDBRANCH  11  34
TORSDOF 6
