REMARK  10 active torsions:
REMARK  status: ('A' for Active; 'I' for Inactive)
REMARK    1  A    between atoms: C_2  and  S_1 
REMARK    2  A    between atoms: N_6  and  S_1 
REMARK    3  A    between atoms: C_10  and  C_4 
REMARK    4  A    between atoms: C_13  and  N_6 
REMARK    5  A    between atoms: C_14  and  C_13 
REMARK    6  A    between atoms: C_17  and  C_14 
REMARK    7  A    between atoms: O_23  and  C_14 
REMARK    8  A    between atoms: O_15  and  C_17 
REMARK    9  A    between atoms: C_16  and  O_15 
REMARK   10  A    between atoms: O_24  and  C_18 
ROOT
ATOM      1  N   UNL d   1       0.344   1.085   1.008  0.00  0.00    -0.312 N 
ATOM      2  H   UNL d   1      -0.657   1.175   0.864  0.00  0.00     0.172 HD
ENDROOT
BRANCH   1   3
ATOM      3  S   UNL d   1       0.974  -0.099  -0.011  0.00  0.00     0.265 S 
ATOM      4  O   UNL d   1       0.066  -0.194  -1.136  0.00  0.00    -0.200 OA
ATOM      5  O   UNL d   1       2.387   0.156  -0.177  0.00  0.00    -0.200 OA
BRANCH   3   6
ATOM      6  C   UNL d   1       0.892  -1.680   0.802  0.00  0.00     0.120 A 
ATOM      7  S   UNL d   1      -0.632  -2.166   1.404  0.00  0.00    -0.075 SA
ATOM      8  C   UNL d   1       0.009  -3.602   2.104  0.00  0.00     0.033 A 
ATOM      9  C   UNL d   1       1.358  -3.723   1.813  0.00  0.00     0.023 A 
ATOM     10  C   UNL d   1       1.863  -2.623   1.063  0.00  0.00     0.034 A 
BRANCH   8  11
ATOM     11  C   UNL d   1      -0.815  -4.485   2.944  0.00  0.00     0.049 A 
ATOM     12  N   UNL d   1      -0.117  -5.108   3.927  0.00  0.00    -0.365 N 
ATOM     13  C   UNL d   1      -0.809  -5.883   4.791  0.00  0.00     0.088 A 
ATOM     14  HN  UNL d   1       0.893  -4.996   4.010  1.00  0.00     0.165 HD
ATOM     15  C   UNL d   1      -2.178  -6.075   4.724  0.00  0.00     0.017 A 
ATOM     16  C   UNL d   1      -2.877  -5.452   3.698  0.00  0.00     0.004 A 
ATOM     17  C   UNL d   1      -2.189  -4.648   2.789  0.00  0.00     0.031 A 
ENDBRANCH   8  11
ENDBRANCH   3   6
ENDBRANCH   1   3
BRANCH   1  18
ATOM     18  C   UNL d   1       0.892   1.194   2.368  0.00  0.00     0.166 C 
BRANCH  18  19
ATOM     19  C   UNL d   1       0.338   2.412   3.134  0.00  0.00     0.161 C 
BRANCH  19  20
ATOM     20  C   UNL d   1      -1.194   2.354   3.284  0.00  0.00     0.209 C 
BRANCH  20  21
ATOM     21  O   UNL d   1      -1.665   3.507   3.987  0.00  0.00    -0.349 OA
BRANCH  21  22
ATOM     22  C   UNL d   1      -3.017   3.582   4.198  0.00  0.00     0.069 A 
ATOM     23  C   UNL d   1      -3.969   2.673   3.735  0.00  0.00     0.039 A 
ATOM     24  C   UNL d   1      -5.328   2.855   4.025  0.00  0.00     0.039 A 
ATOM     25  C   UNL d   1      -5.749   3.952   4.777  0.00  0.00     0.068 A 
ATOM     26  C   UNL d   1      -4.797   4.864   5.234  0.00  0.00     0.039 A 
ATOM     27  C   UNL d   1      -3.441   4.681   4.947  0.00  0.00     0.039 A 
BRANCH  25  28
ATOM     28  O   UNL d   1      -7.041   4.239   5.119  0.00  0.00    -0.356 OA
ATOM     29  C   UNL d   1      -8.037   3.322   4.682  0.00  0.00     0.210 C 
ENDBRANCH  25  28
ENDBRANCH  21  22
ENDBRANCH  20  21
ENDBRANCH  19  20
BRANCH  19  30
ATOM     30  O   UNL d   1       0.969   2.450   4.424  0.00  0.00    -0.392 OA
ATOM     31  H   UNL d   1       0.575   1.761   4.987  0.00  0.00     0.210 HD
ENDBRANCH  19  30
ENDBRANCH  18  19
ENDBRANCH   1  18
TORSDOF 10
