REMARK  6 active torsions:
REMARK  status: ('A' for Active; 'I' for Inactive)
REMARK    1  A    between atoms: C_2  and  C_1 
REMARK    2  A    between atoms: C_4  and  C_2 
REMARK    3  A    between atoms: N_9  and  C_3 
REMARK    4  A    between atoms: C_5  and  C_6 
REMARK    5  A    between atoms: C_14  and  N_9 
REMARK    6  A    between atoms: C_21  and  C_19 
ROOT
ATOM      1  C   UNL d   1       0.906   0.082   0.042  0.00  0.00     0.072 C 
ATOM      2  C   UNL d   1       2.243   0.146  -0.036  0.00  0.00     0.092 C 
ENDROOT
BRANCH   2   3
ATOM      3  N   UNL d   1       3.037   1.248   0.190  0.00  0.00    -0.366 N 
ATOM      4  H   UNL d   1       2.574   2.076   0.546  0.00  0.00     0.165 HD
BRANCH   3   5
ATOM      5  C   UNL d   1       4.415   1.381  -0.062  0.00  0.00     0.031 A 
ATOM      6  C   UNL d   1       5.110   0.540  -0.937  0.00  0.00     0.030 A 
ATOM      7  C   UNL d   1       6.492   0.666  -1.120  0.00  0.00     0.017 A 
ATOM      8  C   UNL d   1       7.218   1.634  -0.419  0.00  0.00     0.009 A 
ATOM      9  C   UNL d   1       6.547   2.464   0.482  0.00  0.00     0.017 A 
ATOM     10  C   UNL d   1       5.158   2.335   0.654  0.00  0.00     0.030 A 
BRANCH   8  11
ATOM     11  C   UNL d   1       8.688   1.706  -0.656  0.00  0.00     0.155 C 
ATOM     12  O   UNL d   1       9.289   0.696  -1.019  0.00  0.00    -0.293 OA
ATOM     13  C   UNL d   1       9.415   3.017  -0.503  0.00  0.00     0.096 C 
ENDBRANCH   8  11
ENDBRANCH   3   5
ENDBRANCH   2   3
BRANCH   1  14
ATOM     14  C   UNL d   1       0.203  -1.220  -0.170  0.00  0.00     0.183 C 
ATOM     15  O   UNL d   1       0.790  -2.291  -0.107  0.00  0.00    -0.288 OA
BRANCH  14  16
ATOM     16  C   UNL d   1      -1.269  -1.178  -0.403  0.00  0.00     0.014 A 
ATOM     17  C   UNL d   1      -1.883  -0.123  -1.089  0.00  0.00     0.016 A 
ATOM     18  C   UNL d   1      -3.271  -0.118  -1.277  0.00  0.00     0.008 A 
ATOM     19  C   UNL d   1      -4.062  -1.170  -0.797  0.00  0.00    -0.059 A 
ATOM     20  C   UNL d   1      -3.439  -2.236  -0.134  0.00  0.00     0.008 A 
ATOM     21  C   UNL d   1      -2.052  -2.245   0.054  0.00  0.00     0.016 A 
BRANCH  19  22
ATOM     22  C   UNL d   1      -5.560  -1.159  -0.990  0.00  0.00     0.034 C 
ATOM     23  C   UNL d   1      -6.296  -0.493   0.164  0.00  0.00     0.010 C 
ENDBRANCH  19  22
ENDBRANCH  14  16
ENDBRANCH   1  14
TORSDOF 6
