REMARK  5 active torsions:
REMARK  status: ('A' for Active; 'I' for Inactive)
REMARK    1  A    between atoms: N_2  and  C_1 
REMARK    2  A    between atoms: S_6  and  C_3 
REMARK       I    between atoms: C_4  and  N_5 
REMARK    3  A    between atoms: C_10  and  C_4 
REMARK    4  A    between atoms: N_5  and  C_8 
REMARK    5  A    between atoms: C_9  and  S_6 
ROOT
ATOM      1  C   UNL d   1       4.427   1.890   0.989  0.00  0.00     0.052 C 
ATOM      2  C   UNL d   1       4.673   1.666  -0.380  0.00  0.00     0.032 C 
ATOM      3  C   UNL d   1       4.925   3.052   1.593  0.00  0.00     0.031 C 
ATOM      4  C   UNL d   1       5.579   2.504  -1.054  0.00  0.00     0.021 C 
ATOM      5  C   UNL d   1       6.121   3.622  -0.425  0.00  0.00     0.002 C 
ATOM      6  C   UNL d   1       5.764   3.916   0.887  0.00  0.00     0.002 C 
ENDROOT
BRANCH   2   7
ATOM      7  S   UNL d   1       3.655   0.540  -1.367  0.00  0.00    -0.086 SA
BRANCH   7   8
ATOM      8  C   UNL d   1       3.153   1.659  -2.680  0.00  0.00     0.038 A 
ATOM      9  C   UNL d   1       2.397   2.829  -2.501  0.00  0.00     0.121 A 
ATOM     10  C   UNL d   1       2.264   3.789  -3.515  0.00  0.00     0.061 A 
ATOM     11  C   UNL d   1       2.877   3.556  -4.741  0.00  0.00     0.036 A 
ATOM     12  C   UNL d   1       3.577   2.372  -4.969  0.00  0.00     0.025 A 
ATOM     13 CL   UNL d   1       2.789   4.746  -5.979  0.00  0.00    -0.084 Cl
ATOM     14  C   UNL d   1       3.710   1.427  -3.947  0.00  0.00     0.023 A 
BRANCH   9  15
ATOM     15  N   UNL d   1       1.730   3.101  -1.242  0.00  0.00    -0.114 N 
ATOM     16  O   UNL d   1       0.863   2.298  -0.875  0.00  0.00    -0.532 OA
ATOM     17  O   UNL d   1       2.031   4.154  -0.663  0.00  0.00    -0.532 OA
ENDBRANCH   9  15
ENDBRANCH   7   8
ENDBRANCH   2   7
BRANCH   1  18
ATOM     18  N   UNL d   1       3.693   1.008   1.815  0.00  0.00    -0.324 N 
ATOM     19  C   UNL d   1       3.981  -0.353   1.888  0.00  0.00     0.255 C 
ATOM     20  O   UNL d   1       4.840  -0.913   1.200  0.00  0.00    -0.270 OA
ATOM     21  H   UNL d   1       3.302   1.402   2.667  0.00  0.00     0.169 HD
BRANCH  19  22
ATOM     22  C   UNL d   1       3.203  -1.149   2.939  0.00  0.00     0.270 C 
ATOM     23 CL   UNL d   1       2.440  -0.100   4.159  0.00  0.00    -0.098 Cl
ATOM     24 CL   UNL d   1       1.988  -2.154   2.132  0.00  0.00    -0.098 Cl
ENDBRANCH  19  22
ENDBRANCH   1  18
TORSDOF 5
