REMARK  7 active torsions:
REMARK  status: ('A' for Active; 'I' for Inactive)
REMARK    1  A    between atoms: N_2  and  C_1 
REMARK    2  A    between atoms: N_3  and  C_1 
REMARK    3  A    between atoms: C_9  and  N_2 
REMARK    4  A    between atoms: C_12  and  N_2 
REMARK    5  A    between atoms: C_7  and  N_3 
REMARK    6  A    between atoms: C_10  and  C_12 
REMARK    7  A    between atoms: O_13  and  C_11 
ROOT
ATOM      1  N   UNL d   1       0.286  -3.939  -2.060  0.00  0.00    -0.197 NA
ATOM      2  C   UNL d   1       0.871  -2.940  -2.200  0.00  0.00     0.060 C 
ATOM      3  C   UNL d   1       1.633  -1.693  -2.395  0.00  0.00     0.143 C 
ENDROOT
BRANCH   3   4
ATOM      4  C   UNL d   1       0.729  -0.452  -2.459  0.00  0.00     0.139 C 
BRANCH   4   5
ATOM      5  N   UNL d   1      -0.042  -0.202  -1.230  0.00  0.00    -0.352 N 
BRANCH   5   6
ATOM      6  C   UNL d   1       0.709   0.152  -0.075  0.00  0.00     0.174 C 
ATOM      7  S   UNL d   1       1.693   1.512  -0.015  0.00  0.00    -0.041 SA
BRANCH   6   8
ATOM      8  N   UNL d   1       0.548  -0.827   0.899  0.00  0.00    -0.333 N 
ATOM      9  H   UNL d   1      -0.312  -1.355   0.808  0.00  0.00     0.168 HD
BRANCH   8  10
ATOM     10  C   UNL d   1       1.475  -1.352   1.836  0.00  0.00     0.036 A 
ATOM     11  C   UNL d   1       2.829  -1.009   1.874  0.00  0.00     0.066 A 
ATOM     12  C   UNL d   1       3.736  -1.704   2.680  0.00  0.00     0.070 A 
ATOM     13  C   UNL d   1       3.273  -2.733   3.496  0.00  0.00     0.037 A 
ATOM     14  C   UNL d   1       1.918  -3.061   3.508  0.00  0.00     0.005 A 
ATOM     15  C   UNL d   1       1.025  -2.377   2.678  0.00  0.00     0.029 A 
BRANCH  12  16
ATOM     16  O   UNL d   1       5.087  -1.484   2.723  0.00  0.00    -0.356 OA
ATOM     17  C   UNL d   1       5.609  -0.510   1.824  0.00  0.00     0.210 C 
ENDBRANCH  12  16
ENDBRANCH   8  10
ENDBRANCH   6   8
ENDBRANCH   5   6
BRANCH   5  18
ATOM     18  C   UNL d   1      -1.451   0.277  -1.314  0.00  0.00     0.086 C 
ATOM     19  C   UNL d   1      -2.354  -0.512  -2.289  0.00  0.00     0.025 C 
ATOM     20  C   UNL d   1      -2.403  -0.007  -3.739  0.00  0.00     0.002 C 
ATOM     21  C   UNL d   1      -2.487   1.510  -3.857  0.00  0.00     0.000 C 
ATOM     22  C   UNL d   1      -1.464   2.220  -2.979  0.00  0.00     0.002 C 
ATOM     23  C   UNL d   1      -1.612   1.793  -1.526  0.00  0.00     0.025 C 
ENDBRANCH   5  18
ENDBRANCH   4   5
ENDBRANCH   3   4
TORSDOF 7
