REMARK  5 active torsions:
REMARK  status: ('A' for Active; 'I' for Inactive)
REMARK    1  A    between atoms: S_11  and  C_3 
REMARK    2  A    between atoms: C_4  and  C_5 
REMARK    3  A    between atoms: C_7  and  C_16 
REMARK       I    between atoms: N_10  and  C_7 
REMARK    4  A    between atoms: C_17  and  N_10 
REMARK    5  A    between atoms: C_16  and  S_11 
ROOT
ATOM      1  N   UNL d   1       0.010   4.664   3.189  0.00  0.00    -0.336 N 
ATOM      2  HN  UNL d   1       0.860   4.995   2.733  1.00  0.00     0.168 HD
ATOM      3  C   UNL d   1      -0.638   3.578   2.759  0.00  0.00     0.145 A 
ATOM      4  C   UNL d   1      -0.514   5.298   4.254  0.00  0.00     0.052 A 
ATOM      5  N   UNL d   1      -1.747   3.065   3.309  0.00  0.00    -0.347 N 
ATOM      6  HN  UNL d   1      -2.203   2.233   2.934  1.00  0.00     0.167 HD
ATOM      7  C   UNL d   1      -1.649   4.852   4.901  0.00  0.00     0.048 A 
ATOM      8  C   UNL d   1      -2.222   3.714   4.386  0.00  0.00     0.092 A 
ENDROOT
BRANCH   3   9
ATOM      9  S   UNL d   1      -0.053   2.877   1.242  0.00  0.00    -0.085 SA
BRANCH   9  10
ATOM     10  C   UNL d   1      -1.312   3.605   0.158  0.00  0.00     0.185 C 
BRANCH  10  11
ATOM     11  C   UNL d   1      -1.347   5.129   0.171  0.00  0.00     0.231 C 
ATOM     12  N   UNL d   1      -0.116   5.757   0.242  0.00  0.00    -0.327 N 
ATOM     13  H   UNL d   1       0.698   5.154   0.287  0.00  0.00     0.169 HD
ATOM     14  O   UNL d   1      -2.430   5.701   0.038  0.00  0.00    -0.272 OA
BRANCH  12  15
ATOM     15  C   UNL d   1       0.123   7.141   0.412  0.00  0.00     0.034 A 
ATOM     16  C   UNL d   1      -0.889   8.079   0.628  0.00  0.00     0.031 A 
ATOM     17  C   UNL d   1      -0.584   9.427   0.847  0.00  0.00     0.026 A 
ATOM     18  C   UNL d   1       0.741   9.846   0.841  0.00  0.00     0.034 A 
ATOM     19  C   UNL d   1       1.763   8.930   0.611  0.00  0.00     0.026 A 
ATOM     20 CL   UNL d   1       1.116  11.501   1.127  0.00  0.00    -0.084 Cl
ATOM     21  C   UNL d   1       1.454   7.580   0.403  0.00  0.00     0.031 A 
ENDBRANCH  12  15
ENDBRANCH  10  11
ENDBRANCH   9  10
ENDBRANCH   3   9
BRANCH   4  22
ATOM     22  C   UNL d   1       0.162   6.543   4.638  0.00  0.00     0.031 A 
ATOM     23  S   UNL d   1       1.865   6.700   4.448  0.00  0.00    -0.100 SA
ATOM     24  C   UNL d   1       1.859   8.302   5.037  0.00  0.00     0.050 A 
ATOM     25  C   UNL d   1       0.595   8.721   5.381  0.00  0.00     0.008 A 
ATOM     26  C   UNL d   1      -0.381   7.707   5.158  0.00  0.00     0.021 A 
ENDBRANCH   4  22
TORSDOF 5
