REMARK  3 active torsions:
REMARK  status: ('A' for Active; 'I' for Inactive)
REMARK    1  A    between atoms: C_8  and  C_2 
REMARK    2  A    between atoms: N_11  and  C_4 
REMARK    3  A    between atoms: C_17  and  N_11 
ROOT
ATOM      1  C   UNL d   1       0.513  -0.380  -0.024  0.00  0.00     0.141 A 
ATOM      2  C   UNL d   1      -0.318  -1.431   0.002  0.00  0.00     0.092 A 
ATOM      3  N   UNL d   1      -1.506   0.938  -0.151  0.00  0.00    -0.154 N 
ATOM      4  C   UNL d   1      -2.258  -0.202  -0.082  0.00  0.00     0.686 A 
ATOM      5  C   UNL d   1      -0.141   0.941  -0.063  0.00  0.00     0.282 A 
ATOM      6  N   UNL d   1      -1.687  -1.362  -0.008  0.00  0.00    -0.189 N 
ATOM      7  HN  UNL d   1      -2.248  -2.213   0.042  1.00  0.00     0.184 HD
ATOM      8  C   UNL d   1       1.927  -0.463  -0.014  0.00  0.00     0.107 C 
ATOM      9  N   UNL d   1       3.086  -0.553  -0.014  0.00  0.00    -0.191 NA
ATOM     10  O   UNL d   1       0.483   1.997  -0.013  0.00  0.00    -0.266 OA
ATOM     11  H   UNL d   1      -1.946   1.844  -0.136  0.00  0.00     0.187 HD
ENDROOT
BRANCH   2  12
ATOM     12  C   UNL d   1       0.172  -2.772   0.033  0.00  0.00     0.033 A 
ATOM     13  S   UNL d   1       0.393  -3.580   1.538  0.00  0.00    -0.100 SA
ATOM     14  C   UNL d   1       0.905  -5.019   0.771  0.00  0.00     0.050 A 
ATOM     15  C   UNL d   1       0.912  -4.902  -0.599  0.00  0.00     0.008 A 
ATOM     16  C   UNL d   1       0.486  -3.610  -1.025  0.00  0.00     0.021 A 
ENDBRANCH   2  12
BRANCH   4  17
ATOM     17  N   UNL d   1      -3.615  -0.028  -0.111  0.00  0.00    -0.192 N 
ATOM     18  H   UNL d   1      -4.002   0.826  -0.483  0.00  0.00     0.184 HD
BRANCH  17  19
ATOM     19  C   UNL d   1      -4.567  -0.906   0.442  0.00  0.00     0.049 A 
ATOM     20  C   UNL d   1      -4.271  -1.738   1.530  0.00  0.00     0.030 A 
ATOM     21  C   UNL d   1      -5.221  -2.624   2.041  0.00  0.00     0.002 A 
ATOM     22  C   UNL d   1      -6.476  -2.713   1.449  0.00  0.00     0.000 A 
ATOM     23  C   UNL d   1      -6.780  -1.915   0.349  0.00  0.00     0.002 A 
ATOM     24  C   UNL d   1      -5.833  -1.015  -0.149  0.00  0.00     0.030 A 
ENDBRANCH  17  19
ENDBRANCH   4  17
TORSDOF 3
