REMARK  6 active torsions:
REMARK  status: ('A' for Active; 'I' for Inactive)
REMARK    1  A    between atoms: C_3  and  C_1 
REMARK    2  A    between atoms: C_4  and  CA_2 
REMARK       I    between atoms: N_5  and  C_3 
REMARK    3  A    between atoms: OXT_17  and  C_4 
REMARK    4  A    between atoms: C_13  and  N_5 
REMARK    5  A    between atoms: C_6  and  C_11 
REMARK    6  A    between atoms: O_18  and  C_6 
ROOT
ATOM      1  C   UNL d   1      -1.538  -2.385   0.249  0.00  0.00     0.275 C 
ATOM      2  N   UNL d   1      -1.006  -3.665   0.345  0.00  0.00    -0.322 N 
ATOM      3  O   UNL d   1      -0.914  -1.329   0.313  0.00  0.00    -0.266 OA
ATOM      4  H   UNL d   1      -1.652  -4.436   0.202  0.00  0.00     0.169 HD
ENDROOT
BRANCH   1   5
ATOM      5  C   UNL d   1      -3.006  -2.326   0.051  0.00  0.00     0.134 A 
ATOM      6  CA  UNL d   1      -3.593  -1.285  -0.656  0.00  0.00     0.139 A 
ATOM      7  N   UNL d   1      -4.948  -1.102  -0.673  0.00  0.00    -0.357 N 
ATOM      8  C   UNL d   1      -5.666  -2.005   0.032  0.00  0.00     0.105 A 
ATOM      9  HN  UNL d   1      -5.388  -0.336  -1.183  1.00  0.00     0.165 HD
ATOM     10  C   UNL d   1      -5.078  -3.078   0.688  0.00  0.00     0.105 A 
ATOM     11  N   UNL d   1      -3.738  -3.275   0.712  0.00  0.00    -0.358 N 
ATOM     12  HN  UNL d   1      -3.308  -4.070   1.185  1.00  0.00     0.165 HD
BRANCH   6  13
ATOM     13  C   UNL d   1      -2.796  -0.456  -1.591  0.00  0.00     0.196 C 
ATOM     14  O   UNL d   1      -1.909  -0.863  -2.321  0.00  0.00    -0.645 OA
BRANCH  13  15
ATOM     15  OXT UNL d   1      -3.206   0.826  -1.622  0.00  0.00    -0.772 OA
ATOM     16  HXT UNL d   1      -2.643   1.250  -2.302  0.00  0.00     0.167 HD
ENDBRANCH  13  15
ENDBRANCH   6  13
ENDBRANCH   1   5
BRANCH   2  17
ATOM     17  C   UNL d   1       0.375  -3.947   0.366  0.00  0.00     0.036 A 
ATOM     18  C   UNL d   1       1.317  -2.982   0.722  0.00  0.00     0.048 A 
ATOM     19  C   UNL d   1       2.679  -3.209   0.518  0.00  0.00     0.039 A 
ATOM     20  C   UNL d   1       3.116  -4.456   0.068  0.00  0.00     0.018 A 
ATOM     21  C   UNL d   1       2.183  -5.461  -0.195  0.00  0.00     0.003 A 
ATOM     22  C   UNL d   1       0.815  -5.207  -0.047  0.00  0.00     0.029 A 
BRANCH  19  23
ATOM     23  C   UNL d   1       3.668  -2.134   0.763  0.00  0.00     0.176 C 
ATOM     24  O   UNL d   1       4.805  -2.360   1.135  0.00  0.00    -0.646 OA
BRANCH  23  25
ATOM     25  O   UNL d   1       3.211  -0.895   0.476  0.00  0.00    -0.773 OA
ATOM     26  H   UNL d   1       2.324  -0.853   0.062  0.00  0.00     0.167 HD
ENDBRANCH  23  25
ENDBRANCH  19  23
ENDBRANCH   2  17
TORSDOF 6
