REMARK  11 active torsions:
REMARK  status: ('A' for Active; 'I' for Inactive)
REMARK    1  A    between atoms: C_2  and  C_1 
REMARK       I    between atoms: N_5  and  C_2 
REMARK    2  A    between atoms: C_3  and  O_13 
REMARK       I    between atoms: C_4  and  N_8 
REMARK       I    between atoms: N_9  and  C_4 
REMARK    3  A    between atoms: N_8  and  N_5 
REMARK    4  A    between atoms: C_6  and  C_16 
REMARK    5  A    between atoms: C_28  and  C_7 
REMARK    6  A    between atoms: C_21  and  N_9 
REMARK    7  A    between atoms: O_13  and  C_22 
REMARK    8  A    between atoms: C_29  and  C_28 
REMARK    9  A    between atoms: C_32  and  C_29 
REMARK   10  A    between atoms: C_30  and  C_31 
REMARK   11  A    between atoms: C_31  and  C_32 
ROOT
ATOM      1  C   UNL d   1       3.048   2.202  -0.126  0.00  0.00     0.267 C 
ATOM      2  N   UNL d   1       2.680   3.449   0.357  0.00  0.00    -0.279 N 
ATOM      3  O   UNL d   1       4.142   1.993  -0.680  0.00  0.00    -0.266 OA
ATOM      4  H   UNL d   1       2.082   3.464   1.190  0.00  0.00     0.184 HD
ENDROOT
BRANCH   2   5
ATOM      5  N   UNL d   1       3.652   4.547   0.314  0.00  0.00    -0.152 NA
ATOM      6  C   UNL d   1       3.243   5.774   0.845  0.00  0.00     0.317 C 
ATOM      7  N   UNL d   1       4.268   6.728   0.860  0.00  0.00    -0.312 N 
ATOM      8  O   UNL d   1       2.094   5.901   1.279  0.00  0.00    -0.252 OA
ATOM      9  H   UNL d   1       5.149   6.506   0.405  0.00  0.00     0.170 HD
ATOM     10  H   UNL d   1       4.066   4.650  -0.616  0.00  0.00     0.157 HD
BRANCH   7  11
ATOM     11  C   UNL d   1       4.118   8.049   1.344  0.00  0.00     0.036 A 
ATOM     12  C   UNL d   1       2.931   8.509   1.910  0.00  0.00     0.032 A 
ATOM     13  C   UNL d   1       2.732   9.861   2.158  0.00  0.00     0.039 A 
ATOM     14  C   UNL d   1       3.765  10.768   1.969  0.00  0.00     0.078 A 
ATOM     15  C   UNL d   1       4.995  10.303   1.501  0.00  0.00     0.039 A 
ATOM     16  C   UNL d   1       5.172   8.948   1.190  0.00  0.00     0.032 A 
BRANCH  14  17
ATOM     17  O   UNL d   1       3.667  12.110   2.155  0.00  0.00    -0.255 OA
BRANCH  17  18
ATOM     18  C   UNL d   1       2.739  12.590   3.119  0.00  0.00     0.530 C 
ATOM     19  F   UNL d   1       2.112  11.629   3.827  0.00  0.00    -0.144 F 
ATOM     20  F   UNL d   1       3.409  13.362   4.004  0.00  0.00    -0.144 F 
ATOM     21  F   UNL d   1       1.809  13.349   2.501  0.00  0.00    -0.144 F 
ENDBRANCH  17  18
ENDBRANCH  14  17
ENDBRANCH   7  11
ENDBRANCH   2   5
BRANCH   1  22
ATOM     22  C   UNL d   1       2.097   1.052  -0.009  0.00  0.00     0.050 A 
ATOM     23  C   UNL d   1       0.708   1.252   0.003  0.00  0.00     0.040 A 
ATOM     24  C   UNL d   1      -0.143   0.136   0.017  0.00  0.00     0.034 A 
ATOM     25  C   UNL d   1       0.404  -1.136   0.025  0.00  0.00     0.108 A 
ATOM     26  N   UNL d   1       1.734  -1.366   0.026  0.00  0.00    -0.373 N 
ATOM     27  C   UNL d   1       2.542  -0.273  -0.006  0.00  0.00     0.104 A 
ATOM     28  HN  UNL d   1       2.114  -2.312   0.049  1.00  0.00     0.164 HD
BRANCH  24  29
ATOM     29  C   UNL d   1      -1.558   0.267   0.006  0.00  0.00    -0.066 C 
ATOM     30  C   UNL d   1      -2.743   0.217   0.004  0.00  0.00    -0.101 C 
BRANCH  30  31
ATOM     31  C   UNL d   1      -4.196   0.057   0.017  0.00  0.00     0.094 C 
BRANCH  31  32
ATOM     32  C   UNL d   1      -4.586  -1.423  -0.189  0.00  0.00     0.012 C 
BRANCH  32  33
ATOM     33  C   UNL d   1      -6.105  -1.567  -0.168  0.00  0.00     0.001 C 
BRANCH  33  34
ATOM     34  C   UNL d   1      -6.547  -3.012  -0.368  0.00  0.00    -0.000 C 
BRANCH  34  35
ATOM     35  C   UNL d   1      -8.071  -3.111  -0.340  0.00  0.00    -0.005 C 
ATOM     36  C   UNL d   1      -8.534  -4.543  -0.538  0.00  0.00     0.005 C 
ENDBRANCH  34  35
ENDBRANCH  33  34
ENDBRANCH  32  33
ENDBRANCH  31  32
ENDBRANCH  30  31
ENDBRANCH  24  29
ENDBRANCH   1  22
TORSDOF 11
