REMARK  4 active torsions:
REMARK  status: ('A' for Active; 'I' for Inactive)
REMARK    1  A    between atoms: N_3  and  C_1 
REMARK    2  A    between atoms: S_12  and  C_4 
REMARK    3  A    between atoms: C_5  and  S_12 
REMARK    4  A    between atoms: S_18  and  C_9 
ROOT
ATOM      1  S   UNL d   1      -0.053  -2.955   0.163  0.00  0.00    -0.038 SA
ENDROOT
BRANCH   1   2
ATOM      2  C   UNL d   1       1.571  -3.575   0.023  0.00  0.00     0.136 A 
ATOM      3  S   UNL d   1       2.737  -3.465   1.275  0.00  0.00    -0.037 SA
ATOM      4  C   UNL d   1       3.750  -4.455   0.309  0.00  0.00     0.128 A 
ATOM      5  N   UNL d   1       3.229  -4.800  -0.849  0.00  0.00    -0.287 N 
ATOM      6  N   UNL d   1       1.952  -4.291  -1.014  0.00  0.00    -0.286 N 
ATOM      7  HN  UNL d   1       3.708  -5.375  -1.543  1.00  0.00     0.188 HD
ATOM      8  HN  UNL d   1       1.376  -4.452  -1.840  1.00  0.00     0.188 HD
BRANCH   4   9
ATOM      9  S   UNL d   1       5.332  -4.979   0.841  0.00  0.00    -0.108 SA
ATOM     10  C   UNL d   1       5.817  -6.058  -0.524  0.00  0.00     0.097 C 
ENDBRANCH   4   9
ENDBRANCH   1   2
BRANCH   1  11
ATOM     11  C   UNL d   1       0.199  -1.395  -0.588  0.00  0.00     0.120 A 
ATOM     12  S   UNL d   1      -1.061  -0.625  -1.474  0.00  0.00    -0.039 SA
ATOM     13  C   UNL d   1      -0.062   0.734  -1.671  0.00  0.00     0.161 A 
ATOM     14  C   UNL d   1       1.159   0.535  -1.074  0.00  0.00     0.133 A 
ATOM     15  N   UNL d   1       1.304  -0.693  -0.444  0.00  0.00    -0.352 N 
ATOM     16  HN  UNL d   1       2.139  -1.003   0.054  1.00  0.00     0.166 HD
BRANCH  13  17
ATOM     17  N   UNL d   1      -0.508   1.901  -2.363  0.00  0.00    -0.107 N 
ATOM     18  O   UNL d   1       0.298   2.841  -2.423  0.00  0.00    -0.531 OA
ATOM     19  O   UNL d   1      -1.647   1.900  -2.843  0.00  0.00    -0.531 OA
ENDBRANCH  13  17
ENDBRANCH   1  11
TORSDOF 4
