REMARK  5 active torsions:
REMARK  status: ('A' for Active; 'I' for Inactive)
REMARK       I    between atoms: N_2  and  C_1 
REMARK       I    between atoms: N_6  and  C_1 
REMARK    1  A    between atoms: C_3  and  N_2 
REMARK    2  A    between atoms: C_8  and  N_6 
REMARK    3  A    between atoms: O_9  and  C_11 
REMARK    4  A    between atoms: C_12  and  O_9 
REMARK    5  A    between atoms: C_17  and  C_12 
ROOT
ATOM      1  C   UNL d   1      -1.290   0.654  -0.995  0.00  0.00     0.036 A 
ATOM      2  C   UNL d   1      -4.086   0.815  -1.099  0.00  0.00     0.069 A 
ATOM      3  C   UNL d   1      -2.004   1.109   0.109  0.00  0.00     0.032 A 
ATOM      4  C   UNL d   1      -1.978   0.321  -2.167  0.00  0.00     0.032 A 
ATOM      5  C   UNL d   1      -3.369   0.403  -2.220  0.00  0.00     0.039 A 
ATOM      6  C   UNL d   1      -3.400   1.202   0.052  0.00  0.00     0.039 A 
ENDROOT
BRANCH   1   7
ATOM      7  N   UNL d   1       0.099   0.485  -1.016  0.00  0.00    -0.309 N 
ATOM      8  C   UNL d   1       1.016   0.590  -0.010  0.00  0.00     0.326 C 
ATOM      9  N   UNL d   1       2.304   0.242  -0.345  0.00  0.00    -0.294 N 
ATOM     10  O   UNL d   1       0.788   0.918   1.152  0.00  0.00    -0.247 OA
ATOM     11  H   UNL d   1       2.936   0.254   0.440  0.00  0.00     0.172 HD
ATOM     12  H   UNL d   1       0.507   0.196  -1.902  0.00  0.00     0.170 HD
BRANCH   9  13
ATOM     13  C   UNL d   1       2.799  -0.138  -1.600  0.00  0.00     0.109 A 
ATOM     14  N   UNL d   1       1.985  -0.064  -2.678  0.00  0.00    -0.346 N 
ATOM     15  C   UNL d   1       2.471  -0.415  -3.890  0.00  0.00     0.007 A 
ATOM     16  HN  UNL d   1       1.020   0.252  -2.578  1.00  0.00     0.167 HD
ATOM     17  C   UNL d   1       1.547  -0.262  -5.059  0.00  0.00     0.068 C 
ATOM     18  C   UNL d   1       3.765  -0.884  -4.059  0.00  0.00     0.025 A 
ATOM     19  C   UNL d   1       4.592  -0.970  -2.942  0.00  0.00     0.006 A 
ATOM     20  C   UNL d   1       4.109  -0.580  -1.694  0.00  0.00     0.049 A 
ENDBRANCH   9  13
ENDBRANCH   1   7
BRANCH   2  21
ATOM     21  O   UNL d   1      -5.446   0.803  -1.242  0.00  0.00    -0.347 OA
BRANCH  21  22
ATOM     22  C   UNL d   1      -6.184   0.664  -0.028  0.00  0.00     0.214 C 
BRANCH  22  23
ATOM     23  C   UNL d   1      -7.521   0.034  -0.328  0.00  0.00    -0.034 A 
ATOM     24  C   UNL d   1      -7.585  -1.216  -0.969  0.00  0.00     0.009 A 
ATOM     25  C   UNL d   1      -8.814  -1.835  -1.191  0.00  0.00     0.001 A 
ATOM     26  C   UNL d   1      -9.992  -1.215  -0.774  0.00  0.00     0.000 A 
ATOM     27  C   UNL d   1      -9.940   0.026  -0.141  0.00  0.00     0.001 A 
ATOM     28  C   UNL d   1      -8.712   0.648   0.082  0.00  0.00     0.009 A 
ENDBRANCH  22  23
ENDBRANCH  21  22
ENDBRANCH   2  21
TORSDOF 5
