REMARK  4 active torsions:
REMARK  status: ('A' for Active; 'I' for Inactive)
REMARK    1  A    between atoms: C_2  and  C_1 
REMARK    2  A    between atoms: O_3  and  C_1 
REMARK    3  A    between atoms: C_9  and  O_3 
REMARK       I    between atoms: C_4  and  N_5 
REMARK    4  A    between atoms: N_5  and  C_10 
ROOT
ATOM      1  C   UNL d   1      -1.085   0.967  -0.828  0.00  0.00     0.079 A 
ATOM      2  C   UNL d   1      -3.886   1.206  -0.820  0.00  0.00     0.034 A 
ATOM      3  C   UNL d   1      -1.769   1.070   0.381  0.00  0.00     0.039 A 
ATOM      4  C   UNL d   1      -1.783   1.049  -2.030  0.00  0.00     0.039 A 
ATOM      5  C   UNL d   1      -3.179   1.168  -2.024  0.00  0.00     0.032 A 
ATOM      6  C   UNL d   1      -3.166   1.176   0.382  0.00  0.00     0.032 A 
ENDROOT
BRANCH   1   7
ATOM      7  O   UNL d   1       0.315   0.815  -0.928  0.00  0.00    -0.275 OA
BRANCH   7   8
ATOM      8  C   UNL d   1       0.987   0.006  -0.023  0.00  0.00     0.298 C 
ATOM      9  O   UNL d   1       0.510  -0.563   0.950  0.00  0.00    -0.259 OA
BRANCH   8  10
ATOM     10  C   UNL d   1       2.425  -0.130  -0.386  0.00  0.00     0.041 A 
ATOM     11  C   UNL d   1       3.247  -0.853   0.494  0.00  0.00     0.041 A 
ATOM     12  C   UNL d   1       4.592  -1.054   0.196  0.00  0.00     0.035 A 
ATOM     13 CL   UNL d   1       5.585  -1.947   1.280  0.00  0.00    -0.084 Cl
ATOM     14  C   UNL d   1       5.138  -0.540  -0.978  0.00  0.00     0.024 A 
ATOM     15  C   UNL d   1       4.330   0.185  -1.857  0.00  0.00     0.003 A 
ATOM     16  C   UNL d   1       2.977   0.393  -1.564  0.00  0.00     0.018 A 
ENDBRANCH   8  10
ENDBRANCH   7   8
ENDBRANCH   1   7
BRANCH   2  17
ATOM     17  N   UNL d   1      -5.298   1.257  -0.737  0.00  0.00    -0.328 N 
ATOM     18  C   UNL d   1      -6.197   1.240  -1.788  0.00  0.00     0.218 C 
ATOM     19  O   UNL d   1      -5.927   1.226  -2.984  0.00  0.00    -0.274 OA
ATOM     20  C   UNL d   1      -7.641   1.228  -1.346  0.00  0.00     0.117 C 
ATOM     21  H   UNL d   1      -5.682   1.264   0.200  0.00  0.00     0.169 HD
ENDBRANCH   2  17
TORSDOF 4
