REMARK  2 active torsions:
REMARK  status: ('A' for Active; 'I' for Inactive)
REMARK    1  A    between atoms: C_8  and  N_2 
REMARK    2  A    between atoms: C_12  and  C_6 
ROOT
ATOM      1  C   UNL d   1       1.292  -0.607  -0.031  0.00  0.00     0.183 A 
ATOM      2  N   UNL d   1       0.080  -1.351   0.120  0.00  0.00    -0.299 N 
ATOM      3  N   UNL d   1       1.211   0.770  -0.075  0.00  0.00    -0.332 N 
ATOM      4  HN  UNL d   1       2.069   1.322  -0.081  1.00  0.00     0.168 HD
ATOM      5  C   UNL d   1      -1.130  -0.660   0.056  0.00  0.00     0.102 A 
ATOM      6  C   UNL d   1       0.069   1.371  -0.110  0.00  0.00     0.045 A 
ATOM      7  C   UNL d   1      -1.214   0.667  -0.078  0.00  0.00     0.048 A 
ATOM      8  S   UNL d   1       2.843  -1.262  -0.278  0.00  0.00    -0.040 SA
ENDROOT
BRANCH   2   9
ATOM      9  C   UNL d   1       0.043  -2.788   0.314  0.00  0.00     0.043 A 
ATOM     10  C   UNL d   1      -0.978  -3.558  -0.270  0.00  0.00     0.054 A 
ATOM     11  C   UNL d   1      -1.091  -4.931  -0.018  0.00  0.00     0.042 A 
ATOM     12 CL   UNL d   1      -2.411  -5.776  -0.749  0.00  0.00    -0.084 Cl
ATOM     13  C   UNL d   1      -0.176  -5.585   0.813  0.00  0.00    -0.040 A 
ATOM     14  C   UNL d   1       0.856  -4.830   1.381  0.00  0.00     0.011 A 
ATOM     15  C   UNL d   1      -0.296  -7.044   1.147  0.00  0.00     0.050 C 
ATOM     16  C   UNL d   1       0.949  -3.451   1.151  0.00  0.00     0.031 A 
ENDBRANCH   2   9
BRANCH   6  17
ATOM     17  C   UNL d   1       0.054   2.855  -0.206  0.00  0.00    -0.009 A 
ATOM     18  C   UNL d   1       1.105   3.473  -0.895  0.00  0.00     0.014 A 
ATOM     19  C   UNL d   1       1.193   4.864  -0.953  0.00  0.00     0.007 A 
ATOM     20  C   UNL d   1       0.233   5.657  -0.315  0.00  0.00    -0.062 A 
ATOM     21  C   UNL d   1      -0.830   5.039   0.356  0.00  0.00     0.007 A 
ATOM     22  C   UNL d   1       0.389   7.148  -0.320  0.00  0.00     0.048 C 
ATOM     23  C   UNL d   1      -0.922   3.644   0.413  0.00  0.00     0.014 A 
ENDBRANCH   6  17
TORSDOF 2
