REMARK  4 active torsions:
REMARK  status: ('A' for Active; 'I' for Inactive)
REMARK    1  A    between atoms: C_7  and  N_1 
REMARK    2  A    between atoms: C_8  and  N_3 
REMARK    3  A    between atoms: N_13  and  C_4 
REMARK    4  A    between atoms: C_10  and  C_8 
ROOT
ATOM      1  N   UNL d   1      -0.622   1.242   0.064  0.00  0.00    -0.254 N 
ATOM      2  C   UNL d   1      -1.413   0.067   0.065  0.00  0.00     0.338 A 
ATOM      3  N   UNL d   1      -0.720  -1.140   0.051  0.00  0.00    -0.260 N 
ATOM      4  C   UNL d   1       0.769   1.204  -0.050  0.00  0.00     0.094 A 
ATOM      5  C   UNL d   1       0.648  -1.242  -0.008  0.00  0.00     0.255 A 
ATOM      6  C   UNL d   1       1.390   0.018  -0.074  0.00  0.00     0.117 A 
ATOM      7  O   UNL d   1      -2.646   0.092   0.034  0.00  0.00    -0.246 OA
ATOM      8  O   UNL d   1       1.278  -2.297  -0.038  0.00  0.00    -0.268 OA
ENDROOT
BRANCH   1   9
ATOM      9  C   UNL d   1      -1.337   2.494   0.066  0.00  0.00     0.051 A 
ATOM     10  C   UNL d   1      -2.177   2.874   1.134  0.00  0.00    -0.035 A 
ATOM     11  C   UNL d   1      -2.369   2.051   2.380  0.00  0.00     0.050 C 
ATOM     12  C   UNL d   1      -2.865   4.099   1.058  0.00  0.00     0.009 A 
ATOM     13  C   UNL d   1      -2.710   4.946  -0.040  0.00  0.00     0.001 A 
ATOM     14  C   UNL d   1      -1.863   4.582  -1.081  0.00  0.00     0.002 A 
ATOM     15  C   UNL d   1      -1.181   3.366  -1.028  0.00  0.00     0.031 A 
ENDBRANCH   1   9
BRANCH   4  16
ATOM     16  N   UNL d   1       1.542   2.354  -0.103  0.00  0.00    -0.288 NA
ATOM     17  H   UNL d   1       1.097   3.146   0.359  0.00  0.00     0.125 HD
ATOM     18  H   UNL d   1       2.507   2.235   0.187  0.00  0.00     0.125 HD
ENDBRANCH   4  16
BRANCH   3  19
ATOM     19  C   UNL d   1      -1.491  -2.370  -0.043  0.00  0.00     0.202 C 
BRANCH  19  20
ATOM     20  C   UNL d   1      -1.675  -3.012   1.289  0.00  0.00     0.071 A 
ATOM     21  O   UNL d   1      -2.804  -2.684   1.982  0.00  0.00    -0.325 OA
ATOM     22  C   UNL d   1      -2.829  -3.462   3.095  0.00  0.00     0.142 A 
ATOM     23  C   UNL d   1      -1.727  -4.282   3.135  0.00  0.00     0.027 A 
ATOM     24  C   UNL d   1      -0.970  -3.981   1.976  0.00  0.00     0.036 A 
ENDBRANCH  19  20
ENDBRANCH   3  19
TORSDOF 4
