REMARK  4 active torsions:
REMARK  status: ('A' for Active; 'I' for Inactive)
REMARK    1  A    between atoms: N_2  and  C_1 
REMARK    2  A    between atoms: N_3  and  C_6 
REMARK    3  A    between atoms: N_7  and  C_5 
REMARK    4  A    between atoms: C_12  and  N_7 
ROOT
ATOM      1  C   UNL d   1       0.496   3.551   1.693  0.00  0.00     0.131 A 
ATOM      2  C   UNL d   1      -0.397   4.640   1.781  0.00  0.00     0.074 A 
ATOM      3  C   UNL d   1       1.261   3.305   0.528  0.00  0.00     0.066 A 
ATOM      4  C   UNL d   1      -0.535   5.499   0.691  0.00  0.00     0.105 A 
ATOM      5  C   UNL d   1       1.069   4.188  -0.552  0.00  0.00     0.034 A 
ATOM      6  C   UNL d   1       0.189   5.274  -0.482  0.00  0.00     0.038 A 
ENDROOT
BRANCH   3   7
ATOM      7  N   UNL d   1       2.235   2.279   0.469  0.00  0.00    -0.354 N 
ATOM      8  H   UNL d   1       2.020   1.476   1.067  0.00  0.00     0.166 HD
BRANCH   7   9
ATOM      9  C   UNL d   1       3.237   2.011  -0.485  0.00  0.00     0.033 A 
ATOM     10  C   UNL d   1       3.441   0.692  -0.916  0.00  0.00     0.041 A 
ATOM     11  C   UNL d   1       4.274   0.400  -2.011  0.00  0.00    -0.024 A 
ATOM     12  C   UNL d   1       4.439  -0.913  -2.482  0.00  0.00     0.012 A 
ATOM     13  C   UNL d   1       4.926   1.457  -2.683  0.00  0.00    -0.026 A 
ATOM     14  C   UNL d   1       5.177  -1.168  -3.639  0.00  0.00     0.001 A 
ATOM     15  C   UNL d   1       5.771  -0.117  -4.332  0.00  0.00     0.001 A 
ATOM     16  C   UNL d   1       5.665   1.186  -3.845  0.00  0.00     0.012 A 
ATOM     17  C   UNL d   1       4.802   2.761  -2.189  0.00  0.00     0.014 A 
ATOM     18  C   UNL d   1       3.969   3.030  -1.101  0.00  0.00     0.030 A 
ENDBRANCH   7   9
ENDBRANCH   3   7
BRANCH   1  19
ATOM     19  N   UNL d   1       0.586   2.655   2.854  0.00  0.00    -0.113 N 
ATOM     20  O   UNL d   1       0.240   3.108   3.954  0.00  0.00    -0.532 OA
ATOM     21  O   UNL d   1       0.973   1.492   2.663  0.00  0.00    -0.532 OA
ENDBRANCH   1  19
BRANCH   4  22
ATOM     22  N   UNL d   1      -1.447   6.649   0.769  0.00  0.00    -0.116 N 
ATOM     23  O   UNL d   1      -2.123   6.772   1.799  0.00  0.00    -0.532 OA
ATOM     24  O   UNL d   1      -1.485   7.423  -0.196  0.00  0.00    -0.532 OA
ENDBRANCH   4  22
TORSDOF 4
