REMARK  8 active torsions:
REMARK  status: ('A' for Active; 'I' for Inactive)
REMARK    1  A    between atoms: N_2  and  C_1 
REMARK    2  A    between atoms: C_3  and  C_1 
REMARK    3  A    between atoms: N_4  and  C_1 
REMARK    4  A    between atoms: C_6  and  C_1 
REMARK       I    between atoms: C_5  and  N_2 
REMARK    5  A    between atoms: C_7  and  N_4 
REMARK    6  A    between atoms: C_8  and  C_5 
REMARK    7  A    between atoms: O_17  and  C_6 
REMARK    8  A    between atoms: C_25  and  O_17 
ROOT
ATOM      1  C   UNL d   1       0.983  -0.072  -0.119  0.00  0.00     0.297 C 
ENDROOT
BRANCH   1   2
ATOM      2  N   UNL d   1       0.576   0.441  -1.436  0.00  0.00    -0.315 N 
ATOM      3  C   UNL d   1       0.943   1.685  -1.891  0.00  0.00     0.254 C 
ATOM      4  O   UNL d   1       1.720   2.418  -1.293  0.00  0.00    -0.268 OA
ATOM      5  H   UNL d   1      -0.109  -0.108  -1.939  0.00  0.00     0.166 HD
BRANCH   3   6
ATOM      6  C   UNL d   1       0.397   2.076  -3.212  0.00  0.00     0.033 A 
ATOM      7  C   UNL d   1      -0.917   1.764  -3.580  0.00  0.00     0.041 A 
ATOM      8  C   UNL d   1      -1.371   2.106  -4.854  0.00  0.00     0.035 A 
ATOM      9 CL   UNL d   1      -2.980   1.708  -5.316  0.00  0.00    -0.084 Cl
ATOM     10  C   UNL d   1      -0.534   2.760  -5.758  0.00  0.00     0.024 A 
ATOM     11  C   UNL d   1       0.768   3.091  -5.383  0.00  0.00     0.003 A 
ATOM     12  C   UNL d   1       1.232   2.756  -4.109  0.00  0.00     0.017 A 
ENDBRANCH   3   6
ENDBRANCH   1   2
BRANCH   1  13
ATOM     13  C   UNL d   1       0.736  -1.621   0.027  0.00  0.00     0.442 C 
ATOM     14  F   UNL d   1      -0.151  -2.030  -0.934  0.00  0.00    -0.166 F 
ATOM     15  F   UNL d   1       1.834  -2.393  -0.155  0.00  0.00    -0.166 F 
ATOM     16  F   UNL d   1       0.198  -1.977   1.216  0.00  0.00    -0.166 F 
ENDBRANCH   1  13
BRANCH   1  17
ATOM     17  N   UNL d   1       0.300   0.784   0.881  0.00  0.00    -0.347 N 
ATOM     18  H   UNL d   1       0.813   1.659   1.024  0.00  0.00     0.163 HD
BRANCH  17  19
ATOM     19  C   UNL d   1      -1.072   0.948   1.069  0.00  0.00     0.052 A 
ATOM     20  C   UNL d   1      -1.552   2.039   1.831  0.00  0.00     0.060 A 
ATOM     21 CL   UNL d   1      -0.461   3.258   2.406  0.00  0.00    -0.082 Cl
ATOM     22  C   UNL d   1      -2.910   2.191   2.139  0.00  0.00     0.026 A 
ATOM     23  C   UNL d   1      -3.829   1.242   1.708  0.00  0.00     0.002 A 
ATOM     24  C   UNL d   1      -3.387   0.153   0.968  0.00  0.00     0.002 A 
ATOM     25  C   UNL d   1      -2.028   0.010   0.657  0.00  0.00     0.031 A 
ENDBRANCH  17  19
ENDBRANCH   1  17
BRANCH   1  26
ATOM     26  C   UNL d   1       2.527  -0.038   0.079  0.00  0.00     0.318 C 
ATOM     27  O   UNL d   1       3.090  -0.001   1.170  0.00  0.00    -0.260 OA
BRANCH  26  28
ATOM     28  O   UNL d   1       3.177  -0.216  -1.114  0.00  0.00    -0.318 OA
BRANCH  28  29
ATOM     29  C   UNL d   1       4.599  -0.393  -1.047  0.00  0.00     0.174 C 
ATOM     30  C   UNL d   1       5.298   0.948  -0.960  0.00  0.00     0.034 C 
ENDBRANCH  28  29
ENDBRANCH  26  28
ENDBRANCH   1  26
TORSDOF 8
