REMARK  5 active torsions:
REMARK  status: ('A' for Active; 'I' for Inactive)
REMARK    1  A    between atoms: C_6  and  C_1 
REMARK    2  A    between atoms: C_10  and  C_6 
REMARK    3  A    between atoms: C_7  and  O_9 
REMARK    4  A    between atoms: C_8  and  C_7 
REMARK    5  A    between atoms: O_9  and  C_10 
ROOT
ATOM      1  C   UNL d   1       3.506   0.069  -0.219  0.00  0.00     0.191 C 
ATOM      2  O   UNL d   1       2.404  -0.119   0.303  0.00  0.00    -0.289 OA
ENDROOT
BRANCH   1   3
ATOM      3  C   UNL d   1       4.016   1.427  -0.481  0.00  0.00     0.060 A 
ATOM      4  S   UNL d   1       5.473   1.659  -1.351  0.00  0.00    -0.085 SA
ATOM      5  C   UNL d   1       5.393   3.368  -1.255  0.00  0.00     0.016 A 
ATOM      6  C   UNL d   1       6.309   4.298  -1.788  0.00  0.00     0.019 A 
ATOM      7  C   UNL d   1       4.260   3.778  -0.553  0.00  0.00    -0.012 A 
ATOM      8  C   UNL d   1       6.082   5.663  -1.605  0.00  0.00     0.001 A 
ATOM      9  C   UNL d   1       4.967   6.101  -0.905  0.00  0.00     0.001 A 
ATOM     10  C   UNL d   1       4.061   5.174  -0.382  0.00  0.00     0.013 A 
ATOM     11  C   UNL d   1       3.457   2.651  -0.111  0.00  0.00    -0.029 A 
ATOM     12  C   UNL d   1       2.185   2.864   0.658  0.00  0.00     0.050 C 
ENDBRANCH   1   3
BRANCH   1  13
ATOM     13  C   UNL d   1       4.381  -1.146  -0.578  0.00  0.00     0.263 C 
BRANCH  13  14
ATOM     14  O   UNL d   1       3.778  -2.388  -0.162  0.00  0.00    -0.310 OA
BRANCH  14  15
ATOM     15  C   UNL d   1       3.256  -3.153  -1.150  0.00  0.00     0.294 C 
ATOM     16  O   UNL d   1       3.366  -2.932  -2.348  0.00  0.00    -0.259 OA
BRANCH  15  17
ATOM     17  C   UNL d   1       2.592  -4.383  -0.624  0.00  0.00     0.045 A 
ATOM     18  C   UNL d   1       1.824  -4.449   0.556  0.00  0.00    -0.046 A 
ATOM     19  C   UNL d   1       1.597  -3.286   1.477  0.00  0.00     0.049 C 
ATOM     20  C   UNL d   1       1.234  -5.679   0.915  0.00  0.00     0.008 A 
ATOM     21  C   UNL d   1       1.364  -6.807   0.103  0.00  0.00     0.001 A 
ATOM     22  C   UNL d   1       2.096  -6.732  -1.073  0.00  0.00     0.001 A 
ATOM     23  C   UNL d   1       2.708  -5.529  -1.433  0.00  0.00     0.018 A 
ENDBRANCH  15  17
ENDBRANCH  14  15
ENDBRANCH  13  14
ENDBRANCH   1  13
TORSDOF 5
