REMARK  3 active torsions:
REMARK  status: ('A' for Active; 'I' for Inactive)
REMARK    1  A    between atoms: C_4  and  C_1 
REMARK    2  A    between atoms: C_9  and  N_2 
REMARK       I    between atoms: N_8  and  C_4 
REMARK    3  A    between atoms: C_11  and  N_8 
ROOT
ATOM      1  C   UNL d   1      -0.092   1.228  -0.099  0.00  0.00     0.073 C 
ATOM      2  N   UNL d   1       0.987  -0.723  -0.254  0.00  0.00    -0.260 N 
ATOM      3  C   UNL d   1       1.070   0.631  -0.586  0.00  0.00     0.048 C 
ATOM      4  N   UNL d   1      -0.242  -1.047   0.207  0.00  0.00    -0.304 N 
ATOM      5  HN  UNL d   1      -0.609  -1.977   0.411  1.00  0.00     0.186 HD
ATOM      6  C   UNL d   1      -0.864   0.124   0.337  0.00  0.00     0.126 C 
ATOM      7  C   UNL d   1       2.154   1.171  -1.453  0.00  0.00     0.071 C 
ENDROOT
BRANCH   1   8
ATOM      8  C   UNL d   1      -0.600   2.601  -0.133  0.00  0.00     0.257 C 
ATOM      9  N   UNL d   1       0.268   3.704  -0.012  0.00  0.00    -0.347 N 
ATOM     10  C   UNL d   1       1.658   3.602   0.415  0.00  0.00     0.153 C 
ATOM     11  O   UNL d   1      -1.822   2.779  -0.243  0.00  0.00    -0.267 OA
BRANCH   9  12
ATOM     12  C   UNL d   1      -0.330   5.067  -0.025  0.00  0.00     0.090 C 
ATOM     13  C   UNL d   1      -0.698   5.511   1.400  0.00  0.00     0.055 C 
ATOM     14  C   UNL d   1      -1.243   6.936   1.425  0.00  0.00     0.274 C 
ATOM     15  N   UNL d   1      -0.294   7.871   0.808  0.00  0.00     0.084 N 
ATOM     16  C   UNL d   1      -0.048   7.521  -0.596  0.00  0.00     0.274 C 
ATOM     17  C   UNL d   1      -0.790   9.245   0.915  0.00  0.00     0.309 C 
ATOM     18  C   UNL d   1       0.556   6.120  -0.710  0.00  0.00     0.055 C 
ENDBRANCH   9  12
ENDBRANCH   1   8
BRANCH   2  19
ATOM     19  C   UNL d   1       1.964  -1.733  -0.485  0.00  0.00     0.056 A 
ATOM     20  C   UNL d   1       3.332  -1.432  -0.403  0.00  0.00     0.034 A 
ATOM     21  C   UNL d   1       4.276  -2.347  -0.867  0.00  0.00     0.044 A 
ATOM     22  C   UNL d   1       3.851  -3.567  -1.377  0.00  0.00     0.116 A 
ATOM     23  C   UNL d   1       2.504  -3.917  -1.368  0.00  0.00     0.044 A 
ATOM     24  F   UNL d   1       4.753  -4.410  -1.894  0.00  0.00    -0.206 F 
ATOM     25  C   UNL d   1       1.552  -3.008  -0.898  0.00  0.00     0.034 A 
ENDBRANCH   2  19
TORSDOF 3
