REMARK  6 active torsions:
REMARK  status: ('A' for Active; 'I' for Inactive)
REMARK    1  A    between atoms: O_13  and  C_2 
REMARK    2  A    between atoms: C_3  and  O_14 
REMARK    3  A    between atoms: C_12  and  C_16 
REMARK    4  A    between atoms: C_15  and  C_12 
REMARK    5  A    between atoms: C_16  and  O_13 
REMARK    6  A    between atoms: O_14  and  C_24 
ROOT
ATOM      1  O   UNL d   1       1.131   2.792  -0.079  0.00  0.00    -0.327 OA
ENDROOT
BRANCH   1   2
ATOM      2  C   UNL d   1       1.207   1.415  -0.199  0.00  0.00     0.156 A 
ATOM      3  C   UNL d   1      -0.002   0.727  -0.344  0.00  0.00     0.042 A 
ATOM      4  C   UNL d   1       0.119  -0.660  -0.439  0.00  0.00     0.049 A 
ATOM      5  C   UNL d   1      -1.276   1.342  -0.392  0.00  0.00     0.020 A 
ATOM      6  N   UNL d   1       1.306  -1.280  -0.398  0.00  0.00    -0.351 N 
ATOM      7  C   UNL d   1      -1.037  -1.416  -0.583  0.00  0.00     0.054 A 
ATOM      8  C   UNL d   1       2.396  -0.508  -0.257  0.00  0.00     0.182 A 
ATOM      9  HN  UNL d   1       1.379  -2.295  -0.470  1.00  0.00     0.166 HD
ATOM     10  N   UNL d   1       2.414   0.824  -0.145  0.00  0.00    -0.332 N 
ATOM     11  HN  UNL d   1       3.278   1.353  -0.029  1.00  0.00     0.168 HD
ATOM     12  C   UNL d   1      -2.295  -0.815  -0.631  0.00  0.00     0.036 A 
ATOM     13  C   UNL d   1      -2.422   0.566  -0.536  0.00  0.00     0.025 A 
ATOM     14 CL   UNL d   1      -3.703  -1.788  -0.809  0.00  0.00    -0.084 Cl
ENDBRANCH   1   2
BRANCH   1  15
ATOM     15  C   UNL d   1       2.400   3.430  -0.031  0.00  0.00     0.261 C 
BRANCH  15  16
ATOM     16  C   UNL d   1       2.170   4.929   0.061  0.00  0.00     0.183 C 
ATOM     17  O   UNL d   1       2.187   5.658  -0.930  0.00  0.00    -0.290 OA
BRANCH  16  18
ATOM     18  C   UNL d   1       1.970   5.532   1.408  0.00  0.00     0.012 A 
ATOM     19  C   UNL d   1       2.379   6.852   1.615  0.00  0.00     0.018 A 
ATOM     20  C   UNL d   1       2.301   7.415   2.891  0.00  0.00     0.038 A 
ATOM     21  C   UNL d   1       1.812   6.670   3.967  0.00  0.00     0.078 A 
ATOM     22  C   UNL d   1       1.311   5.389   3.739  0.00  0.00     0.038 A 
ATOM     23  C   UNL d   1       1.408   4.811   2.467  0.00  0.00     0.018 A 
BRANCH  21  24
ATOM     24  O   UNL d   1       1.823   7.311   5.168  0.00  0.00    -0.255 OA
BRANCH  24  25
ATOM     25  C   UNL d   1       2.052   6.550   6.348  0.00  0.00     0.530 C 
ATOM     26  F   UNL d   1       2.393   5.264   6.122  0.00  0.00    -0.144 F 
ATOM     27  F   UNL d   1       3.060   7.125   7.043  0.00  0.00    -0.144 F 
ATOM     28  F   UNL d   1       0.942   6.577   7.115  0.00  0.00    -0.144 F 
ENDBRANCH  24  25
ENDBRANCH  21  24
ENDBRANCH  16  18
ENDBRANCH  15  16
ENDBRANCH   1  15
TORSDOF 6
