REMARK  7 active torsions:
REMARK  status: ('A' for Active; 'I' for Inactive)
REMARK    1  A    between atoms: S_12  and  C_3 
REMARK    2  A    between atoms: C_4  and  O_13 
REMARK    3  A    between atoms: C_5  and  C_6 
REMARK    4  A    between atoms: C_8  and  C_21 
REMARK       I    between atoms: N_11  and  C_8 
REMARK    5  A    between atoms: C_22  and  N_11 
REMARK    6  A    between atoms: C_21  and  S_12 
REMARK    7  A    between atoms: O_13  and  C_24 
ROOT
ATOM      1  C   UNL d   1      -1.404   5.080   0.331  0.00  0.00     0.231 C 
ATOM      2  N   UNL d   1      -0.163   5.701   0.337  0.00  0.00    -0.327 N 
ATOM      3  O   UNL d   1      -2.490   5.662   0.318  0.00  0.00    -0.272 OA
ATOM      4  H   UNL d   1       0.642   5.091   0.263  0.00  0.00     0.169 HD
ENDROOT
BRANCH   1   5
ATOM      5  C   UNL d   1      -1.372   3.566   0.181  0.00  0.00     0.185 C 
BRANCH   5   6
ATOM      6  S   UNL d   1      -0.059   2.794   1.163  0.00  0.00    -0.085 SA
BRANCH   6   7
ATOM      7  C   UNL d   1      -0.437   1.083   0.867  0.00  0.00     0.145 A 
ATOM      8  N   UNL d   1      -1.028   0.731  -0.287  0.00  0.00    -0.336 N 
ATOM      9  C   UNL d   1      -1.236  -0.592  -0.484  0.00  0.00     0.052 A 
ATOM     10  HN  UNL d   1      -1.307   1.426  -0.980  1.00  0.00     0.168 HD
ATOM     11  C   UNL d   1      -0.844  -1.548   0.433  0.00  0.00     0.048 A 
ATOM     12  C   UNL d   1      -0.249  -1.078   1.577  0.00  0.00     0.092 A 
ATOM     13  N   UNL d   1      -0.036   0.225   1.817  0.00  0.00    -0.347 N 
ATOM     14  HN  UNL d   1       0.408   0.547   2.677  1.00  0.00     0.167 HD
BRANCH   9  15
ATOM     15  C   UNL d   1      -1.881  -0.928  -1.767  0.00  0.00     0.031 A 
ATOM     16  S   UNL d   1      -2.714  -2.421  -1.988  0.00  0.00    -0.100 SA
ATOM     17  C   UNL d   1      -3.116  -2.056  -3.605  0.00  0.00     0.050 A 
ATOM     18  C   UNL d   1      -2.649  -0.818  -3.983  0.00  0.00     0.008 A 
ATOM     19  C   UNL d   1      -1.950  -0.168  -2.924  0.00  0.00     0.021 A 
ENDBRANCH   9  15
ENDBRANCH   6   7
ENDBRANCH   5   6
ENDBRANCH   1   5
BRANCH   2  20
ATOM     20  C   UNL d   1       0.083   7.092   0.320  0.00  0.00     0.034 A 
ATOM     21  C   UNL d   1      -0.903   8.052   0.563  0.00  0.00     0.032 A 
ATOM     22  C   UNL d   1      -0.622   9.419   0.428  0.00  0.00     0.039 A 
ATOM     23  C   UNL d   1       0.632   9.838   0.008  0.00  0.00     0.078 A 
ATOM     24  C   UNL d   1       1.648   8.892  -0.140  0.00  0.00     0.039 A 
ATOM     25  C   UNL d   1       1.377   7.526   0.021  0.00  0.00     0.032 A 
BRANCH  23  26
ATOM     26  O   UNL d   1       0.984  11.134  -0.218  0.00  0.00    -0.255 OA
BRANCH  26  27
ATOM     27  C   UNL d   1       0.040  11.977  -0.869  0.00  0.00     0.530 C 
ATOM     28  F   UNL d   1      -1.092  11.355  -1.263  0.00  0.00    -0.144 F 
ATOM     29  F   UNL d   1      -0.293  12.992  -0.042  0.00  0.00    -0.144 F 
ATOM     30  F   UNL d   1       0.621  12.507  -1.970  0.00  0.00    -0.144 F 
ENDBRANCH  26  27
ENDBRANCH  23  26
ENDBRANCH   2  20
TORSDOF 7
