REMARK  5 active torsions:
REMARK  status: ('A' for Active; 'I' for Inactive)
REMARK    1  A    between atoms: C_2  and  S_1 
REMARK    2  A    between atoms: N_4  and  S_1 
REMARK    3  A    between atoms: S_6  and  N_4 
REMARK    4  A    between atoms: C_7  and  S_6 
REMARK    5  A    between atoms: C_9  and  C_8 
ROOT
ATOM      1  N   UNL d   1       0.985   2.094   1.488  0.00  0.00    -0.258 N 
ATOM      2  HN  UNL d   1       1.926   2.430   1.286  1.00  0.00     0.186 HD
ENDROOT
BRANCH   1   3
ATOM      3  S   UNL d   1      -0.357   2.690   0.615  0.00  0.00     0.270 S 
ATOM      4  O   UNL d   1      -1.483   1.777   0.618  0.00  0.00    -0.200 OA
ATOM      5  O   UNL d   1      -0.548   4.082   0.983  0.00  0.00    -0.200 OA
BRANCH   3   6
ATOM      6  C   UNL d   1       0.364   2.679  -0.990  0.00  0.00     0.109 A 
ATOM      7  C   UNL d   1       0.616   1.472  -1.680  0.00  0.00     0.090 A 
ATOM      8  N   UNL d   1       0.259   0.229  -1.324  0.00  0.00    -0.309 N 
ATOM      9  C   UNL d   1       1.401   1.497  -2.968  0.00  0.00     0.068 A 
ATOM     10  S   UNL d   1       0.823  -0.797  -2.496  0.00  0.00     0.068 SA
ATOM     11  HN  UNL d   1      -0.263  -0.035  -0.488  1.00  0.00     0.176 HD
ATOM     12  N   UNL d   1       1.577   0.282  -3.507  0.00  0.00    -0.310 N 
ATOM     13  HN  UNL d   1       2.077   0.063  -4.370  1.00  0.00     0.176 HD
ATOM     14  C   UNL d   1       1.896   2.714  -3.497  0.00  0.00     0.032 A 
ATOM     15  C   UNL d   1       1.594   3.881  -2.774  0.00  0.00     0.004 A 
ATOM     16  C   UNL d   1       0.854   3.869  -1.571  0.00  0.00     0.028 A 
ENDBRANCH   3   6
ENDBRANCH   1   3
BRANCH   1  17
ATOM     17  S   UNL d   1       0.741   0.998   2.630  0.00  0.00    -0.069 SA
ATOM     18  C   UNL d   1      -0.221   2.019   3.778  0.00  0.00     0.109 C 
BRANCH  17  19
ATOM     19  C   UNL d   1       2.405   1.218   3.266  0.00  0.00     0.094 A 
ATOM     20  C   UNL d   1       3.522   0.513   2.835  0.00  0.00     0.082 A 
ATOM     21  C   UNL d   1       4.738   0.790   3.492  0.00  0.00     0.020 A 
ATOM     22  C   UNL d   1       4.800   1.751   4.494  0.00  0.00     0.018 A 
ATOM     23  C   UNL d   1       3.638   2.420   4.818  0.00  0.00     0.089 A 
ATOM     24  N   UNL d   1       2.451   2.167   4.234  0.00  0.00    -0.359 N 
ATOM     25  HN  UNL d   1       1.611   2.675   4.511  1.00  0.00     0.166 HD
BRANCH  20  26
ATOM     26  C   UNL d   1       3.530  -0.502   1.736  0.00  0.00     0.420 C 
ATOM     27  F   UNL d   1       2.379  -0.640   1.028  0.00  0.00    -0.166 F 
ATOM     28  F   UNL d   1       4.491  -0.225   0.805  0.00  0.00    -0.166 F 
ATOM     29  F   UNL d   1       3.830  -1.750   2.197  0.00  0.00    -0.166 F 
ENDBRANCH  20  26
ENDBRANCH  17  19
ENDBRANCH   1  17
TORSDOF 5
