REMARK  9 active torsions:
REMARK  status: ('A' for Active; 'I' for Inactive)
REMARK    1  A    between atoms: N_3  and  C_1 
REMARK    2  A    between atoms: N_4  and  C_1 
REMARK       I    between atoms: C_2  and  N_6 
REMARK    3  A    between atoms: C_15  and  C_2 
REMARK    4  A    between atoms: N_6  and  N_3 
REMARK    5  A    between atoms: C_12  and  N_4 
REMARK    6  A    between atoms: C_5  and  C_21 
REMARK       I    between atoms: N_8  and  C_5 
REMARK    7  A    between atoms: C_14  and  N_8 
REMARK    8  A    between atoms: S_11  and  C_15 
REMARK    9  A    between atoms: C_21  and  S_11 
ROOT
ATOM      1  C   UNL d   1       0.448  -3.643   0.704  0.00  0.00     0.245 C 
ATOM      2  N   UNL d   1       0.903  -2.639   1.537  0.00  0.00    -0.267 N 
ATOM      3  O   UNL d   1      -0.501  -3.499  -0.061  0.00  0.00    -0.271 OA
ATOM      4  H   UNL d   1       1.530  -2.840   2.311  0.00  0.00     0.190 HD
ENDROOT
BRANCH   1   5
ATOM      5  C   UNL d   1       1.185  -4.962   0.873  0.00  0.00     0.178 C 
BRANCH   5   6
ATOM      6  S   UNL d   1       0.294  -6.049   2.047  0.00  0.00    -0.150 SA
BRANCH   6   7
ATOM      7  C   UNL d   1      -1.158  -6.417   1.010  0.00  0.00     0.177 C 
BRANCH   7   8
ATOM      8  C   UNL d   1      -2.151  -7.421   1.576  0.00  0.00     0.231 C 
ATOM      9  N   UNL d   1      -1.883  -7.931   2.831  0.00  0.00    -0.327 N 
ATOM     10  H   UNL d   1      -1.072  -7.540   3.301  0.00  0.00     0.169 HD
ATOM     11  O   UNL d   1      -3.143  -7.694   0.896  0.00  0.00    -0.272 OA
BRANCH   9  12
ATOM     12  C   UNL d   1      -2.692  -8.827   3.566  0.00  0.00     0.034 A 
ATOM     13  C   UNL d   1      -3.779  -9.513   3.016  0.00  0.00     0.029 A 
ATOM     14  C   UNL d   1      -4.584 -10.336   3.809  0.00  0.00     0.002 A 
ATOM     15  C   UNL d   1      -4.307 -10.489   5.162  0.00  0.00     0.000 A 
ATOM     16  C   UNL d   1      -3.207  -9.839   5.717  0.00  0.00     0.002 A 
ATOM     17  C   UNL d   1      -2.396  -9.021   4.921  0.00  0.00     0.029 A 
ENDBRANCH   9  12
ENDBRANCH   7   8
ENDBRANCH   6   7
ENDBRANCH   5   6
ENDBRANCH   1   5
BRANCH   2  18
ATOM     18  N   UNL d   1       0.087  -1.511   1.695  0.00  0.00    -0.274 N 
ATOM     19  H   UNL d   1      -0.835  -1.577   1.258  0.00  0.00     0.189 HD
BRANCH  18  20
ATOM     20  C   UNL d   1       0.608  -0.244   1.840  0.00  0.00     0.191 C 
ATOM     21  S   UNL d   1       2.225   0.161   1.715  0.00  0.00    -0.039 SA
BRANCH  20  22
ATOM     22  N   UNL d   1      -0.314   0.743   2.091  0.00  0.00    -0.332 N 
ATOM     23  H   UNL d   1      -0.000   1.686   1.886  0.00  0.00     0.168 HD
BRANCH  22  24
ATOM     24  C   UNL d   1      -1.522   0.628   2.815  0.00  0.00     0.034 A 
ATOM     25  C   UNL d   1      -1.780  -0.440   3.684  0.00  0.00     0.031 A 
ATOM     26  C   UNL d   1      -2.964  -0.490   4.422  0.00  0.00     0.026 A 
ATOM     27  C   UNL d   1      -3.900   0.530   4.291  0.00  0.00     0.034 A 
ATOM     28  C   UNL d   1      -3.649   1.605   3.443  0.00  0.00     0.026 A 
ATOM     29 CL   UNL d   1      -5.360   0.469   5.197  0.00  0.00    -0.084 Cl
ATOM     30  C   UNL d   1      -2.455   1.663   2.716  0.00  0.00     0.031 A 
ENDBRANCH  22  24
ENDBRANCH  20  22
ENDBRANCH  18  20
ENDBRANCH   2  18
TORSDOF 9
