REMARK  7 active torsions:
REMARK  status: ('A' for Active; 'I' for Inactive)
REMARK    1  A    between atoms: C_2  and  C_1 
REMARK       I    between atoms: N_11  and  C_2 
REMARK    2  A    between atoms: C_3  and  C_4 
REMARK    3  A    between atoms: O_18  and  C_5 
REMARK       I    between atoms: C_9  and  N_12 
REMARK    4  A    between atoms: C_22  and  C_9 
REMARK    5  A    between atoms: C_10  and  C_20 
REMARK    6  A    between atoms: N_12  and  N_11 
REMARK    7  A    between atoms: C_20  and  O_18 
ROOT
ATOM      1  C   UNL d   1       0.057   1.303   0.023  0.00  0.00     0.107 A 
ATOM      2  C   UNL d   1       1.319   0.740  -0.097  0.00  0.00     0.092 A 
ATOM      3  S   UNL d   1      -1.150   0.075   0.163  0.00  0.00    -0.094 SA
ATOM      4  C   UNL d   1       1.281  -0.689   0.008  0.00  0.00     0.045 A 
ATOM      5  C   UNL d   1       0.001  -1.176   0.117  0.00  0.00     0.053 A 
ENDROOT
BRANCH   1   6
ATOM      6  C   UNL d   1      -0.339   2.710   0.005  0.00  0.00     0.279 C 
ATOM      7  N   UNL d   1      -1.615   2.965   0.485  0.00  0.00    -0.262 N 
ATOM      8  H   UNL d   1      -2.223   2.229   0.841  0.00  0.00     0.190 HD
ATOM      9  O   UNL d   1       0.372   3.636  -0.390  0.00  0.00    -0.265 OA
BRANCH   7  10
ATOM     10  N   UNL d   1      -2.142   4.259   0.466  0.00  0.00    -0.263 N 
ATOM     11  C   UNL d   1      -3.369   4.457   1.071  0.00  0.00     0.270 C 
ATOM     12  O   UNL d   1      -3.994   3.547   1.611  0.00  0.00    -0.266 OA
ATOM     13  H   UNL d   1      -1.518   5.003   0.163  0.00  0.00     0.190 HD
BRANCH  11  14
ATOM     14  C   UNL d   1      -3.910   5.842   1.056  0.00  0.00     0.033 A 
ATOM     15  C   UNL d   1      -3.603   6.747   0.030  0.00  0.00     0.017 A 
ATOM     16  C   UNL d   1      -4.162   8.027   0.040  0.00  0.00     0.001 A 
ATOM     17  C   UNL d   1      -5.026   8.408   1.068  0.00  0.00     0.000 A 
ATOM     18  C   UNL d   1      -5.343   7.508   2.084  0.00  0.00     0.001 A 
ATOM     19  C   UNL d   1      -4.791   6.224   2.076  0.00  0.00     0.017 A 
ENDBRANCH  11  14
ENDBRANCH   7  10
ENDBRANCH   1   6
BRANCH   2  20
ATOM     20  O   UNL d   1       2.420   1.522  -0.266  0.00  0.00    -0.344 OA
BRANCH  20  21
ATOM     21  C   UNL d   1       3.603   0.802  -0.628  0.00  0.00     0.234 C 
BRANCH  21  22
ATOM     22  C   UNL d   1       4.678   1.730  -1.143  0.00  0.00     0.055 A 
ATOM     23  N   UNL d   1       4.964   1.621  -2.475  0.00  0.00    -0.365 N 
ATOM     24  C   UNL d   1       5.931   2.414  -2.987  0.00  0.00     0.104 A 
ATOM     25  HN  UNL d   1       4.461   0.960  -3.066  1.00  0.00     0.165 HD
ATOM     26  C   UNL d   1       6.659   3.322  -2.237  0.00  0.00     0.064 A 
ATOM     27  C   UNL d   1       6.369   3.413  -0.870  0.00  0.00     0.043 A 
ATOM     28  C   UNL d   1       5.370   2.611  -0.313  0.00  0.00     0.059 A 
ATOM     29 CL   UNL d   1       5.076   2.728   1.381  0.00  0.00    -0.082 Cl
BRANCH  26  30
ATOM     30  C   UNL d   1       7.709   4.153  -2.904  0.00  0.00     0.418 C 
ATOM     31  F   UNL d   1       8.340   5.013  -2.059  0.00  0.00    -0.166 F 
ATOM     32  F   UNL d   1       8.690   3.395  -3.466  0.00  0.00    -0.166 F 
ATOM     33  F   UNL d   1       7.206   4.918  -3.911  0.00  0.00    -0.166 F 
ENDBRANCH  26  30
ENDBRANCH  21  22
ENDBRANCH  20  21
ENDBRANCH   2  20
TORSDOF 7
