REMARK  4 active torsions:
REMARK  status: ('A' for Active; 'I' for Inactive)
REMARK    1  A    between atoms: C_7  and  C_1 
REMARK    2  A    between atoms: O_11  and  C_3 
REMARK    3  A    between atoms: O_20  and  C_14 
REMARK    4  A    between atoms: O_21  and  C_17 
ROOT
ATOM      1  C   UNL d   1      -1.506  -1.409  -0.014  0.00  0.00     0.076 A 
ATOM      2  C   UNL d   1      -2.001   0.007  -0.015  0.00  0.00     0.261 A 
ATOM      3  C   UNL d   1      -0.183  -1.665  -0.042  0.00  0.00     0.094 A 
ATOM      4  N   UNL d   1      -1.057   1.026  -0.015  0.00  0.00    -0.317 N 
ATOM      5  C   UNL d   1       0.345   0.763  -0.020  0.00  0.00     0.052 A 
ATOM      6  C   UNL d   1       0.792  -0.567  -0.041  0.00  0.00     0.025 A 
ATOM      7  C   UNL d   1       1.293   1.801   0.000  0.00  0.00     0.067 A 
ATOM      8  C   UNL d   1       2.174  -0.823  -0.042  0.00  0.00     0.019 A 
ATOM      9  O   UNL d   1      -3.215   0.220  -0.012  0.00  0.00    -0.267 OA
ATOM     10  C   UNL d   1       2.667   1.536   0.005  0.00  0.00     0.070 A 
ATOM     11  C   UNL d   1      -1.535   2.401  -0.003  0.00  0.00     0.159 C 
ATOM     12  C   UNL d   1       3.106   0.218  -0.019  0.00  0.00     0.038 A 
ENDROOT
BRANCH   1  13
ATOM     13  C   UNL d   1      -2.495  -2.500   0.059  0.00  0.00    -0.018 A 
ATOM     14  C   UNL d   1      -2.909  -2.978   1.309  0.00  0.00     0.015 A 
ATOM     15  C   UNL d   1      -3.855  -4.004   1.400  0.00  0.00     0.037 A 
ATOM     16  C   UNL d   1      -4.390  -4.567   0.242  0.00  0.00     0.068 A 
ATOM     17  C   UNL d   1      -3.970  -4.096  -1.005  0.00  0.00     0.037 A 
ATOM     18  C   UNL d   1      -3.027  -3.068  -1.101  0.00  0.00     0.015 A 
BRANCH  16  19
ATOM     19  O   UNL d   1      -5.318  -5.571   0.193  0.00  0.00    -0.356 OA
ATOM     20  C   UNL d   1      -5.808  -6.053   1.438  0.00  0.00     0.210 C 
ENDBRANCH  16  19
ENDBRANCH   1  13
BRANCH   3  21
ATOM     21  O   UNL d   1       0.361  -2.939  -0.049  0.00  0.00    -0.359 OA
ATOM     22  H   UNL d   1      -0.360  -3.593  -0.079  0.00  0.00     0.217 HD
ENDBRANCH   3  21
BRANCH  10  23
ATOM     23  O   UNL d   1       3.462   2.649   0.035  0.00  0.00    -0.356 OA
ATOM     24  C   UNL d   1       4.869   2.434   0.053  0.00  0.00     0.210 C 
ENDBRANCH  10  23
TORSDOF 4
