REMARK  4 active torsions:
REMARK  status: ('A' for Active; 'I' for Inactive)
REMARK    1  A    between atoms: C_2  and  S_1 
REMARK    2  A    between atoms: N_7  and  S_1 
REMARK    3  A    between atoms: N_9  and  C_6 
REMARK    4  A    between atoms: C_10  and  C_6 
REMARK       I    between atoms: N_20  and  C_10 
ROOT
ATOM      1  C   UNL d   1       0.679   4.246  -1.431  0.00  0.00     0.241 C 
ATOM      2  N   UNL d   1       0.660   1.513  -0.361  0.00  0.00    -0.306 N 
ATOM      3  C   UNL d   1       0.628   3.904   0.086  0.00  0.00     0.072 C 
ATOM      4  C   UNL d   1       0.127   3.035  -2.232  0.00  0.00     0.072 C 
ATOM      5  C   UNL d   1       1.344   2.582   0.391  0.00  0.00     0.138 C 
ATOM      6  C   UNL d   1       0.747   1.694  -1.829  0.00  0.00     0.138 C 
ENDROOT
BRANCH   1   7
ATOM      7  N   UNL d   1      -0.049   5.557  -1.718  0.00  0.00     0.107 N 
ATOM      8  C   UNL d   1      -1.504   5.488  -1.441  0.00  0.00     0.274 C 
ATOM      9  C   UNL d   1      -2.245   6.803  -1.711  0.00  0.00     0.030 C 
ATOM     10  C   UNL d   1      -2.009   7.288  -3.132  0.00  0.00     0.003 C 
ATOM     11  C   UNL d   1      -0.515   7.371  -3.392  0.00  0.00     0.030 C 
ATOM     12  C   UNL d   1       0.171   6.031  -3.106  0.00  0.00     0.274 C 
ENDBRANCH   1   7
BRANCH   1  13
ATOM     13  C   UNL d   1       2.194   4.449  -1.792  0.00  0.00     0.255 C 
ATOM     14  O   UNL d   1       2.798   3.791  -2.634  0.00  0.00    -0.271 OA
ATOM     15  N   UNL d   1       2.853   5.426  -1.097  0.00  0.00    -0.368 N 
ATOM     16  H   UNL d   1       2.308   6.182  -0.701  0.00  0.00     0.159 HD
ATOM     17  H   UNL d   1       3.790   5.641  -1.415  0.00  0.00     0.159 HD
ENDBRANCH   1  13
BRANCH   2  18
ATOM     18  S   UNL d   1       0.826  -0.079   0.210  0.00  0.00     0.263 S 
ATOM     19  O   UNL d   1       0.830  -0.073   1.658  0.00  0.00    -0.200 OA
ATOM     20  O   UNL d   1      -0.102  -0.907  -0.526  0.00  0.00    -0.200 OA
BRANCH  18  21
ATOM     21  C   UNL d   1       2.370  -0.697  -0.263  0.00  0.00     0.110 A 
ATOM     22  C   UNL d   1       3.551  -0.599   0.432  0.00  0.00     0.099 A 
ATOM     23  S   UNL d   1       4.862  -1.329  -0.381  0.00  0.00    -0.064 SA
ATOM     24 CL   UNL d   1       3.884   0.137   1.950  0.00  0.00    -0.075 Cl
ATOM     25  C   UNL d   1       3.861  -1.791  -1.663  0.00  0.00     0.077 A 
ATOM     26  C   UNL d   1       2.558  -1.403  -1.502  0.00  0.00     0.059 A 
ATOM     27 CL   UNL d   1       4.512  -2.660  -2.992  0.00  0.00    -0.076 Cl
ENDBRANCH  18  21
ENDBRANCH   2  18
TORSDOF 4
