REMARK  3 active torsions:
REMARK  status: ('A' for Active; 'I' for Inactive)
REMARK    1  A    between atoms: C_2  and  C_1 
REMARK       I    between atoms: N_3  and  C_2 
REMARK    2  A    between atoms: N_5  and  N_3 
REMARK    3  A    between atoms: C_4  and  N_5 
ROOT
ATOM      1  C   UNL d   1       0.188   2.119   0.329  0.00  0.00     0.271 C 
ATOM      2  N   UNL d   1       1.411   2.773   0.433  0.00  0.00    -0.282 N 
ATOM      3  O   UNL d   1       0.070   1.119  -0.379  0.00  0.00    -0.266 OA
ATOM      4  H   UNL d   1       1.494   3.733   0.769  0.00  0.00     0.184 HD
ENDROOT
BRANCH   2   5
ATOM      5  N   UNL d   1       2.416   2.335  -0.453  0.00  0.00    -0.200 NA
ATOM      6  H   UNL d   1       2.142   1.430  -0.857  0.00  0.00     0.153 HD
BRANCH   5   7
ATOM      7  C   UNL d   1       3.719   2.291   0.108  0.00  0.00     0.066 A 
ATOM      8  C   UNL d   1       4.210   3.245   1.019  0.00  0.00     0.142 A 
ATOM      9  C   UNL d   1       5.535   3.236   1.447  0.00  0.00     0.086 A 
ATOM     10  F   UNL d   1       3.402   4.212   1.487  0.00  0.00    -0.204 F 
ATOM     11  C   UNL d   1       6.401   2.275   0.947  0.00  0.00     0.119 A 
ATOM     12  C   UNL d   1       5.964   1.332   0.026  0.00  0.00     0.044 A 
ATOM     13  F   UNL d   1       7.680   2.266   1.342  0.00  0.00    -0.206 F 
ATOM     14  C   UNL d   1       4.632   1.350  -0.402  0.00  0.00     0.031 A 
ENDBRANCH   5   7
ENDBRANCH   2   5
BRANCH   1  15
ATOM     15  C   UNL d   1      -0.962   2.675   1.097  0.00  0.00     0.093 A 
ATOM     16  C   UNL d   1      -0.983   4.033   1.441  0.00  0.00     0.133 A 
ATOM     17  F   UNL d   1       0.024   4.848   1.089  0.00  0.00    -0.205 F 
ATOM     18  C   UNL d   1      -2.043   4.596   2.153  0.00  0.00     0.043 A 
ATOM     19  C   UNL d   1      -3.120   3.805   2.534  0.00  0.00     0.005 A 
ATOM     20  C   UNL d   1      -3.126   2.453   2.198  0.00  0.00     0.025 A 
ATOM     21  C   UNL d   1      -2.057   1.885   1.485  0.00  0.00     0.052 A 
ATOM     22 CL   UNL d   1      -2.180   0.183   1.192  0.00  0.00    -0.083 Cl
ENDBRANCH   1  15
TORSDOF 3
