REMARK  5 active torsions:
REMARK  status: ('A' for Active; 'I' for Inactive)
REMARK    1  A    between atoms: S_11  and  C_7 
REMARK    2  A    between atoms: N_12  and  C_8 
REMARK    3  A    between atoms: C_13  and  C_9 
REMARK    4  A    between atoms: S_10  and  C_13 
REMARK    5  A    between atoms: C_14  and  S_10 
ROOT
ATOM      1  N   UNL d   1      -0.157   1.264   0.083  0.00  0.00    -0.313 N 
ATOM      2  HN  UNL d   1      -0.631   2.166   0.127  1.00  0.00     0.170 HD
ATOM      3  N   UNL d   1       0.810  -0.575   1.168  0.00  0.00    -0.322 N 
ATOM      4  HN  UNL d   1       1.066  -1.052   2.033  1.00  0.00     0.169 HD
ATOM      5  N   UNL d   1       0.728  -0.519  -1.193  0.00  0.00    -0.326 N 
ATOM      6  HN  UNL d   1       0.929  -0.942  -2.099  1.00  0.00     0.169 HD
ATOM      7  C   UNL d   1       0.123   0.662  -1.070  0.00  0.00     0.147 A 
ATOM      8  C   UNL d   1       0.221   0.610   1.164  0.00  0.00     0.158 A 
ATOM      9  C   UNL d   1       1.049  -1.105  -0.035  0.00  0.00     0.095 A 
ENDROOT
BRANCH   9  10
ATOM     10  C   UNL d   1       1.746  -2.448  -0.077  0.00  0.00     0.156 C 
BRANCH  10  11
ATOM     11  S   UNL d   1       0.554  -3.835  -0.075  0.00  0.00    -0.122 SA
BRANCH  11  12
ATOM     12  C   UNL d   1       1.582  -5.302  -0.087  0.00  0.00     0.001 A 
ATOM     13  C   UNL d   1       2.982  -5.315  -0.096  0.00  0.00     0.020 A 
ATOM     14  C   UNL d   1       3.685  -6.530  -0.110  0.00  0.00     0.025 A 
ATOM     15  C   UNL d   1       2.994  -7.738  -0.113  0.00  0.00     0.034 A 
ATOM     16  C   UNL d   1       1.604  -7.746  -0.101  0.00  0.00     0.025 A 
ATOM     17 CL   UNL d   1       3.859  -9.225  -0.133  0.00  0.00    -0.084 Cl
ATOM     18  C   UNL d   1       0.905  -6.533  -0.088  0.00  0.00     0.020 A 
ENDBRANCH  11  12
ENDBRANCH  10  11
ENDBRANCH   9  10
BRANCH   8  19
ATOM     19  N   UNL d   1      -0.037   1.200   2.384  0.00  0.00    -0.274 NA
ATOM     20  H   UNL d   1      -0.107   0.503   3.112  0.00  0.00     0.127 HD
ATOM     21  H   UNL d   1      -0.797   1.862   2.300  0.00  0.00     0.127 HD
ENDBRANCH   8  19
BRANCH   7  22
ATOM     22  S   UNL d   1      -0.362   1.563  -2.528  0.00  0.00    -0.098 SA
ATOM     23  C   UNL d   1       0.234   0.467  -3.834  0.00  0.00     0.099 C 
ENDBRANCH   7  22
TORSDOF 5
