REMARK  6 active torsions:
REMARK  status: ('A' for Active; 'I' for Inactive)
REMARK    1  A    between atoms: C_2  and  C_1 
REMARK       I    between atoms: C_3  and  N_6 
REMARK       I    between atoms: N_11  and  C_3 
REMARK    2  A    between atoms: N_6  and  C_10 
REMARK    3  A    between atoms: C_16  and  C_7 
REMARK    4  A    between atoms: C_20  and  N_11 
REMARK    5  A    between atoms: S_13  and  C_16 
REMARK    6  A    between atoms: C_14  and  S_13 
ROOT
ATOM      1  C   UNL d   1      -0.431   6.333  -7.514  0.00  0.00     0.053 C 
ATOM      2  C   UNL d   1       0.224   5.125  -7.224  0.00  0.00     0.027 C 
ATOM      3  C   UNL d   1      -0.650   6.692  -8.851  0.00  0.00     0.031 C 
ATOM      4  C   UNL d   1       0.407   4.194  -8.256  0.00  0.00     0.021 C 
ATOM      5  C   UNL d   1      -0.440   5.772  -9.873  0.00  0.00     0.002 C 
ATOM      6  C   UNL d   1       0.042   4.504  -9.569  0.00  0.00     0.002 C 
ENDROOT
BRANCH   2   7
ATOM      7  S   UNL d   1       0.743   4.683  -5.570  0.00  0.00    -0.122 SA
BRANCH   7   8
ATOM      8  C   UNL d   1       2.465   5.308  -5.628  0.00  0.00     0.138 C 
BRANCH   8   9
ATOM      9  C   UNL d   1       2.676   6.750  -5.196  0.00  0.00     0.040 A 
ATOM     10  N   UNL d   1       1.584   7.545  -5.016  0.00  0.00    -0.366 N 
ATOM     11  C   UNL d   1       1.777   8.836  -4.651  0.00  0.00     0.104 A 
ATOM     12  HN  UNL d   1       0.642   7.177  -5.153  1.00  0.00     0.165 HD
ATOM     13  C   UNL d   1       3.024   9.401  -4.439  0.00  0.00     0.064 A 
ATOM     14  C   UNL d   1       4.139   8.582  -4.633  0.00  0.00     0.043 A 
ATOM     15  C   UNL d   1       3.972   7.251  -5.017  0.00  0.00     0.058 A 
ATOM     16 CL   UNL d   1       5.385   6.292  -5.259  0.00  0.00    -0.082 Cl
BRANCH  13  17
ATOM     17  C   UNL d   1       3.134  10.840  -4.042  0.00  0.00     0.418 C 
ATOM     18  F   UNL d   1       4.391  11.196  -3.658  0.00  0.00    -0.166 F 
ATOM     19  F   UNL d   1       2.322  11.162  -2.999  0.00  0.00    -0.166 F 
ATOM     20  F   UNL d   1       2.801  11.685  -5.055  0.00  0.00    -0.166 F 
ENDBRANCH  13  17
ENDBRANCH   8   9
ENDBRANCH   7   8
ENDBRANCH   2   7
BRANCH   1  21
ATOM     21  N   UNL d   1      -0.914   7.133  -6.455  0.00  0.00    -0.307 N 
ATOM     22  C   UNL d   1      -2.179   7.678  -6.303  0.00  0.00     0.325 C 
ATOM     23  N   UNL d   1      -3.047   7.446  -7.339  0.00  0.00    -0.309 N 
ATOM     24  O   UNL d   1      -2.450   8.293  -5.273  0.00  0.00    -0.247 OA
ATOM     25  H   UNL d   1      -2.699   6.864  -8.079  0.00  0.00     0.170 HD
ATOM     26  H   UNL d   1      -0.418   7.040  -5.567  0.00  0.00     0.170 HD
BRANCH  23  27
ATOM     27  C   UNL d   1      -4.381   7.829  -7.510  0.00  0.00     0.036 A 
ATOM     28  C   UNL d   1      -5.204   8.301  -6.493  0.00  0.00     0.031 A 
ATOM     29  C   UNL d   1      -6.541   8.612  -6.765  0.00  0.00     0.026 A 
ATOM     30  C   UNL d   1      -7.039   8.482  -8.063  0.00  0.00     0.034 A 
ATOM     31  C   UNL d   1      -6.220   8.027  -9.088  0.00  0.00     0.026 A 
ATOM     32 CL   UNL d   1      -8.681   8.877  -8.397  0.00  0.00    -0.084 Cl
ATOM     33  C   UNL d   1      -4.900   7.686  -8.810  0.00  0.00     0.031 A 
ENDBRANCH  23  27
ENDBRANCH   1  21
TORSDOF 6
