REMARK  4 active torsions:
REMARK  status: ('A' for Active; 'I' for Inactive)
REMARK    1  A    between atoms: C_11  and  C_3 
REMARK    2  A    between atoms: C_13  and  C_10 
REMARK    3  A    between atoms: O_12  and  C_11 
REMARK    4  A    between atoms: C_17  and  O_12 
ROOT
ATOM      1  C   UNL d   1       0.457   0.641   0.109  0.00  0.00     0.172 A 
ATOM      2  N   UNL d   1       0.063  -0.611  -0.254  0.00  0.00    -0.235 N 
ATOM      3  C   UNL d   1      -1.979   0.338  -0.109  0.00  0.00     0.108 A 
ATOM      4  N   UNL d   1       1.750   0.730   0.238  0.00  0.00    -0.319 N 
ATOM      5  HN  UNL d   1       2.318   1.533   0.509  1.00  0.00     0.169 HD
ATOM      6  N   UNL d   1       1.137  -1.397  -0.399  0.00  0.00    -0.276 N 
ATOM      7  HN  UNL d   1       1.179  -2.379  -0.671  1.00  0.00     0.189 HD
ATOM      8  C   UNL d   1      -1.302  -0.802  -0.378  0.00  0.00     0.056 A 
ATOM      9  S   UNL d   1      -0.904   1.698   0.310  0.00  0.00    -0.044 SA
ATOM     10  C   UNL d   1       2.149  -0.559  -0.093  0.00  0.00     0.132 A 
ATOM     11  C   UNL d   1      -1.790  -2.162  -0.750  0.00  0.00     0.072 C 
ENDROOT
BRANCH   3  12
ATOM     12  C   UNL d   1      -3.461   0.463  -0.046  0.00  0.00     0.307 C 
ATOM     13  O   UNL d   1      -4.201  -0.506  -0.145  0.00  0.00    -0.258 OA
BRANCH  12  14
ATOM     14  O   UNL d   1      -3.857   1.778   0.183  0.00  0.00    -0.275 OA
BRANCH  14  15
ATOM     15  C   UNL d   1      -5.156   2.146   0.621  0.00  0.00     0.079 A 
ATOM     16  C   UNL d   1      -6.294   1.353   0.493  0.00  0.00     0.038 A 
ATOM     17  C   UNL d   1      -7.482   1.742   1.121  0.00  0.00     0.009 A 
ATOM     18  C   UNL d   1      -7.542   2.924   1.871  0.00  0.00    -0.062 A 
ATOM     19  C   UNL d   1      -6.426   3.768   1.892  0.00  0.00     0.009 A 
ATOM     20  C   UNL d   1      -8.781   3.259   2.649  0.00  0.00     0.048 C 
ATOM     21  C   UNL d   1      -5.235   3.380   1.271  0.00  0.00     0.038 A 
ENDBRANCH  14  15
ENDBRANCH  12  14
ENDBRANCH   3  12
BRANCH  10  22
ATOM     22  C   UNL d   1       3.546  -0.996  -0.111  0.00  0.00     0.009 A 
ATOM     23  C   UNL d   1       4.575  -0.182   0.378  0.00  0.00     0.017 A 
ATOM     24  C   UNL d   1       5.903  -0.632   0.364  0.00  0.00     0.025 A 
ATOM     25  C   UNL d   1       6.208  -1.895  -0.144  0.00  0.00     0.034 A 
ATOM     26  C   UNL d   1       5.200  -2.715  -0.640  0.00  0.00     0.025 A 
ATOM     27 CL   UNL d   1       7.838  -2.447  -0.158  0.00  0.00    -0.084 Cl
ATOM     28  C   UNL d   1       3.877  -2.267  -0.620  0.00  0.00     0.017 A 
ENDBRANCH  10  22
TORSDOF 4
