REMARK  6 active torsions:
REMARK  status: ('A' for Active; 'I' for Inactive)
REMARK    1  A    between atoms: C_1  and  C_7 
REMARK    2  A    between atoms: C_3  and  O_10 
REMARK    3  A    between atoms: C_4  and  O_9 
REMARK    4  A    between atoms: C_5  and  O_11 
REMARK    5  A    between atoms: O_12  and  C_6 
REMARK    6  A    between atoms: O_13  and  C_7 
ROOT
ATOM      1  C   UNL d   1       0.842   1.205  -0.179  0.00  0.00     0.253 C 
ATOM      2  O   UNL d   1       1.380  -0.037   0.287  0.00  0.00    -0.340 OA
ATOM      3  C   UNL d   1      -0.634   1.329   0.210  0.00  0.00     0.189 C 
ATOM      4  C   UNL d   1      -0.757  -1.192   0.254  0.00  0.00     0.204 C 
ATOM      5  C   UNL d   1      -1.426   0.096  -0.232  0.00  0.00     0.183 C 
ATOM      6  C   UNL d   1       0.708  -1.176  -0.228  0.00  0.00     0.289 C 
ENDROOT
BRANCH   1   7
ATOM      7  C   UNL d   1       1.653   2.383   0.380  0.00  0.00     0.172 C 
ATOM      8  O   UNL d   1       2.821   2.298   0.756  0.00  0.00    -0.648 OA
BRANCH   7   9
ATOM      9  O   UNL d   1       1.013   3.577   0.376  0.00  0.00    -0.774 OA
ATOM     10  H   UNL d   1       0.084   3.525   0.038  0.00  0.00     0.167 HD
ENDBRANCH   7   9
ENDBRANCH   1   7
BRANCH   3  11
ATOM     11  O   UNL d   1      -1.194   2.503  -0.416  0.00  0.00    -0.390 OA
ATOM     12  H   UNL d   1      -2.132   2.286  -0.616  0.00  0.00     0.210 HD
ENDBRANCH   3  11
BRANCH   6  13
ATOM     13  O   UNL d   1       1.403  -2.337   0.188  0.00  0.00    -0.368 OA
ATOM     14  H   UNL d   1       1.210  -2.464   1.131  0.00  0.00     0.212 HD
ENDBRANCH   6  13
BRANCH   5  15
ATOM     15  O   UNL d   1      -2.772   0.246   0.238  0.00  0.00    -0.390 OA
ATOM     16  H   UNL d   1      -2.873  -0.271   1.060  0.00  0.00     0.210 HD
ENDBRANCH   5  15
BRANCH   4  17
ATOM     17  O   UNL d   1      -1.487  -2.332  -0.203  0.00  0.00    -0.388 OA
ATOM     18  H   UNL d   1      -1.393  -2.403  -1.170  0.00  0.00     0.210 HD
ENDBRANCH   4  17
TORSDOF 6
