REMARK  3 active torsions:
REMARK  status: ('A' for Active; 'I' for Inactive)
REMARK       I    between atoms: N_2  and  C_1 
REMARK    1  A    between atoms: C_11  and  C_1 
REMARK    2  A    between atoms: N_3  and  N_2 
REMARK    3  A    between atoms: C_4  and  N_3 
ROOT
ATOM      1  N   UNL d   1       0.918   1.888   1.538  0.00  0.00    -0.203 NA
ATOM      2  H   UNL d   1       1.855   2.019   1.131  0.00  0.00     0.153 HD
ENDROOT
BRANCH   1   3
ATOM      3  N   UNL d   1       0.235   0.884   0.819  0.00  0.00    -0.287 N 
ATOM      4  C   UNL d   1       1.045   0.015   0.092  0.00  0.00     0.236 C 
ATOM      5  O   UNL d   1       2.236   0.285  -0.109  0.00  0.00    -0.272 OA
ATOM      6  H   UNL d   1      -0.642   0.560   1.209  0.00  0.00     0.184 HD
BRANCH   4   7
ATOM      7  C   UNL d   1       0.370  -1.286  -0.407  0.00  0.00     0.079 C 
ATOM      8  C   UNL d   1       0.284  -1.463  -1.948  0.00  0.00     0.014 C 
ATOM      9  C   UNL d   1      -1.040  -2.214  -1.732  0.00  0.00     0.002 C 
ATOM     10  C   UNL d   1      -1.173  -1.459  -0.397  0.00  0.00     0.014 C 
ENDBRANCH   4   7
ENDBRANCH   1   3
BRANCH   1  11
ATOM     11  C   UNL d   1       0.217   3.110   1.670  0.00  0.00     0.030 A 
ATOM     12  C   UNL d   1      -1.150   3.164   1.978  0.00  0.00     0.049 A 
ATOM     13  C   UNL d   1      -1.777   4.388   2.232  0.00  0.00     0.037 A 
ATOM     14 CL   UNL d   1      -3.454   4.418   2.623  0.00  0.00    -0.084 Cl
ATOM     15  C   UNL d   1      -1.058   5.578   2.199  0.00  0.00     0.047 A 
ATOM     16  C   UNL d   1       0.302   5.532   1.921  0.00  0.00     0.037 A 
ATOM     17  C   UNL d   1       0.938   4.315   1.672  0.00  0.00     0.049 A 
ATOM     18 CL   UNL d   1       1.217   6.991   1.905  0.00  0.00    -0.084 Cl
ENDBRANCH   1  11
TORSDOF 3
