REMARK  7 active torsions:
REMARK  status: ('A' for Active; 'I' for Inactive)
REMARK    1  A    between atoms: C_3  and  N_1 
REMARK    2  A    between atoms: C_4  and  C_2 
REMARK       I    between atoms: N_6  and  C_4 
REMARK    3  A    between atoms: C_5  and  N_7 
REMARK    4  A    between atoms: N_9  and  C_5 
REMARK    5  A    between atoms: N_7  and  N_6 
REMARK    6  A    between atoms: C_13  and  N_9 
REMARK    7  A    between atoms: O_21  and  C_14 
ROOT
ATOM      1  N   UNL d   1       1.698   1.001   5.194  0.00  0.00    -0.273 N 
ATOM      2  H   UNL d   1       2.166   1.353   4.354  0.00  0.00     0.189 HD
ENDROOT
BRANCH   1   3
ATOM      3  C   UNL d   1       1.984   1.641   6.377  0.00  0.00     0.191 C 
ATOM      4  S   UNL d   1       0.991   1.630   7.726  0.00  0.00    -0.039 SA
BRANCH   3   5
ATOM      5  N   UNL d   1       3.139   2.383   6.405  0.00  0.00    -0.332 N 
ATOM      6  H   UNL d   1       3.156   3.104   7.118  0.00  0.00     0.168 HD
BRANCH   5   7
ATOM      7  C   UNL d   1       4.253   2.311   5.545  0.00  0.00     0.034 A 
ATOM      8  C   UNL d   1       5.008   3.466   5.332  0.00  0.00     0.032 A 
ATOM      9  C   UNL d   1       6.087   3.453   4.436  0.00  0.00     0.039 A 
ATOM     10  C   UNL d   1       6.442   2.272   3.783  0.00  0.00     0.068 A 
ATOM     11  C   UNL d   1       5.735   1.102   4.061  0.00  0.00     0.039 A 
ATOM     12  C   UNL d   1       4.644   1.120   4.932  0.00  0.00     0.032 A 
BRANCH  10  13
ATOM     13  O   UNL d   1       7.454   2.123   2.877  0.00  0.00    -0.356 OA
ATOM     14  C   UNL d   1       8.031   3.314   2.359  0.00  0.00     0.210 C 
ENDBRANCH  10  13
ENDBRANCH   5   7
ENDBRANCH   3   5
ENDBRANCH   1   3
BRANCH   1  15
ATOM     15  N   UNL d   1       0.413   0.492   4.926  0.00  0.00    -0.264 N 
ATOM     16  C   UNL d   1      -0.008   0.525   3.609  0.00  0.00     0.272 C 
ATOM     17  O   UNL d   1       0.720   0.918   2.699  0.00  0.00    -0.266 OA
ATOM     18  H   UNL d   1      -0.191   0.321   5.726  0.00  0.00     0.190 HD
BRANCH  16  19
ATOM     19  C   UNL d   1      -1.367   0.015   3.303  0.00  0.00     0.066 A 
ATOM     20  C   UNL d   1      -2.064   0.435   2.162  0.00  0.00     0.118 A 
ATOM     21  C   UNL d   1      -3.279  -0.156   1.779  0.00  0.00     0.037 A 
ATOM     22  C   UNL d   1      -3.813  -1.181   2.557  0.00  0.00     0.002 A 
ATOM     23  C   UNL d   1      -3.144  -1.598   3.709  0.00  0.00     0.001 A 
ATOM     24  C   UNL d   1      -1.927  -1.011   4.079  0.00  0.00     0.020 A 
BRANCH  20  25
ATOM     25  N   UNL d   1      -1.606   1.563   1.377  0.00  0.00    -0.115 N 
ATOM     26  O   UNL d   1      -1.559   2.659   1.947  0.00  0.00    -0.532 OA
ATOM     27  O   UNL d   1      -1.415   1.366   0.166  0.00  0.00    -0.532 OA
ENDBRANCH  20  25
ENDBRANCH  16  19
ENDBRANCH   1  15
TORSDOF 7
