REMARK  5 active torsions:
REMARK  status: ('A' for Active; 'I' for Inactive)
REMARK    1  A    between atoms: C_3  and  C_1 
REMARK    2  A    between atoms: N_4  and  C_2 
REMARK       I    between atoms: C_6  and  N_4 
REMARK    3  A    between atoms: C_15  and  C_6 
REMARK    4  A    between atoms: S_9  and  C_15 
REMARK    5  A    between atoms: C_16  and  S_9 
ROOT
ATOM      1  N   UNL d   1      -1.067   1.616  -4.401  0.00  0.00    -0.325 N 
ATOM      2  C   UNL d   1      -1.205   2.382  -5.547  0.00  0.00     0.231 C 
ATOM      3  O   UNL d   1      -0.518   3.359  -5.842  0.00  0.00    -0.272 OA
ATOM      4  H   UNL d   1      -1.617   0.764  -4.340  0.00  0.00     0.169 HD
ENDROOT
BRANCH   1   5
ATOM      5  C   UNL d   1      -0.200   1.859  -3.306  0.00  0.00     0.057 A 
ATOM      6  C   UNL d   1       0.502   3.062  -3.148  0.00  0.00     0.047 A 
ATOM      7  C   UNL d   1       1.359   3.270  -2.053  0.00  0.00     0.050 A 
ATOM      8  C   UNL d   1       1.510   2.251  -1.102  0.00  0.00     0.018 A 
ATOM      9  C   UNL d   1       0.808   1.053  -1.236  0.00  0.00     0.027 A 
ATOM     10  C   UNL d   1      -0.046   0.862  -2.326  0.00  0.00     0.060 A 
ATOM     11 CL   UNL d   1      -0.885  -0.647  -2.448  0.00  0.00    -0.082 Cl
BRANCH   7  12
ATOM     12  C   UNL d   1       2.114   4.570  -1.899  0.00  0.00     0.417 C 
ATOM     13  F   UNL d   1       1.847   5.484  -2.871  0.00  0.00    -0.166 F 
ATOM     14  F   UNL d   1       3.463   4.387  -1.916  0.00  0.00    -0.166 F 
ATOM     15  F   UNL d   1       1.837   5.190  -0.718  0.00  0.00    -0.166 F 
ENDBRANCH   7  12
ENDBRANCH   1   5
BRANCH   2  16
ATOM     16  C   UNL d   1      -2.265   1.872  -6.513  0.00  0.00     0.182 C 
BRANCH  16  17
ATOM     17  S   UNL d   1      -3.916   2.046  -5.765  0.00  0.00    -0.121 SA
BRANCH  17  18
ATOM     18  C   UNL d   1      -5.033   1.577  -7.081  0.00  0.00     0.001 A 
ATOM     19  C   UNL d   1      -4.649   1.184  -8.369  0.00  0.00     0.020 A 
ATOM     20  C   UNL d   1      -5.612   0.820  -9.320  0.00  0.00     0.025 A 
ATOM     21  C   UNL d   1      -6.964   0.847  -8.990  0.00  0.00     0.034 A 
ATOM     22  C   UNL d   1      -7.364   1.242  -7.719  0.00  0.00     0.025 A 
ATOM     23 CL   UNL d   1      -8.142   0.387 -10.156  0.00  0.00    -0.084 Cl
ATOM     24  C   UNL d   1      -6.402   1.607  -6.773  0.00  0.00     0.020 A 
ENDBRANCH  17  18
ENDBRANCH  16  17
ENDBRANCH   2  16
TORSDOF 5
