REMARK  6 active torsions:
REMARK  status: ('A' for Active; 'I' for Inactive)
REMARK    1  A    between atoms: N_3  and  C_1 
REMARK       I    between atoms: C_7  and  N_3 
REMARK    2  A    between atoms: C_15  and  C_7 
REMARK    3  A    between atoms: C_9  and  C_16 
REMARK    4  A    between atoms: O_13  and  C_9 
REMARK    5  A    between atoms: S_12  and  C_15 
REMARK    6  A    between atoms: C_16  and  S_12 
ROOT
ATOM      1  N   UNL d   1      -0.552  -2.554  -0.008  0.00  0.00    -0.311 N 
ATOM      2  C   UNL d   1      -1.743  -2.962   0.560  0.00  0.00     0.232 C 
ATOM      3  O   UNL d   1      -2.446  -2.324   1.342  0.00  0.00    -0.272 OA
ATOM      4  H   UNL d   1       0.050  -3.283  -0.383  0.00  0.00     0.170 HD
ENDROOT
BRANCH   1   5
ATOM      5  C   UNL d   1       0.042  -1.313   0.157  0.00  0.00     0.125 A 
ATOM      6  N   UNL d   1      -0.510  -0.103   0.529  0.00  0.00    -0.281 N 
ATOM      7  N   UNL d   1       0.413   0.881   0.643  0.00  0.00    -0.308 N 
ATOM      8  C   UNL d   1      -1.891   0.296   0.664  0.00  0.00     0.179 C 
ATOM      9  C   UNL d   1       1.552   0.309   0.262  0.00  0.00     0.111 A 
ATOM     10  HN  UNL d   1       0.268   1.842   0.952  1.00  0.00     0.186 HD
ATOM     11  C   UNL d   1       1.378  -1.040  -0.075  0.00  0.00     0.068 A 
ENDBRANCH   1   5
BRANCH   2  12
ATOM     12  C   UNL d   1      -2.114  -4.399   0.217  0.00  0.00     0.177 C 
BRANCH  12  13
ATOM     13  S   UNL d   1      -1.503  -5.532   1.506  0.00  0.00    -0.149 SA
BRANCH  13  14
ATOM     14  C   UNL d   1      -2.307  -4.848   2.999  0.00  0.00     0.184 C 
BRANCH  14  15
ATOM     15  C   UNL d   1      -3.817  -4.867   2.908  0.00  0.00     0.149 C 
ATOM     16  O   UNL d   1      -4.505  -5.835   3.196  0.00  0.00    -0.649 OA
BRANCH  15  17
ATOM     17  O   UNL d   1      -4.362  -3.717   2.445  0.00  0.00    -0.776 OA
ATOM     18  H   UNL d   1      -3.710  -3.010   2.217  0.00  0.00     0.167 HD
ENDBRANCH  15  17
ENDBRANCH  14  15
ENDBRANCH  13  14
ENDBRANCH  12  13
ENDBRANCH   2  12
TORSDOF 6
