REMARK  6 active torsions:
REMARK  status: ('A' for Active; 'I' for Inactive)
REMARK    1  A    between atoms: O_4  and  C_1 
REMARK       I    between atoms: C_2  and  N_3 
REMARK    2  A    between atoms: C_10  and  C_2 
REMARK    3  A    between atoms: N_3  and  C_11 
REMARK    4  A    between atoms: C_13  and  O_4 
REMARK    5  A    between atoms: S_5  and  C_10 
REMARK    6  A    between atoms: C_12  and  S_5 
ROOT
ATOM      1  C   UNL d   1       3.600  -3.351  -5.791  0.00  0.00     0.231 C 
ATOM      2  N   UNL d   1       2.362  -3.470  -5.182  0.00  0.00    -0.327 N 
ATOM      3  O   UNL d   1       4.572  -2.766  -5.320  0.00  0.00    -0.272 OA
ATOM      4  H   UNL d   1       1.683  -4.034  -5.683  0.00  0.00     0.169 HD
ENDROOT
BRANCH   2   5
ATOM      5  C   UNL d   1       1.919  -2.845  -4.000  0.00  0.00     0.034 A 
ATOM      6  C   UNL d   1       2.684  -1.942  -3.265  0.00  0.00     0.032 A 
ATOM      7  C   UNL d   1       2.181  -1.358  -2.093  0.00  0.00     0.039 A 
ATOM      8  C   UNL d   1       0.918  -1.707  -1.623  0.00  0.00     0.078 A 
ATOM      9  C   UNL d   1       0.130  -2.573  -2.384  0.00  0.00     0.039 A 
ATOM     10  C   UNL d   1       0.625  -3.141  -3.562  0.00  0.00     0.032 A 
BRANCH   8  11
ATOM     11  O   UNL d   1       0.337  -1.267  -0.474  0.00  0.00    -0.255 OA
BRANCH  11  12
ATOM     12  C   UNL d   1       1.163  -0.843   0.600  0.00  0.00     0.530 C 
ATOM     13  F   UNL d   1       2.426  -1.315   0.540  0.00  0.00    -0.144 F 
ATOM     14  F   UNL d   1       0.618  -1.288   1.755  0.00  0.00    -0.144 F 
ATOM     15  F   UNL d   1       1.196   0.506   0.644  0.00  0.00    -0.144 F 
ENDBRANCH  11  12
ENDBRANCH   8  11
ENDBRANCH   2   5
BRANCH   1  16
ATOM     16  C   UNL d   1       3.746  -4.100  -7.111  0.00  0.00     0.182 C 
BRANCH  16  17
ATOM     17  S   UNL d   1       2.172  -4.179  -8.035  0.00  0.00    -0.121 SA
BRANCH  17  18
ATOM     18  C   UNL d   1       2.644  -5.017  -9.536  0.00  0.00     0.001 A 
ATOM     19  C   UNL d   1       1.697  -5.870 -10.118  0.00  0.00     0.020 A 
ATOM     20  C   UNL d   1       1.955  -6.501 -11.338  0.00  0.00     0.020 A 
ATOM     21  C   UNL d   1       3.165  -6.276 -11.986  0.00  0.00     0.011 A 
ATOM     22  C   UNL d   1       4.120  -5.435 -11.421  0.00  0.00     0.020 A 
ATOM     23 BR   UNL d   1       3.502  -7.095 -13.655  0.00  0.00    -0.051 Br
ATOM     24  C   UNL d   1       3.857  -4.803 -10.200  0.00  0.00     0.020 A 
ENDBRANCH  17  18
ENDBRANCH  16  17
ENDBRANCH   1  16
TORSDOF 6
