REMARK  2 active torsions:
REMARK  status: ('A' for Active; 'I' for Inactive)
REMARK    1  A    between atoms: C_4  and  C_1 
REMARK       I    between atoms: N_7  and  C_4 
REMARK    2  A    between atoms: C_11  and  N_7 
ROOT
ATOM      1  C   UNL d   1       3.994   0.131  -0.312  0.00  0.00     0.264 C 
ATOM      2  N   UNL d   1       4.657  -1.075  -0.158  0.00  0.00    -0.322 N 
ATOM      3  O   UNL d   1       2.926   0.197  -0.923  0.00  0.00    -0.267 OA
ATOM      4  H   UNL d   1       5.654  -1.054   0.022  0.00  0.00     0.169 HD
ENDROOT
BRANCH   1   5
ATOM      5  C   UNL d   1       4.609   1.307   0.296  0.00  0.00     0.096 A 
ATOM      6  S   UNL d   1       3.733   2.780   0.166  0.00  0.00    -0.082 SA
ATOM      7  C   UNL d   1       4.817   3.635   1.173  0.00  0.00     0.017 A 
ATOM      8  C   UNL d   1       4.692   4.978   1.579  0.00  0.00     0.020 A 
ATOM      9  C   UNL d   1       5.887   2.833   1.573  0.00  0.00     0.004 A 
ATOM     10  C   UNL d   1       5.668   5.528   2.407  0.00  0.00     0.001 A 
ATOM     11  C   UNL d   1       6.748   4.763   2.819  0.00  0.00     0.001 A 
ATOM     12  C   UNL d   1       6.868   3.429   2.410  0.00  0.00     0.014 A 
ATOM     13  C   UNL d   1       5.758   1.491   1.039  0.00  0.00     0.068 A 
ATOM     14 CL   UNL d   1       6.940   0.287   1.389  0.00  0.00    -0.082 Cl
ENDBRANCH   1   5
BRANCH   2  15
ATOM     15  C   UNL d   1       4.025  -2.340  -0.148  0.00  0.00     0.037 A 
ATOM     16  C   UNL d   1       2.656  -2.471   0.104  0.00  0.00     0.069 A 
ATOM     17  C   UNL d   1       2.092  -3.730   0.292  0.00  0.00     0.104 A 
ATOM     18  O   UNL d   1       0.774  -3.759   0.671  0.00  0.00    -0.346 OA
ATOM     19  C   UNL d   1       2.868  -4.880   0.146  0.00  0.00     0.102 A 
ATOM     20  C   UNL d   1       0.492  -4.979   1.361  0.00  0.00     0.202 C 
ATOM     21  C   UNL d   1       0.955  -6.161   0.526  0.00  0.00     0.202 C 
ATOM     22  O   UNL d   1       2.377  -6.147   0.331  0.00  0.00    -0.346 OA
ATOM     23  C   UNL d   1       4.224  -4.761  -0.151  0.00  0.00     0.042 A 
ATOM     24  C   UNL d   1       4.809  -3.492  -0.271  0.00  0.00     0.032 A 
ENDBRANCH   2  15
TORSDOF 2
