REMARK  6 active torsions:
REMARK  status: ('A' for Active; 'I' for Inactive)
REMARK    1  A    between atoms: N_6  and  C_1 
REMARK    2  A    between atoms: N_9  and  C_1 
REMARK    3  A    between atoms: C_2  and  C_7 
REMARK    4  A    between atoms: N_3  and  N_9 
REMARK    5  A    between atoms: C_16  and  N_6 
REMARK    6  A    between atoms: C_17  and  C_11 
ROOT
ATOM      1  C   UNL d   1      -0.789  -0.672  -0.868  0.00  0.00     0.191 C 
ATOM      2  S   UNL d   1      -2.243  -1.502  -0.829  0.00  0.00    -0.039 SA
ENDROOT
BRANCH   1   3
ATOM      3  N   UNL d   1       0.463  -1.154  -0.567  0.00  0.00    -0.332 N 
ATOM      4  H   UNL d   1       1.090  -0.449  -0.198  0.00  0.00     0.168 HD
BRANCH   3   5
ATOM      5  C   UNL d   1       0.952  -2.465  -0.698  0.00  0.00     0.034 A 
ATOM      6  C   UNL d   1       0.508  -3.314  -1.710  0.00  0.00     0.030 A 
ATOM      7  C   UNL d   1       1.110  -4.557  -1.913  0.00  0.00     0.010 A 
ATOM      8  C   UNL d   1       2.163  -4.988  -1.095  0.00  0.00    -0.055 A 
ATOM      9  C   UNL d   1       2.585  -4.144  -0.058  0.00  0.00     0.010 A 
ATOM     10  C   UNL d   1       2.003  -2.884   0.126  0.00  0.00     0.030 A 
BRANCH   8  11
ATOM     11  C   UNL d   1       2.886  -6.293  -1.376  0.00  0.00     0.010 C 
ATOM     12  C   UNL d   1       1.943  -7.498  -1.399  0.00  0.00     0.015 C 
ATOM     13  C   UNL d   1       3.673  -6.193  -2.686  0.00  0.00     0.015 C 
ENDBRANCH   8  11
ENDBRANCH   3   5
ENDBRANCH   1   3
BRANCH   1  14
ATOM     14  N   UNL d   1      -0.830   0.665  -1.198  0.00  0.00    -0.276 N 
ATOM     15  H   UNL d   1      -1.745   1.025  -1.450  0.00  0.00     0.189 HD
BRANCH  14  16
ATOM     16  N   UNL d   1       0.298   1.364  -1.548  0.00  0.00    -0.308 N 
ATOM     17  C   UNL d   1       0.053   2.518  -2.092  0.00  0.00     0.126 C 
ATOM     18  HN  UNL d   1       1.243   1.010  -1.394  1.00  0.00     0.186 HD
BRANCH  17  19
ATOM     19  C   UNL d   1       1.107   3.370  -2.581  0.00  0.00     0.021 A 
ATOM     20  S   UNL d   1       0.706   4.943  -3.126  0.00  0.00    -0.101 SA
ATOM     21  C   UNL d   1       2.336   5.300  -3.499  0.00  0.00     0.050 A 
ATOM     22  C   UNL d   1       3.168   4.236  -3.235  0.00  0.00     0.008 A 
ATOM     23  C   UNL d   1       2.457   3.117  -2.706  0.00  0.00     0.021 A 
ENDBRANCH  17  19
ENDBRANCH  14  16
ENDBRANCH   1  14
TORSDOF 6
