REMARK  5 active torsions:
REMARK  status: ('A' for Active; 'I' for Inactive)
REMARK    1  A    between atoms: C_6  and  N_1 
REMARK    2  A    between atoms: C_12  and  C_6 
REMARK    3  A    between atoms: N_9  and  C_13 
REMARK    4  A    between atoms: C_13  and  C_12 
REMARK    5  A    between atoms: O_20  and  C_12 
ROOT
ATOM      1  N   UNL d   1       0.197  -1.755  -0.442  0.00  0.00    -0.343 N 
ATOM      2  C   UNL d   1       0.911   0.265  -1.052  0.00  0.00     0.005 A 
ATOM      3  C   UNL d   1      -0.017   0.412   0.026  0.00  0.00     0.005 A 
ATOM      4  C   UNL d   1       0.971  -1.092  -1.376  0.00  0.00     0.046 A 
ATOM      5  C   UNL d   1      -0.507  -0.859   0.339  0.00  0.00     0.046 A 
ATOM      6  C   UNL d   1       1.769  -1.576  -2.424  0.00  0.00     0.032 A 
ATOM      7  C   UNL d   1      -1.484  -1.055   1.330  0.00  0.00     0.032 A 
ATOM      8  C   UNL d   1       1.711   1.172  -1.774  0.00  0.00     0.038 A 
ATOM      9  C   UNL d   1      -0.467   1.519   0.777  0.00  0.00     0.038 A 
ATOM     10  C   UNL d   1       2.545   0.689  -2.789  0.00  0.00     0.035 A 
ATOM     11  C   UNL d   1      -1.400   1.321   1.796  0.00  0.00     0.035 A 
ATOM     12  C   UNL d   1       2.564  -0.660  -3.120  0.00  0.00     0.026 A 
ATOM     13  C   UNL d   1      -1.919   0.058   2.057  0.00  0.00     0.026 A 
ATOM     14 CL   UNL d   1      -1.903   2.659   2.756  0.00  0.00    -0.084 Cl
ATOM     15 CL   UNL d   1       3.576   1.785  -3.626  0.00  0.00    -0.084 Cl
ENDROOT
BRANCH   1  16
ATOM     16  C   UNL d   1       0.275  -3.185  -0.193  0.00  0.00     0.163 C 
BRANCH  16  17
ATOM     17  C   UNL d   1       1.641  -3.659   0.350  0.00  0.00     0.164 C 
BRANCH  17  18
ATOM     18  C   UNL d   1       2.093  -2.895   1.633  0.00  0.00     0.305 C 
BRANCH  18  19
ATOM     19  N   UNL d   1       3.413  -3.222   2.218  0.00  0.00     0.090 N 
ATOM     20  C   UNL d   1       3.513  -4.567   2.769  0.00  0.00     0.272 C 
ATOM     21  C   UNL d   1       4.343  -4.583   4.061  0.00  0.00     0.030 C 
ATOM     22  C   UNL d   1       5.855  -4.520   3.880  0.00  0.00     0.002 C 
ATOM     23  C   UNL d   1       6.356  -3.312   3.101  0.00  0.00     0.002 C 
ATOM     24  C   UNL d   1       5.923  -3.346   1.642  0.00  0.00     0.030 C 
ATOM     25  C   UNL d   1       4.524  -2.781   1.371  0.00  0.00     0.272 C 
ENDBRANCH  18  19
ENDBRANCH  17  18
BRANCH  17  26
ATOM     26  O   UNL d   1       1.538  -5.072   0.588  0.00  0.00    -0.392 OA
ATOM     27  H   UNL d   1       1.022  -5.201   1.403  0.00  0.00     0.210 HD
ENDBRANCH  17  26
ENDBRANCH  16  17
ENDBRANCH   1  16
TORSDOF 5
