REMARK  6 active torsions:
REMARK  status: ('A' for Active; 'I' for Inactive)
REMARK    1  A    between atoms: C_10  and  N_1 
REMARK    2  A    between atoms: C_7  and  C_3 
REMARK    3  A    between atoms: C_14  and  N_5 
REMARK       I    between atoms: N_8  and  C_7 
REMARK       I    between atoms: C_9  and  N_8 
REMARK    4  A    between atoms: O_16  and  C_9 
REMARK    5  A    between atoms: C_17  and  C_10 
REMARK    6  A    between atoms: C_20  and  O_16 
ROOT
ATOM      1  N   UNL d   1      -0.775   1.147   0.087  0.00  0.00    -0.261 N 
ATOM      2  C   UNL d   1      -1.442  -0.054  -0.132  0.00  0.00     0.332 C 
ATOM      3  C   UNL d   1       1.386   0.040   0.145  0.00  0.00     0.116 C 
ATOM      4  C   UNL d   1       0.560   1.226   0.436  0.00  0.00     0.269 C 
ATOM      5  N   UNL d   1      -0.641  -1.202  -0.064  0.00  0.00    -0.304 N 
ATOM      6  C   UNL d   1       0.742  -1.114  -0.050  0.00  0.00     0.118 C 
ATOM      7  O   UNL d   1      -2.653  -0.108  -0.347  0.00  0.00    -0.246 OA
ATOM      8  O   UNL d   1       1.088   2.210   0.958  0.00  0.00    -0.267 OA
ENDROOT
BRANCH   3   9
ATOM      9  C   UNL d   1       2.879   0.052   0.101  0.00  0.00     0.266 C 
ATOM     10  N   UNL d   1       3.452   1.247   0.460  0.00  0.00    -0.269 N 
ATOM     11  C   UNL d   1       4.780   1.417   0.723  0.00  0.00     0.367 C 
ATOM     12  H   UNL d   1       2.862   1.984   0.834  0.00  0.00     0.174 HD
ATOM     13  O   UNL d   1       5.704   0.696   0.382  0.00  0.00    -0.238 OA
ATOM     14  O   UNL d   1       3.489  -0.948  -0.267  0.00  0.00    -0.267 OA
BRANCH  11  15
ATOM     15  O   UNL d   1       4.929   2.567   1.434  0.00  0.00    -0.304 OA
BRANCH  15  16
ATOM     16  C   UNL d   1       6.246   2.805   1.955  0.00  0.00     0.176 C 
ATOM     17  C   UNL d   1       6.369   2.126   3.307  0.00  0.00     0.034 C 
ENDBRANCH  15  16
ENDBRANCH  11  15
ENDBRANCH   3   9
BRANCH   1  18
ATOM     18  C   UNL d   1      -1.540   2.386   0.062  0.00  0.00     0.175 C 
BRANCH  18  19
ATOM     19  C   UNL d   1      -1.321   3.126  -1.242  0.00  0.00    -0.040 A 
ATOM     20  C   UNL d   1      -2.192   2.934  -2.323  0.00  0.00     0.009 A 
ATOM     21  C   UNL d   1      -1.949   3.563  -3.546  0.00  0.00     0.001 A 
ATOM     22  C   UNL d   1      -0.829   4.377  -3.705  0.00  0.00     0.000 A 
ATOM     23  C   UNL d   1       0.043   4.577  -2.638  0.00  0.00     0.001 A 
ATOM     24  C   UNL d   1      -0.205   3.962  -1.412  0.00  0.00     0.009 A 
ENDBRANCH  18  19
ENDBRANCH   1  18
BRANCH   5  25
ATOM     25  C   UNL d   1      -1.294  -2.529  -0.133  0.00  0.00     0.086 C 
ATOM     26  C   UNL d   1      -1.193  -3.150  -1.526  0.00  0.00     0.032 C 
ATOM     27  C   UNL d   1      -0.783  -3.492   0.948  0.00  0.00     0.032 C 
ENDBRANCH   5  25
TORSDOF 6
