REMARK  6 active torsions:
REMARK  status: ('A' for Active; 'I' for Inactive)
REMARK    1  A    between atoms: N_2  and  S_1 
REMARK    2  A    between atoms: C_3  and  S_1 
REMARK    3  A    between atoms: C_7  and  N_2 
REMARK    4  A    between atoms: C_15  and  N_2 
REMARK    5  A    between atoms: C_12  and  C_7 
REMARK    6  A    between atoms: C_13  and  C_15 
ROOT
ATOM      1  N   UNL d   1       2.986   3.570  -3.961  0.00  0.00    -0.197 NA
ATOM      2  C   UNL d   1       2.724   2.613  -3.349  0.00  0.00     0.060 C 
ATOM      3  C   UNL d   1       2.383   1.401  -2.562  0.00  0.00     0.139 C 
ENDROOT
BRANCH   3   4
ATOM      4  C   UNL d   1       0.885   1.345  -2.284  0.00  0.00     0.122 C 
BRANCH   4   5
ATOM      5  N   UNL d   1       0.398   0.160  -1.449  0.00  0.00    -0.203 NA
BRANCH   5   6
ATOM      6  S   UNL d   1       1.117   0.094   0.108  0.00  0.00     0.243 S 
ATOM      7  O   UNL d   1       0.781   1.324   0.793  0.00  0.00    -0.206 OA
ATOM      8  O   UNL d   1       2.495  -0.297  -0.069  0.00  0.00    -0.206 OA
BRANCH   6   9
ATOM      9  C   UNL d   1       0.332  -1.242   0.983  0.00  0.00     0.074 A 
ATOM     10  C   UNL d   1       0.533  -2.559   0.560  0.00  0.00     0.026 A 
ATOM     11  C   UNL d   1       0.048  -3.613   1.342  0.00  0.00     0.020 A 
ATOM     12  C   UNL d   1      -0.617  -3.341   2.540  0.00  0.00     0.011 A 
ATOM     13  C   UNL d   1      -0.824  -2.026   2.957  0.00  0.00     0.020 A 
ATOM     14 BR   UNL d   1      -1.208  -4.768   3.631  0.00  0.00    -0.051 Br
ATOM     15  C   UNL d   1      -0.349  -0.971   2.176  0.00  0.00     0.026 A 
ENDBRANCH   6   9
ENDBRANCH   5   6
BRANCH   5  16
ATOM     16  C   UNL d   1      -1.113   0.040  -1.524  0.00  0.00     0.139 C 
BRANCH  16  17
ATOM     17  C   UNL d   1      -1.897   1.216  -0.925  0.00  0.00     0.135 C 
ATOM     18  O   UNL d   1      -1.642   2.431  -1.657  0.00  0.00    -0.385 OA
ATOM     19  C   UNL d   1      -2.832   3.225  -1.679  0.00  0.00     0.168 C 
ATOM     20  C   UNL d   1      -3.856   2.489  -0.845  0.00  0.00     0.029 C 
ATOM     21  C   UNL d   1      -3.408   1.053  -0.997  0.00  0.00     0.035 C 
ENDBRANCH  16  17
ENDBRANCH   5  16
ENDBRANCH   4   5
ENDBRANCH   3   4
TORSDOF 6
