REMARK  2 active torsions:
REMARK  status: ('A' for Active; 'I' for Inactive)
REMARK    1  A    between atoms: C_6  and  C_8 
REMARK    2  A    between atoms: C_9  and  C_7 
ROOT
ATOM      1  N   UNL d   1       1.398   0.987   0.706  0.00  0.00    -0.197 NA
ATOM      2  C   UNL d   1       2.451   0.571   0.444  0.00  0.00     0.063 C 
ATOM      3  C   UNL d   1       3.783   0.047   0.105  0.00  0.00     0.162 C 
ENDROOT
BRANCH   3   4
ATOM      4  C   UNL d   1       4.286  -0.924   1.148  0.00  0.00    -0.045 A 
ATOM      5  C   UNL d   1       4.030  -2.298   1.020  0.00  0.00     0.016 A 
ATOM      6  C   UNL d   1       4.414  -3.200   2.025  0.00  0.00    -0.045 A 
ATOM      7  C   UNL d   1       5.065  -2.711   3.166  0.00  0.00     0.008 A 
ATOM      8  C   UNL d   1       5.337  -1.349   3.293  0.00  0.00     0.001 A 
ATOM      9  C   UNL d   1       4.955  -0.461   2.289  0.00  0.00     0.008 A 
BRANCH   6  10
ATOM     10  C   UNL d   1       4.162  -4.681   1.861  0.00  0.00     0.162 C 
ATOM     11  C   UNL d   1       5.289  -5.366   1.210  0.00  0.00     0.063 C 
ATOM     12  N   UNL d   1       6.170  -5.915   0.697  0.00  0.00    -0.197 NA
ENDBRANCH   6  10
ENDBRANCH   3   4
TORSDOF 2
