REMARK  3 active torsions:
REMARK  status: ('A' for Active; 'I' for Inactive)
REMARK    1  A    between atoms: C_7  and  C_4 
REMARK       I    between atoms: N_14  and  C_7 
REMARK    2  A    between atoms: N_8  and  C_10 
REMARK    3  A    between atoms: N_9  and  C_15 
ROOT
ATOM      1  C   UNL d   1      -0.710   0.552  -0.009  0.00  0.00     0.005 A 
ATOM      2  C   UNL d   1      -1.284  -0.738  -0.116  0.00  0.00     0.029 A 
ATOM      3  C   UNL d   1       1.062  -0.977  -0.224  0.00  0.00     0.028 A 
ATOM      4  C   UNL d   1      -1.585   1.639   0.088  0.00  0.00     0.046 A 
ATOM      5  C   UNL d   1       0.747   0.390  -0.049  0.00  0.00    -0.010 A 
ATOM      6  C   UNL d   1      -0.204  -1.727  -0.272  0.00  0.00     0.194 A 
ATOM      7  C   UNL d   1      -3.489   0.077   0.067  0.00  0.00     0.104 A 
ATOM      8  C   UNL d   1      -2.641  -1.014  -0.098  0.00  0.00     0.052 A 
ATOM      9  C   UNL d   1      -2.970   1.382   0.196  0.00  0.00     0.054 A 
ATOM     10  C   UNL d   1       2.342  -1.494  -0.309  0.00  0.00     0.052 A 
ATOM     11  C   UNL d   1       3.389  -0.577  -0.197  0.00  0.00     0.103 A 
ATOM     12  C   UNL d   1       1.804   1.277   0.080  0.00  0.00     0.016 A 
ATOM     13  O   UNL d   1      -0.335  -2.920  -0.418  0.00  0.00    -0.287 OA
ATOM     14  C   UNL d   1       3.126   0.794   0.012  0.00  0.00     0.037 A 
ENDROOT
BRANCH   4  15
ATOM     15  C   UNL d   1      -1.154   3.060   0.147  0.00  0.00     0.254 C 
ATOM     16  N   UNL d   1      -1.799   4.018  -0.641  0.00  0.00    -0.344 N 
ATOM     17  C   UNL d   1      -1.370   5.421  -0.541  0.00  0.00     0.152 C 
ATOM     18  C   UNL d   1      -2.699   3.782  -1.783  0.00  0.00     0.152 C 
ATOM     19  C   UNL d   1      -2.552   6.399  -0.660  0.00  0.00     0.187 C 
ATOM     20  O   UNL d   1      -3.404   6.102  -1.778  0.00  0.00    -0.388 OA
ATOM     21  C   UNL d   1      -3.883   4.751  -1.708  0.00  0.00     0.187 C 
ATOM     22  O   UNL d   1      -0.274   3.349   0.952  0.00  0.00    -0.267 OA
ENDBRANCH   4  15
BRANCH   7  23
ATOM     23  N   UNL d   1      -4.942  -0.118   0.050  0.00  0.00    -0.116 N 
ATOM     24  O   UNL d   1      -5.368  -1.279   0.050  0.00  0.00    -0.532 OA
ATOM     25  O   UNL d   1      -5.651   0.898   0.011  0.00  0.00    -0.532 OA
ENDBRANCH   7  23
BRANCH  11  26
ATOM     26  N   UNL d   1       4.777  -1.045  -0.303  0.00  0.00    -0.116 N 
ATOM     27  O   UNL d   1       4.967  -2.261  -0.438  0.00  0.00    -0.532 OA
ATOM     28  O   UNL d   1       5.675  -0.192  -0.261  0.00  0.00    -0.532 OA
ENDBRANCH  11  26
TORSDOF 3
