REMARK  5 active torsions:
REMARK  status: ('A' for Active; 'I' for Inactive)
REMARK    1  A    between atoms: C_5  and  C_1 
REMARK    2  A    between atoms: C_8  and  C_2 
REMARK    3  A    between atoms: C_6  and  C_12 
REMARK       I    between atoms: N_13  and  C_8 
REMARK    4  A    between atoms: N_15  and  N_13 
REMARK    5  A    between atoms: C_14  and  N_15 
ROOT
ATOM      1  C   UNL d   1       0.254  -2.758  -0.011  0.00  0.00     0.271 C 
ATOM      2  N   UNL d   1       1.528  -3.145   0.373  0.00  0.00    -0.281 N 
ATOM      3  O   UNL d   1      -0.601  -3.583  -0.311  0.00  0.00    -0.266 OA
ATOM      4  H   UNL d   1       2.316  -2.519   0.484  0.00  0.00     0.184 HD
ENDROOT
BRANCH   1   5
ATOM      5  C   UNL d   1      -0.040  -1.325   0.036  0.00  0.00     0.094 A 
ATOM      6  C   UNL d   1      -1.345  -0.699   0.141  0.00  0.00     0.085 A 
ATOM      7  N   UNL d   1      -1.205   0.634   0.183  0.00  0.00    -0.259 N 
ATOM      8  O   UNL d   1       0.122   0.904   0.062  0.00  0.00    -0.241 OA
ATOM      9  HN  UNL d   1      -1.955   1.318   0.286  1.00  0.00     0.195 HD
ATOM     10  C   UNL d   1       0.835  -0.247  -0.007  0.00  0.00     0.090 A 
ATOM     11  C   UNL d   1       2.288   0.008  -0.107  0.00  0.00     0.080 C 
BRANCH   6  12
ATOM     12  C   UNL d   1      -2.694  -1.273   0.320  0.00  0.00     0.015 A 
ATOM     13  C   UNL d   1      -3.860  -0.697  -0.231  0.00  0.00     0.046 A 
ATOM     14 CL   UNL d   1      -3.846   0.647  -1.328  0.00  0.00    -0.083 Cl
ATOM     15  C   UNL d   1      -5.130  -1.214   0.073  0.00  0.00     0.025 A 
ATOM     16  C   UNL d   1      -5.263  -2.326   0.899  0.00  0.00     0.002 A 
ATOM     17  C   UNL d   1      -4.127  -2.922   1.431  0.00  0.00     0.001 A 
ATOM     18  C   UNL d   1      -2.862  -2.390   1.160  0.00  0.00     0.015 A 
ENDBRANCH   6  12
ENDBRANCH   1   5
BRANCH   2  19
ATOM     19  N   UNL d   1       1.886  -4.509   0.246  0.00  0.00    -0.187 NA
ATOM     20  H   UNL d   1       1.416  -5.091   0.937  0.00  0.00     0.154 HD
BRANCH  19  21
ATOM     21  C   UNL d   1       3.287  -4.696   0.261  0.00  0.00     0.098 A 
ATOM     22  N   UNL d   1       4.099  -3.615   0.163  0.00  0.00    -0.342 N 
ATOM     23  C   UNL d   1       5.448  -3.816   0.064  0.00  0.00     0.117 A 
ATOM     24  HN  UNL d   1       3.712  -2.672   0.163  1.00  0.00     0.167 HD
ATOM     25  C   UNL d   1       6.008  -5.093   0.082  0.00  0.00     0.034 A 
ATOM     26  C   UNL d   1       5.166  -6.193   0.194  0.00  0.00     0.005 A 
ATOM     27  C   UNL d   1       3.791  -5.993   0.275  0.00  0.00     0.044 A 
BRANCH  23  28
ATOM     28  C   UNL d   1       6.367  -2.614  -0.099  0.00  0.00     0.432 C 
ATOM     29  F   UNL d   1       5.716  -1.415  -0.088  0.00  0.00    -0.165 F 
ATOM     30  F   UNL d   1       7.305  -2.535   0.889  0.00  0.00    -0.165 F 
ATOM     31  F   UNL d   1       7.069  -2.647  -1.269  0.00  0.00    -0.165 F 
ENDBRANCH  23  28
ENDBRANCH  19  21
ENDBRANCH   2  19
TORSDOF 5
