REMARK  4 active torsions:
REMARK  status: ('A' for Active; 'I' for Inactive)
REMARK    1  A    between atoms: C_8  and  C_3 
REMARK    2  A    between atoms: C_10  and  C_4 
REMARK    3  A    between atoms: S_9  and  C_10 
REMARK    4  A    between atoms: C_13  and  S_9 
ROOT
ATOM      1  N   UNL d   1       1.201   0.292   0.047  0.00  0.00    -0.329 N 
ATOM      2  HN  UNL d   1       2.179   0.577   0.092  1.00  0.00     0.168 HD
ATOM      3  C   UNL d   1       0.719  -0.931   0.029  0.00  0.00     0.131 A 
ATOM      4  C   UNL d   1       0.091   1.101  -0.009  0.00  0.00     0.107 A 
ATOM      5  N   UNL d   1      -1.071   0.430  -0.024  0.00  0.00    -0.287 N 
ATOM      6  HN  UNL d   1      -2.025   0.793  -0.040  1.00  0.00     0.188 HD
ATOM      7  N   UNL d   1      -0.647  -0.845  -0.011  0.00  0.00    -0.283 N 
ATOM      8  H   UNL d   1      -1.326  -1.595  -0.059  0.00  0.00     0.188 HD
ENDROOT
BRANCH   4   9
ATOM      9  C   UNL d   1       0.165   2.592  -0.010  0.00  0.00     0.157 C 
BRANCH   9  10
ATOM     10  S   UNL d   1       1.708   3.209  -0.785  0.00  0.00    -0.122 SA
BRANCH  10  11
ATOM     11  C   UNL d   1       1.437   4.960  -0.657  0.00  0.00     0.001 A 
ATOM     12  C   UNL d   1       1.365   5.599   0.585  0.00  0.00     0.020 A 
ATOM     13  C   UNL d   1       1.145   6.978   0.654  0.00  0.00     0.025 A 
ATOM     14  C   UNL d   1       1.009   7.717  -0.520  0.00  0.00     0.034 A 
ATOM     15  C   UNL d   1       1.107   7.093  -1.762  0.00  0.00     0.025 A 
ATOM     16 CL   UNL d   1       0.719   9.410  -0.436  0.00  0.00    -0.084 Cl
ATOM     17  C   UNL d   1       1.327   5.715  -1.829  0.00  0.00     0.020 A 
ENDBRANCH  10  11
ENDBRANCH   9  10
ENDBRANCH   4   9
BRANCH   3  18
ATOM     18  C   UNL d   1       1.490  -2.168   0.004  0.00  0.00     0.009 A 
ATOM     19  C   UNL d   1       0.993  -3.366   0.536  0.00  0.00     0.017 A 
ATOM     20  C   UNL d   1       1.764  -4.533   0.491  0.00  0.00     0.025 A 
ATOM     21  C   UNL d   1       3.033  -4.508  -0.086  0.00  0.00     0.034 A 
ATOM     22  C   UNL d   1       3.545  -3.325  -0.610  0.00  0.00     0.025 A 
ATOM     23 CL   UNL d   1       3.972  -5.948  -0.144  0.00  0.00    -0.084 Cl
ATOM     24  C   UNL d   1       2.776  -2.159  -0.559  0.00  0.00     0.017 A 
ENDBRANCH   3  18
TORSDOF 4
