REMARK  4 active torsions:
REMARK  status: ('A' for Active; 'I' for Inactive)
REMARK    1  A    between atoms: C_5  and  N_1 
REMARK    2  A    between atoms: C_2  and  C_18 
REMARK    3  A    between atoms: C_8  and  C_10 
REMARK       I    between atoms: N_20  and  C_8 
REMARK    4  A    between atoms: N_13  and  N_20 
ROOT
ATOM      1  N   UNL d   1      -3.216   4.737   0.183  0.00  0.00    -0.308 N 
ATOM      2  HN  UNL d   1      -3.617   5.457   0.784  1.00  0.00     0.186 HD
ATOM      3  C   UNL d   1      -3.013   3.537   0.637  0.00  0.00     0.124 C 
ENDROOT
BRANCH   1   4
ATOM      4  N   UNL d   1      -2.883   5.023  -1.119  0.00  0.00    -0.266 N 
ATOM      5  C   UNL d   1      -1.817   4.463  -1.816  0.00  0.00     0.270 C 
ATOM      6  O   UNL d   1      -1.067   3.601  -1.365  0.00  0.00    -0.266 OA
ATOM      7  H   UNL d   1      -3.276   5.901  -1.429  0.00  0.00     0.190 HD
BRANCH   5   8
ATOM      8  C   UNL d   1      -1.565   4.964  -3.210  0.00  0.00     0.034 A 
ATOM      9  C   UNL d   1      -0.551   4.323  -3.942  0.00  0.00     0.019 A 
ATOM     10  C   UNL d   1      -0.253   4.710  -5.249  0.00  0.00     0.037 A 
ATOM     11  C   UNL d   1      -0.975   5.754  -5.835  0.00  0.00     0.108 A 
ATOM     12  C   UNL d   1      -2.004   6.418  -5.145  0.00  0.00    -0.028 A 
ATOM     13  C   UNL d   1      -2.284   6.008  -3.821  0.00  0.00     0.026 A 
ATOM     14  C   UNL d   1      -2.838   7.526  -5.729  0.00  0.00     0.050 C 
BRANCH  11  15
ATOM     15  N   UNL d   1      -0.612   6.121  -7.195  0.00  0.00    -0.115 N 
ATOM     16  O   UNL d   1      -0.214   7.279  -7.383  0.00  0.00    -0.532 OA
ATOM     17  O   UNL d   1      -0.705   5.239  -8.058  0.00  0.00    -0.532 OA
ENDBRANCH  11  15
ENDBRANCH   5   8
ENDBRANCH   1   4
BRANCH   3  18
ATOM     18  C   UNL d   1      -3.294   3.158   2.044  0.00  0.00     0.054 A 
ATOM     19  C   UNL d   1      -3.090   1.784   2.550  0.00  0.00     0.198 A 
ATOM     20  C   UNL d   1      -3.378   1.567   3.982  0.00  0.00     0.049 A 
ATOM     21  O   UNL d   1      -2.709   0.871   1.830  0.00  0.00    -0.286 OA
ATOM     22  C   UNL d   1      -3.192   0.312   4.570  0.00  0.00     0.018 A 
ATOM     23  C   UNL d   1      -3.840   2.637   4.746  0.00  0.00     0.089 A 
ATOM     24  C   UNL d   1      -3.467   0.138   5.929  0.00  0.00     0.001 A 
ATOM     25  C   UNL d   1      -3.928   1.211   6.693  0.00  0.00     0.003 A 
ATOM     26  C   UNL d   1      -4.117   2.462   6.102  0.00  0.00     0.038 A 
ATOM     27  O   UNL d   1      -4.044   3.891   4.227  0.00  0.00    -0.321 OA
ATOM     28  C   UNL d   1      -3.747   4.084   2.900  0.00  0.00     0.159 A 
ENDBRANCH   3  18
TORSDOF 4
