REMARK  4 active torsions:
REMARK  status: ('A' for Active; 'I' for Inactive)
REMARK    1  A    between atoms: C_9  and  C_6 
REMARK    2  A    between atoms: O_8  and  C_7 
REMARK    3  A    between atoms: C_15  and  O_8 
REMARK    4  A    between atoms: O_16  and  C_12 
ROOT
ATOM      1  C   UNL d   1      -5.204  -1.289  -1.129  0.00  0.00     0.103 A 
ATOM      2  C   UNL d   1      -3.255  -1.981   0.165  0.00  0.00    -0.032 A 
ATOM      3  C   UNL d   1      -3.815  -1.452  -1.003  0.00  0.00     0.051 A 
ATOM      4  C   UNL d   1      -6.039  -1.731  -0.088  0.00  0.00     0.101 A 
ATOM      5  C   UNL d   1      -5.470  -2.269   1.073  0.00  0.00     0.040 A 
ATOM      6  C   UNL d   1      -4.087  -2.393   1.204  0.00  0.00     0.014 A 
ENDROOT
BRANCH   2   7
ATOM      7  C   UNL d   1      -1.801  -2.069   0.318  0.00  0.00     0.029 C 
ATOM      8  C   UNL d   1      -1.041  -3.078  -0.131  0.00  0.00     0.045 A 
ATOM      9  C   UNL d   1      -1.500  -4.307  -0.874  0.00  0.00     0.257 A 
ATOM     10  C   UNL d   1       0.409  -3.202   0.056  0.00  0.00     0.006 A 
ATOM     11  N   UNL d   1      -0.349  -5.064  -1.050  0.00  0.00    -0.322 N 
ATOM     12  O   UNL d   1      -2.616  -4.598  -1.251  0.00  0.00    -0.267 OA
ATOM     13  C   UNL d   1       0.766  -4.431  -0.508  0.00  0.00     0.046 A 
ATOM     14  H   UNL d   1      -0.356  -5.956  -1.517  0.00  0.00     0.169 HD
ATOM     15  C   UNL d   1       2.062  -4.902  -0.501  0.00  0.00     0.030 A 
ATOM     16  C   UNL d   1       3.034  -4.096   0.095  0.00  0.00     0.002 A 
ATOM     17  C   UNL d   1       2.691  -2.852   0.658  0.00  0.00     0.001 A 
ATOM     18  C   UNL d   1       1.368  -2.395   0.642  0.00  0.00     0.015 A 
ENDBRANCH   2   7
BRANCH   1  19
ATOM     19  O   UNL d   1      -5.773  -0.707  -2.232  0.00  0.00    -0.343 OA
BRANCH  19  20
ATOM     20  C   UNL d   1      -5.035   0.323  -2.891  0.00  0.00     0.129 C 
ATOM     21  C   UNL d   1      -4.784   1.545  -2.006  0.00  0.00     0.032 C 
ATOM     22  C   UNL d   1      -4.776   2.752  -2.937  0.00  0.00     0.002 C 
ATOM     23  C   UNL d   1      -5.318   2.272  -4.279  0.00  0.00     0.002 C 
ATOM     24  C   UNL d   1      -5.894   0.889  -4.020  0.00  0.00     0.032 C 
ENDBRANCH  19  20
ENDBRANCH   1  19
BRANCH   4  25
ATOM     25  O   UNL d   1      -7.405  -1.630  -0.016  0.00  0.00    -0.353 OA
ATOM     26  C   UNL d   1      -8.120  -1.744  -1.238  0.00  0.00     0.210 C 
ENDBRANCH   4  25
TORSDOF 4
