REMARK  3 active torsions:
REMARK  status: ('A' for Active; 'I' for Inactive)
REMARK    1  A    between atoms: C_7  and  C_1 
REMARK    2  A    between atoms: O_15  and  C_7 
REMARK    3  A    between atoms: C_17  and  O_15 
ROOT
ATOM      1  C   UNL d   1       2.460  -0.678  -0.054  0.00  0.00     0.115 A 
ATOM      2  C   UNL d   1       2.464   0.800  -0.082  0.00  0.00     0.304 A 
ATOM      3  O   UNL d   1       1.214   1.419  -0.041  0.00  0.00    -0.272 OA
ATOM      4  C   UNL d   1       1.308  -1.372  -0.050  0.00  0.00     0.038 A 
ATOM      5  C   UNL d   1       0.026  -0.691  -0.045  0.00  0.00     0.002 A 
ATOM      6  C   UNL d   1       0.001   0.700  -0.030  0.00  0.00     0.111 A 
ATOM      7  C   UNL d   1      -1.208   1.399  -0.008  0.00  0.00     0.070 A 
ATOM      8  C   UNL d   1      -2.411   0.694   0.002  0.00  0.00     0.050 A 
ATOM      9  C   UNL d   1      -1.179  -1.397  -0.029  0.00  0.00     0.038 A 
ATOM     10  O   UNL d   1       3.483   1.475  -0.154  0.00  0.00    -0.259 OA
ATOM     11  C   UNL d   1      -2.389  -0.701  -0.007  0.00  0.00     0.036 A 
ATOM     12 CL   UNL d   1      -1.252   3.121   0.011  0.00  0.00    -0.081 Cl
ATOM     13 CL   UNL d   1      -3.870  -1.576   0.010  0.00  0.00    -0.084 Cl
ENDROOT
BRANCH   1  14
ATOM     14  C   UNL d   1       3.690  -1.497   0.041  0.00  0.00     0.299 C 
ATOM     15  O   UNL d   1       3.727  -2.692  -0.218  0.00  0.00    -0.259 OA
BRANCH  14  16
ATOM     16  O   UNL d   1       4.696  -0.785   0.595  0.00  0.00    -0.318 OA
BRANCH  16  17
ATOM     17  C   UNL d   1       5.798  -1.542   1.111  0.00  0.00     0.174 C 
ATOM     18  C   UNL d   1       5.503  -1.855   2.566  0.00  0.00     0.034 C 
ENDBRANCH  16  17
ENDBRANCH  14  16
ENDBRANCH   1  14
TORSDOF 3
