REMARK  2 active torsions:
REMARK  status: ('A' for Active; 'I' for Inactive)
REMARK    1  A    between atoms: C_3  and  C_1 
REMARK    2  A    between atoms: S_14  and  C_6 
ROOT
ATOM      1  C   UNL d   1      -0.005   1.089   0.013  0.00  0.00     0.153 A 
ATOM      2  N   UNL d   1       0.834  -0.002   0.024  0.00  0.00    -0.314 N 
ATOM      3  N   UNL d   1      -1.251   0.661   0.138  0.00  0.00    -0.281 N 
ATOM      4  HN  UNL d   1      -2.080   1.251   0.203  1.00  0.00     0.188 HD
ATOM      5  C   UNL d   1       0.011  -1.096   0.072  0.00  0.00     0.162 A 
ATOM      6  N   UNL d   1      -1.238  -0.710   0.164  0.00  0.00    -0.278 N 
ATOM      7  HN  UNL d   1      -2.053  -1.319   0.241  1.00  0.00     0.189 HD
ATOM      8  C   UNL d   1       2.273  -0.030   0.022  0.00  0.00     0.160 C 
ENDROOT
BRANCH   1   9
ATOM      9  C   UNL d   1       0.346   2.534  -0.133  0.00  0.00     0.102 A 
ATOM     10  N   UNL d   1       1.585   2.979  -0.369  0.00  0.00    -0.257 N 
ATOM     11  O   UNL d   1       1.486   4.355  -0.452  0.00  0.00    -0.242 OA
ATOM     12  HN  UNL d   1       2.431   2.417  -0.469  1.00  0.00     0.195 HD
ATOM     13  C   UNL d   1       0.192   4.728  -0.266  0.00  0.00     0.074 A 
ATOM     14  C   UNL d   1      -0.575   3.607  -0.063  0.00  0.00     0.070 A 
ATOM     15  C   UNL d   1      -0.083   6.174  -0.327  0.00  0.00     0.079 C 
ENDBRANCH   1   9
BRANCH   5  16
ATOM     16  S   UNL d   1       0.591  -2.724  -0.002  0.00  0.00    -0.097 SA
ATOM     17  C   UNL d   1      -0.957  -3.648   0.101  0.00  0.00     0.099 C 
ENDBRANCH   5  16
TORSDOF 2
