REMARK  6 active torsions:
REMARK  status: ('A' for Active; 'I' for Inactive)
REMARK    1  A    between atoms: O_15  and  C_1 
REMARK    2  A    between atoms: O_16  and  C_1 
REMARK    3  A    between atoms: C_22  and  O_15 
REMARK    4  A    between atoms: C_21  and  O_16 
REMARK    5  A    between atoms: C_19  and  C_22 
REMARK    6  A    between atoms: C_20  and  C_21 
ROOT
ATOM      1  C   UNL d   1       0.922   0.017  -0.077  0.00  0.00     0.407 C 
ATOM      2  O   UNL d   1       0.295  -0.627   0.749  0.00  0.00    -0.229 OA
ENDROOT
BRANCH   1   3
ATOM      3  O   UNL d   1       0.415   0.567  -1.208  0.00  0.00    -0.293 OA
BRANCH   3   4
ATOM      4  C   UNL d   1      -0.954   0.261  -1.488  0.00  0.00     0.220 C 
BRANCH   4   5
ATOM      5  C   UNL d   1      -1.864   1.411  -1.128  0.00  0.00    -0.031 A 
ATOM      6  C   UNL d   1      -2.095   2.451  -2.045  0.00  0.00     0.049 A 
ATOM      7  C   UNL d   1      -2.981   3.450  -1.691  0.00  0.00     0.105 A 
ATOM      8  O   UNL d   1      -3.339   4.508  -2.468  0.00  0.00    -0.323 OA
ATOM      9  C   UNL d   1      -3.619   3.456  -0.474  0.00  0.00     0.105 A 
ATOM     10  C   UNL d   1      -4.282   5.175  -1.602  0.00  0.00     0.352 A 
ATOM     11  O   UNL d   1      -4.460   4.515  -0.331  0.00  0.00    -0.323 OA
ATOM     12  C   UNL d   1      -3.401   2.469   0.462  0.00  0.00     0.040 A 
ATOM     13  C   UNL d   1      -2.511   1.440   0.130  0.00  0.00     0.012 A 
ENDBRANCH   4   5
ENDBRANCH   3   4
ENDBRANCH   1   3
BRANCH   1  14
ATOM     14  O   UNL d   1       2.244   0.309  -0.021  0.00  0.00    -0.293 OA
BRANCH  14  15
ATOM     15  C   UNL d   1       2.917  -0.077   1.181  0.00  0.00     0.220 C 
BRANCH  15  16
ATOM     16  C   UNL d   1       3.825  -1.262   0.950  0.00  0.00    -0.031 A 
ATOM     17  C   UNL d   1       3.388  -2.561   1.263  0.00  0.00     0.049 A 
ATOM     18  C   UNL d   1       4.276  -3.605   1.098  0.00  0.00     0.105 A 
ATOM     19  O   UNL d   1       4.027  -4.913   1.381  0.00  0.00    -0.323 OA
ATOM     20  C   UNL d   1       5.552  -3.406   0.628  0.00  0.00     0.105 A 
ATOM     21  C   UNL d   1       5.294  -5.511   1.038  0.00  0.00     0.352 A 
ATOM     22  O   UNL d   1       6.268  -4.560   0.559  0.00  0.00    -0.323 OA
ATOM     23  C   UNL d   1       6.009  -2.153   0.285  0.00  0.00     0.040 A 
ATOM     24  C   UNL d   1       5.132  -1.073   0.443  0.00  0.00     0.012 A 
ENDBRANCH  15  16
ENDBRANCH  14  15
ENDBRANCH   1  14
TORSDOF 6
