REMARK  5 active torsions:
REMARK  status: ('A' for Active; 'I' for Inactive)
REMARK    1  A    between atoms: C_4  and  N_1 
REMARK    2  A    between atoms: C_2  and  C_10 
REMARK       I    between atoms: N_5  and  C_2 
REMARK    3  A    between atoms: C_10  and  N_3 
REMARK    4  A    between atoms: C_19  and  N_5 
REMARK    5  A    between atoms: C_7  and  C_6 
ROOT
ATOM      1  N   UNL d   1      -1.917   0.425  -0.220  0.00  0.00    -0.378 N 
ATOM      2  N   UNL d   1       0.985  -0.326  -0.173  0.00  0.00     0.100 N 
ATOM      3  C   UNL d   1      -1.471  -0.898  -0.678  0.00  0.00     0.153 C 
ATOM      4  C   UNL d   1      -0.894   1.479  -0.341  0.00  0.00     0.153 C 
ATOM      5  C   UNL d   1       0.474   1.018   0.250  0.00  0.00     0.292 C 
ATOM      6  C   UNL d   1      -0.131  -1.298  -0.026  0.00  0.00     0.292 C 
ENDROOT
BRANCH   2   7
ATOM      7  C   UNL d   1       1.500  -0.241  -1.562  0.00  0.00     0.375 C 
BRANCH   7   8
ATOM      8  C   UNL d   1       2.003  -1.572  -2.135  0.00  0.00     0.250 C 
ATOM      9  N   UNL d   1       2.658  -2.390  -1.229  0.00  0.00    -0.326 N 
ATOM     10  H   UNL d   1       2.623  -2.069  -0.266  0.00  0.00     0.169 HD
ATOM     11  O   UNL d   1       1.828  -1.817  -3.329  0.00  0.00    -0.271 OA
BRANCH   9  12
ATOM     12  C   UNL d   1       3.211  -3.667  -1.486  0.00  0.00     0.035 A 
ATOM     13  C   UNL d   1       3.354  -4.202  -2.773  0.00  0.00     0.032 A 
ATOM     14  C   UNL d   1       3.882  -5.483  -2.964  0.00  0.00     0.044 A 
ATOM     15  C   UNL d   1       4.270  -6.235  -1.867  0.00  0.00     0.116 A 
ATOM     16  C   UNL d   1       4.154  -5.721  -0.581  0.00  0.00     0.044 A 
ATOM     17  F   UNL d   1       4.763  -7.466  -2.048  0.00  0.00    -0.206 F 
ATOM     18  C   UNL d   1       3.629  -4.437  -0.391  0.00  0.00     0.032 A 
ENDBRANCH   9  12
ENDBRANCH   7   8
ENDBRANCH   2   7
BRANCH   1  19
ATOM     19  C   UNL d   1      -2.870   0.534   0.784  0.00  0.00     0.030 A 
ATOM     20  C   UNL d   1      -3.034  -0.424   1.793  0.00  0.00     0.030 A 
ATOM     21  C   UNL d   1      -4.067  -0.342   2.741  0.00  0.00     0.017 A 
ATOM     22  C   UNL d   1      -4.987   0.705   2.695  0.00  0.00     0.009 A 
ATOM     23  C   UNL d   1      -4.823   1.686   1.709  0.00  0.00     0.017 A 
ATOM     24  C   UNL d   1      -3.774   1.604   0.779  0.00  0.00     0.030 A 
BRANCH  22  25
ATOM     25  C   UNL d   1      -6.153   0.825   3.627  0.00  0.00     0.155 C 
ATOM     26  O   UNL d   1      -6.923   1.779   3.505  0.00  0.00    -0.293 OA
ATOM     27  C   UNL d   1      -6.415  -0.210   4.694  0.00  0.00     0.096 C 
ENDBRANCH  22  25
ENDBRANCH   1  19
TORSDOF 5
