REMARK  0 active torsions:
REMARK  status: ('A' for Active; 'I' for Inactive)
ROOT
ATOM      1  C   UNL d   1      -0.067   1.185  -0.045  0.00  0.00     0.126 A 
ATOM      2  S   UNL d   1       1.164   0.004  -0.192  0.00  0.00    -0.031 SA
ATOM      3  N   UNL d   1      -1.274   0.687   0.128  0.00  0.00    -0.289 N 
ATOM      4  HN  UNL d   1      -2.117   1.253   0.228  1.00  0.00     0.188 HD
ATOM      5  C   UNL d   1      -0.057  -1.199   0.009  0.00  0.00     0.161 A 
ATOM      6  N   UNL d   1      -1.262  -0.693   0.159  0.00  0.00    -0.279 N 
ATOM      7  HN  UNL d   1      -2.099  -1.261   0.285  1.00  0.00     0.189 HD
ATOM      8  C   UNL d   1       0.193   2.594  -0.111  0.00  0.00     0.110 A 
ATOM      9  O   UNL d   1       1.449   3.133  -0.277  0.00  0.00    -0.320 OA
ATOM     10  C   UNL d   1      -0.718   3.638  -0.029  0.00  0.00     0.042 A 
ATOM     11  C   UNL d   1       1.323   4.483  -0.302  0.00  0.00     0.142 A 
ATOM     12  C   UNL d   1       0.008   4.846  -0.156  0.00  0.00     0.027 A 
ATOM     13  N   UNL d   1       0.279  -2.507   0.015  0.00  0.00    -0.374 N 
ATOM     14  C   UNL d   1      -0.729  -3.537   0.027  0.00  0.00     0.148 C 
ATOM     15  H   UNL d   1       1.218  -2.783  -0.249  0.00  0.00     0.161 HD
ENDROOT
TORSDOF 0
