REMARK  5 active torsions:
REMARK  status: ('A' for Active; 'I' for Inactive)
REMARK    1  A    between atoms: N_2  and  C_1 
REMARK    2  A    between atoms: N_4  and  C_1 
REMARK    3  A    between atoms: C_3  and  N_2 
REMARK    4  A    between atoms: O_13  and  C_7 
REMARK    5  A    between atoms: O_14  and  C_9 
ROOT
ATOM      1  C   UNL d   1       1.030  -2.587   0.066  0.00  0.00     0.070 A 
ATOM      2  C   UNL d   1       0.729  -3.607  -0.841  0.00  0.00     0.071 A 
ATOM      3  C   UNL d   1       2.794  -3.966   0.963  0.00  0.00     0.065 A 
ATOM      4  C   UNL d   1       2.097  -2.753   0.959  0.00  0.00     0.096 A 
ATOM      5  C   UNL d   1       2.469  -4.998   0.061  0.00  0.00     0.070 A 
ATOM      6  C   UNL d   1       1.431  -4.824  -0.857  0.00  0.00     0.092 A 
ATOM      7 CL   UNL d   1       3.465  -6.408   0.187  0.00  0.00    -0.081 Cl
ENDROOT
BRANCH   1   8
ATOM      8  N   UNL d   1       0.346  -1.344   0.039  0.00  0.00    -0.331 N 
ATOM      9  H   UNL d   1       0.748  -0.638   0.650  0.00  0.00     0.168 HD
BRANCH   8  10
ATOM     10  C   UNL d   1      -0.952  -1.100  -0.375  0.00  0.00     0.174 C 
ATOM     11  S   UNL d   1      -2.216  -2.168  -0.047  0.00  0.00    -0.041 SA
BRANCH  10  12
ATOM     12  N   UNL d   1      -1.116   0.135  -1.016  0.00  0.00    -0.354 N 
ATOM     13  C   UNL d   1      -2.409   0.611  -1.552  0.00  0.00     0.151 C 
ATOM     14  C   UNL d   1      -2.296   0.872  -3.058  0.00  0.00     0.187 C 
ATOM     15  O   UNL d   1      -1.272   1.845  -3.322  0.00  0.00    -0.388 OA
ATOM     16  C   UNL d   1       0.003   1.367  -2.867  0.00  0.00     0.187 C 
ATOM     17  C   UNL d   1      -0.009   1.048  -1.363  0.00  0.00     0.151 C 
ENDBRANCH  10  12
ENDBRANCH   8  10
ENDBRANCH   1   8
BRANCH   4  18
ATOM     18  O   UNL d   1       2.362  -1.694   1.792  0.00  0.00    -0.354 OA
ATOM     19  C   UNL d   1       3.592  -1.732   2.507  0.00  0.00     0.210 C 
ENDBRANCH   4  18
BRANCH   6  20
ATOM     20  O   UNL d   1       0.955  -5.646  -1.839  0.00  0.00    -0.354 OA
ATOM     21  C   UNL d   1       1.429  -6.972  -1.979  0.00  0.00     0.210 C 
ENDBRANCH   6  20
TORSDOF 5
