REMARK  2 active torsions:
REMARK  status: ('A' for Active; 'I' for Inactive)
REMARK    1  A    between atoms: O_5  and  C_1 
REMARK    2  A    between atoms: C_9  and  O_5 
ROOT
ATOM      1  N   UNL d   1      -5.947  -5.584  -0.043  0.00  0.00    -0.191 NA
ATOM      2  C   UNL d   1      -4.942  -4.996  -0.034  0.00  0.00     0.099 C 
ATOM      3  C   UNL d   1      -1.229  -2.950  -0.043  0.00  0.00     0.076 A 
ATOM      4  C   UNL d   1      -3.703  -4.276  -0.024  0.00  0.00     0.044 A 
ATOM      5  C   UNL d   1      -2.849  -4.356   1.082  0.00  0.00     0.025 A 
ATOM      6  C   UNL d   1      -1.627  -3.672   1.085  0.00  0.00     0.039 A 
ATOM      7  C   UNL d   1      -3.336  -3.494  -1.122  0.00  0.00     0.025 A 
ATOM      8  C   UNL d   1      -2.104  -2.835  -1.128  0.00  0.00     0.039 A 
ENDROOT
BRANCH   3   9
ATOM      9  O   UNL d   1      -0.020  -2.312  -0.210  0.00  0.00    -0.307 OA
BRANCH   9  10
ATOM     10  C   UNL d   1       1.058  -2.628   0.587  0.00  0.00     0.122 A 
ATOM     11  C   UNL d   1       1.588  -3.917   0.721  0.00  0.00     0.085 A 
ATOM     12 CL   UNL d   1       0.998  -5.295  -0.130  0.00  0.00    -0.080 Cl
ATOM     13  C   UNL d   1       2.694  -4.087   1.547  0.00  0.00     0.114 A 
ATOM     14  N   UNL d   1       3.335  -3.077   2.181  0.00  0.00    -0.372 N 
ATOM     15  C   UNL d   1       2.853  -1.831   1.965  0.00  0.00     0.114 A 
ATOM     16  HN  UNL d   1       4.136  -3.246   2.789  1.00  0.00     0.164 HD
ATOM     17  C   UNL d   1       1.734  -1.559   1.190  0.00  0.00     0.085 A 
ATOM     18 CL   UNL d   1       1.240   0.079   0.980  0.00  0.00    -0.080 Cl
ENDBRANCH   9  10
ENDBRANCH   3   9
TORSDOF 2
