REMARK  6 active torsions:
REMARK  status: ('A' for Active; 'I' for Inactive)
REMARK    1  A    between atoms: C_7  and  C_3 
REMARK    2  A    between atoms: C_14  and  N_5 
REMARK    3  A    between atoms: N_18  and  C_7 
REMARK    4  A    between atoms: O_11  and  N_8 
REMARK    5  A    between atoms: C_10  and  O_11 
REMARK    6  A    between atoms: C_16  and  C_10 
ROOT
ATOM      1  N   UNL d   1       5.675  -2.452  -0.028  0.00  0.00    -0.270 N 
ATOM      2  C   UNL d   1       5.021  -3.686  -0.029  0.00  0.00     0.335 A 
ATOM      3  C   UNL d   1       3.565  -1.231  -0.003  0.00  0.00     0.088 A 
ATOM      4  C   UNL d   1       5.043  -1.218   0.013  0.00  0.00     0.266 A 
ATOM      5  N   UNL d   1       3.613  -3.626  -0.009  0.00  0.00    -0.274 N 
ATOM      6  C   UNL d   1       2.942  -2.415   0.011  0.00  0.00     0.122 A 
ATOM      7  O   UNL d   1       5.659  -4.742  -0.002  0.00  0.00    -0.246 OA
ATOM      8  O   UNL d   1       5.646  -0.146   0.055  0.00  0.00    -0.267 OA
ATOM      9  C   UNL d   1       7.127  -2.445  -0.011  0.00  0.00     0.164 C 
ENDROOT
BRANCH   3  10
ATOM     10  C   UNL d   1       2.755   0.037  -0.015  0.00  0.00     0.116 C 
ATOM     11  N   UNL d   1       1.581  -0.005  -0.583  0.00  0.00    -0.245 N 
ATOM     12  HN  UNL d   1       1.184  -0.843  -1.008  1.00  0.00     0.196 HD
BRANCH  11  13
ATOM     13  O   UNL d   1       0.922   1.244  -0.542  0.00  0.00    -0.193 OA
BRANCH  13  14
ATOM     14  C   UNL d   1      -0.239   1.174  -1.261  0.00  0.00     0.315 C 
ATOM     15  O   UNL d   1      -0.647   0.236  -1.934  0.00  0.00    -0.257 OA
BRANCH  14  16
ATOM     16  C   UNL d   1      -0.972   2.463  -1.166  0.00  0.00     0.041 A 
ATOM     17  C   UNL d   1      -0.800   3.347  -0.093  0.00  0.00     0.017 A 
ATOM     18  C   UNL d   1      -1.543   4.531  -0.037  0.00  0.00     0.001 A 
ATOM     19  C   UNL d   1      -2.456   4.834  -1.047  0.00  0.00     0.000 A 
ATOM     20  C   UNL d   1      -2.631   3.956  -2.116  0.00  0.00     0.001 A 
ATOM     21  C   UNL d   1      -1.896   2.773  -2.175  0.00  0.00     0.017 A 
ENDBRANCH  14  16
ENDBRANCH  13  14
ENDBRANCH  11  13
BRANCH  10  22
ATOM     22  N   UNL d   1       3.268   1.194   0.530  0.00  0.00    -0.286 NA
ATOM     23  H   UNL d   1       4.290   1.249   0.519  0.00  0.00     0.125 HD
ATOM     24  H   UNL d   1       2.829   2.035   0.174  0.00  0.00     0.125 HD
ENDBRANCH  10  22
ENDBRANCH   3  10
BRANCH   5  25
ATOM     25  C   UNL d   1       2.887  -4.861   0.020  0.00  0.00     0.043 A 
ATOM     26  C   UNL d   1       1.883  -5.075   0.974  0.00  0.00     0.030 A 
ATOM     27  C   UNL d   1       1.232  -6.311   1.046  0.00  0.00     0.002 A 
ATOM     28  C   UNL d   1       1.547  -7.323   0.141  0.00  0.00     0.000 A 
ATOM     29  C   UNL d   1       2.514  -7.105  -0.837  0.00  0.00     0.002 A 
ATOM     30  C   UNL d   1       3.189  -5.885  -0.889  0.00  0.00     0.030 A 
ENDBRANCH   5  25
TORSDOF 6
