REMARK  6 active torsions:
REMARK  status: ('A' for Active; 'I' for Inactive)
REMARK    1  A    between atoms: C_4  and  C_1 
REMARK    2  A    between atoms: C_2  and  C_3 
REMARK       I    between atoms: N_18  and  C_4 
REMARK    3  A    between atoms: O_15  and  C_5 
REMARK    4  A    between atoms: C_9  and  C_17 
REMARK    5  A    between atoms: C_17  and  O_15 
REMARK    6  A    between atoms: N_23  and  N_18 
ROOT
ATOM      1  O   UNL d   1       2.579   1.551  -0.303  0.00  0.00    -0.344 OA
ENDROOT
BRANCH   1   2
ATOM      2  C   UNL d   1       1.378   0.913  -0.193  0.00  0.00     0.092 A 
ATOM      3  C   UNL d   1       0.088   1.379   0.070  0.00  0.00     0.107 A 
ATOM      4  S   UNL d   1      -1.044   0.051  -0.000  0.00  0.00    -0.094 SA
ATOM      5  C   UNL d   1       0.160  -1.089  -0.349  0.00  0.00     0.053 A 
ATOM      6  C   UNL d   1       1.397  -0.504  -0.422  0.00  0.00     0.045 A 
BRANCH   3   7
ATOM      7  C   UNL d   1      -0.472   2.696   0.396  0.00  0.00     0.275 C 
ATOM      8  O   UNL d   1       0.176   3.675   0.777  0.00  0.00    -0.266 OA
ATOM      9  N   UNL d   1      -1.859   2.832   0.264  0.00  0.00    -0.289 N 
ATOM     10  H   UNL d   1      -2.410   2.051  -0.090  0.00  0.00     0.183 HD
BRANCH   9  11
ATOM     11  N   UNL d   1      -2.488   4.076   0.507  0.00  0.00    -0.247 NA
ATOM     12  H   UNL d   1      -1.756   4.797   0.426  0.00  0.00     0.143 HD
ATOM     13  H   UNL d   1      -2.740   4.107   1.499  0.00  0.00     0.143 HD
ENDBRANCH   9  11
ENDBRANCH   3   7
ENDBRANCH   1   2
BRANCH   1  14
ATOM     14  C   UNL d   1       2.657   2.917   0.064  0.00  0.00     0.234 C 
BRANCH  14  15
ATOM     15  C   UNL d   1       4.080   3.422  -0.076  0.00  0.00     0.055 A 
ATOM     16  N   UNL d   1       4.785   3.564   1.085  0.00  0.00    -0.365 N 
ATOM     17  C   UNL d   1       6.021   4.109   1.019  0.00  0.00     0.104 A 
ATOM     18  HN  UNL d   1       4.391   3.266   1.978  1.00  0.00     0.165 HD
ATOM     19  C   UNL d   1       6.612   4.538  -0.158  0.00  0.00     0.064 A 
ATOM     20  C   UNL d   1       5.896   4.352  -1.345  0.00  0.00     0.043 A 
ATOM     21  C   UNL d   1       4.620   3.783  -1.312  0.00  0.00     0.059 A 
ATOM     22 CL   UNL d   1       3.772   3.598  -2.800  0.00  0.00    -0.082 Cl
BRANCH  19  23
ATOM     23  C   UNL d   1       7.959   5.187  -0.114  0.00  0.00     0.418 C 
ATOM     24  F   UNL d   1       8.394   5.617  -1.331  0.00  0.00    -0.166 F 
ATOM     25  F   UNL d   1       7.981   6.282   0.696  0.00  0.00    -0.166 F 
ATOM     26  F   UNL d   1       8.926   4.354   0.358  0.00  0.00    -0.166 F 
ENDBRANCH  19  23
ENDBRANCH  14  15
ENDBRANCH   1  14
TORSDOF 6
