REMARK  2 active torsions:
REMARK  status: ('A' for Active; 'I' for Inactive)
REMARK       I    between atoms: N_2  and  C_1 
REMARK    1  A    between atoms: C_6  and  C_1 
REMARK    2  A    between atoms: C_3  and  N_2 
ROOT
ATOM      1  C   UNL d   1       0.982  -0.169  -0.186  0.00  0.00     0.257 C 
ATOM      2  N   UNL d   1       0.405   0.807  -0.967  0.00  0.00    -0.309 N 
ATOM      3  O   UNL d   1       2.089  -0.677  -0.355  0.00  0.00    -0.267 OA
ATOM      4  H   UNL d   1      -0.275   1.424  -0.547  0.00  0.00     0.170 HD
ENDROOT
BRANCH   2   5
ATOM      5  C   UNL d   1       0.995   1.325  -2.121  0.00  0.00     0.108 A 
ATOM      6  N   UNL d   1       0.750   2.632  -2.339  0.00  0.00    -0.346 N 
ATOM      7  C   UNL d   1       1.374   3.215  -3.393  0.00  0.00     0.007 A 
ATOM      8  HN  UNL d   1       0.121   3.161  -1.736  1.00  0.00     0.167 HD
ATOM      9  C   UNL d   1       1.252   4.703  -3.521  0.00  0.00     0.068 C 
ATOM     10  C   UNL d   1       2.149   2.503  -4.302  0.00  0.00     0.025 A 
ATOM     11  C   UNL d   1       2.329   1.139  -4.099  0.00  0.00     0.006 A 
ATOM     12  C   UNL d   1       1.758   0.542  -2.982  0.00  0.00     0.049 A 
ENDBRANCH   2   5
BRANCH   1  13
ATOM     13  C   UNL d   1       0.192  -0.597   0.989  0.00  0.00     0.032 A 
ATOM     14  C   UNL d   1      -1.170  -0.896   0.861  0.00  0.00     0.018 A 
ATOM     15  C   UNL d   1      -1.867  -1.420   1.952  0.00  0.00     0.025 A 
ATOM     16  C   UNL d   1      -1.207  -1.632   3.164  0.00  0.00     0.034 A 
ATOM     17  C   UNL d   1       0.144  -1.316   3.301  0.00  0.00     0.025 A 
ATOM     18 CL   UNL d   1      -2.062  -2.314   4.492  0.00  0.00    -0.084 Cl
ATOM     19  C   UNL d   1       0.848  -0.805   2.209  0.00  0.00     0.018 A 
ENDBRANCH   1  13
TORSDOF 2
