REMARK  4 active torsions:
REMARK  status: ('A' for Active; 'I' for Inactive)
REMARK    1  A    between atoms: C_4  and  C_1 
REMARK    2  A    between atoms: C_2  and  C_9 
REMARK    3  A    between atoms: C_12  and  C_3 
REMARK       I    between atoms: N_10  and  C_4 
REMARK    4  A    between atoms: N_13  and  N_10 
ROOT
ATOM      1  C   UNL d   1       4.131   1.137   0.471  0.00  0.00     0.050 A 
ATOM      2  N   UNL d   1       4.022  -1.112  -0.445  0.00  0.00    -0.373 N 
ATOM      3  HN  UNL d   1       4.491  -1.953  -0.782  1.00  0.00     0.164 HD
ATOM      4  C   UNL d   1       2.734   1.206   0.474  0.00  0.00     0.040 A 
ATOM      5  C   UNL d   1       1.992   0.114   0.021  0.00  0.00     0.034 A 
ATOM      6  C   UNL d   1       4.718  -0.037   0.004  0.00  0.00     0.104 A 
ATOM      7  C   UNL d   1       2.674  -1.012  -0.423  0.00  0.00     0.108 A 
ENDROOT
BRANCH   5   8
ATOM      8  C   UNL d   1       0.564   0.143   0.028  0.00  0.00    -0.060 C 
ATOM      9  C   UNL d   1      -0.636   0.127   0.030  0.00  0.00    -0.061 C 
BRANCH   9  10
ATOM     10  C   UNL d   1      -2.065   0.055   0.022  0.00  0.00     0.018 A 
ATOM     11  C   UNL d   1      -2.701  -1.113   0.453  0.00  0.00     0.020 A 
ATOM     12  C   UNL d   1      -4.093  -1.203   0.426  0.00  0.00     0.001 A 
ATOM     13  C   UNL d   1      -4.852  -0.125  -0.031  0.00  0.00     0.000 A 
ATOM     14  C   UNL d   1      -4.220   1.044  -0.455  0.00  0.00     0.001 A 
ATOM     15  C   UNL d   1      -2.826   1.135  -0.428  0.00  0.00     0.020 A 
ENDBRANCH   9  10
ENDBRANCH   5   8
BRANCH   1  16
ATOM     16  C   UNL d   1       5.028   2.213   0.967  0.00  0.00     0.267 C 
ATOM     17  O   UNL d   1       6.244   2.033   1.009  0.00  0.00    -0.266 OA
ATOM     18  N   UNL d   1       4.445   3.405   1.385  0.00  0.00    -0.290 N 
ATOM     19  H   UNL d   1       3.465   3.618   1.226  0.00  0.00     0.183 HD
BRANCH  18  20
ATOM     20  N   UNL d   1       5.280   4.452   1.834  0.00  0.00    -0.247 NA
ATOM     21  H   UNL d   1       6.248   4.172   1.613  0.00  0.00     0.143 HD
ATOM     22  H   UNL d   1       5.258   4.457   2.857  0.00  0.00     0.143 HD
ENDBRANCH  18  20
ENDBRANCH   1  16
TORSDOF 4
