REMARK  3 active torsions:
REMARK  status: ('A' for Active; 'I' for Inactive)
REMARK    1  A    between atoms: C_2  and  C_1 
REMARK       I    between atoms: N_3  and  C_1 
REMARK    2  A    between atoms: C_7  and  N_3 
REMARK    3  A    between atoms: N_6  and  C_4 
ROOT
ATOM      1  C   UNL d   1       1.092  -0.145  -0.375  0.00  0.00     0.254 C 
ATOM      2  N   UNL d   1       0.417   1.047  -0.547  0.00  0.00    -0.352 N 
ATOM      3  O   UNL d   1       0.542  -1.208  -0.108  0.00  0.00    -0.268 OA
ATOM      4  H   UNL d   1       0.931   1.811  -0.964  0.00  0.00     0.163 HD
ENDROOT
BRANCH   1   5
ATOM      5  C   UNL d   1       2.569  -0.055  -0.608  0.00  0.00     0.058 A 
ATOM      6  C   UNL d   1       3.270  -1.061  -1.311  0.00  0.00     0.043 A 
ATOM      7  C   UNL d   1       4.636  -0.834  -1.558  0.00  0.00     0.030 A 
ATOM      8  C   UNL d   1       5.283   0.331  -1.128  0.00  0.00     0.002 A 
ATOM      9  C   UNL d   1       4.586   1.293  -0.410  0.00  0.00     0.001 A 
ATOM     10  C   UNL d   1       3.234   1.099  -0.145  0.00  0.00     0.019 A 
BRANCH   6  11
ATOM     11  N   UNL d   1       2.662  -2.264  -1.671  0.00  0.00    -0.393 N 
ATOM     12  C   UNL d   1       3.149  -3.077  -2.764  0.00  0.00     0.146 C 
ATOM     13  H   UNL d   1       1.650  -2.279  -1.520  0.00  0.00     0.159 HD
ENDBRANCH   6  11
ENDBRANCH   1   5
BRANCH   2  14
ATOM     14  C   UNL d   1      -1.022   1.216  -0.377  0.00  0.00     0.084 C 
ATOM     15  C   UNL d   1      -1.840   0.448  -1.424  0.00  0.00     0.025 C 
ATOM     16  C   UNL d   1      -1.631   0.997  -2.833  0.00  0.00     0.002 C 
ATOM     17  C   UNL d   1      -1.931   2.492  -2.907  0.00  0.00     0.000 C 
ATOM     18  C   UNL d   1      -1.185   3.294  -1.845  0.00  0.00     0.002 C 
ATOM     19  C   UNL d   1      -1.374   2.711  -0.440  0.00  0.00     0.025 C 
ENDBRANCH   2  14
TORSDOF 3
