REMARK  7 active torsions:
REMARK  status: ('A' for Active; 'I' for Inactive)
REMARK    1  A    between atoms: C_4  and  C_1 
REMARK       I    between atoms: N_8  and  C_4 
REMARK    2  A    between atoms: C_10  and  C_6 
REMARK    3  A    between atoms: C_9  and  N_8 
REMARK       I    between atoms: N_16  and  C_10 
REMARK    4  A    between atoms: N_11  and  C_19 
REMARK    5  A    between atoms: C_25  and  N_16 
REMARK    6  A    between atoms: C_19  and  C_20 
REMARK    7  A    between atoms: C_20  and  C_25 
ROOT
ATOM      1  C   UNL d   1       2.967  -2.752  -0.983  0.00  0.00     0.058 A 
ATOM      2  C   UNL d   1       3.982  -2.508  -0.039  0.00  0.00     0.050 A 
ATOM      3  C   UNL d   1       2.335  -4.005  -1.011  0.00  0.00     0.019 A 
ATOM      4  C   UNL d   1       4.400  -3.543   0.812  0.00  0.00     0.030 A 
ATOM      5  C   UNL d   1       2.707  -5.002  -0.108  0.00  0.00     0.001 A 
ATOM      6  C   UNL d   1       3.744  -4.774   0.793  0.00  0.00     0.002 A 
ENDROOT
BRANCH   2   7
ATOM      7  N   UNL d   1       4.593  -1.253   0.160  0.00  0.00    -0.322 N 
ATOM      8  C   UNL d   1       3.837  -0.112   0.402  0.00  0.00     0.264 C 
ATOM      9  O   UNL d   1       2.608  -0.161   0.495  0.00  0.00    -0.267 OA
ATOM     10  H   UNL d   1       5.546  -1.225   0.495  0.00  0.00     0.169 HD
BRANCH   8  11
ATOM     11  C   UNL d   1       4.591   1.120   0.605  0.00  0.00     0.096 C 
ATOM     12  S   UNL d   1       6.276   1.200   0.304  0.00  0.00    -0.082 SA
ATOM     13  C   UNL d   1       6.321   2.908   0.491  0.00  0.00     0.017 A 
ATOM     14  C   UNL d   1       7.436   3.753   0.323  0.00  0.00     0.020 A 
ATOM     15  C   UNL d   1       5.065   3.413   0.831  0.00  0.00     0.004 A 
ATOM     16  C   UNL d   1       7.260   5.135   0.423  0.00  0.00     0.001 A 
ATOM     17  C   UNL d   1       6.010   5.668   0.699  0.00  0.00     0.001 A 
ATOM     18  C   UNL d   1       4.922   4.822   0.929  0.00  0.00     0.014 A 
ATOM     19  C   UNL d   1       4.115   2.349   1.021  0.00  0.00     0.068 C 
ATOM     20 CL   UNL d   1       2.539   2.662   1.639  0.00  0.00    -0.082 Cl
ENDBRANCH   8  11
ENDBRANCH   2   7
BRANCH   1  21
ATOM     21  C   UNL d   1       2.663  -1.779  -2.084  0.00  0.00     0.253 C 
ATOM     22  O   UNL d   1       3.565  -1.122  -2.600  0.00  0.00    -0.268 OA
ATOM     23  N   UNL d   1       1.350  -1.726  -2.502  0.00  0.00    -0.357 N 
ATOM     24  H   UNL d   1       0.634  -2.192  -1.957  0.00  0.00     0.162 HD
BRANCH  23  25
ATOM     25  C   UNL d   1       0.912  -0.860  -3.575  0.00  0.00     0.124 C 
BRANCH  25  26
ATOM     26  C   UNL d   1       1.124  -1.470  -4.961  0.00  0.00     0.050 C 
BRANCH  26  27
ATOM     27  C   UNL d   1       0.301  -2.742  -5.230  0.00  0.00     0.274 C 
BRANCH  27  28
ATOM     28  N   UNL d   1      -1.155  -2.579  -5.079  0.00  0.00     0.092 N 
ATOM     29  C   UNL d   1      -1.756  -1.664  -6.078  0.00  0.00     0.298 C 
ATOM     30  C   UNL d   1      -1.825  -2.250  -7.497  0.00  0.00     0.198 C 
ATOM     31  O   UNL d   1      -2.554  -3.484  -7.511  0.00  0.00    -0.388 OA
ATOM     32  C   UNL d   1      -1.961  -4.434  -6.618  0.00  0.00     0.198 C 
ATOM     33  C   UNL d   1      -1.859  -3.880  -5.184  0.00  0.00     0.298 C 
ENDBRANCH  27  28
ENDBRANCH  26  27
ENDBRANCH  25  26
ENDBRANCH  23  25
ENDBRANCH   1  21
TORSDOF 7
