REMARK  4 active torsions:
REMARK  status: ('A' for Active; 'I' for Inactive)
REMARK    1  A    between atoms: S_2  and  N_1 
REMARK    2  A    between atoms: C_7  and  S_2 
REMARK    3  A    between atoms: C_10  and  C_5 
REMARK    4  A    between atoms: C_9  and  C_10 
ROOT
ATOM      1  N   UNL d   1      -0.258  -0.947   0.154  0.00  0.00    -0.181 N 
ATOM      2  N   UNL d   1       1.047  -0.615   0.305  0.00  0.00    -0.288 N 
ATOM      3  HN  UNL d   1       1.835  -1.250   0.430  1.00  0.00     0.188 HD
ATOM      4  C   UNL d   1      -0.228   1.294   0.198  0.00  0.00    -0.005 A 
ATOM      5  C   UNL d   1      -1.071   0.186   0.059  0.00  0.00     0.051 A 
ATOM      6  C   UNL d   1       1.083   0.729   0.257  0.00  0.00     0.032 A 
ATOM      7  C   UNL d   1      -2.544   0.177  -0.158  0.00  0.00     0.072 C 
ATOM      8  C   UNL d   1       2.408   1.393   0.254  0.00  0.00     0.070 C 
ENDROOT
BRANCH   4   9
ATOM      9  C   UNL d   1      -0.653   2.743   0.359  0.00  0.00     0.082 C 
BRANCH   9  10
ATOM     10  C   UNL d   1      -0.007   3.740  -0.561  0.00  0.00    -0.036 C 
ATOM     11  C   UNL d   1      -0.425   4.171  -1.885  0.00  0.00    -0.010 C 
ATOM     12  C   UNL d   1       0.656   4.777  -2.529  0.00  0.00     0.015 C 
ATOM     13  C   UNL d   1      -1.617   4.049  -2.650  0.00  0.00     0.037 C 
ATOM     14  C   UNL d   1       0.657   4.939  -3.917  0.00  0.00     0.021 C 
ATOM     15  S   UNL d   1       1.827   5.334  -1.409  0.00  0.00    -0.101 SA
ATOM     16  C   UNL d   1      -0.562   5.151  -4.538  0.00  0.00     0.025 C 
ATOM     17  C   UNL d   1      -1.704   4.704  -3.895  0.00  0.00     0.035 C 
ATOM     18 CL   UNL d   1      -3.215   4.889  -4.684  0.00  0.00    -0.084 Cl
ATOM     19  C   UNL d   1       1.025   4.560  -0.128  0.00  0.00     0.058 C 
ENDBRANCH   9  10
ENDBRANCH   4   9
BRANCH   1  20
ATOM     20  S   UNL d   1      -0.771  -2.602   0.040  0.00  0.00     0.284 S 
ATOM     21  O   UNL d   1      -2.220  -2.633  -0.268  0.00  0.00    -0.198 OA
ATOM     22  O   UNL d   1       0.124  -3.206  -0.893  0.00  0.00    -0.198 OA
BRANCH  20  23
ATOM     23  C   UNL d   1      -0.535  -3.375   1.620  0.00  0.00     0.103 A 
ATOM     24  C   UNL d   1      -1.296  -3.034   2.741  0.00  0.00     0.057 A 
ATOM     25 CL   UNL d   1      -2.459  -1.771   2.797  0.00  0.00    -0.083 Cl
ATOM     26  C   UNL d   1      -1.151  -3.771   3.938  0.00  0.00     0.025 A 
ATOM     27  C   UNL d   1      -0.265  -4.843   4.006  0.00  0.00     0.002 A 
ATOM     28  C   UNL d   1       0.484  -5.190   2.890  0.00  0.00     0.002 A 
ATOM     29  C   UNL d   1       0.344  -4.468   1.699  0.00  0.00     0.027 A 
ENDBRANCH  20  23
ENDBRANCH   1  20
TORSDOF 4
