REMARK  7 active torsions:
REMARK  status: ('A' for Active; 'I' for Inactive)
REMARK    1  A    between atoms: S_10  and  C_1 
REMARK    2  A    between atoms: C_6  and  C_3 
REMARK    3  A    between atoms: C_7  and  C_16 
REMARK    4  A    between atoms: C_12  and  C_8 
REMARK       I    between atoms: C_9  and  N_14 
REMARK       I    between atoms: N_20  and  C_9 
REMARK    5  A    between atoms: C_17  and  S_10 
REMARK    6  A    between atoms: N_14  and  C_19 
REMARK    7  A    between atoms: C_25  and  N_20 
ROOT
ATOM      1  C   UNL d   1      -0.137  -2.390  -0.352  0.00  0.00     0.097 C 
ATOM      2  C   UNL d   1       0.387  -2.744  -1.591  0.00  0.00     0.093 C 
ATOM      3  C   UNL d   1      -0.043  -2.034  -2.712  0.00  0.00     0.073 C 
ATOM      4  N   UNL d   1      -1.307  -1.685  -0.251  0.00  0.00    -0.348 N 
ATOM      5  HN  UNL d   1      -1.743  -1.522   0.656  1.00  0.00     0.166 HD
ATOM      6  C   UNL d   1      -1.871  -1.209  -1.390  0.00  0.00     0.051 C 
ATOM      7  C   UNL d   1      -1.196  -1.252  -2.600  0.00  0.00     0.048 C 
ATOM      8  C   UNL d   1       1.128  -3.954  -1.773  0.00  0.00     0.103 C 
ATOM      9  N   UNL d   1       1.630  -4.983  -1.978  0.00  0.00    -0.191 NA
ENDROOT
BRANCH   1  10
ATOM     10  S   UNL d   1       0.595  -2.889   1.206  0.00  0.00    -0.069 SA
BRANCH  10  11
ATOM     11  C   UNL d   1       2.352  -2.445   1.111  0.00  0.00     0.028 C 
ATOM     12  C   UNL d   1       2.903  -1.364   1.828  0.00  0.00     0.033 C 
ATOM     13  C   UNL d   1       4.283  -1.295   2.087  0.00  0.00     0.025 C 
ATOM     14  C   UNL d   1       5.155  -2.179   1.465  0.00  0.00     0.002 C 
ATOM     15  C   UNL d   1       4.644  -3.173   0.644  0.00  0.00     0.001 C 
ATOM     16  C   UNL d   1       3.259  -3.349   0.537  0.00  0.00     0.021 C 
BRANCH  12  17
ATOM     17  N   UNL d   1       2.167  -0.222   2.206  0.00  0.00    -0.214 NA
ATOM     18  C   UNL d   1       1.685   0.597   1.190  0.00  0.00     0.281 C 
ATOM     19  N   UNL d   1       1.458   1.874   1.666  0.00  0.00    -0.215 NA
ATOM     20  O   UNL d   1       1.478   0.283   0.025  0.00  0.00    -0.260 OA
ATOM     21  H   UNL d   1       0.566   2.186   1.288  0.00  0.00     0.138 HD
ATOM     22  H   UNL d   1       2.574   0.349   2.937  0.00  0.00     0.138 HD
BRANCH  19  23
ATOM     23  C   UNL d   1       2.394   2.925   1.436  0.00  0.00     0.017 A 
ATOM     24  C   UNL d   1       3.385   2.890   0.448  0.00  0.00     0.040 A 
ATOM     25  C   UNL d   1       4.199   4.016   0.226  0.00  0.00     0.049 A 
ATOM     26  C   UNL d   1       4.058   5.146   1.050  0.00  0.00     0.016 A 
ATOM     27  C   UNL d   1       3.088   5.166   2.050  0.00  0.00     0.003 A 
ATOM     28  C   UNL d   1       2.249   4.065   2.227  0.00  0.00     0.024 A 
BRANCH  25  29
ATOM     29  C   UNL d   1       5.228   4.046  -0.887  0.00  0.00     0.417 C 
ATOM     30  F   UNL d   1       5.090   3.035  -1.788  0.00  0.00    -0.166 F 
ATOM     31  F   UNL d   1       5.176   5.199  -1.613  0.00  0.00    -0.166 F 
ATOM     32  F   UNL d   1       6.504   3.962  -0.418  0.00  0.00    -0.166 F 
ENDBRANCH  25  29
ENDBRANCH  19  23
ENDBRANCH  12  17
ENDBRANCH  10  11
ENDBRANCH   1  10
BRANCH   3  33
ATOM     33  C   UNL d   1       0.651  -2.119  -4.040  0.00  0.00     0.419 C 
ATOM     34  F   UNL d   1       1.863  -2.733  -4.004  0.00  0.00    -0.166 F 
ATOM     35  F   UNL d   1      -0.091  -2.784  -4.968  0.00  0.00    -0.166 F 
ATOM     36  F   UNL d   1       0.888  -0.884  -4.563  0.00  0.00    -0.166 F 
ENDBRANCH   3  33
BRANCH   6  37
ATOM     37  C   UNL d   1      -3.281  -0.774  -1.300  0.00  0.00     0.031 A 
ATOM     38  S   UNL d   1      -4.283  -0.792  -2.714  0.00  0.00    -0.100 SA
ATOM     39  C   UNL d   1      -5.664  -0.290  -1.859  0.00  0.00     0.050 A 
ATOM     40  C   UNL d   1      -5.403  -0.116  -0.518  0.00  0.00     0.008 A 
ATOM     41  C   UNL d   1      -4.033  -0.408  -0.197  0.00  0.00     0.021 A 
ENDBRANCH   6  37
TORSDOF 7
