REMARK  4 active torsions:
REMARK  status: ('A' for Active; 'I' for Inactive)
REMARK    1  A    between atoms: N_9  and  C_1 
REMARK    2  A    between atoms: C_3  and  N_2 
REMARK       I    between atoms: C_8  and  N_13 
REMARK    3  A    between atoms: C_12  and  C_8 
REMARK    4  A    between atoms: N_13  and  N_9 
ROOT
ATOM      1  N   UNL d   1      -2.968   2.397   3.511  0.00  0.00    -0.197 NA
ATOM      2  C   UNL d   1      -3.577   1.431   3.284  0.00  0.00     0.068 C 
ATOM      3  C   UNL d   1      -4.274   0.196   2.957  0.00  0.00     0.228 C 
ENDROOT
BRANCH   3   4
ATOM      4  C   UNL d   1      -3.367  -1.006   2.821  0.00  0.00     0.249 C 
ATOM      5  N   UNL d   1      -2.159  -0.943   2.182  0.00  0.00    -0.267 N 
ATOM      6  H   UNL d   1      -1.654  -1.821   2.063  0.00  0.00     0.190 HD
ATOM      7  O   UNL d   1      -3.754  -2.110   3.227  0.00  0.00    -0.271 OA
BRANCH   5   8
ATOM      8  N   UNL d   1      -1.500   0.219   1.746  0.00  0.00    -0.274 N 
ATOM      9  H   UNL d   1      -1.351   0.925   2.461  0.00  0.00     0.189 HD
BRANCH   8  10
ATOM     10  C   UNL d   1      -0.519   0.102   0.788  0.00  0.00     0.186 C 
ATOM     11  N   UNL d   1       0.483   1.024   0.809  0.00  0.00    -0.361 N 
ATOM     12  H   UNL d   1       1.120   0.940   0.023  0.00  0.00     0.162 HD
ATOM     13  S   UNL d   1      -0.463  -1.097  -0.377  0.00  0.00    -0.040 SA
BRANCH  11  14
ATOM     14  C   UNL d   1       0.643   2.215   1.638  0.00  0.00     0.092 C 
ATOM     15  C   UNL d   1       2.119   2.676   1.830  0.00  0.00     0.031 C 
ATOM     16  C   UNL d   1       2.766   2.922   0.485  0.00  0.00    -0.024 C 
ATOM     17  C   UNL d   1       1.893   4.137   2.241  0.00  0.00     0.019 C 
ATOM     18  C   UNL d   1       2.162   3.996  -0.050  0.00  0.00    -0.026 C 
ATOM     19  C   UNL d   1       1.139   4.482   0.952  0.00  0.00     0.010 C 
ATOM     20  C   UNL d   1      -0.025   3.469   1.004  0.00  0.00     0.034 C 
ENDBRANCH  11  14
ENDBRANCH   8  10
ENDBRANCH   5   8
ENDBRANCH   3   4
TORSDOF 4
