REMARK  4 active torsions:
REMARK  status: ('A' for Active; 'I' for Inactive)
REMARK    1  A    between atoms: C_2  and  S_1 
REMARK    2  A    between atoms: N_4  and  S_1 
REMARK    3  A    between atoms: N_10  and  C_3 
REMARK    4  A    between atoms: C_11  and  C_3 
REMARK       I    between atoms: N_19  and  C_11 
ROOT
ATOM      1  C   UNL d   1      -1.098   2.813   2.898  0.00  0.00     0.241 C 
ATOM      2  N   UNL d   1       0.389   0.845   1.251  0.00  0.00    -0.206 NA
ATOM      3  C   UNL d   1       0.326   3.069   2.324  0.00  0.00     0.067 C 
ATOM      4  C   UNL d   1      -1.315   1.282   2.997  0.00  0.00     0.067 C 
ATOM      5  C   UNL d   1       0.575   2.304   1.020  0.00  0.00     0.110 C 
ATOM      6  C   UNL d   1      -1.004   0.544   1.695  0.00  0.00     0.110 C 
ENDROOT
BRANCH   1   7
ATOM      7  N   UNL d   1      -1.288   3.542   4.228  0.00  0.00     0.107 N 
ATOM      8  C   UNL d   1      -0.380   3.055   5.292  0.00  0.00     0.274 C 
ATOM      9  C   UNL d   1      -0.560   3.767   6.637  0.00  0.00     0.030 C 
ATOM     10  C   UNL d   1      -2.002   3.692   7.110  0.00  0.00     0.003 C 
ATOM     11  C   UNL d   1      -2.912   4.232   6.020  0.00  0.00     0.030 C 
ATOM     12  C   UNL d   1      -2.694   3.482   4.702  0.00  0.00     0.274 C 
ENDBRANCH   1   7
BRANCH   1  13
ATOM     13  C   UNL d   1      -2.134   3.410   1.879  0.00  0.00     0.254 C 
ATOM     14  O   UNL d   1      -3.040   2.770   1.345  0.00  0.00    -0.271 OA
ATOM     15  N   UNL d   1      -2.001   4.750   1.606  0.00  0.00    -0.368 N 
ATOM     16  H   UNL d   1      -1.587   5.328   2.328  0.00  0.00     0.159 HD
ATOM     17  H   UNL d   1      -2.759   5.151   1.065  0.00  0.00     0.159 HD
ENDBRANCH   1  13
BRANCH   2  18
ATOM     18  S   UNL d   1       0.842  -0.142  -0.081  0.00  0.00     0.248 S 
ATOM     19  O   UNL d   1       0.586  -1.523   0.272  0.00  0.00    -0.206 OA
ATOM     20  O   UNL d   1       0.284   0.438  -1.285  0.00  0.00    -0.206 OA
BRANCH  18  21
ATOM     21  C   UNL d   1       2.535  -0.093  -0.283  0.00  0.00     0.130 A 
ATOM     22  C   UNL d   1       3.476  -0.578   0.593  0.00  0.00     0.097 A 
ATOM     23  O   UNL d   1       4.711  -0.410   0.048  0.00  0.00    -0.241 OA
ATOM     24  C   UNL d   1       3.449  -1.213   1.921  0.00  0.00     0.081 C 
ATOM     25  N   UNL d   1       4.594   0.209  -1.181  0.00  0.00    -0.264 N 
ATOM     26  C   UNL d   1       3.282   0.407  -1.374  0.00  0.00     0.054 A 
ATOM     27  HN  UNL d   1       5.352   0.464  -1.814  1.00  0.00     0.194 HD
ATOM     28  C   UNL d   1       2.832   1.080  -2.616  0.00  0.00     0.072 C 
ENDBRANCH  18  21
ENDBRANCH   2  18
TORSDOF 4
