REMARK  5 active torsions:
REMARK  status: ('A' for Active; 'I' for Inactive)
REMARK    1  A    between atoms: C_7  and  C_1 
REMARK    2  A    between atoms: C_10  and  C_6 
REMARK       I    between atoms: C_9  and  N_12 
REMARK       I    between atoms: N_15  and  C_9 
REMARK    3  A    between atoms: C_11  and  C_10 
REMARK       I    between atoms: N_16  and  C_11 
REMARK    4  A    between atoms: N_12  and  N_16 
REMARK    5  A    between atoms: C_22  and  N_15 
ROOT
ATOM      1  C   UNL d   1       0.990  -2.004  -0.240  0.00  0.00     0.185 C 
ENDROOT
BRANCH   1   2
ATOM      2  C   UNL d   1       0.201  -1.292   0.781  0.00  0.00     0.157 A 
ATOM      3  N   UNL d   1       0.579  -0.683   1.880  0.00  0.00    -0.321 N 
ATOM      4  C   UNL d   1      -0.629  -0.349   2.473  0.00  0.00     0.156 A 
ATOM      5  HN  UNL d   1       1.525  -0.501   2.214  1.00  0.00     0.169 HD
ATOM      6  N   UNL d   1      -1.697  -0.649   1.712  0.00  0.00    -0.241 N 
ATOM      7  O   UNL d   1      -1.149  -1.278   0.598  0.00  0.00    -0.222 OA
ATOM      8  HN  UNL d   1      -2.680  -0.459   1.906  1.00  0.00     0.196 HD
BRANCH   4   9
ATOM      9  C   UNL d   1      -0.714   0.183   3.828  0.00  0.00     0.094 A 
ATOM     10  N   UNL d   1       0.460   0.461   4.462  0.00  0.00    -0.360 N 
ATOM     11  C   UNL d   1       0.355   0.836   5.758  0.00  0.00     0.105 A 
ATOM     12  HN  UNL d   1       1.361   0.390   3.990  1.00  0.00     0.165 HD
ATOM     13  C   UNL d   1      -0.863   0.943   6.406  0.00  0.00     0.104 A 
ATOM     14  N   UNL d   1      -2.037   0.697   5.782  0.00  0.00    -0.372 N 
ATOM     15  C   UNL d   1      -1.935   0.314   4.483  0.00  0.00     0.121 A 
ATOM     16  HN  UNL d   1      -2.936   0.792   6.254  1.00  0.00     0.164 HD
ENDBRANCH   4   9
ENDBRANCH   1   2
BRANCH   1  17
ATOM     17  C   UNL d   1       2.467  -2.062   0.081  0.00  0.00     0.223 C 
ATOM     18  N   UNL d   1       3.068  -0.909   0.582  0.00  0.00    -0.170 NA
ATOM     19  H   UNL d   1       2.499  -0.372   1.243  0.00  0.00     0.156 HD
ATOM     20  O   UNL d   1       3.126  -3.073  -0.177  0.00  0.00    -0.278 OA
BRANCH  18  21
ATOM     21  N   UNL d   1       4.413  -1.097   0.984  0.00  0.00    -0.266 N 
ATOM     22  C   UNL d   1       5.423  -0.192   0.747  0.00  0.00     0.335 C 
ATOM     23  N   UNL d   1       5.011   1.097   0.528  0.00  0.00    -0.308 N 
ATOM     24  O   UNL d   1       6.585  -0.592   0.800  0.00  0.00    -0.246 OA
ATOM     25  H   UNL d   1       4.013   1.232   0.558  0.00  0.00     0.170 HD
ATOM     26  H   UNL d   1       4.734  -2.067   0.983  0.00  0.00     0.186 HD
BRANCH  23  27
ATOM     27  C   UNL d   1       5.829   2.244   0.408  0.00  0.00     0.036 A 
ATOM     28  C   UNL d   1       7.223   2.196   0.306  0.00  0.00     0.029 A 
ATOM     29  C   UNL d   1       7.978   3.373   0.260  0.00  0.00     0.002 A 
ATOM     30  C   UNL d   1       7.347   4.612   0.312  0.00  0.00     0.000 A 
ATOM     31  C   UNL d   1       5.957   4.674   0.387  0.00  0.00     0.002 A 
ATOM     32  C   UNL d   1       5.203   3.496   0.425  0.00  0.00     0.029 A 
ENDBRANCH  23  27
ENDBRANCH  18  21
ENDBRANCH   1  17
TORSDOF 5
