REMARK  5 active torsions:
REMARK  status: ('A' for Active; 'I' for Inactive)
REMARK    1  A    between atoms: C_3  and  N_1 
REMARK    2  A    between atoms: C_2  and  C_9 
REMARK    3  A    between atoms: C_5  and  C_2 
REMARK    4  A    between atoms: N_4  and  C_5 
REMARK    5  A    between atoms: O_15  and  N_7 
ROOT
ATOM      1  C   UNL d   1      -1.682   4.657  -0.532  0.00  0.00     0.070 C 
ATOM      2  N   UNL d   1      -1.615   4.021  -1.673  0.00  0.00    -0.271 N 
ATOM      3  HN  UNL d   1      -0.735   3.771  -2.125  1.00  0.00     0.194 HD
ENDROOT
BRANCH   1   4
ATOM      4  C   UNL d   1      -0.356   5.076   0.077  0.00  0.00    -0.010 A 
ATOM      5  C   UNL d   1      -0.238   5.674   1.339  0.00  0.00     0.016 A 
ATOM      6  C   UNL d   1       1.023   5.873   1.922  0.00  0.00     0.037 A 
ATOM      7  C   UNL d   1       2.179   5.526   1.215  0.00  0.00     0.102 A 
ATOM      8  C   UNL d   1       2.086   5.034  -0.088  0.00  0.00     0.037 A 
ATOM      9  C   UNL d   1       0.821   4.808  -0.644  0.00  0.00     0.016 A 
BRANCH   7  10
ATOM     10  N   UNL d   1       3.493   5.643   1.859  0.00  0.00    -0.116 N 
ATOM     11  O   UNL d   1       4.498   5.447   1.161  0.00  0.00    -0.532 OA
ATOM     12  O   UNL d   1       3.517   5.913   3.068  0.00  0.00    -0.532 OA
ENDBRANCH   7  10
ENDBRANCH   1   4
BRANCH   1  13
ATOM     13  C   UNL d   1      -3.007   5.009   0.175  0.00  0.00     0.332 C 
BRANCH  13  14
ATOM     14  N   UNL d   1      -3.534   3.986   1.112  0.00  0.00     0.094 N 
ATOM     15  C   UNL d   1      -2.749   3.811   2.331  0.00  0.00     0.273 C 
ATOM     16  C   UNL d   1      -3.415   2.865   3.330  0.00  0.00     0.030 C 
ATOM     17  C   UNL d   1      -3.739   1.526   2.685  0.00  0.00     0.003 C 
ATOM     18  C   UNL d   1      -4.567   1.751   1.427  0.00  0.00     0.030 C 
ATOM     19  C   UNL d   1      -3.864   2.713   0.463  0.00  0.00     0.273 C 
ENDBRANCH  13  14
ENDBRANCH   1  13
BRANCH   2  20
ATOM     20  O   UNL d   1      -2.865   3.717  -2.208  0.00  0.00    -0.290 OA
ATOM     21  H   UNL d   1      -2.632   3.209  -3.008  0.00  0.00     0.244 HD
ENDBRANCH   2  20
TORSDOF 5
