REMARK  4 active torsions:
REMARK  status: ('A' for Active; 'I' for Inactive)
REMARK    1  A    between atoms: C_10  and  C_1 
REMARK    2  A    between atoms: C_4  and  C_9 
REMARK       I    between atoms: C_7  and  N_8 
REMARK    3  A    between atoms: C_11  and  C_7 
REMARK    4  A    between atoms: N_8  and  C_10 
ROOT
ATOM      1  C   UNL d   1       5.410   1.797  -0.448  0.00  0.00     0.251 C 
ATOM      2  N   UNL d   1       4.064   1.549  -0.298  0.00  0.00    -0.352 N 
ATOM      3  O   UNL d   1       6.265   0.919  -0.460  0.00  0.00    -0.268 OA
ATOM      4  H   UNL d   1       3.389   2.285  -0.449  0.00  0.00     0.163 HD
ENDROOT
BRANCH   2   5
ATOM      5  C   UNL d   1       3.569   0.206  -0.098  0.00  0.00     0.169 C 
BRANCH   5   6
ATOM      6  C   UNL d   1       2.079   0.258   0.079  0.00  0.00     0.008 A 
ATOM      7  S   UNL d   1       1.446   0.535   1.644  0.00  0.00    -0.092 SA
ATOM      8  C   UNL d   1      -0.179   0.390   1.115  0.00  0.00     0.016 A 
ATOM      9  C   UNL d   1      -1.340   0.486   1.909  0.00  0.00     0.019 A 
ATOM     10  C   UNL d   1      -0.246   0.147  -0.257  0.00  0.00    -0.012 A 
ATOM     11  C   UNL d   1      -2.590   0.315   1.309  0.00  0.00     0.001 A 
ATOM     12  C   UNL d   1      -2.687   0.057  -0.049  0.00  0.00     0.001 A 
ATOM     13  C   UNL d   1      -1.532  -0.023  -0.834  0.00  0.00     0.013 A 
ATOM     14  C   UNL d   1       1.071   0.115  -0.866  0.00  0.00    -0.036 A 
ATOM     15  C   UNL d   1       1.275  -0.085  -2.335  0.00  0.00     0.050 C 
ENDBRANCH   5   6
ENDBRANCH   2   5
BRANCH   1  16
ATOM     16  C   UNL d   1       5.788   3.226  -0.631  0.00  0.00     0.032 A 
ATOM     17  C   UNL d   1       5.054   4.260  -0.036  0.00  0.00     0.018 A 
ATOM     18  C   UNL d   1       5.420   5.593  -0.247  0.00  0.00     0.017 A 
ATOM     19  C   UNL d   1       6.529   5.913  -1.044  0.00  0.00     0.048 A 
ATOM     20  C   UNL d   1       7.277   4.870  -1.615  0.00  0.00     0.017 A 
ATOM     21  C   UNL d   1       6.913   3.535  -1.405  0.00  0.00     0.018 A 
BRANCH  19  22
ATOM     22  C   UNL d   1       6.926   7.352  -1.283  0.00  0.00     0.417 C 
ATOM     23  F   UNL d   1       6.098   8.251  -0.679  0.00  0.00    -0.166 F 
ATOM     24  F   UNL d   1       8.177   7.632  -0.826  0.00  0.00    -0.166 F 
ATOM     25  F   UNL d   1       6.927   7.679  -2.605  0.00  0.00    -0.166 F 
ENDBRANCH  19  22
ENDBRANCH   1  16
TORSDOF 4
