REMARK  6 active torsions:
REMARK  status: ('A' for Active; 'I' for Inactive)
REMARK    1  A    between atoms: C_2  and  C_1 
REMARK    2  A    between atoms: C_5  and  C_19 
REMARK       I    between atoms: N_8  and  C_5 
REMARK    3  A    between atoms: S_11  and  C_6 
REMARK    4  A    between atoms: C_20  and  N_8 
REMARK    5  A    between atoms: C_9  and  C_10 
REMARK    6  A    between atoms: C_19  and  S_11 
ROOT
ATOM      1  C   UNL d   1      -2.371   6.638  -6.808  0.00  0.00     0.231 C 
ATOM      2  N   UNL d   1      -1.244   6.020  -6.286  0.00  0.00    -0.327 N 
ATOM      3  O   UNL d   1      -2.843   7.710  -6.426  0.00  0.00    -0.272 OA
ATOM      4  H   UNL d   1      -0.956   5.160  -6.735  0.00  0.00     0.169 HD
ENDROOT
BRANCH   1   5
ATOM      5  C   UNL d   1      -2.975   5.953  -8.020  0.00  0.00     0.184 C 
BRANCH   5   6
ATOM      6  S   UNL d   1      -3.243   4.172  -7.755  0.00  0.00    -0.103 SA
BRANCH   6   7
ATOM      7  C   UNL d   1      -4.010   3.763  -9.315  0.00  0.00     0.070 A 
ATOM      8  C   UNL d   1      -4.418   2.459  -9.561  0.00  0.00     0.038 A 
ATOM      9  C   UNL d   1      -4.945   2.146 -10.816  0.00  0.00     0.020 A 
ATOM     10  C   UNL d   1      -5.056   3.142 -11.791  0.00  0.00     0.063 A 
ATOM     11  C   UNL d   1      -4.657   4.420 -11.440  0.00  0.00     0.105 A 
ATOM     12  N   UNL d   1      -4.135   4.744 -10.235  0.00  0.00    -0.360 N 
ATOM     13  HN  UNL d   1      -3.845   5.700 -10.028  1.00  0.00     0.166 HD
BRANCH  10  14
ATOM     14  C   UNL d   1      -5.551   2.848 -13.173  0.00  0.00     0.418 C 
ATOM     15  F   UNL d   1      -5.576   3.938 -13.988  0.00  0.00    -0.166 F 
ATOM     16  F   UNL d   1      -6.815   2.343 -13.184  0.00  0.00    -0.166 F 
ATOM     17  F   UNL d   1      -4.776   1.927 -13.812  0.00  0.00    -0.166 F 
ENDBRANCH  10  14
ENDBRANCH   6   7
ENDBRANCH   5   6
ENDBRANCH   1   5
BRANCH   2  18
ATOM     18  C   UNL d   1      -0.507   6.423  -5.150  0.00  0.00     0.034 A 
ATOM     19  C   UNL d   1      -0.854   7.508  -4.351  0.00  0.00     0.030 A 
ATOM     20  C   UNL d   1      -0.123   7.814  -3.197  0.00  0.00     0.010 A 
ATOM     21  C   UNL d   1       0.985   7.050  -2.796  0.00  0.00    -0.051 A 
ATOM     22  C   UNL d   1       1.354   5.984  -3.631  0.00  0.00     0.010 A 
ATOM     23  C   UNL d   1       0.616   5.673  -4.787  0.00  0.00     0.030 A 
BRANCH  21  24
ATOM     24  C   UNL d   1       1.696   7.380  -1.472  0.00  0.00    -0.024 C 
ATOM     25  C   UNL d   1       2.891   6.455  -1.156  0.00  0.00     0.019 C 
ATOM     26  C   UNL d   1       2.231   8.828  -1.497  0.00  0.00     0.019 C 
ATOM     27  C   UNL d   1       0.687   7.237  -0.309  0.00  0.00     0.019 C 
ENDBRANCH  21  24
ENDBRANCH   2  18
TORSDOF 6
