REMARK  5 active torsions:
REMARK  status: ('A' for Active; 'I' for Inactive)
REMARK    1  A    between atoms: C_2  and  C_1 
REMARK    2  A    between atoms: S_8  and  C_2 
REMARK    3  A    between atoms: C_4  and  C_6 
REMARK    4  A    between atoms: C_12  and  C_5 
REMARK    5  A    between atoms: C_11  and  S_8 
ROOT
ATOM      1  C   UNL d   1      -0.371  -0.937  -0.136  0.00  0.00     0.134 A 
ATOM      2  O   UNL d   1       0.911  -0.447  -0.224  0.00  0.00    -0.297 OA
ATOM      3  C   UNL d   1       0.829   0.905  -0.153  0.00  0.00     0.129 A 
ATOM      4  C   UNL d   1      -1.251   0.130  -0.033  0.00  0.00     0.045 A 
ATOM      5  C   UNL d   1      -0.475   1.313  -0.033  0.00  0.00     0.049 A 
ENDROOT
BRANCH   1   6
ATOM      6  C   UNL d   1      -0.641  -2.363  -0.153  0.00  0.00     0.247 C 
ATOM      7  O   UNL d   1      -1.774  -2.833  -0.190  0.00  0.00    -0.277 OA
BRANCH   6   8
ATOM      8  S   UNL d   1       0.804  -3.365  -0.045  0.00  0.00    -0.046 SA
BRANCH   8   9
ATOM      9  C   UNL d   1       0.323  -5.036  -0.437  0.00  0.00     0.008 A 
ATOM     10  C   UNL d   1      -0.738  -5.382  -1.280  0.00  0.00     0.021 A 
ATOM     11  C   UNL d   1      -0.999  -6.723  -1.593  0.00  0.00     0.025 A 
ATOM     12  C   UNL d   1      -0.182  -7.728  -1.083  0.00  0.00     0.034 A 
ATOM     13  C   UNL d   1       0.888  -7.405  -0.255  0.00  0.00     0.025 A 
ATOM     14 CL   UNL d   1      -0.486  -9.370  -1.492  0.00  0.00    -0.084 Cl
ATOM     15  C   UNL d   1       1.134  -6.066   0.068  0.00  0.00     0.021 A 
ENDBRANCH   8   9
ENDBRANCH   6   8
ENDBRANCH   1   6
BRANCH   3  16
ATOM     16  C   UNL d   1       2.037   1.640  -0.185  0.00  0.00    -0.036 C 
ATOM     17  C   UNL d   1       3.043   2.297  -0.188  0.00  0.00    -0.059 C 
BRANCH  17  18
ATOM     18  C   UNL d   1       4.225   3.102  -0.175  0.00  0.00     0.018 A 
ATOM     19  C   UNL d   1       4.124   4.492  -0.064  0.00  0.00     0.020 A 
ATOM     20  C   UNL d   1       5.279   5.279  -0.046  0.00  0.00     0.001 A 
ATOM     21  C   UNL d   1       6.534   4.678  -0.140  0.00  0.00     0.000 A 
ATOM     22  C   UNL d   1       6.638   3.292  -0.249  0.00  0.00     0.001 A 
ATOM     23  C   UNL d   1       5.484   2.502  -0.267  0.00  0.00     0.020 A 
ENDBRANCH  17  18
ENDBRANCH   3  16
TORSDOF 5
