REMARK  4 active torsions:
REMARK  status: ('A' for Active; 'I' for Inactive)
REMARK    1  A    between atoms: N_3  and  C_1 
REMARK    2  A    between atoms: N_4  and  C_1 
REMARK    3  A    between atoms: C_2  and  N_3 
REMARK    4  A    between atoms: C_6  and  N_4 
ROOT
ATOM      1  C   UNL d   1       1.159   1.437  -0.271  0.00  0.00     0.172 C 
ATOM      2  S   UNL d   1       2.756   0.950  -0.319  0.00  0.00    -0.041 SA
ENDROOT
BRANCH   1   3
ATOM      3  N   UNL d   1       0.534   2.342  -1.095  0.00  0.00    -0.332 N 
ATOM      4  H   UNL d   1       0.120   3.080  -0.547  0.00  0.00     0.168 HD
BRANCH   3   5
ATOM      5  C   UNL d   1       0.824   2.670  -2.446  0.00  0.00     0.046 C 
ATOM      6  C   UNL d   1       1.099   1.667  -3.412  0.00  0.00    -0.035 C 
ATOM      7  C   UNL d   1       1.446   2.045  -4.721  0.00  0.00     0.009 C 
ATOM      8  C   UNL d   1       0.954   0.188  -3.171  0.00  0.00     0.050 C 
ATOM      9  C   UNL d   1       1.441   3.374  -5.112  0.00  0.00     0.001 C 
ATOM     10  C   UNL d   1       1.062   4.350  -4.200  0.00  0.00     0.009 C 
ATOM     11  C   UNL d   1       0.727   4.017  -2.871  0.00  0.00    -0.035 C 
ATOM     12  C   UNL d   1       0.318   5.179  -2.001  0.00  0.00     0.050 C 
ENDBRANCH   3   5
ENDBRANCH   1   3
BRANCH   1  13
ATOM     13  N   UNL d   1       0.374   0.953   0.748  0.00  0.00    -0.362 N 
ATOM     14  H   UNL d   1       0.866   0.334   1.381  0.00  0.00     0.162 HD
BRANCH  13  15
ATOM     15  C   UNL d   1      -1.092   0.915   0.769  0.00  0.00     0.085 C 
ATOM     16  C   UNL d   1      -1.671   2.174   1.428  0.00  0.00     0.034 C 
ATOM     17  C   UNL d   1      -3.214   2.160   1.512  0.00  0.00    -0.045 C 
ATOM     18  C   UNL d   1      -3.675   3.375   2.339  0.00  0.00     0.015 C 
ATOM     19  C   UNL d   1      -3.840   2.282   0.108  0.00  0.00     0.015 C 
ATOM     20  C   UNL d   1      -3.684   0.863   2.209  0.00  0.00     0.013 C 
ATOM     21  C   UNL d   1      -3.118  -0.409   1.558  0.00  0.00    -0.016 C 
ATOM     22  C   UNL d   1      -1.584  -0.348   1.498  0.00  0.00     0.029 C 
ATOM     23  C   UNL d   1      -3.593  -1.653   2.311  0.00  0.00     0.010 C 
ENDBRANCH  13  15
ENDBRANCH   1  13
TORSDOF 4
