REMARK  8 active torsions:
REMARK  status: ('A' for Active; 'I' for Inactive)
REMARK       I    between atoms: N_4  and  C_1 
REMARK       I    between atoms: N_5  and  C_1 
REMARK    1  A    between atoms: C_2  and  O_7 
REMARK    2  A    between atoms: C_3  and  O_6 
REMARK    3  A    between atoms: C_16  and  N_4 
REMARK    4  A    between atoms: C_17  and  N_5 
REMARK    5  A    between atoms: O_6  and  C_18 
REMARK    6  A    between atoms: O_7  and  C_19 
REMARK    7  A    between atoms: O_9  and  C_21 
REMARK    8  A    between atoms: C_20  and  O_9 
ROOT
ATOM      1  C   UNL d   1      -1.262  -0.307  -1.114  0.00  0.00     0.036 A 
ATOM      2  C   UNL d   1      -4.073  -0.268  -1.184  0.00  0.00     0.076 A 
ATOM      3  C   UNL d   1      -1.972   0.829  -0.714  0.00  0.00     0.032 A 
ATOM      4  C   UNL d   1      -1.974  -1.395  -1.629  0.00  0.00     0.032 A 
ATOM      5  C   UNL d   1      -3.368   0.857  -0.761  0.00  0.00     0.039 A 
ATOM      6  C   UNL d   1      -3.375  -1.376  -1.664  0.00  0.00     0.039 A 
ENDROOT
BRANCH   1   7
ATOM      7  N   UNL d   1       0.147  -0.406  -1.040  0.00  0.00    -0.309 N 
ATOM      8  C   UNL d   1       0.984   0.444  -0.329  0.00  0.00     0.325 C 
ATOM      9  N   UNL d   1       2.315   0.185  -0.596  0.00  0.00    -0.309 N 
ATOM     10  O   UNL d   1       0.585   1.322   0.431  0.00  0.00    -0.247 OA
ATOM     11  H   UNL d   1       2.508  -0.507  -1.303  0.00  0.00     0.170 HD
ATOM     12  H   UNL d   1       0.555  -1.265  -1.376  0.00  0.00     0.170 HD
BRANCH   9  13
ATOM     13  C   UNL d   1       3.434   0.888  -0.088  0.00  0.00     0.036 A 
ATOM     14  C   UNL d   1       3.355   1.907   0.865  0.00  0.00     0.032 A 
ATOM     15  C   UNL d   1       4.504   2.576   1.310  0.00  0.00     0.039 A 
ATOM     16  C   UNL d   1       5.757   2.212   0.829  0.00  0.00     0.078 A 
ATOM     17  C   UNL d   1       5.841   1.207  -0.137  0.00  0.00     0.039 A 
ATOM     18  C   UNL d   1       4.692   0.545  -0.588  0.00  0.00     0.032 A 
BRANCH  16  19
ATOM     19  O   UNL d   1       6.957   2.736   1.207  0.00  0.00    -0.255 OA
BRANCH  19  20
ATOM     20  C   UNL d   1       7.002   3.535   2.378  0.00  0.00     0.530 C 
ATOM     21  F   UNL d   1       6.264   3.016   3.383  0.00  0.00    -0.144 F 
ATOM     22  F   UNL d   1       8.285   3.599   2.802  0.00  0.00    -0.144 F 
ATOM     23  F   UNL d   1       6.582   4.790   2.112  0.00  0.00    -0.144 F 
ENDBRANCH  19  20
ENDBRANCH  16  19
ENDBRANCH   9  13
ENDBRANCH   1   7
BRANCH   2  24
ATOM     24  O   UNL d   1      -5.448  -0.342  -1.207  0.00  0.00    -0.311 OA
BRANCH  24  25
ATOM     25  C   UNL d   1      -6.157   0.240  -0.179  0.00  0.00     0.076 A 
ATOM     26  C   UNL d   1      -7.361   0.848  -0.523  0.00  0.00     0.040 A 
ATOM     27  C   UNL d   1      -8.122   1.487   0.458  0.00  0.00     0.040 A 
ATOM     28  C   UNL d   1      -7.686   1.531   1.784  0.00  0.00     0.078 A 
ATOM     29  C   UNL d   1      -6.521   0.852   2.143  0.00  0.00     0.040 A 
ATOM     30  C   UNL d   1      -5.761   0.201   1.162  0.00  0.00     0.040 A 
BRANCH  28  31
ATOM     31  O   UNL d   1      -8.486   2.256   2.619  0.00  0.00    -0.255 OA
BRANCH  31  32
ATOM     32  C   UNL d   1      -7.923   2.729   3.831  0.00  0.00     0.530 C 
ATOM     33  F   UNL d   1      -6.646   3.142   3.683  0.00  0.00    -0.144 F 
ATOM     34  F   UNL d   1      -8.652   3.787   4.257  0.00  0.00    -0.144 F 
ATOM     35  F   UNL d   1      -7.977   1.770   4.779  0.00  0.00    -0.144 F 
ENDBRANCH  31  32
ENDBRANCH  28  31
ENDBRANCH  24  25
ENDBRANCH   2  24
TORSDOF 8
