REMARK  0 active torsions:
REMARK  status: ('A' for Active; 'I' for Inactive)
ROOT
ATOM      1  C   UNL d   1       0.737   0.754   1.121  0.00  0.00     0.019 C 
ATOM      2  C   UNL d   1      -1.513   0.283   0.105  0.00  0.00    -0.012 C 
ATOM      3  C   UNL d   1       0.258  -1.514   0.150  0.00  0.00    -0.012 C 
ATOM      4  C   UNL d   1       0.526   0.484  -1.369  0.00  0.00    -0.012 C 
ATOM      5  C   UNL d   1      -0.771   1.035   1.225  0.00  0.00     0.025 C 
ATOM      6  C   UNL d   1       0.993  -0.755   1.270  0.00  0.00     0.025 C 
ATOM      7  C   UNL d   1       1.259   1.235  -0.242  0.00  0.00     0.025 C 
ATOM      8  C   UNL d   1      -1.251  -1.227   0.250  0.00  0.00     0.009 C 
ATOM      9  C   UNL d   1      -0.985   0.759  -1.260  0.00  0.00     0.009 C 
ATOM     10  C   UNL d   1       0.776  -1.027  -1.215  0.00  0.00     0.009 C 
ATOM     11 BR   UNL d   1       1.671   1.710   2.544  0.00  0.00    -0.086 Br
ENDROOT
TORSDOF 0
