REMARK  2 active torsions:
REMARK  status: ('A' for Active; 'I' for Inactive)
REMARK    1  A    between atoms: C_7  and  C_2 
REMARK    2  A    between atoms: S_8  and  C_3 
ROOT
ATOM      1  N   UNL d   1       0.988  -0.662  -0.045  0.00  0.00    -0.330 N 
ATOM      2  C   UNL d   1      -0.307  -1.150   0.072  0.00  0.00     0.061 A 
ATOM      3  C   UNL d   1       0.914   0.711   0.009  0.00  0.00     0.143 A 
ATOM      4  N   UNL d   1      -0.321   1.132   0.101  0.00  0.00    -0.345 N 
ATOM      5  HN  UNL d   1      -0.645   2.098   0.138  1.00  0.00     0.167 HD
ATOM      6  C   UNL d   1      -1.083  -0.002   0.135  0.00  0.00     0.120 A 
ATOM      7  C   UNL d   1       2.187  -1.440  -0.251  0.00  0.00     0.158 C 
ENDROOT
BRANCH   2   8
ATOM      8  C   UNL d   1      -0.742  -2.550   0.080  0.00  0.00    -0.008 A 
ATOM      9  C   UNL d   1      -0.075  -3.528   0.831  0.00  0.00     0.015 A 
ATOM     10  C   UNL d   1      -0.514  -4.857   0.824  0.00  0.00     0.024 A 
ATOM     11  C   UNL d   1      -1.641  -5.212   0.087  0.00  0.00     0.034 A 
ATOM     12  C   UNL d   1      -2.333  -4.250  -0.641  0.00  0.00     0.024 A 
ATOM     13 CL   UNL d   1      -2.183  -6.844   0.083  0.00  0.00    -0.084 Cl
ATOM     14  C   UNL d   1      -1.883  -2.926  -0.645  0.00  0.00     0.015 A 
ENDBRANCH   2   8
BRANCH   3  15
ATOM     15  S   UNL d   1       2.277   1.782  -0.048  0.00  0.00    -0.107 SA
ATOM     16  H   UNL d   1       3.272   0.916   0.176  0.00  0.00     0.110 HD
ENDBRANCH   3  15
TORSDOF 2
