REMARK  5 active torsions:
REMARK  status: ('A' for Active; 'I' for Inactive)
REMARK    1  A    between atoms: S_8  and  C_1 
REMARK    2  A    between atoms: C_7  and  C_9 
REMARK    3  A    between atoms: C_18  and  S_8 
REMARK    4  A    between atoms: C_10  and  C_18 
REMARK       I    between atoms: N_11  and  C_10 
REMARK    5  A    between atoms: C_13  and  N_11 
ROOT
ATOM      1  C   UNL d   1      -2.574  -4.387   0.049  0.00  0.00     0.231 C 
ATOM      2  N   UNL d   1      -1.582  -5.351  -0.016  0.00  0.00    -0.327 N 
ATOM      3  O   UNL d   1      -2.381  -3.180   0.201  0.00  0.00    -0.272 OA
ATOM      4  H   UNL d   1      -1.881  -6.301  -0.209  0.00  0.00     0.169 HD
ENDROOT
BRANCH   2   5
ATOM      5  C   UNL d   1      -0.188  -5.120   0.052  0.00  0.00     0.035 A 
ATOM      6  C   UNL d   1       0.371  -3.883   0.386  0.00  0.00     0.045 A 
ATOM      7  C   UNL d   1       1.758  -3.667   0.342  0.00  0.00     0.050 A 
ATOM      8  C   UNL d   1       2.597  -4.728  -0.021  0.00  0.00     0.016 A 
ATOM      9  C   UNL d   1       2.056  -5.979  -0.313  0.00  0.00     0.003 A 
ATOM     10  C   UNL d   1       0.672  -6.177  -0.271  0.00  0.00     0.029 A 
BRANCH   7  11
ATOM     11  C   UNL d   1       2.334  -2.304   0.644  0.00  0.00     0.417 C 
ATOM     12  F   UNL d   1       1.414  -1.400   1.085  0.00  0.00    -0.166 F 
ATOM     13  F   UNL d   1       3.297  -2.349   1.606  0.00  0.00    -0.166 F 
ATOM     14  F   UNL d   1       2.921  -1.738  -0.445  0.00  0.00    -0.166 F 
ENDBRANCH   7  11
ENDBRANCH   2   5
BRANCH   1  15
ATOM     15  C   UNL d   1      -3.985  -4.862  -0.240  0.00  0.00     0.185 C 
BRANCH  15  16
ATOM     16  S   UNL d   1      -4.417  -6.451   0.525  0.00  0.00    -0.082 SA
BRANCH  16  17
ATOM     17  C   UNL d   1      -6.103  -6.470   0.127  0.00  0.00     0.172 A 
ATOM     18  N   UNL d   1      -7.008  -7.389   0.572  0.00  0.00    -0.260 N 
ATOM     19  N   UNL d   1      -8.219  -7.103   0.057  0.00  0.00    -0.005 NA
ATOM     20  C   UNL d   1      -6.847  -8.536   1.414  0.00  0.00     0.177 C 
ATOM     21  N   UNL d   1      -8.040  -6.012  -0.678  0.00  0.00    -0.007 NA
ATOM     22  N   UNL d   1      -6.727  -5.611  -0.646  0.00  0.00    -0.265 N 
ATOM     23  HN  UNL d   1      -6.320  -4.808  -1.126  1.00  0.00     0.186 HD
ENDBRANCH  16  17
ENDBRANCH  15  16
ENDBRANCH   1  15
TORSDOF 5
