REMARK  5 active torsions:
REMARK  status: ('A' for Active; 'I' for Inactive)
REMARK    1  A    between atoms: C_5  and  C_1 
REMARK    2  A    between atoms: C_13  and  C_2 
REMARK    3  A    between atoms: C_7  and  N_9 
REMARK       I    between atoms: N_9  and  C_10 
REMARK    4  A    between atoms: C_10  and  O_19 
REMARK    5  A    between atoms: O_19  and  N_11 
ROOT
ATOM      1  N   UNL d   1       1.405  -2.898  -1.017  0.00  0.00    -0.266 N 
ATOM      2  HN  UNL d   1       1.773  -2.368  -1.808  1.00  0.00     0.194 HD
ATOM      3  C   UNL d   1       0.426  -2.544  -0.246  0.00  0.00     0.131 C 
ENDROOT
BRANCH   3   4
ATOM      4  C   UNL d   1      -0.209  -1.261  -0.408  0.00  0.00     0.042 A 
ATOM      5  C   UNL d   1      -1.596  -0.910  -0.284  0.00  0.00     0.082 A 
ATOM      6  N   UNL d   1      -1.754   0.408  -0.491  0.00  0.00    -0.259 N 
ATOM      7  O   UNL d   1      -0.506   0.926  -0.726  0.00  0.00    -0.241 OA
ATOM      8  HN  UNL d   1      -2.634   0.924  -0.476  1.00  0.00     0.195 HD
ATOM      9  C   UNL d   1       0.417  -0.067  -0.699  0.00  0.00     0.086 A 
ATOM     10  C   UNL d   1       1.806   0.366  -0.940  0.00  0.00     0.080 C 
BRANCH   5  11
ATOM     11  C   UNL d   1      -2.780  -1.752  -0.058  0.00  0.00     0.037 A 
ATOM     12  C   UNL d   1      -3.747  -1.411   0.916  0.00  0.00     0.048 A 
ATOM     13 CL   UNL d   1      -3.558  -0.089   2.023  0.00  0.00    -0.083 Cl
ATOM     14  C   UNL d   1      -4.928  -2.158   1.058  0.00  0.00     0.025 A 
ATOM     15  C   UNL d   1      -5.157  -3.274   0.262  0.00  0.00     0.003 A 
ATOM     16  C   UNL d   1      -4.210  -3.639  -0.688  0.00  0.00     0.025 A 
ATOM     17  C   UNL d   1      -3.045  -2.878  -0.864  0.00  0.00     0.048 A 
ATOM     18 CL   UNL d   1      -2.019  -3.380  -2.168  0.00  0.00    -0.083 Cl
ENDBRANCH   5  11
ENDBRANCH   3   4
BRANCH   1  19
ATOM     19  O   UNL d   1       1.871  -4.154  -0.561  0.00  0.00    -0.181 OA
BRANCH  19  20
ATOM     20  C   UNL d   1       2.326  -4.997  -1.562  0.00  0.00     0.387 C 
ATOM     21  N   UNL d   1       2.123  -4.537  -2.845  0.00  0.00    -0.298 N 
ATOM     22  H   UNL d   1       2.073  -3.523  -2.891  0.00  0.00     0.171 HD
ATOM     23  O   UNL d   1       2.888  -6.043  -1.264  0.00  0.00    -0.236 OA
BRANCH  21  24
ATOM     24  C   UNL d   1       2.407  -5.272  -4.026  0.00  0.00     0.080 A 
ATOM     25  C   UNL d   1       2.095  -6.638  -4.195  0.00  0.00     0.062 A 
ATOM     26 CL   UNL d   1       1.112  -7.535  -3.083  0.00  0.00    -0.082 Cl
ATOM     27  C   UNL d   1       2.426  -7.309  -5.384  0.00  0.00     0.026 A 
ATOM     28  C   UNL d   1       3.038  -6.630  -6.434  0.00  0.00     0.003 A 
ATOM     29  C   UNL d   1       3.303  -5.270  -6.308  0.00  0.00     0.026 A 
ATOM     30  C   UNL d   1       2.981  -4.596  -5.120  0.00  0.00     0.062 A 
ATOM     31 CL   UNL d   1       3.351  -2.906  -5.034  0.00  0.00    -0.082 Cl
ENDBRANCH  21  24
ENDBRANCH  19  20
ENDBRANCH   1  19
TORSDOF 5
