REMARK  4 active torsions:
REMARK  status: ('A' for Active; 'I' for Inactive)
REMARK    1  A    between atoms: C_7  and  C_1 
REMARK    2  A    between atoms: C_9  and  C_3 
REMARK    3  A    between atoms: O_11  and  C_7 
REMARK    4  A    between atoms: C_15  and  O_11 
ROOT
ATOM      1  C   UNL d   1       1.428   1.005   0.062  0.00  0.00     0.066 C 
ATOM      2  C   UNL d   1       1.331  -0.346   0.074  0.00  0.00     0.024 C 
ATOM      3  C   UNL d   1       0.196   1.875  -0.072  0.00  0.00     0.161 C 
ATOM      4  C   UNL d   1      -1.107  -0.238   0.017  0.00  0.00     0.321 C 
ATOM      5  N   UNL d   1       0.073  -0.910   0.020  0.00  0.00    -0.312 N 
ATOM      6  N   UNL d   1      -1.024   1.109   0.087  0.00  0.00    -0.330 N 
ATOM      7  O   UNL d   1      -2.182  -0.818  -0.022  0.00  0.00    -0.247 OA
ATOM      8  C   UNL d   1       2.417  -1.389   0.055  0.00  0.00     0.069 C 
ATOM      9  H   UNL d   1      -0.030  -1.918  -0.021  0.00  0.00     0.170 HD
ATOM     10  H   UNL d   1      -1.909   1.594   0.071  0.00  0.00     0.165 HD
ENDROOT
BRANCH   3  11
ATOM     11  C   UNL d   1       0.096   3.077   0.856  0.00  0.00    -0.031 A 
ATOM     12  C   UNL d   1      -0.070   4.364   0.314  0.00  0.00     0.009 A 
ATOM     13  C   UNL d   1      -0.277   5.468   1.143  0.00  0.00     0.001 A 
ATOM     14  C   UNL d   1      -0.320   5.302   2.525  0.00  0.00     0.000 A 
ATOM     15  C   UNL d   1      -0.146   4.035   3.079  0.00  0.00     0.001 A 
ATOM     16  C   UNL d   1       0.060   2.927   2.252  0.00  0.00     0.009 A 
ENDBRANCH   3  11
BRANCH   1  17
ATOM     17  C   UNL d   1       2.705   1.756  -0.075  0.00  0.00     0.293 C 
ATOM     18  O   UNL d   1       2.792   2.798  -0.706  0.00  0.00    -0.259 OA
BRANCH  17  19
ATOM     19  O   UNL d   1       3.740   1.109   0.507  0.00  0.00    -0.318 OA
BRANCH  19  20
ATOM     20  C   UNL d   1       5.048   1.498   0.056  0.00  0.00     0.174 C 
ATOM     21  C   UNL d   1       5.316   0.914  -1.324  0.00  0.00     0.034 C 
ENDBRANCH  19  20
ENDBRANCH  17  19
ENDBRANCH   1  17
TORSDOF 4
