REMARK  5 active torsions:
REMARK  status: ('A' for Active; 'I' for Inactive)
REMARK    1  A    between atoms: N_2  and  C_1 
REMARK    2  A    between atoms: N_4  and  C_1 
REMARK    3  A    between atoms: C_3  and  N_2 
REMARK    4  A    between atoms: C_8  and  N_4 
REMARK    5  A    between atoms: C_9  and  N_4 
ROOT
ATOM      1  C   UNL d   1       1.245   0.082   0.021  0.00  0.00     0.179 C 
ATOM      2  S   UNL d   1       2.930   0.079   0.002  0.00  0.00    -0.040 SA
ENDROOT
BRANCH   1   3
ATOM      3  N   UNL d   1       0.450  -0.986   0.436  0.00  0.00    -0.332 N 
ATOM      4  H   UNL d   1      -0.439  -0.732   0.842  0.00  0.00     0.168 HD
BRANCH   3   5
ATOM      5  C   UNL d   1       0.742  -2.373   0.511  0.00  0.00     0.046 A 
ATOM      6  C   UNL d   1       0.313  -3.080   1.660  0.00  0.00    -0.035 A 
ATOM      7  C   UNL d   1       0.413  -4.483   1.694  0.00  0.00     0.009 A 
ATOM      8  C   UNL d   1      -0.200  -2.425   2.917  0.00  0.00     0.050 C 
ATOM      9  C   UNL d   1       0.923  -5.185   0.611  0.00  0.00     0.001 A 
ATOM     10  C   UNL d   1       1.349  -4.493  -0.514  0.00  0.00     0.009 A 
ATOM     11  C   UNL d   1       1.254  -3.088  -0.593  0.00  0.00    -0.035 A 
ATOM     12  C   UNL d   1       1.622  -2.497  -1.927  0.00  0.00     0.050 C 
ENDBRANCH   3   5
ENDBRANCH   1   3
BRANCH   1  13
ATOM     13  N   UNL d   1       0.468   1.190  -0.416  0.00  0.00    -0.324 N 
BRANCH  13  14
ATOM     14  C   UNL d   1      -0.662   1.669   0.334  0.00  0.00     0.036 A 
ATOM     15  C   UNL d   1      -0.686   1.517   1.731  0.00  0.00     0.029 A 
ATOM     16  C   UNL d   1      -1.772   1.956   2.491  0.00  0.00     0.002 A 
ATOM     17  C   UNL d   1      -2.845   2.584   1.867  0.00  0.00     0.000 A 
ATOM     18  C   UNL d   1      -2.826   2.777   0.489  0.00  0.00     0.002 A 
ATOM     19  C   UNL d   1      -1.742   2.325  -0.273  0.00  0.00     0.029 A 
ENDBRANCH  13  14
BRANCH  13  20
ATOM     20  C   UNL d   1       0.781   1.812  -1.717  0.00  0.00     0.127 C 
ATOM     21  C   UNL d   1       1.158   3.285  -1.623  0.00  0.00     0.027 C 
ENDBRANCH  13  20
ENDBRANCH   1  13
TORSDOF 5
