REMARK  5 active torsions:
REMARK  status: ('A' for Active; 'I' for Inactive)
REMARK    1  A    between atoms: C_4  and  C_1 
REMARK       I    between atoms: N_6  and  C_4 
REMARK    2  A    between atoms: C_12  and  C_5 
REMARK    3  A    between atoms: C_11  and  C_9 
REMARK    4  A    between atoms: O_22  and  C_11 
REMARK    5  A    between atoms: C_27  and  O_22 
ROOT
ATOM      1  C   UNL d   1       2.566   1.140  -1.488  0.00  0.00     0.108 A 
ATOM      2  N   UNL d   1       1.882   1.615  -2.608  0.00  0.00    -0.345 N 
ATOM      3  HN  UNL d   1       1.209   2.382  -2.591  1.00  0.00     0.167 HD
ATOM      4  C   UNL d   1       2.219   0.944  -3.689  0.00  0.00     0.085 A 
ATOM      5  S   UNL d   1       3.316  -0.353  -3.413  0.00  0.00    -0.081 SA
ATOM      6  C   UNL d   1       3.350   0.030  -1.745  0.00  0.00     0.087 A 
ENDROOT
BRANCH   1   7
ATOM      7  C   UNL d   1       2.414   1.731  -0.146  0.00  0.00     0.270 C 
ATOM      8  N   UNL d   1       2.150   3.108  -0.043  0.00  0.00    -0.346 N 
ATOM      9  C   UNL d   1       2.088   4.020  -1.193  0.00  0.00     0.141 C 
ATOM     10  C   UNL d   1       1.603   3.605   1.215  0.00  0.00     0.126 C 
ATOM     11  C   UNL d   1       2.611   5.422  -0.878  0.00  0.00     0.103 C 
ATOM     12  C   UNL d   1       1.935   5.965   0.384  0.00  0.00     0.018 C 
ATOM     13  C   UNL d   1       2.099   5.005   1.558  0.00  0.00     0.021 C 
ATOM     14  O   UNL d   1       2.523   1.020   0.854  0.00  0.00    -0.266 OA
BRANCH  11  15
ATOM     15  C   UNL d   1       4.134   5.383  -0.820  0.00  0.00     0.264 C 
ATOM     16  O   UNL d   1       4.827   4.568  -1.415  0.00  0.00    -0.265 OA
BRANCH  15  17
ATOM     17  O   UNL d   1       4.632   6.424  -0.097  0.00  0.00    -0.322 OA
BRANCH  17  18
ATOM     18  C   UNL d   1       6.064   6.481  -0.012  0.00  0.00     0.174 C 
ATOM     19  C   UNL d   1       6.635   7.164  -1.240  0.00  0.00     0.034 C 
ENDBRANCH  17  18
ENDBRANCH  15  17
ENDBRANCH  11  15
ENDBRANCH   1   7
BRANCH   4  20
ATOM     20  C   UNL d   1       1.750   1.291  -5.039  0.00  0.00    -0.002 A 
ATOM     21  C   UNL d   1       1.511   0.317  -6.022  0.00  0.00     0.024 A 
ATOM     22  C   UNL d   1       1.052   0.723  -7.264  0.00  0.00    -0.022 A 
ATOM     23  C   UNL d   1       0.660  -0.095  -8.432  0.00  0.00     0.068 C 
ATOM     24  C   UNL d   1       0.819   2.059  -7.542  0.00  0.00     0.075 A 
ATOM     25  C   UNL d   1       0.547   1.015  -9.478  0.00  0.00     0.180 C 
ATOM     26  O   UNL d   1       0.344   2.283  -8.808  0.00  0.00    -0.350 OA
ATOM     27  C   UNL d   1       1.024   3.043  -6.602  0.00  0.00     0.038 A 
ATOM     28  C   UNL d   1       1.494   2.652  -5.344  0.00  0.00     0.017 A 
ENDBRANCH   4  20
TORSDOF 5
