REMARK  6 active torsions:
REMARK  status: ('A' for Active; 'I' for Inactive)
REMARK    1  A    between atoms: S_6  and  C_1 
REMARK    2  A    between atoms: C_3  and  S_6 
REMARK    3  A    between atoms: C_16  and  C_4 
REMARK    4  A    between atoms: C_18  and  C_9 
REMARK    5  A    between atoms: O_25  and  C_18 
REMARK    6  A    between atoms: C_30  and  O_25 
ROOT
ATOM      1  N   UNL d   1      -1.155   4.599  -1.593  0.00  0.00    -0.320 N 
ATOM      2  C   UNL d   1      -1.722   3.387  -1.320  0.00  0.00     0.167 A 
ATOM      3  C   UNL d   1      -1.686   5.014  -2.798  0.00  0.00     0.132 A 
ATOM      4  N   UNL d   1      -2.472   4.049  -3.242  0.00  0.00    -0.283 N 
ATOM      5  HN  UNL d   1      -2.981   4.058  -4.126  1.00  0.00     0.188 HD
ATOM      6  N   UNL d   1      -2.491   3.025  -2.314  0.00  0.00    -0.278 N 
ATOM      7  HN  UNL d   1      -3.010   2.150  -2.390  1.00  0.00     0.189 HD
ATOM      8  H   UNL d   1      -0.564   5.128  -0.974  0.00  0.00     0.169 HD
ENDROOT
BRANCH   2   9
ATOM      9  S   UNL d   1      -1.652   2.699   0.258  0.00  0.00    -0.034 SA
BRANCH   9  10
ATOM     10  C   UNL d   1      -0.861   1.126  -0.069  0.00  0.00     0.087 A 
ATOM     11  C   UNL d   1      -1.557  -0.072  -0.206  0.00  0.00     0.005 A 
ATOM     12  C   UNL d   1      -0.754  -1.204  -0.141  0.00  0.00     0.118 A 
ATOM     13  C   UNL d   1      -3.042  -0.165  -0.365  0.00  0.00     0.054 C 
ATOM     14  N   UNL d   1       0.598  -1.165  -0.047  0.00  0.00    -0.341 N 
ATOM     15  C   UNL d   1       1.167   0.035   0.002  0.00  0.00     0.078 A 
ATOM     16  HN  UNL d   1       1.154  -2.019  -0.016  1.00  0.00     0.167 HD
ATOM     17  N   UNL d   1       0.489   1.190   0.022  0.00  0.00    -0.340 N 
ATOM     18  C   UNL d   1       2.661   0.085   0.030  0.00  0.00     0.089 C 
ATOM     19  HN  UNL d   1       0.971   2.085   0.102  1.00  0.00     0.167 HD
BRANCH  12  20
ATOM     20  C   UNL d   1      -1.323  -2.595  -0.048  0.00  0.00     0.310 C 
ATOM     21  O   UNL d   1      -2.384  -2.884   0.475  0.00  0.00    -0.258 OA
BRANCH  20  22
ATOM     22  O   UNL d   1      -0.405  -3.465  -0.548  0.00  0.00    -0.317 OA
BRANCH  22  23
ATOM     23  C   UNL d   1      -0.508  -4.830  -0.128  0.00  0.00     0.175 C 
ATOM     24  C   UNL d   1       0.283  -4.991   1.160  0.00  0.00     0.034 C 
ENDBRANCH  22  23
ENDBRANCH  20  22
ENDBRANCH  12  20
ENDBRANCH   9  10
ENDBRANCH   2   9
BRANCH   3  25
ATOM     25  C   UNL d   1      -1.469   6.321  -3.423  0.00  0.00     0.013 A 
ATOM     26  C   UNL d   1      -0.274   7.036  -3.260  0.00  0.00     0.039 A 
ATOM     27  C   UNL d   1      -0.109   8.284  -3.873  0.00  0.00     0.036 A 
ATOM     28 CL   UNL d   1       1.372   9.137  -3.668  0.00  0.00    -0.084 Cl
ATOM     29  C   UNL d   1      -1.121   8.843  -4.647  0.00  0.00     0.047 A 
ATOM     30  C   UNL d   1      -2.308   8.138  -4.814  0.00  0.00     0.036 A 
ATOM     31  C   UNL d   1      -2.481   6.885  -4.216  0.00  0.00     0.039 A 
ATOM     32 CL   UNL d   1      -3.573   8.821  -5.760  0.00  0.00    -0.084 Cl
ENDBRANCH   3  25
TORSDOF 6
