REMARK  6 active torsions:
REMARK  status: ('A' for Active; 'I' for Inactive)
REMARK    1  A    between atoms: C_7  and  C_1 
REMARK    2  A    between atoms: C_9  and  N_4 
REMARK    3  A    between atoms: O_17  and  C_7 
REMARK    4  A    between atoms: C_8  and  C_9 
REMARK    5  A    between atoms: O_19  and  C_10 
REMARK    6  A    between atoms: O_20  and  C_16 
ROOT
ATOM      1  C   UNL d   1      -0.518   0.340   1.607  0.00  0.00     0.108 A 
ATOM      2  C   UNL d   1      -1.532   0.341   0.509  0.00  0.00     0.229 A 
ATOM      3  C   UNL d   1      -1.006   0.091  -0.859  0.00  0.00     0.182 A 
ATOM      4  N   UNL d   1       1.257   0.079  -0.047  0.00  0.00    -0.358 N 
ATOM      5  C   UNL d   1       0.779   0.219   1.261  0.00  0.00     0.112 A 
ATOM      6  C   UNL d   1       0.307  -0.002  -1.060  0.00  0.00     0.137 A 
ATOM      7  O   UNL d   1      -2.722   0.566   0.687  0.00  0.00    -0.284 OA
ATOM      8  F   UNL d   1      -1.901  -0.005  -1.861  0.00  0.00    -0.200 F 
ENDROOT
BRANCH   4   9
ATOM      9  C   UNL d   1       2.717   0.032  -0.338  0.00  0.00     0.169 C 
BRANCH   9  10
ATOM     10  C   UNL d   1       3.302  -1.343  -0.089  0.00  0.00    -0.004 A 
ATOM     11  C   UNL d   1       4.344  -1.695   0.782  0.00  0.00     0.076 A 
ATOM     12  C   UNL d   1       4.694  -3.057   0.900  0.00  0.00     0.040 A 
ATOM     13  C   UNL d   1       4.029  -4.063   0.200  0.00  0.00     0.039 A 
ATOM     14  C   UNL d   1       3.015  -3.730  -0.681  0.00  0.00     0.069 A 
ATOM     15  C   UNL d   1       2.702  -2.384  -0.850  0.00  0.00     0.048 A 
BRANCH  11  16
ATOM     16  O   UNL d   1       5.141  -0.946   1.595  0.00  0.00    -0.355 OA
ATOM     17  C   UNL d   1       5.051   0.459   1.675  0.00  0.00     0.210 C 
ENDBRANCH  11  16
BRANCH  14  18
ATOM     18  O   UNL d   1       2.394  -4.775  -1.304  0.00  0.00    -0.356 OA
ATOM     19  C   UNL d   1       1.251  -4.457  -2.094  0.00  0.00     0.210 C 
ENDBRANCH  14  18
ENDBRANCH   9  10
ENDBRANCH   4   9
BRANCH   1  20
ATOM     20  C   UNL d   1      -0.846   0.489   3.038  0.00  0.00     0.298 C 
ATOM     21  O   UNL d   1      -0.030   0.829   3.887  0.00  0.00    -0.259 OA
BRANCH  20  22
ATOM     22  O   UNL d   1      -2.136   0.164   3.283  0.00  0.00    -0.322 OA
ATOM     23  C   UNL d   1      -2.546   0.308   4.643  0.00  0.00     0.213 C 
ENDBRANCH  20  22
ENDBRANCH   1  20
TORSDOF 6
