REMARK  5 active torsions:
REMARK  status: ('A' for Active; 'I' for Inactive)
REMARK    1  A    between atoms: C_2  and  S_1 
REMARK    2  A    between atoms: N_3  and  S_1 
REMARK    3  A    between atoms: C_5  and  C_11 
REMARK    4  A    between atoms: O_17  and  C_5 
REMARK    5  A    between atoms: C_18  and  O_17 
ROOT
ATOM      1  N   UNL d   1       0.557  -0.625  -1.574  0.00  0.00    -0.206 NA
ATOM      2  C   UNL d   1       1.078   0.223  -2.683  0.00  0.00     0.108 C 
ATOM      3  C   UNL d   1       0.908  -2.067  -1.718  0.00  0.00     0.108 C 
ATOM      4  C   UNL d   1       1.032  -1.779  -4.231  0.00  0.00     0.088 C 
ATOM      5  C   UNL d   1       0.621  -0.318  -4.036  0.00  0.00     0.030 C 
ATOM      6  C   UNL d   1       0.460  -2.605  -3.075  0.00  0.00     0.030 C 
ENDROOT
BRANCH   1   7
ATOM      7  S   UNL d   1       0.992  -0.037  -0.009  0.00  0.00     0.250 S 
ATOM      8  O   UNL d   1       0.472  -0.945   0.987  0.00  0.00    -0.205 OA
ATOM      9  O   UNL d   1       2.398   0.308  -0.051  0.00  0.00    -0.205 OA
BRANCH   7  10
ATOM     10  C   UNL d   1       0.154   1.504   0.276  0.00  0.00     0.115 A 
ATOM     11  S   UNL d   1      -1.556   1.448   0.275  0.00  0.00    -0.089 SA
ATOM     12  C   UNL d   1      -1.673   3.123   0.607  0.00  0.00     0.051 A 
ATOM     13  C   UNL d   1      -0.435   3.719   0.708  0.00  0.00     0.009 A 
ATOM     14  C   UNL d   1       0.622   2.782   0.520  0.00  0.00     0.033 A 
ENDBRANCH   7  10
ENDBRANCH   1   7
BRANCH   4  15
ATOM     15  C   UNL d   1       2.535  -1.991  -4.330  0.00  0.00     0.263 C 
ATOM     16  O   UNL d   1       3.093  -3.031  -3.994  0.00  0.00    -0.265 OA
BRANCH  15  17
ATOM     17  O   UNL d   1       3.170  -0.915  -4.867  0.00  0.00    -0.322 OA
BRANCH  17  18
ATOM     18  C   UNL d   1       4.595  -1.047  -4.978  0.00  0.00     0.174 C 
ATOM     19  C   UNL d   1       5.259  -0.777  -3.639  0.00  0.00     0.034 C 
ENDBRANCH  17  18
ENDBRANCH  15  17
ENDBRANCH   4  15
TORSDOF 5
