REMARK  1 active torsions:
REMARK  status: ('A' for Active; 'I' for Inactive)
REMARK    1  A    between atoms: C_9  and  N_5 
ROOT
ATOM      1  C   UNL d   1       1.684   0.059   0.134  0.00  0.00     0.141 C 
ATOM      2  N   UNL d   1       1.422  -1.186  -0.078  0.00  0.00    -0.369 N 
ATOM      3  HN  UNL d   1       2.098  -1.942   0.032  1.00  0.00     0.161 HD
ATOM      4  S   UNL d   1       0.334   1.169   0.003  0.00  0.00    -0.083 SA
ATOM      5  N   UNL d   1       2.876   0.615   0.487  0.00  0.00    -0.337 N 
ATOM      6  C   UNL d   1      -0.840  -0.225   0.004  0.00  0.00     0.024 C 
ATOM      7  C   UNL d   1       0.026  -1.380  -0.500  0.00  0.00     0.142 C 
ATOM      8  C   UNL d   1      -1.330  -0.466   1.434  0.00  0.00     0.029 C 
ATOM      9  C   UNL d   1      -2.013   0.032  -0.938  0.00  0.00     0.029 C 
ATOM     10  H   UNL d   1       2.854   1.591   0.743  0.00  0.00     0.168 HD
ENDROOT
BRANCH   5  11
ATOM     11  C   UNL d   1       4.138  -0.000   0.443  0.00  0.00     0.035 A 
ATOM     12  C   UNL d   1       4.385  -1.173  -0.291  0.00  0.00     0.056 A 
ATOM     13  C   UNL d   1       5.625  -1.809  -0.248  0.00  0.00     0.074 A 
ATOM     14 CL   UNL d   1       5.874  -3.241  -1.171  0.00  0.00    -0.081 Cl
ATOM     15  C   UNL d   1       6.640  -1.283   0.541  0.00  0.00     0.138 A 
ATOM     16  C   UNL d   1       6.426  -0.126   1.281  0.00  0.00     0.046 A 
ATOM     17  F   UNL d   1       7.838  -1.882   0.606  0.00  0.00    -0.204 F 
ATOM     18  C   UNL d   1       5.181   0.511   1.233  0.00  0.00     0.032 A 
ENDBRANCH   5  11
TORSDOF 1
