REMARK  0 active torsions:
REMARK  status: ('A' for Active; 'I' for Inactive)
REMARK       I    between atoms: C_6  and  N_1 
ROOT
ATOM      1  N   UNL d   1       0.034  -1.711  -0.001  0.00  0.00    -0.281 N 
ATOM      2  C   UNL d   1       1.175  -0.886   0.004  0.00  0.00     0.053 A 
ATOM      3  C   UNL d   1      -1.104  -0.890  -0.025  0.00  0.00     0.053 A 
ATOM      4  C   UNL d   1      -0.686   0.439   0.009  0.00  0.00     0.004 A 
ATOM      5  C   UNL d   1       0.736   0.442   0.029  0.00  0.00     0.004 A 
ATOM      6  C   UNL d   1      -0.035  -3.124   0.018  0.00  0.00     0.225 C 
ATOM      7  O   UNL d   1      -1.017  -3.699  -0.438  0.00  0.00    -0.273 OA
ATOM      8  C   UNL d   1      -2.478  -1.212  -0.030  0.00  0.00     0.031 A 
ATOM      9  C   UNL d   1       2.557  -1.171  -0.058  0.00  0.00     0.031 A 
ATOM     10  C   UNL d   1       1.682   1.491   0.048  0.00  0.00     0.014 A 
ATOM     11  C   UNL d   1      -1.655   1.468   0.011  0.00  0.00     0.014 A 
ATOM     12  C   UNL d   1       1.093  -3.873   0.656  0.00  0.00     0.118 C 
ATOM     13  C   UNL d   1       3.475  -0.114  -0.029  0.00  0.00     0.002 A 
ATOM     14  C   UNL d   1      -3.418  -0.178  -0.021  0.00  0.00     0.002 A 
ATOM     15  C   UNL d   1      -3.014   1.149  -0.006  0.00  0.00     0.001 A 
ATOM     16  C   UNL d   1       3.045   1.203   0.028  0.00  0.00     0.001 A 
ENDROOT
TORSDOF 0
