REMARK  3 active torsions:
REMARK  status: ('A' for Active; 'I' for Inactive)
REMARK    1  A    between atoms: C_3  and  C_1 
REMARK       I    between atoms: N_4  and  C_1 
REMARK    2  A    between atoms: N_2  and  C_6 
REMARK    3  A    between atoms: C_16  and  N_4 
ROOT
ATOM      1  C   UNL d   1      -4.083   1.086   0.763  0.00  0.00     0.030 A 
ATOM      2  C   UNL d   1      -3.358   2.228   0.411  0.00  0.00     0.031 A 
ATOM      3  C   UNL d   1      -3.338  -0.078   0.997  0.00  0.00     0.031 A 
ATOM      4  C   UNL d   1      -1.239   1.056   0.508  0.00  0.00     0.035 A 
ATOM      5  C   UNL d   1      -1.966   2.220   0.283  0.00  0.00     0.032 A 
ATOM      6  C   UNL d   1      -1.937  -0.100   0.855  0.00  0.00     0.032 A 
ENDROOT
BRANCH   4   7
ATOM      7  N   UNL d   1       0.166   1.002   0.377  0.00  0.00    -0.321 N 
ATOM      8  C   UNL d   1       1.018   2.092   0.290  0.00  0.00     0.279 C 
ATOM      9  O   UNL d   1       0.679   3.264   0.441  0.00  0.00    -0.265 OA
ATOM     10  H   UNL d   1       0.610   0.091   0.383  0.00  0.00     0.169 HD
BRANCH   8  11
ATOM     11  C   UNL d   1       2.401   1.761   0.021  0.00  0.00     0.142 A 
ATOM     12  O   UNL d   1       2.786   0.463  -0.196  0.00  0.00    -0.317 OA
ATOM     13  C   UNL d   1       4.123   0.489  -0.453  0.00  0.00     0.143 A 
ATOM     14  C   UNL d   1       4.607   1.776  -0.393  0.00  0.00     0.027 A 
ATOM     15  C   UNL d   1       3.499   2.594  -0.088  0.00  0.00     0.045 A 
ENDBRANCH   8  11
ENDBRANCH   4   7
BRANCH   1  16
ATOM     16  N   UNL d   1      -5.452   1.165   0.917  0.00  0.00    -0.378 N 
ATOM     17  C   UNL d   1      -6.221   0.215   1.730  0.00  0.00     0.153 C 
ATOM     18  C   UNL d   1      -7.409   0.960   2.395  0.00  0.00     0.291 C 
ATOM     19  N   UNL d   1      -8.273   1.668   1.420  0.00  0.00     0.087 N 
ATOM     20  C   UNL d   1      -7.440   2.598   0.622  0.00  0.00     0.291 C 
ATOM     21  C   UNL d   1      -9.336   2.397   2.107  0.00  0.00     0.310 C 
ATOM     22  C   UNL d   1      -6.270   1.877  -0.083  0.00  0.00     0.153 C 
ENDBRANCH   1  16
TORSDOF 3
