REMARK  5 active torsions:
REMARK  status: ('A' for Active; 'I' for Inactive)
REMARK    1  A    between atoms: C_4  and  C_1 
REMARK    2  A    between atoms: S_5  and  C_2 
REMARK       I    between atoms: C_3  and  N_6 
REMARK       I    between atoms: N_7  and  C_3 
REMARK    3  A    between atoms: N_6  and  C_4 
REMARK    4  A    between atoms: C_10  and  S_5 
REMARK    5  A    between atoms: C_11  and  N_7 
ROOT
ATOM      1  C   UNL d   1       0.158   1.046   0.072  0.00  0.00    -0.002 A 
ATOM      2  C   UNL d   1       1.567   1.060  -0.133  0.00  0.00     0.015 A 
ATOM      3  C   UNL d   1      -0.471  -0.219   0.088  0.00  0.00     0.043 A 
ATOM      4 CL   UNL d   1      -2.193  -0.428   0.123  0.00  0.00    -0.084 Cl
ATOM      5  C   UNL d   1       2.291  -0.148  -0.185  0.00  0.00     0.019 A 
ATOM      6  C   UNL d   1       1.651  -1.375  -0.079  0.00  0.00     0.003 A 
ATOM      7  C   UNL d   1       0.271  -1.408   0.039  0.00  0.00     0.024 A 
ENDROOT
BRANCH   1   8
ATOM      8  C   UNL d   1      -0.602   2.357   0.181  0.00  0.00     0.166 C 
BRANCH   8   9
ATOM      9  N   UNL d   1      -1.827   2.348   0.971  0.00  0.00    -0.339 N 
ATOM     10  C   UNL d   1      -2.413   3.564   1.278  0.00  0.00     0.320 C 
ATOM     11  N   UNL d   1      -3.731   3.427   1.667  0.00  0.00    -0.309 N 
ATOM     12  O   UNL d   1      -1.800   4.614   1.158  0.00  0.00    -0.247 OA
ATOM     13  H   UNL d   1      -4.132   2.507   1.600  0.00  0.00     0.170 HD
ATOM     14  H   UNL d   1      -2.453   1.575   0.809  0.00  0.00     0.164 HD
BRANCH  11  15
ATOM     15  C   UNL d   1      -4.636   4.498   1.882  0.00  0.00     0.036 A 
ATOM     16  C   UNL d   1      -4.230   5.822   2.087  0.00  0.00     0.032 A 
ATOM     17  C   UNL d   1      -5.168   6.854   2.171  0.00  0.00     0.044 A 
ATOM     18  C   UNL d   1      -6.520   6.563   2.059  0.00  0.00     0.116 A 
ATOM     19  C   UNL d   1      -6.951   5.249   1.912  0.00  0.00     0.044 A 
ATOM     20  F   UNL d   1      -7.417   7.556   2.087  0.00  0.00    -0.206 F 
ATOM     21  C   UNL d   1      -6.010   4.215   1.841  0.00  0.00     0.032 A 
ENDBRANCH  11  15
ENDBRANCH   8   9
ENDBRANCH   1   8
BRANCH   2  22
ATOM     22  S   UNL d   1       2.607   2.517  -0.239  0.00  0.00    -0.090 SA
BRANCH  22  23
ATOM     23  C   UNL d   1       2.233   3.336  -1.779  0.00  0.00     0.005 A 
ATOM     24  C   UNL d   1       1.355   2.862  -2.759  0.00  0.00     0.020 A 
ATOM     25  C   UNL d   1       0.998   3.675  -3.845  0.00  0.00     0.025 A 
ATOM     26  C   UNL d   1       1.546   4.950  -3.974  0.00  0.00     0.034 A 
ATOM     27  C   UNL d   1       2.495   5.397  -3.062  0.00  0.00     0.025 A 
ATOM     28 CL   UNL d   1       1.029   5.985  -5.246  0.00  0.00    -0.084 Cl
ATOM     29  C   UNL d   1       2.839   4.589  -1.975  0.00  0.00     0.020 A 
ENDBRANCH  22  23
ENDBRANCH   2  22
TORSDOF 5
