REMARK  6 active torsions:
REMARK  status: ('A' for Active; 'I' for Inactive)
REMARK    1  A    between atoms: N_4  and  S_1 
REMARK    2  A    between atoms: C_6  and  S_1 
REMARK    3  A    between atoms: N_2  and  C_3 
REMARK    4  A    between atoms: C_5  and  N_4 
REMARK    5  A    between atoms: O_16  and  C_10 
REMARK    6  A    between atoms: O_18  and  C_13 
ROOT
ATOM      1  S   UNL d   1       0.862  -0.183  -0.157  0.00  0.00     0.263 S 
ATOM      2  O   UNL d   1      -0.203  -1.022  -0.663  0.00  0.00    -0.200 OA
ATOM      3  O   UNL d   1       2.177  -0.170  -0.756  0.00  0.00    -0.200 OA
ENDROOT
BRANCH   1   4
ATOM      4  N   UNL d   1       1.082  -0.533   1.478  0.00  0.00    -0.278 N 
ATOM      5  H   UNL d   1       2.019  -0.337   1.828  0.00  0.00     0.179 HD
BRANCH   4   6
ATOM      6  C   UNL d   1      -0.028  -0.491   2.372  0.00  0.00     0.075 A 
ATOM      7  C   UNL d   1      -0.915  -1.558   2.559  0.00  0.00     0.130 A 
ATOM      8  C   UNL d   1      -2.042  -1.438   3.386  0.00  0.00     0.038 A 
ATOM      9  C   UNL d   1      -2.284  -0.230   4.040  0.00  0.00     0.003 A 
ATOM     10  C   UNL d   1      -1.400   0.837   3.876  0.00  0.00     0.002 A 
ATOM     11  C   UNL d   1      -0.277   0.706   3.052  0.00  0.00     0.032 A 
BRANCH   7  12
ATOM     12  N   UNL d   1      -0.642  -2.865   1.992  0.00  0.00    -0.113 N 
ATOM     13  O   UNL d   1       0.450  -3.382   2.262  0.00  0.00    -0.532 OA
ATOM     14  O   UNL d   1      -1.561  -3.408   1.362  0.00  0.00    -0.532 OA
ENDBRANCH   7  12
ENDBRANCH   4   6
ENDBRANCH   1   4
BRANCH   1  15
ATOM     15  C   UNL d   1       0.263   1.493  -0.142  0.00  0.00     0.082 A 
ATOM     16  C   UNL d   1      -1.118   1.724  -0.110  0.00  0.00     0.065 A 
ATOM     17  C   UNL d   1      -1.617   3.032  -0.051  0.00  0.00     0.102 A 
ATOM     18  C   UNL d   1      -0.710   4.107  -0.080  0.00  0.00     0.101 A 
ATOM     19  C   UNL d   1       0.671   3.858  -0.135  0.00  0.00     0.041 A 
ATOM     20  C   UNL d   1       1.164   2.554  -0.175  0.00  0.00     0.028 A 
BRANCH  17  21
ATOM     21  O   UNL d   1      -2.951   3.319   0.075  0.00  0.00    -0.353 OA
ATOM     22  C   UNL d   1      -3.862   2.232   0.178  0.00  0.00     0.210 C 
ENDBRANCH  17  21
BRANCH  18  23
ATOM     23  O   UNL d   1      -1.012   5.443   0.000  0.00  0.00    -0.353 OA
ATOM     24  C   UNL d   1      -2.224   5.861  -0.620  0.00  0.00     0.210 C 
ENDBRANCH  18  23
ENDBRANCH   1  15
TORSDOF 6
