REMARK  7 active torsions:
REMARK  status: ('A' for Active; 'I' for Inactive)
REMARK    1  A    between atoms: N_2  and  S_1 
REMARK    2  A    between atoms: C_3  and  S_1 
REMARK    3  A    between atoms: N_4  and  N_2 
REMARK       I    between atoms: C_5  and  N_4 
REMARK    4  A    between atoms: C_10  and  C_5 
REMARK    5  A    between atoms: O_21  and  C_7 
REMARK    6  A    between atoms: N_13  and  C_11 
REMARK    7  A    between atoms: O_22  and  C_12 
ROOT
ATOM      1  N   UNL d   1       0.441   1.575  -0.315  0.00  0.00    -0.220 N 
ATOM      2  H   UNL d   1      -0.462   1.617  -0.801  0.00  0.00     0.200 HD
ENDROOT
BRANCH   1   3
ATOM      3  S   UNL d   1       1.064   0.068   0.101  0.00  0.00     0.276 S 
ATOM      4  O   UNL d   1       2.501   0.215   0.209  0.00  0.00    -0.199 OA
ATOM      5  O   UNL d   1       0.439  -0.930  -0.735  0.00  0.00    -0.199 OA
BRANCH   3   6
ATOM      6  C   UNL d   1       0.416  -0.124   1.747  0.00  0.00     0.084 A 
ATOM      7  C   UNL d   1      -0.973  -0.156   1.919  0.00  0.00     0.065 A 
ATOM      8  C   UNL d   1      -1.532  -0.291   3.198  0.00  0.00     0.102 A 
ATOM      9  C   UNL d   1      -0.671  -0.394   4.308  0.00  0.00     0.101 A 
ATOM     10  C   UNL d   1       0.721  -0.365   4.111  0.00  0.00     0.041 A 
ATOM     11  C   UNL d   1       1.272  -0.232   2.837  0.00  0.00     0.028 A 
BRANCH   8  12
ATOM     12  O   UNL d   1      -2.884  -0.332   3.410  0.00  0.00    -0.353 OA
ATOM     13  C   UNL d   1      -3.749  -0.195   2.289  0.00  0.00     0.210 C 
ENDBRANCH   8  12
BRANCH   9  14
ATOM     14  O   UNL d   1      -0.994  -0.524   5.635  0.00  0.00    -0.353 OA
ATOM     15  C   UNL d   1      -2.362  -0.583   6.011  0.00  0.00     0.210 C 
ENDBRANCH   9  14
ENDBRANCH   3   6
ENDBRANCH   1   3
BRANCH   1  16
ATOM     16  N   UNL d   1       0.957   2.761   0.321  0.00  0.00    -0.256 N 
ATOM     17  C   UNL d   1       0.154   3.883   0.373  0.00  0.00     0.270 C 
ATOM     18  O   UNL d   1      -0.968   3.924  -0.134  0.00  0.00    -0.266 OA
ATOM     19  H   UNL d   1       1.825   2.665   0.841  0.00  0.00     0.191 HD
BRANCH  17  20
ATOM     20  C   UNL d   1       0.687   5.021   1.169  0.00  0.00     0.033 A 
ATOM     21  C   UNL d   1       2.054   5.218   1.373  0.00  0.00     0.019 A 
ATOM     22  C   UNL d   1       2.502   6.271   2.184  0.00  0.00     0.030 A 
ATOM     23  C   UNL d   1       1.619   7.173   2.804  0.00  0.00     0.029 A 
ATOM     24  C   UNL d   1       0.251   6.966   2.548  0.00  0.00     0.030 A 
ATOM     25  C   UNL d   1      -0.214   5.910   1.749  0.00  0.00     0.019 A 
BRANCH  23  26
ATOM     26  N   UNL d   1       2.057   8.239   3.576  0.00  0.00    -0.390 N 
ATOM     27  C   UNL d   1       1.266   8.733   4.702  0.00  0.00     0.149 C 
ATOM     28  C   UNL d   1       3.450   8.680   3.577  0.00  0.00     0.149 C 
ENDBRANCH  23  26
ENDBRANCH  17  20
ENDBRANCH   1  16
TORSDOF 7
