REMARK  4 active torsions:
REMARK  status: ('A' for Active; 'I' for Inactive)
REMARK       I    between atoms: N_5  and  C_1 
REMARK       I    between atoms: N_6  and  C_1 
REMARK    1  A    between atoms: C_2  and  C_3 
REMARK    2  A    between atoms: C_4  and  C_7 
REMARK    3  A    between atoms: C_9  and  N_5 
REMARK    4  A    between atoms: C_10  and  N_8 
ROOT
ATOM      1  C   UNL d   1       1.059   0.036   0.340  0.00  0.00     0.323 C 
ATOM      2  N   UNL d   1       0.623   0.657  -0.810  0.00  0.00    -0.308 N 
ATOM      3  N   UNL d   1       0.331  -1.087   0.720  0.00  0.00    -0.332 N 
ATOM      4  N   UNL d   1      -1.802  -2.768   1.841  0.00  0.00    -0.366 N 
ATOM      5  O   UNL d   1       1.999   0.457   1.008  0.00  0.00    -0.247 OA
ATOM      6  C   UNL d   1      -0.627  -1.831  -0.131  0.00  0.00     0.147 C 
ATOM      7  C   UNL d   1      -1.991  -2.141   0.529  0.00  0.00     0.144 C 
ATOM      8  C   UNL d   1      -0.126  -1.504   3.146  0.00  0.00     0.040 C 
ATOM      9  C   UNL d   1       0.766  -1.774   1.938  0.00  0.00     0.129 C 
ATOM     10  C   UNL d   1      -1.599  -1.859   2.964  0.00  0.00     0.126 C 
ATOM     11  H   UNL d   1      -0.385   0.648  -0.914  0.00  0.00     0.170 HD
ENDROOT
BRANCH   2  12
ATOM     12  C   UNL d   1       1.321   1.726  -1.429  0.00  0.00     0.051 A 
ATOM     13  C   UNL d   1       0.625   2.797  -2.014  0.00  0.00     0.074 A 
ATOM     14  C   UNL d   1       1.360   3.861  -2.578  0.00  0.00     0.018 A 
ATOM     15  C   UNL d   1       2.754   3.849  -2.593  0.00  0.00     0.001 A 
ATOM     16  C   UNL d   1       3.436   2.767  -2.052  0.00  0.00     0.002 A 
ATOM     17  C   UNL d   1       2.725   1.713  -1.476  0.00  0.00     0.030 A 
BRANCH  13  18
ATOM     18  C   UNL d   1      -0.875   2.909  -2.006  0.00  0.00     0.419 C 
ATOM     19  F   UNL d   1      -1.518   1.798  -1.534  0.00  0.00    -0.166 F 
ATOM     20  F   UNL d   1      -1.319   3.941  -1.237  0.00  0.00    -0.166 F 
ATOM     21  F   UNL d   1      -1.391   3.121  -3.249  0.00  0.00    -0.166 F 
ENDBRANCH  13  18
ENDBRANCH   2  12
BRANCH   4  22
ATOM     22  C   UNL d   1      -2.289  -4.039   2.076  0.00  0.00     0.102 A 
ATOM     23  N   UNL d   1      -3.299  -4.515   1.319  0.00  0.00    -0.352 N 
ATOM     24  C   UNL d   1      -3.771  -5.762   1.568  0.00  0.00     0.106 A 
ATOM     25  HN  UNL d   1      -3.701  -3.948   0.572  1.00  0.00     0.166 HD
ATOM     26  C   UNL d   1      -3.260  -6.609   2.536  0.00  0.00     0.063 A 
ATOM     27  C   UNL d   1      -2.193  -6.130   3.292  0.00  0.00     0.021 A 
ATOM     28  C   UNL d   1      -1.716  -4.840   3.065  0.00  0.00     0.049 A 
BRANCH  26  29
ATOM     29  C   UNL d   1      -3.823  -7.977   2.749  0.00  0.00     0.418 C 
ATOM     30  F   UNL d   1      -4.902  -8.255   1.966  0.00  0.00    -0.166 F 
ATOM     31  F   UNL d   1      -2.915  -8.960   2.495  0.00  0.00    -0.166 F 
ATOM     32  F   UNL d   1      -4.235  -8.176   4.032  0.00  0.00    -0.166 F 
ENDBRANCH  26  29
ENDBRANCH   4  22
TORSDOF 4
