REMARK  5 active torsions:
REMARK  status: ('A' for Active; 'I' for Inactive)
REMARK    1  A    between atoms: C_6  and  C_1 
REMARK    2  A    between atoms: C_9  and  C_3 
REMARK       I    between atoms: N_8  and  C_6 
REMARK    3  A    between atoms: C_10  and  C_17 
REMARK    4  A    between atoms: O_24  and  C_10 
REMARK    5  A    between atoms: C_28  and  O_24 
ROOT
ATOM      1  C   UNL d   1      -0.073  -1.099  -0.129  0.00  0.00     0.097 C 
ATOM      2  S   UNL d   1       1.278  -0.223  -0.710  0.00  0.00    -0.064 SA
ATOM      3  C   UNL d   1       0.569   1.258  -0.199  0.00  0.00     0.085 C 
ATOM      4  N   UNL d   1      -0.666   1.135   0.249  0.00  0.00    -0.352 N 
ATOM      5  HN  UNL d   1      -1.244   1.907   0.582  1.00  0.00     0.166 HD
ATOM      6  C   UNL d   1      -1.071  -0.194   0.203  0.00  0.00     0.029 C 
ATOM      7  C   UNL d   1      -2.495  -0.505   0.514  0.00  0.00     0.070 C 
ENDROOT
BRANCH   1   8
ATOM      8  C   UNL d   1      -0.172  -2.550  -0.217  0.00  0.00     0.262 C 
ATOM      9  N   UNL d   1       0.900  -3.376   0.175  0.00  0.00    -0.347 N 
ATOM     10  C   UNL d   1       0.834  -4.794  -0.180  0.00  0.00     0.127 C 
ATOM     11  C   UNL d   1       2.173  -2.928   0.748  0.00  0.00     0.127 C 
ATOM     12  C   UNL d   1       1.279  -5.693   0.973  0.00  0.00     0.034 C 
ATOM     13  C   UNL d   1       2.667  -5.304   1.499  0.00  0.00     0.088 C 
ATOM     14  C   UNL d   1       2.633  -3.824   1.899  0.00  0.00     0.034 C 
ATOM     15  O   UNL d   1      -1.224  -3.066  -0.607  0.00  0.00    -0.267 OA
BRANCH  13  16
ATOM     16  C   UNL d   1       3.796  -5.545   0.500  0.00  0.00     0.263 C 
ATOM     17  O   UNL d   1       4.841  -4.907   0.490  0.00  0.00    -0.265 OA
BRANCH  16  18
ATOM     18  O   UNL d   1       3.485  -6.534  -0.378  0.00  0.00    -0.322 OA
BRANCH  18  19
ATOM     19  C   UNL d   1       4.299  -6.619  -1.556  0.00  0.00     0.174 C 
ATOM     20  C   UNL d   1       5.190  -7.842  -1.504  0.00  0.00     0.034 C 
ENDBRANCH  18  19
ENDBRANCH  16  18
ENDBRANCH  13  16
ENDBRANCH   1   8
BRANCH   3  21
ATOM     21  C   UNL d   1       1.312   2.531  -0.281  0.00  0.00    -0.002 A 
ATOM     22  C   UNL d   1       0.914   3.618   0.523  0.00  0.00     0.024 A 
ATOM     23  C   UNL d   1       1.597   4.820   0.417  0.00  0.00    -0.022 A 
ATOM     24  C   UNL d   1       1.424   6.088   1.165  0.00  0.00     0.068 C 
ATOM     25  C   UNL d   1       2.668   4.955  -0.452  0.00  0.00     0.075 A 
ATOM     26  C   UNL d   1       2.268   7.002   0.276  0.00  0.00     0.180 C 
ATOM     27  O   UNL d   1       3.240   6.203  -0.435  0.00  0.00    -0.350 OA
ATOM     28  C   UNL d   1       3.101   3.916  -1.237  0.00  0.00     0.038 A 
ATOM     29  C   UNL d   1       2.414   2.702  -1.156  0.00  0.00     0.017 A 
ENDBRANCH   3  21
TORSDOF 5
