REMARK  7 active torsions:
REMARK  status: ('A' for Active; 'I' for Inactive)
REMARK    1  A    between atoms: C_8  and  C_2 
REMARK    2  A    between atoms: S_11  and  C_5 
REMARK    3  A    between atoms: C_9  and  C_21 
REMARK    4  A    between atoms: C_27  and  C_10 
REMARK    5  A    between atoms: C_23  and  S_11 
REMARK    6  A    between atoms: C_14  and  C_23 
REMARK       I    between atoms: N_15  and  C_14 
REMARK    7  A    between atoms: C_19  and  N_15 
ROOT
ATOM      1  N   UNL d   1       1.002   0.138   0.164  0.00  0.00    -0.315 N 
ATOM      2  C   UNL d   1       0.071   1.128  -0.112  0.00  0.00     0.135 A 
ATOM      3  N   UNL d   1      -1.129   0.578  -0.074  0.00  0.00    -0.283 N 
ATOM      4  HN  UNL d   1      -2.009   1.064  -0.245  1.00  0.00     0.188 HD
ATOM      5  C   UNL d   1       0.267  -0.990   0.419  0.00  0.00     0.163 A 
ATOM      6  N   UNL d   1      -1.002  -0.749   0.231  0.00  0.00    -0.278 N 
ATOM      7  HN  UNL d   1      -1.761  -1.427   0.298  1.00  0.00     0.189 HD
ATOM      8  C   UNL d   1       2.435   0.238   0.239  0.00  0.00     0.160 C 
ENDROOT
BRANCH   2   9
ATOM      9  C   UNL d   1       0.313   2.554  -0.321  0.00  0.00     0.026 A 
ATOM     10  C   UNL d   1      -0.615   3.496   0.150  0.00  0.00     0.038 A 
ATOM     11  C   UNL d   1      -0.379   4.859  -0.036  0.00  0.00     0.034 A 
ATOM     12  C   UNL d   1       0.793   5.239  -0.674  0.00  0.00     0.108 A 
ATOM     13  N   UNL d   1       1.703   4.365  -1.162  0.00  0.00    -0.373 N 
ATOM     14  C   UNL d   1       1.422   3.051  -0.997  0.00  0.00     0.102 A 
ATOM     15  HN  UNL d   1       2.553   4.678  -1.629  1.00  0.00     0.164 HD
BRANCH  11  16
ATOM     16  C   UNL d   1      -1.316   5.845   0.394  0.00  0.00    -0.060 C 
ATOM     17  C   UNL d   1      -2.082   6.715   0.706  0.00  0.00    -0.061 C 
BRANCH  17  18
ATOM     18  C   UNL d   1      -2.966   7.786   1.047  0.00  0.00     0.018 A 
ATOM     19  C   UNL d   1      -3.126   8.863   0.171  0.00  0.00     0.020 A 
ATOM     20  C   UNL d   1      -3.970   9.921   0.512  0.00  0.00     0.001 A 
ATOM     21  C   UNL d   1      -4.653   9.902   1.728  0.00  0.00     0.000 A 
ATOM     22  C   UNL d   1      -4.500   8.823   2.599  0.00  0.00     0.001 A 
ATOM     23  C   UNL d   1      -3.657   7.764   2.260  0.00  0.00     0.020 A 
ENDBRANCH  17  18
ENDBRANCH  11  16
ENDBRANCH   2   9
BRANCH   5  24
ATOM     24  S   UNL d   1       0.912  -2.396   1.183  0.00  0.00    -0.083 SA
BRANCH  24  25
ATOM     25  C   UNL d   1      -0.477  -3.546   1.175  0.00  0.00     0.185 C 
BRANCH  25  26
ATOM     26  C   UNL d   1      -1.707  -3.221   2.005  0.00  0.00     0.231 C 
ATOM     27  N   UNL d   1      -1.779  -1.987   2.626  0.00  0.00    -0.326 N 
ATOM     28  H   UNL d   1      -1.146  -1.282   2.278  0.00  0.00     0.169 HD
ATOM     29  O   UNL d   1      -2.586  -4.084   2.079  0.00  0.00    -0.272 OA
BRANCH  27  30
ATOM     30  C   UNL d   1      -2.779  -1.538   3.512  0.00  0.00     0.036 A 
ATOM     31  C   UNL d   1      -3.733  -2.384   4.080  0.00  0.00     0.056 A 
ATOM     32  C   UNL d   1      -4.665  -1.889   4.993  0.00  0.00     0.074 A 
ATOM     33 CL   UNL d   1      -5.820  -2.963   5.686  0.00  0.00    -0.081 Cl
ATOM     34  C   UNL d   1      -4.647  -0.544   5.346  0.00  0.00     0.138 A 
ATOM     35  C   UNL d   1      -3.713   0.319   4.778  0.00  0.00     0.046 A 
ATOM     36  F   UNL d   1      -5.518  -0.056   6.240  0.00  0.00    -0.204 F 
ATOM     37  C   UNL d   1      -2.781  -0.176   3.862  0.00  0.00     0.032 A 
ENDBRANCH  27  30
ENDBRANCH  25  26
ENDBRANCH  24  25
ENDBRANCH   5  24
TORSDOF 7
