REMARK  4 active torsions:
REMARK  status: ('A' for Active; 'I' for Inactive)
REMARK    1  A    between atoms: C_2  and  C_1 
REMARK    2  A    between atoms: C_4  and  C_2 
REMARK    3  A    between atoms: N_6  and  C_3 
REMARK    4  A    between atoms: C_9  and  N_6 
ROOT
ATOM      1  C   UNL d   1       1.072   0.068   0.105  0.00  0.00     0.072 C 
ATOM      2  C   UNL d   1       2.401   0.175  -0.023  0.00  0.00     0.092 C 
ENDROOT
BRANCH   1   3
ATOM      3  C   UNL d   1       0.377  -1.122  -0.461  0.00  0.00     0.183 C 
ATOM      4  O   UNL d   1       0.877  -1.810  -1.342  0.00  0.00    -0.288 OA
BRANCH   3   5
ATOM      5  C   UNL d   1      -0.976  -1.452   0.069  0.00  0.00     0.014 A 
ATOM      6  C   UNL d   1      -1.870  -2.135  -0.767  0.00  0.00     0.017 A 
ATOM      7  C   UNL d   1      -3.130  -2.515  -0.294  0.00  0.00     0.020 A 
ATOM      8  C   UNL d   1      -3.491  -2.225   1.020  0.00  0.00     0.011 A 
ATOM      9  C   UNL d   1      -2.608  -1.549   1.862  0.00  0.00     0.020 A 
ATOM     10 BR   UNL d   1      -5.176  -2.773   1.675  0.00  0.00    -0.051 Br
ATOM     11  C   UNL d   1      -1.350  -1.163   1.389  0.00  0.00     0.017 A 
ENDBRANCH   3   5
ENDBRANCH   1   3
BRANCH   2  12
ATOM     12  N   UNL d   1       3.203   1.171   0.477  0.00  0.00    -0.366 N 
ATOM     13  H   UNL d   1       2.750   1.884   1.039  0.00  0.00     0.165 HD
BRANCH  12  14
ATOM     14  C   UNL d   1       4.570   1.383   0.223  0.00  0.00     0.032 A 
ATOM     15  C   UNL d   1       5.244   0.793  -0.854  0.00  0.00     0.031 A 
ATOM     16  C   UNL d   1       6.617   0.985  -1.043  0.00  0.00     0.026 A 
ATOM     17  C   UNL d   1       7.338   1.756  -0.138  0.00  0.00     0.034 A 
ATOM     18  C   UNL d   1       6.697   2.335   0.953  0.00  0.00     0.026 A 
ATOM     19 CL   UNL d   1       9.026   1.990  -0.367  0.00  0.00    -0.084 Cl
ATOM     20  C   UNL d   1       5.321   2.147   1.131  0.00  0.00     0.031 A 
ENDBRANCH  12  14
ENDBRANCH   2  12
TORSDOF 4
