REMARK  1 active torsions:
REMARK  status: ('A' for Active; 'I' for Inactive)
REMARK    1  A    between atoms: C_4  and  C_1 
ROOT
ATOM      1  C   UNL d   1      -2.415  -0.119  -0.068  0.00  0.00     0.050 A 
ATOM      2  N   UNL d   1      -1.598   0.988  -0.055  0.00  0.00    -0.354 N 
ATOM      3  C   UNL d   1      -1.585  -1.224  -0.017  0.00  0.00     0.044 A 
ATOM      4  C   UNL d   1      -0.272   0.621  -0.028  0.00  0.00     0.043 A 
ATOM      5  C   UNL d   1      -0.237  -0.772  -0.004  0.00  0.00    -0.007 A 
ATOM      6  C   UNL d   1       0.886   1.406  -0.026  0.00  0.00     0.030 A 
ATOM      7  C   UNL d   1       1.012  -1.421   0.019  0.00  0.00     0.014 A 
ATOM      8  C   UNL d   1       2.181  -0.651   0.013  0.00  0.00     0.001 A 
ATOM      9  C   UNL d   1       2.116   0.741  -0.009  0.00  0.00     0.002 A 
ATOM     10  H   UNL d   1      -1.932   1.941  -0.078  0.00  0.00     0.166 HD
ENDROOT
BRANCH   1  11
ATOM     11  C   UNL d   1      -3.850  -0.047  -0.127  0.00  0.00     0.031 A 
ATOM     12  S   UNL d   1      -4.687   1.448  -0.247  0.00  0.00    -0.100 SA
ATOM     13  C   UNL d   1      -6.212   0.676  -0.266  0.00  0.00     0.050 A 
ATOM     14  C   UNL d   1      -6.098  -0.692  -0.184  0.00  0.00     0.008 A 
ATOM     15  C   UNL d   1      -4.736  -1.107  -0.107  0.00  0.00     0.021 A 
ENDBRANCH   1  11
TORSDOF 1
