REMARK  2 active torsions:
REMARK  status: ('A' for Active; 'I' for Inactive)
REMARK    1  A    between atoms: C_6  and  C_1 
REMARK    2  A    between atoms: O_11  and  C_6 
ROOT
ATOM      1  C   UNL d   1      -2.559   0.016   0.001  0.00  0.00     0.081 A 
ATOM      2  S   UNL d   1      -1.753  -1.490  -0.001  0.00  0.00    -0.084 SA
ATOM      3  C   UNL d   1      -1.655   1.060   0.000  0.00  0.00     0.038 A 
ATOM      4  C   UNL d   1      -0.285   0.634  -0.000  0.00  0.00    -0.016 A 
ATOM      5  C   UNL d   1      -0.193  -0.759  -0.001  0.00  0.00     0.016 A 
ATOM      6  C   UNL d   1       0.912   1.390   0.001  0.00  0.00     0.032 A 
ATOM      7  C   UNL d   1       1.055  -1.414  -0.002  0.00  0.00     0.021 A 
ATOM      8  C   UNL d   1       2.148   0.739   0.001  0.00  0.00     0.011 A 
ATOM      9  C   UNL d   1       2.223  -0.646  -0.000  0.00  0.00     0.020 A 
ATOM     10 BR   UNL d   1       3.739   1.764   0.005  0.00  0.00    -0.051 Br
ENDROOT
BRANCH   1  11
ATOM     11  C   UNL d   1      -4.010   0.061   0.004  0.00  0.00     0.299 C 
ATOM     12  O   UNL d   1      -4.774  -0.898   0.006  0.00  0.00    -0.259 OA
BRANCH  11  13
ATOM     13  O   UNL d   1      -4.422   1.364   0.005  0.00  0.00    -0.322 OA
ATOM     14  C   UNL d   1      -5.839   1.541   0.009  0.00  0.00     0.213 C 
ENDBRANCH  11  13
ENDBRANCH   1  11
TORSDOF 2
