REMARK  3 active torsions:
REMARK  status: ('A' for Active; 'I' for Inactive)
REMARK    1  A    between atoms: C_12  and  N_2 
REMARK    2  A    between atoms: C_7  and  C_9 
REMARK    3  A    between atoms: O_14  and  C_7 
ROOT
ATOM      1  N   UNL d   1       2.282   0.064  -0.017  0.00  0.00    -0.019 NA
ATOM      2  N   UNL d   1       1.460   1.134  -0.016  0.00  0.00    -0.270 N 
ATOM      3  N   UNL d   1       1.529  -1.026  -0.001  0.00  0.00    -0.282 N 
ATOM      4  HN  UNL d   1       1.869  -1.988   0.006  1.00  0.00     0.184 HD
ATOM      5  C   UNL d   1       0.140   0.752  -0.003  0.00  0.00     0.077 A 
ATOM      6  C   UNL d   1       0.219  -0.637   0.005  0.00  0.00     0.075 A 
ATOM      7  C   UNL d   1      -0.951  -1.407   0.012  0.00  0.00     0.051 A 
ATOM      8  C   UNL d   1      -2.190  -0.747   0.007  0.00  0.00     0.040 A 
ATOM      9  C   UNL d   1      -1.081   1.437  -0.010  0.00  0.00     0.034 A 
ATOM     10  C   UNL d   1      -2.249   0.656  -0.016  0.00  0.00     0.021 A 
ENDROOT
BRANCH   8  11
ATOM     11  C   UNL d   1      -3.412  -1.595  -0.039  0.00  0.00     0.176 C 
ATOM     12  O   UNL d   1      -3.422  -2.707  -0.540  0.00  0.00    -0.646 OA
BRANCH  11  13
ATOM     13  O   UNL d   1      -4.494  -1.045   0.546  0.00  0.00    -0.773 OA
ATOM     14  H   UNL d   1      -4.327  -0.249   1.079  0.00  0.00     0.167 HD
ENDBRANCH  11  13
ENDBRANCH   8  11
BRANCH   2  15
ATOM     15  C   UNL d   1       2.024   2.477  -0.014  0.00  0.00     0.098 C 
ATOM     16  C   UNL d   1       2.854   2.731   1.246  0.00  0.00     0.033 C 
ATOM     17  C   UNL d   1       2.852   2.750  -1.272  0.00  0.00     0.033 C 
ENDBRANCH   2  15
TORSDOF 3
