REMARK  3 active torsions:
REMARK  status: ('A' for Active; 'I' for Inactive)
REMARK    1  A    between atoms: C_11  and  C_3 
REMARK    2  A    between atoms: C_13  and  C_10 
REMARK       I    between atoms: N_12  and  C_11 
REMARK    3  A    between atoms: N_14  and  N_12 
REMARK       I    between atoms: C_15  and  N_14 
ROOT
ATOM      1  C   UNL d   1       0.436   0.524   0.048  0.00  0.00     0.172 A 
ATOM      2  N   UNL d   1       0.046  -0.777   0.020  0.00  0.00    -0.235 N 
ATOM      3  C   UNL d   1      -1.993   0.175   0.084  0.00  0.00     0.102 A 
ATOM      4  N   UNL d   1       1.736   0.648   0.016  0.00  0.00    -0.319 N 
ATOM      5  HN  UNL d   1       2.307   1.493   0.033  1.00  0.00     0.169 HD
ATOM      6  N   UNL d   1       1.119  -1.572  -0.036  0.00  0.00    -0.276 N 
ATOM      7  HN  UNL d   1       1.161  -2.591  -0.061  1.00  0.00     0.189 HD
ATOM      8  C   UNL d   1      -1.321  -0.997   0.045  0.00  0.00     0.055 A 
ATOM      9  S   UNL d   1      -0.920   1.599   0.099  0.00  0.00    -0.044 SA
ATOM     10  C   UNL d   1       2.132  -0.683  -0.049  0.00  0.00     0.132 A 
ATOM     11  C   UNL d   1      -1.827  -2.399   0.034  0.00  0.00     0.072 C 
ENDROOT
BRANCH   3  12
ATOM     12  C   UNL d   1      -3.476   0.330   0.117  0.00  0.00     0.279 C 
ATOM     13  N   UNL d   1      -3.958   1.617   0.088  0.00  0.00    -0.263 N 
ATOM     14  H   UNL d   1      -3.370   2.448   0.017  0.00  0.00     0.190 HD
ATOM     15  O   UNL d   1      -4.226  -0.645   0.174  0.00  0.00    -0.265 OA
BRANCH  13  16
ATOM     16  N   UNL d   1      -5.341   1.823   0.191  0.00  0.00    -0.268 N 
ATOM     17  C   UNL d   1      -5.857   3.056  -0.147  0.00  0.00     0.232 C 
ATOM     18  O   UNL d   1      -5.162   3.998  -0.514  0.00  0.00    -0.272 OA
ATOM     19  C   UNL d   1      -7.356   3.155  -0.017  0.00  0.00     0.119 C 
ATOM     20  H   UNL d   1      -5.920   0.990   0.288  0.00  0.00     0.190 HD
ENDBRANCH  13  16
ENDBRANCH   3  12
BRANCH  10  21
ATOM     21  C   UNL d   1       3.524  -1.111  -0.165  0.00  0.00     0.009 A 
ATOM     22  C   UNL d   1       4.582  -0.208  -0.006  0.00  0.00     0.017 A 
ATOM     23  C   UNL d   1       5.907  -0.643  -0.146  0.00  0.00     0.025 A 
ATOM     24  C   UNL d   1       6.177  -1.978  -0.447  0.00  0.00     0.034 A 
ATOM     25  C   UNL d   1       5.137  -2.889  -0.599  0.00  0.00     0.025 A 
ATOM     26 CL   UNL d   1       7.802  -2.505  -0.640  0.00  0.00    -0.084 Cl
ATOM     27  C   UNL d   1       3.818  -2.456  -0.454  0.00  0.00     0.017 A 
ENDBRANCH  10  21
TORSDOF 3
