REMARK  5 active torsions:
REMARK  status: ('A' for Active; 'I' for Inactive)
REMARK    1  A    between atoms: C_7  and  C_1 
REMARK    2  A    between atoms: C_11  and  C_6 
REMARK    3  A    between atoms: O_8  and  C_11 
REMARK    4  A    between atoms: C_9  and  O_8 
REMARK    5  A    between atoms: O_14  and  C_12 
ROOT
ATOM      1  C   UNL d   1      -0.432  -1.039   0.302  0.00  0.00     0.074 A 
ATOM      2  N   UNL d   1      -0.029   0.542  -1.376  0.00  0.00    -0.355 N 
ATOM      3  HN  UNL d   1      -0.109   0.980  -2.293  1.00  0.00     0.166 HD
ATOM      4  C   UNL d   1      -0.723  -0.594  -0.980  0.00  0.00     0.026 A 
ATOM      5  S   UNL d   1       0.621   0.080   1.055  0.00  0.00    -0.069 SA
ATOM      6  C   UNL d   1       0.747   0.974  -0.403  0.00  0.00     0.076 A 
ATOM      7  C   UNL d   1      -1.659  -1.216  -1.955  0.00  0.00     0.070 C 
ENDROOT
BRANCH   6   8
ATOM      8  C   UNL d   1       1.610   2.203  -0.532  0.00  0.00     0.240 C 
BRANCH   8   9
ATOM      9  O   UNL d   1       2.762   2.125   0.319  0.00  0.00    -0.342 OA
BRANCH   9  10
ATOM     10  C   UNL d   1       2.731   2.781   1.522  0.00  0.00     0.102 A 
ATOM     11  C   UNL d   1       3.407   2.220   2.620  0.00  0.00     0.101 A 
ATOM     12  C   UNL d   1       3.336   2.858   3.868  0.00  0.00     0.039 A 
ATOM     13  C   UNL d   1       2.635   4.050   4.032  0.00  0.00     0.003 A 
ATOM     14  C   UNL d   1       2.010   4.631   2.938  0.00  0.00     0.003 A 
ATOM     15  C   UNL d   1       2.071   4.009   1.688  0.00  0.00     0.039 A 
BRANCH  11  16
ATOM     16  O   UNL d   1       4.135   1.060   2.675  0.00  0.00    -0.353 OA
ATOM     17  C   UNL d   1       4.563   0.459   1.463  0.00  0.00     0.210 C 
ENDBRANCH  11  16
ENDBRANCH   9  10
ENDBRANCH   8   9
ENDBRANCH   6   8
BRANCH   1  18
ATOM     18  C   UNL d   1      -0.926  -2.226   0.976  0.00  0.00     0.164 C 
ATOM     19  O   UNL d   1      -1.872  -2.886   0.537  0.00  0.00    -0.292 OA
ATOM     20  C   UNL d   1      -0.268  -2.679   2.260  0.00  0.00     0.097 C 
ENDBRANCH   1  18
TORSDOF 5
