REMARK  3 active torsions:
REMARK  status: ('A' for Active; 'I' for Inactive)
REMARK    1  A    between atoms: C_7  and  C_1 
REMARK    2  A    between atoms: N_14  and  C_3 
REMARK    3  A    between atoms: C_15  and  C_6 
REMARK       I    between atoms: N_10  and  C_11 
REMARK       I    between atoms: C_11  and  N_14 
ROOT
ATOM      1  C   UNL d   1       2.158  -0.701   0.045  0.00  0.00     0.153 C 
ATOM      2  N   UNL d   1       1.396  -0.108   0.925  0.00  0.00    -0.335 N 
ATOM      3  HN  UNL d   1       0.822  -0.584   1.621  1.00  0.00     0.168 HD
ATOM      4  C   UNL d   1       1.486   1.278   0.768  0.00  0.00     0.057 C 
ATOM      5  S   UNL d   1       3.192   0.293  -0.857  0.00  0.00    -0.057 SA
ATOM      6  C   UNL d   1       2.400   1.682  -0.204  0.00  0.00     0.010 C 
ATOM      7  N   UNL d   1       2.198  -2.021  -0.301  0.00  0.00    -0.288 N 
ATOM      8  C   UNL d   1       1.282  -2.958   0.081  0.00  0.00     0.326 C 
ATOM      9  N   UNL d   1       0.486  -2.649   1.149  0.00  0.00    -0.306 N 
ATOM     10  O   UNL d   1       1.251  -4.035  -0.519  0.00  0.00    -0.247 OA
ATOM     11  C   UNL d   1       2.734   3.015  -0.780  0.00  0.00     0.059 C 
ATOM     12  H   UNL d   1       2.787  -2.280  -1.078  0.00  0.00     0.172 HD
ATOM     13  H   UNL d   1       0.892  -1.987   1.803  0.00  0.00     0.171 HD
ENDROOT
BRANCH   9  14
ATOM     14  C   UNL d   1      -0.517  -3.478   1.617  0.00  0.00     0.077 A 
ATOM     15  C   UNL d   1      -1.480  -4.177   0.905  0.00  0.00     0.186 A 
ATOM     16  O   UNL d   1      -2.270  -4.878   1.788  0.00  0.00    -0.308 OA
ATOM     17  C   UNL d   1      -1.835  -4.593   3.045  0.00  0.00     0.052 A 
ATOM     18  C   UNL d   1      -2.552  -5.248   4.156  0.00  0.00     0.077 C 
ATOM     19  C   UNL d   1      -0.785  -3.707   2.991  0.00  0.00     0.064 A 
BRANCH  15  20
ATOM     20  C   UNL d   1      -1.905  -4.237  -0.515  0.00  0.00     0.441 C 
ATOM     21  F   UNL d   1      -1.234  -3.381  -1.331  0.00  0.00    -0.164 F 
ATOM     22  F   UNL d   1      -1.786  -5.481  -1.051  0.00  0.00    -0.164 F 
ATOM     23  F   UNL d   1      -3.220  -3.896  -0.641  0.00  0.00    -0.164 F 
ENDBRANCH  15  20
ENDBRANCH   9  14
BRANCH   4  24
ATOM     24  C   UNL d   1       0.562   2.141   1.517  0.00  0.00    -0.007 A 
ATOM     25  C   UNL d   1      -0.617   1.577   2.033  0.00  0.00     0.038 A 
ATOM     26  C   UNL d   1      -1.570   2.363   2.693  0.00  0.00     0.040 A 
ATOM     27 CL   UNL d   1      -2.983   1.576   3.302  0.00  0.00    -0.084 Cl
ATOM     28  C   UNL d   1      -1.379   3.742   2.844  0.00  0.00    -0.040 A 
ATOM     29  C   UNL d   1      -0.183   4.298   2.376  0.00  0.00     0.009 A 
ATOM     30  C   UNL d   1      -2.403   4.625   3.498  0.00  0.00     0.050 C 
ATOM     31  C   UNL d   1       0.778   3.505   1.735  0.00  0.00     0.014 A 
ENDBRANCH   4  24
TORSDOF 3
