REMARK  5 active torsions:
REMARK  status: ('A' for Active; 'I' for Inactive)
REMARK       I    between atoms: N_2  and  C_1 
REMARK       I    between atoms: N_6  and  C_1 
REMARK    1  A    between atoms: C_4  and  N_2 
REMARK    2  A    between atoms: C_3  and  C_5 
REMARK    3  A    between atoms: O_13  and  C_3 
REMARK    4  A    between atoms: C_12  and  N_6 
REMARK    5  A    between atoms: C_14  and  C_12 
ROOT
ATOM      1  C   UNL d   1       0.870   0.905  -0.839  0.00  0.00     0.321 C 
ATOM      2  N   UNL d   1       2.219   0.737  -0.576  0.00  0.00    -0.308 N 
ATOM      3  N   UNL d   1       0.164   1.079   0.331  0.00  0.00    -0.339 N 
ATOM      4  O   UNL d   1       0.337   0.854  -1.939  0.00  0.00    -0.247 OA
ATOM      5  H   UNL d   1       2.373   0.260   0.300  0.00  0.00     0.170 HD
ATOM      6  H   UNL d   1       0.670   1.400   1.142  0.00  0.00     0.164 HD
ENDROOT
BRANCH   3   7
ATOM      7  C   UNL d   1      -1.277   1.220   0.340  0.00  0.00     0.162 C 
BRANCH   7   8
ATOM      8  C   UNL d   1      -1.708   2.591   0.801  0.00  0.00    -0.040 A 
ATOM      9  C   UNL d   1      -1.373   3.727   0.051  0.00  0.00     0.010 A 
ATOM     10  C   UNL d   1      -1.791   4.997   0.460  0.00  0.00     0.018 A 
ATOM     11  C   UNL d   1      -2.555   5.155   1.623  0.00  0.00     0.039 A 
ATOM     12  C   UNL d   1      -2.901   4.023   2.372  0.00  0.00     0.018 A 
ATOM     13  C   UNL d   1      -2.479   2.752   1.962  0.00  0.00     0.010 A 
BRANCH  11  14
ATOM     14  C   UNL d   1      -2.969   6.533   2.008  0.00  0.00     0.292 C 
ATOM     15  O   UNL d   1      -2.670   7.530   1.365  0.00  0.00    -0.259 OA
BRANCH  14  16
ATOM     16  O   UNL d   1      -3.702   6.523   3.150  0.00  0.00    -0.323 OA
ATOM     17  C   UNL d   1      -4.125   7.820   3.575  0.00  0.00     0.213 C 
ENDBRANCH  14  16
ENDBRANCH  11  14
ENDBRANCH   7   8
ENDBRANCH   3   7
BRANCH   2  18
ATOM     18  C   UNL d   1       3.168   0.459  -1.589  0.00  0.00     0.042 A 
ATOM     19  C   UNL d   1       3.316   1.218  -2.763  0.00  0.00    -0.035 A 
ATOM     20  C   UNL d   1       2.573   2.496  -3.039  0.00  0.00     0.050 C 
ATOM     21  C   UNL d   1       4.243   0.790  -3.733  0.00  0.00     0.009 A 
ATOM     22  C   UNL d   1       5.039  -0.335  -3.524  0.00  0.00     0.001 A 
ATOM     23  C   UNL d   1       4.936  -1.041  -2.332  0.00  0.00     0.002 A 
ATOM     24  C   UNL d   1       4.016  -0.637  -1.364  0.00  0.00     0.030 A 
ENDBRANCH   2  18
TORSDOF 5
