REMARK  8 active torsions:
REMARK  status: ('A' for Active; 'I' for Inactive)
REMARK    1  A    between atoms: N_2  and  C_1 
REMARK    2  A    between atoms: N_5  and  C_1 
REMARK    3  A    between atoms: C_3  and  N_2 
REMARK       I    between atoms: C_4  and  N_7 
REMARK    4  A    between atoms: C_10  and  C_4 
REMARK    5  A    between atoms: N_7  and  N_5 
REMARK    6  A    between atoms: C_14  and  C_10 
REMARK    7  A    between atoms: O_19  and  C_12 
REMARK    8  A    between atoms: C_13  and  C_14 
ROOT
ATOM      1  C   UNL d   1      -1.922  -1.469   2.022  0.00  0.00     0.236 C 
ATOM      2  N   UNL d   1      -1.366  -0.843   0.924  0.00  0.00    -0.268 N 
ATOM      3  O   UNL d   1      -1.241  -1.859   2.969  0.00  0.00    -0.272 OA
ATOM      4  H   UNL d   1      -1.899  -0.479   0.139  0.00  0.00     0.190 HD
ENDROOT
BRANCH   2   5
ATOM      5  N   UNL d   1       0.001  -0.545   0.987  0.00  0.00    -0.274 N 
ATOM      6  H   UNL d   1       0.422  -0.827   1.876  0.00  0.00     0.189 HD
BRANCH   5   7
ATOM      7  C   UNL d   1       0.820  -0.645  -0.114  0.00  0.00     0.191 C 
ATOM      8  S   UNL d   1       0.299  -0.923  -1.679  0.00  0.00    -0.039 SA
BRANCH   7   9
ATOM      9  N   UNL d   1       2.167  -0.550   0.137  0.00  0.00    -0.331 N 
ATOM     10  H   UNL d   1       2.764  -0.984  -0.561  0.00  0.00     0.168 HD
BRANCH   9  11
ATOM     11  C   UNL d   1       2.822  -0.010   1.271  0.00  0.00     0.056 A 
ATOM     12  C   UNL d   1       4.101  -0.469   1.622  0.00  0.00     0.060 A 
ATOM     13 CL   UNL d   1       4.893  -1.702   0.705  0.00  0.00    -0.082 Cl
ATOM     14  C   UNL d   1       4.746   0.030   2.757  0.00  0.00     0.026 A 
ATOM     15  C   UNL d   1       4.138   1.021   3.529  0.00  0.00     0.002 A 
ATOM     16  C   UNL d   1       2.894   1.523   3.157  0.00  0.00     0.002 A 
ATOM     17  C   UNL d   1       2.242   1.013   2.033  0.00  0.00     0.031 A 
ENDBRANCH   9  11
ENDBRANCH   7   9
ENDBRANCH   5   7
ENDBRANCH   2   5
BRANCH   1  18
ATOM     18  C   UNL d   1      -3.427  -1.569   1.964  0.00  0.00     0.109 C 
BRANCH  18  19
ATOM     19  C   UNL d   1      -3.970  -2.361   3.150  0.00  0.00     0.048 C 
BRANCH  19  20
ATOM     20  C   UNL d   1      -5.479  -2.375   3.170  0.00  0.00    -0.058 A 
ATOM     21  C   UNL d   1      -6.190  -3.360   2.474  0.00  0.00     0.010 A 
ATOM     22  C   UNL d   1      -7.585  -3.364   2.492  0.00  0.00     0.037 A 
ATOM     23  C   UNL d   1      -8.270  -2.386   3.201  0.00  0.00     0.065 A 
ATOM     24  C   UNL d   1      -7.581  -1.392   3.891  0.00  0.00     0.037 A 
ATOM     25  C   UNL d   1      -6.185  -1.388   3.872  0.00  0.00     0.010 A 
BRANCH  23  26
ATOM     26  O   UNL d   1      -9.633  -2.433   3.197  0.00  0.00    -0.361 OA
ATOM     27  H   UNL d   1      -9.967  -1.715   3.758  0.00  0.00     0.217 HD
ENDBRANCH  23  26
ENDBRANCH  19  20
ENDBRANCH  18  19
ENDBRANCH   1  18
TORSDOF 8
