REMARK  6 active torsions:
REMARK  status: ('A' for Active; 'I' for Inactive)
REMARK    1  A    between atoms: C_3  and  C_5 
REMARK    2  A    between atoms: N_8  and  C_4 
REMARK    3  A    between atoms: C_5  and  O_18 
REMARK    4  A    between atoms: C_23  and  N_8 
REMARK    5  A    between atoms: O_18  and  C_22 
REMARK    6  A    between atoms: C_22  and  C_23 
ROOT
ATOM      1  N   UNL d   1      -3.236   0.174  -2.420  0.00  0.00    -0.351 N 
ATOM      2  HN  UNL d   1      -3.743  -0.707  -2.508  1.00  0.00     0.166 HD
ATOM      3  C   UNL d   1      -3.055   0.736  -1.200  0.00  0.00     0.102 A 
ATOM      4  N   UNL d   1      -1.116   3.047  -5.679  0.00  0.00    -0.191 NA
ATOM      5  C   UNL d   1      -1.527   2.564  -4.705  0.00  0.00     0.101 C 
ATOM      6  C   UNL d   1      -2.027   1.974  -3.503  0.00  0.00     0.060 A 
ATOM      7  C   UNL d   1      -2.332   1.931  -1.114  0.00  0.00     0.050 A 
ATOM      8  C   UNL d   1      -2.739   0.789  -3.525  0.00  0.00     0.112 A 
ATOM      9  C   UNL d   1      -1.820   2.554  -2.261  0.00  0.00     0.028 A 
ENDROOT
BRANCH   3  10
ATOM     10  N   UNL d   1      -3.582   0.090  -0.099  0.00  0.00    -0.370 N 
ATOM     11  C   UNL d   1      -3.609   0.647   1.247  0.00  0.00     0.151 C 
BRANCH  10  12
ATOM     12  C   UNL d   1      -4.401  -1.123  -0.300  0.00  0.00     0.150 C 
BRANCH  12  13
ATOM     13  C   UNL d   1      -3.578  -2.412  -0.165  0.00  0.00     0.199 C 
BRANCH  13  14
ATOM     14  O   UNL d   1      -4.409  -3.595  -0.260  0.00  0.00    -0.316 OA
BRANCH  14  15
ATOM     15  C   UNL d   1      -4.991  -4.001   0.896  0.00  0.00     0.293 C 
ATOM     16  O   UNL d   1      -4.921  -3.418   1.967  0.00  0.00    -0.259 OA
BRANCH  15  17
ATOM     17  C   UNL d   1      -5.747  -5.277   0.721  0.00  0.00     0.042 A 
ATOM     18  C   UNL d   1      -6.404  -5.810   1.842  0.00  0.00     0.041 A 
ATOM     19  C   UNL d   1      -7.128  -6.999   1.733  0.00  0.00     0.036 A 
ATOM     20 CL   UNL d   1      -7.931  -7.639   3.115  0.00  0.00    -0.084 Cl
ATOM     21  C   UNL d   1      -7.208  -7.671   0.519  0.00  0.00     0.047 A 
ATOM     22  C   UNL d   1      -6.553  -7.144  -0.593  0.00  0.00     0.036 A 
ATOM     23  C   UNL d   1      -5.823  -5.955  -0.501  0.00  0.00     0.041 A 
ATOM     24 CL   UNL d   1      -6.651  -7.972  -2.098  0.00  0.00    -0.084 Cl
ENDBRANCH  15  17
ENDBRANCH  14  15
ENDBRANCH  13  14
ENDBRANCH  12  13
ENDBRANCH  10  12
ENDBRANCH   3  10
TORSDOF 6
