REMARK  6 active torsions:
REMARK  status: ('A' for Active; 'I' for Inactive)
REMARK    1  A    between atoms: C_3  and  N_1 
REMARK    2  A    between atoms: S_12  and  C_2 
REMARK    3  A    between atoms: C_4  and  C_13 
REMARK    4  A    between atoms: C_27  and  S_12 
REMARK    5  A    between atoms: C_14  and  C_27 
REMARK       I    between atoms: N_16  and  C_14 
REMARK    6  A    between atoms: C_20  and  N_16 
ROOT
ATOM      1  N   UNL d   1      -0.467   1.068  -0.374  0.00  0.00    -0.286 N 
ATOM      2  C   UNL d   1       0.770   0.549  -0.729  0.00  0.00     0.167 A 
ATOM      3  N   UNL d   1       0.792  -0.749  -0.505  0.00  0.00    -0.279 N 
ATOM      4  HN  UNL d   1       1.581  -1.371  -0.681  1.00  0.00     0.189 HD
ATOM      5  N   UNL d   1      -0.419  -1.121   0.001  0.00  0.00    -0.294 N 
ATOM      6  HN  UNL d   1      -0.698  -2.065   0.270  1.00  0.00     0.187 HD
ATOM      7  C   UNL d   1      -1.156  -0.041   0.078  0.00  0.00     0.207 A 
ENDROOT
BRANCH   2   8
ATOM      8  S   UNL d   1       2.193   1.439  -1.215  0.00  0.00    -0.083 SA
BRANCH   8   9
ATOM      9  C   UNL d   1       3.354   0.050  -1.315  0.00  0.00     0.185 C 
BRANCH   9  10
ATOM     10  C   UNL d   1       4.764   0.364  -1.764  0.00  0.00     0.231 C 
ATOM     11  N   UNL d   1       5.074   1.672  -2.088  0.00  0.00    -0.327 N 
ATOM     12  H   UNL d   1       4.375   2.372  -1.863  0.00  0.00     0.169 HD
ATOM     13  O   UNL d   1       5.572  -0.571  -1.790  0.00  0.00    -0.272 OA
BRANCH  11  14
ATOM     14  C   UNL d   1       6.351   2.129  -2.492  0.00  0.00     0.035 A 
ATOM     15  C   UNL d   1       7.354   1.267  -2.944  0.00  0.00     0.045 A 
ATOM     16  C   UNL d   1       8.653   1.723  -3.209  0.00  0.00     0.050 A 
ATOM     17  C   UNL d   1       8.931   3.088  -3.063  0.00  0.00     0.016 A 
ATOM     18  C   UNL d   1       7.922   3.971  -2.676  0.00  0.00     0.003 A 
ATOM     19  C   UNL d   1       6.633   3.496  -2.397  0.00  0.00     0.029 A 
BRANCH  16  20
ATOM     20  C   UNL d   1       9.739   0.752  -3.604  0.00  0.00     0.417 C 
ATOM     21  F   UNL d   1       9.316  -0.537  -3.720  0.00  0.00    -0.166 F 
ATOM     22  F   UNL d   1      10.305   1.064  -4.803  0.00  0.00    -0.166 F 
ATOM     23  F   UNL d   1      10.762   0.728  -2.705  0.00  0.00    -0.166 F 
ENDBRANCH  16  20
ENDBRANCH  11  14
ENDBRANCH   9  10
ENDBRANCH   8   9
ENDBRANCH   2   8
BRANCH   1  24
ATOM     24  C   UNL d   1      -0.981   2.393  -0.393  0.00  0.00     0.045 A 
ATOM     25  C   UNL d   1      -1.994   2.746   0.516  0.00  0.00     0.069 A 
ATOM     26  C   UNL d   1      -2.442   4.064   0.595  0.00  0.00     0.104 A 
ATOM     27  O   UNL d   1      -3.373   4.333   1.564  0.00  0.00    -0.346 OA
ATOM     28  C   UNL d   1      -1.903   5.036  -0.249  0.00  0.00     0.102 A 
ATOM     29  C   UNL d   1      -3.870   5.675   1.490  0.00  0.00     0.202 C 
ATOM     30  C   UNL d   1      -2.765   6.657   1.133  0.00  0.00     0.202 C 
ATOM     31  O   UNL d   1      -2.242   6.361  -0.168  0.00  0.00    -0.346 OA
ATOM     32  C   UNL d   1      -0.964   4.679  -1.211  0.00  0.00     0.042 A 
ATOM     33  C   UNL d   1      -0.496   3.362  -1.280  0.00  0.00     0.033 A 
ENDBRANCH   1  24
TORSDOF 6
