REMARK  6 active torsions:
REMARK  status: ('A' for Active; 'I' for Inactive)
REMARK    1  A    between atoms: C_9  and  C_1 
REMARK    2  A    between atoms: C_12  and  C_2 
REMARK    3  A    between atoms: C_3  and  O_8 
REMARK       I    between atoms: N_6  and  C_3 
REMARK    4  A    between atoms: O_8  and  N_4 
REMARK    5  A    between atoms: C_11  and  N_6 
REMARK    6  A    between atoms: C_10  and  C_13 
ROOT
ATOM      1  N   UNL d   1      -5.389  -0.229  -1.061  0.00  0.00    -0.267 N 
ATOM      2  HN  UNL d   1      -4.980  -1.161  -0.999  1.00  0.00     0.194 HD
ATOM      3  C   UNL d   1      -6.496   0.148  -0.475  0.00  0.00     0.126 C 
ENDROOT
BRANCH   3   4
ATOM      4  C   UNL d   1      -7.090   1.515  -0.392  0.00  0.00    -0.019 A 
ATOM      5  C   UNL d   1      -8.484   1.647  -0.405  0.00  0.00     0.014 A 
ATOM      6  C   UNL d   1      -9.069   2.922  -0.363  0.00  0.00     0.021 A 
ATOM      7  C   UNL d   1      -8.269   4.066  -0.298  0.00  0.00     0.018 A 
ATOM      8  C   UNL d   1      -6.882   3.932  -0.234  0.00  0.00     0.021 A 
ATOM      9  C   UNL d   1      -6.295   2.661  -0.264  0.00  0.00     0.014 A 
BRANCH   7  10
ATOM     10  C   UNL d   1      -8.867   5.372  -0.303  0.00  0.00    -0.061 C 
ATOM     11  C   UNL d   1      -9.362   6.464  -0.315  0.00  0.00    -0.061 C 
BRANCH  11  12
ATOM     12  C   UNL d   1      -9.956   7.764  -0.320  0.00  0.00     0.018 A 
ATOM     13  C   UNL d   1     -11.347   7.894  -0.274  0.00  0.00     0.020 A 
ATOM     14  C   UNL d   1     -11.927   9.163  -0.244  0.00  0.00     0.001 A 
ATOM     15  C   UNL d   1     -11.120  10.301  -0.260  0.00  0.00     0.000 A 
ATOM     16  C   UNL d   1      -9.732  10.172  -0.314  0.00  0.00     0.001 A 
ATOM     17  C   UNL d   1      -9.150   8.904  -0.344  0.00  0.00     0.020 A 
ENDBRANCH  11  12
ENDBRANCH   7  10
ENDBRANCH   3   4
BRANCH   1  18
ATOM     18  O   UNL d   1      -4.850   0.845  -1.788  0.00  0.00    -0.181 OA
BRANCH  18  19
ATOM     19  C   UNL d   1      -3.566   0.670  -2.259  0.00  0.00     0.387 C 
ATOM     20  N   UNL d   1      -3.027  -0.588  -2.099  0.00  0.00    -0.301 N 
ATOM     21  H   UNL d   1      -3.683  -1.263  -1.723  0.00  0.00     0.171 HD
ATOM     22  O   UNL d   1      -3.014   1.625  -2.796  0.00  0.00    -0.236 OA
BRANCH  20  23
ATOM     23  C   UNL d   1      -1.705  -0.977  -2.416  0.00  0.00     0.037 A 
ATOM     24  C   UNL d   1      -0.699  -0.058  -2.748  0.00  0.00     0.031 A 
ATOM     25  C   UNL d   1       0.615  -0.472  -2.990  0.00  0.00     0.026 A 
ATOM     26  C   UNL d   1       0.937  -1.819  -2.914  0.00  0.00     0.034 A 
ATOM     27  C   UNL d   1      -0.050  -2.756  -2.616  0.00  0.00     0.026 A 
ATOM     28 CL   UNL d   1       2.563  -2.323  -3.167  0.00  0.00    -0.084 Cl
ATOM     29  C   UNL d   1      -1.367  -2.336  -2.363  0.00  0.00     0.031 A 
ENDBRANCH  20  23
ENDBRANCH  18  19
ENDBRANCH   1  18
TORSDOF 6
