REMARK  4 active torsions:
REMARK  status: ('A' for Active; 'I' for Inactive)
REMARK    1  A    between atoms: C_6  and  N_1 
REMARK    2  A    between atoms: C_3  and  N_7 
REMARK    3  A    between atoms: N_7  and  N_9 
REMARK    4  A    between atoms: C_16  and  C_17 
ROOT
ATOM      1  N   UNL d   1       1.362   0.888  -5.087  0.00  0.00    -0.309 N 
ATOM      2  HN  UNL d   1       2.153   0.665  -4.483  1.00  0.00     0.186 HD
ATOM      3  C   UNL d   1       0.226   1.339  -4.661  0.00  0.00     0.118 C 
ENDROOT
BRANCH   1   4
ATOM      4  N   UNL d   1       1.368   0.746  -6.470  0.00  0.00    -0.280 N 
ATOM      5  HN  UNL d   1       0.542   0.905  -7.047  1.00  0.00     0.189 HD
BRANCH   4   6
ATOM      6  C   UNL d   1       2.510   0.394  -6.960  0.00  0.00     0.162 A 
ATOM      7  N   UNL d   1       2.636   0.154  -8.286  0.00  0.00    -0.306 N 
ATOM      8  C   UNL d   1       3.853  -0.231  -8.760  0.00  0.00     0.233 A 
ATOM      9  H   UNL d   1       1.831   0.192  -8.890  0.00  0.00     0.171 HD
ATOM     10  O   UNL d   1       4.054  -0.550  -9.925  0.00  0.00    -0.272 OA
ATOM     11  C   UNL d   1       4.911  -0.199  -7.688  0.00  0.00     0.185 A 
ATOM     12  S   UNL d   1       4.027   0.146  -6.144  0.00  0.00    -0.083 SA
ENDBRANCH   4   6
ENDBRANCH   1   4
BRANCH   3  13
ATOM     13  C   UNL d   1      -0.053   1.480  -3.219  0.00  0.00    -0.017 A 
ATOM     14  C   UNL d   1       0.906   1.109  -2.270  0.00  0.00     0.048 A 
ATOM     15  C   UNL d   1       0.582   1.185  -0.912  0.00  0.00     0.103 A 
ATOM     16  C   UNL d   1      -0.683   1.631  -0.501  0.00  0.00     0.036 A 
ATOM     17  C   UNL d   1      -1.626   2.012  -1.458  0.00  0.00     0.003 A 
ATOM     18  C   UNL d   1      -1.313   1.936  -2.817  0.00  0.00     0.013 A 
BRANCH  15  19
ATOM     19  N   UNL d   1       1.567   0.770   0.097  0.00  0.00    -0.116 N 
ATOM     20  O   UNL d   1       2.671   0.377  -0.301  0.00  0.00    -0.532 OA
ATOM     21  O   UNL d   1       1.232   0.837   1.289  0.00  0.00    -0.532 OA
ENDBRANCH  15  19
ENDBRANCH   3  13
TORSDOF 4
