REMARK  4 active torsions:
REMARK  status: ('A' for Active; 'I' for Inactive)
REMARK    1  A    between atoms: C_3  and  CA_1 
REMARK    2  A    between atoms: N_4  and  CA_1 
REMARK    3  A    between atoms: C_5  and  C_2 
REMARK    4  A    between atoms: OXT_14  and  C_3 
REMARK       I    between atoms: C_6  and  N_4 
ROOT
ATOM      1  CA  UNL d   1       1.105   0.136  -0.197  0.00  0.00     0.110 C 
ATOM      2  C   UNL d   1       0.376   0.733  -1.156  0.00  0.00     0.048 C 
ENDROOT
BRANCH   1   3
ATOM      3  C   UNL d   1       0.465  -0.704   0.873  0.00  0.00     0.193 C 
ATOM      4  O   UNL d   1       1.129  -1.512   1.507  0.00  0.00    -0.645 OA
BRANCH   3   5
ATOM      5  OXT UNL d   1      -0.842  -0.493   1.115  0.00  0.00    -0.772 OA
ATOM      6  HXT UNL d   1      -1.226   0.305   0.715  0.00  0.00     0.167 HD
ENDBRANCH   3   5
ENDBRANCH   1   3
BRANCH   1   7
ATOM      7  N   UNL d   1       2.493   0.100  -0.158  0.00  0.00    -0.322 N 
ATOM      8  C   UNL d   1       3.303   1.221  -0.164  0.00  0.00     0.218 C 
ATOM      9  O   UNL d   1       2.909   2.380  -0.183  0.00  0.00    -0.274 OA
ATOM     10  C   UNL d   1       4.770   0.879  -0.112  0.00  0.00     0.117 C 
ATOM     11  H   UNL d   1       2.857  -0.667   0.410  0.00  0.00     0.169 HD
ENDBRANCH   1   7
BRANCH   2  12
ATOM     12  C   UNL d   1       0.868   1.393  -2.374  0.00  0.00    -0.028 A 
ATOM     13  C   UNL d   1       1.120   0.635  -3.525  0.00  0.00     0.053 A 
ATOM     14  C   UNL d   1       1.469   1.277  -4.712  0.00  0.00     0.120 A 
ATOM     15  F   UNL d   1       1.681   0.545  -5.814  0.00  0.00    -0.206 F 
ATOM     16  C   UNL d   1       1.577   2.658  -4.779  0.00  0.00     0.084 A 
ATOM     17  C   UNL d   1       1.347   3.400  -3.630  0.00  0.00     0.120 A 
ATOM     18  C   UNL d   1       0.991   2.784  -2.432  0.00  0.00     0.053 A 
ATOM     19  F   UNL d   1       1.449   4.735  -3.678  0.00  0.00    -0.206 F 
ENDBRANCH   2  12
TORSDOF 4
