REMARK  5 active torsions:
REMARK  status: ('A' for Active; 'I' for Inactive)
REMARK    1  A    between atoms: C_2  and  N_1 
REMARK       I    between atoms: C_4  and  N_1 
REMARK    2  A    between atoms: N_6  and  C_2 
REMARK    3  A    between atoms: C_3  and  C_5 
REMARK    4  A    between atoms: C_7  and  C_4 
REMARK    5  A    between atoms: C_11  and  N_6 
ROOT
ATOM      1  N   UNL d   1       1.019   1.047  -2.069  0.00  0.00    -0.333 N 
ATOM      2  H   UNL d   1       1.825   1.540  -1.678  0.00  0.00     0.168 HD
ENDROOT
BRANCH   1   3
ATOM      3  C   UNL d   1       0.327   0.295  -1.151  0.00  0.00     0.178 C 
ATOM      4  S   UNL d   1      -1.269  -0.208  -1.200  0.00  0.00    -0.040 SA
BRANCH   3   5
ATOM      5  N   UNL d   1       1.044  -0.088  -0.035  0.00  0.00    -0.303 N 
ATOM      6  C   UNL d   1       2.347   0.226   0.328  0.00  0.00     0.231 C 
ATOM      7  O   UNL d   1       3.000   1.094  -0.247  0.00  0.00    -0.272 OA
ATOM      8  H   UNL d   1       0.519  -0.712   0.561  0.00  0.00     0.171 HD
BRANCH   6   9
ATOM      9  C   UNL d   1       2.905  -0.613   1.499  0.00  0.00     0.030 C 
ATOM     10  C   UNL d   1       3.083  -2.066   1.031  0.00  0.00     0.025 C 
ATOM     11  C   UNL d   1       4.272  -0.055   1.925  0.00  0.00     0.025 C 
ATOM     12  C   UNL d   1       1.960  -0.566   2.711  0.00  0.00     0.025 C 
ENDBRANCH   6   9
ENDBRANCH   3   5
ENDBRANCH   1   3
BRANCH   1  13
ATOM     13  C   UNL d   1       0.761   1.283  -3.435  0.00  0.00     0.035 A 
ATOM     14  C   UNL d   1       0.016   0.413  -4.235  0.00  0.00     0.045 A 
ATOM     15  C   UNL d   1      -0.169   0.661  -5.606  0.00  0.00     0.050 A 
ATOM     16  C   UNL d   1       0.409   1.804  -6.172  0.00  0.00     0.016 A 
ATOM     17  C   UNL d   1       1.173   2.667  -5.389  0.00  0.00     0.003 A 
ATOM     18  C   UNL d   1       1.363   2.397  -4.030  0.00  0.00     0.029 A 
BRANCH  15  19
ATOM     19  C   UNL d   1      -0.948  -0.305  -6.464  0.00  0.00     0.417 C 
ATOM     20  F   UNL d   1      -1.464  -1.361  -5.776  0.00  0.00    -0.166 F 
ATOM     21  F   UNL d   1      -2.003   0.284  -7.090  0.00  0.00    -0.166 F 
ATOM     22  F   UNL d   1      -0.184  -0.848  -7.454  0.00  0.00    -0.166 F 
ENDBRANCH  15  19
ENDBRANCH   1  13
TORSDOF 5
