REMARK  7 active torsions:
REMARK  status: ('A' for Active; 'I' for Inactive)
REMARK    1  A    between atoms: C_5  and  N_1 
REMARK    2  A    between atoms: N_2  and  C_3 
REMARK       I    between atoms: C_4  and  N_2 
REMARK    3  A    between atoms: C_8  and  C_4 
REMARK    4  A    between atoms: C_6  and  C_8 
REMARK    5  A    between atoms: C_10  and  C_6 
REMARK    6  A    between atoms: C_7  and  C_10 
REMARK    7  A    between atoms: O_13  and  C_7 
ROOT
ATOM      1  N   UNL d   1      -1.750   1.312  -3.067  0.00  0.00    -0.325 N 
ATOM      2  C   UNL d   1      -1.071   1.768  -1.973  0.00  0.00     0.223 C 
ATOM      3  O   UNL d   1      -0.755   2.968  -1.991  0.00  0.00    -0.273 OA
ATOM      4  H   UNL d   1      -1.998   2.094  -3.663  0.00  0.00     0.169 HD
ENDROOT
BRANCH   1   5
ATOM      5  C   UNL d   1      -2.649   0.237  -3.162  0.00  0.00     0.061 A 
ATOM      6  C   UNL d   1      -4.048   0.459  -3.373  0.00  0.00     0.057 A 
ATOM      7  C   UNL d   1      -4.774  -0.708  -3.715  0.00  0.00     0.031 A 
ATOM      8  C   UNL d   1      -4.190  -1.978  -3.850  0.00  0.00     0.002 A 
ATOM      9  C   UNL d   1      -2.835  -2.146  -3.621  0.00  0.00     0.002 A 
ATOM     10  C   UNL d   1      -2.068  -1.040  -3.279  0.00  0.00     0.032 A 
BRANCH   6  11
ATOM     11  N   UNL d   1      -4.724   1.671  -3.191  0.00  0.00    -0.375 N 
ATOM     12  C   UNL d   1      -4.107   2.946  -2.761  0.00  0.00     0.149 C 
ATOM     13  C   UNL d   1      -5.028   3.732  -1.815  0.00  0.00     0.187 C 
ATOM     14  O   UNL d   1      -6.308   3.970  -2.396  0.00  0.00    -0.388 OA
ATOM     15  C   UNL d   1      -6.925   2.717  -2.721  0.00  0.00     0.187 C 
ATOM     16  C   UNL d   1      -6.084   1.924  -3.740  0.00  0.00     0.149 C 
ENDBRANCH   6  11
ENDBRANCH   1   5
BRANCH   2  17
ATOM     17  C   UNL d   1      -0.631   0.909  -0.799  0.00  0.00     0.113 C 
BRANCH  17  18
ATOM     18  C   UNL d   1      -1.546   0.524   0.417  0.00  0.00    -0.023 C 
ATOM     19  C   UNL d   1      -2.478   1.660   0.897  0.00  0.00     0.010 C 
ATOM     20  C   UNL d   1      -1.889   2.232   2.186  0.00  0.00     0.001 C 
ATOM     21  C   UNL d   1      -0.500   1.640   2.324  0.00  0.00     0.001 C 
ATOM     22  C   UNL d   1      -0.582   0.295   1.617  0.00  0.00     0.010 C 
BRANCH  18  23
ATOM     23  C   UNL d   1      -2.352  -0.752   0.090  0.00  0.00     0.119 C 
BRANCH  23  24
ATOM     24  C   UNL d   1      -3.172  -1.388   1.210  0.00  0.00     0.140 C 
ATOM     25  O   UNL d   1      -3.201  -1.043   2.375  0.00  0.00    -0.650 OA
BRANCH  24  26
ATOM     26  O   UNL d   1      -3.906  -2.433   0.755  0.00  0.00    -0.776 OA
ATOM     27  H   UNL d   1      -3.827  -2.581  -0.205  0.00  0.00     0.167 HD
ENDBRANCH  24  26
ENDBRANCH  23  24
ENDBRANCH  18  23
ENDBRANCH  17  18
ENDBRANCH   2  17
TORSDOF 7
