REMARK  2 active torsions:
REMARK  status: ('A' for Active; 'I' for Inactive)
REMARK    1  A    between atoms: N_5  and  C_3 
REMARK    2  A    between atoms: C_7  and  C_4 
REMARK       I    between atoms: C_10  and  N_5 
ROOT
ATOM      1  N   UNL d   1       1.534  -0.607  -0.116  0.00  0.00    -0.335 N 
ATOM      2  HN  UNL d   1       2.450  -1.040  -0.232  1.00  0.00     0.168 HD
ATOM      3  C   UNL d   1       0.405  -1.253  -0.031  0.00  0.00     0.151 A 
ATOM      4  C   UNL d   1       1.305   0.754  -0.025  0.00  0.00     0.058 A 
ATOM      5  S   UNL d   1      -1.008  -0.300   0.070  0.00  0.00    -0.063 SA
ATOM      6  C   UNL d   1      -0.024   1.112   0.094  0.00  0.00     0.084 A 
ENDROOT
BRANCH   3   7
ATOM      7  N   UNL d   1       0.188  -2.602   0.001  0.00  0.00    -0.307 N 
ATOM      8  C   UNL d   1       1.230  -3.497   0.102  0.00  0.00     0.219 C 
ATOM      9  O   UNL d   1       2.426  -3.241   0.180  0.00  0.00    -0.274 OA
ATOM     10  C   UNL d   1       0.764  -4.932   0.151  0.00  0.00     0.117 C 
ATOM     11  H   UNL d   1      -0.772  -2.907   0.041  0.00  0.00     0.171 HD
ENDBRANCH   3   7
BRANCH   4  12
ATOM     12  C   UNL d   1       2.458   1.708  -0.039  0.00  0.00     0.032 A 
ATOM     13  S   UNL d   1       2.359   3.395   0.197  0.00  0.00    -0.100 SA
ATOM     14  C   UNL d   1       4.058   3.575   0.073  0.00  0.00     0.050 A 
ATOM     15  C   UNL d   1       4.687   2.375  -0.173  0.00  0.00     0.008 A 
ATOM     16  C   UNL d   1       3.760   1.294  -0.236  0.00  0.00     0.021 A 
ENDBRANCH   4  12
TORSDOF 2
