REMARK  3 active torsions:
REMARK  status: ('A' for Active; 'I' for Inactive)
REMARK    1  A    between atoms: C_2  and  S_1 
REMARK    2  A    between atoms: N_3  and  S_1 
REMARK    3  A    between atoms: C_7  and  N_3 
ROOT
ATOM      1  S   UNL d   1       1.085   0.369   0.138  0.00  0.00     0.264 S 
ATOM      2  O   UNL d   1       0.433  -0.919   0.064  0.00  0.00    -0.200 OA
ATOM      3  O   UNL d   1       2.473   0.491  -0.259  0.00  0.00    -0.200 OA
ENDROOT
BRANCH   1   4
ATOM      4  C   UNL d   1       0.913   1.022   1.786  0.00  0.00     0.096 A 
ATOM      5  C   UNL d   1      -0.201   0.815   2.608  0.00  0.00     0.029 A 
ATOM      6  I   UNL d   1      -1.983  -0.152   2.066  0.00  0.00    -0.043 I 
ATOM      7  C   UNL d   1      -0.194   1.342   3.912  0.00  0.00     0.020 A 
ATOM      8  C   UNL d   1       0.891   2.083   4.382  0.00  0.00     0.001 A 
ATOM      9  C   UNL d   1       1.985   2.309   3.556  0.00  0.00     0.002 A 
ATOM     10  C   UNL d   1       2.002   1.776   2.270  0.00  0.00     0.027 A 
ENDBRANCH   1   4
BRANCH   1  11
ATOM     11  N   UNL d   1       0.168   1.444  -0.763  0.00  0.00    -0.281 N 
ATOM     12  H   UNL d   1      -0.498   1.009  -1.399  0.00  0.00     0.179 HD
BRANCH  11  13
ATOM     13  C   UNL d   1       0.667   2.735  -1.073  0.00  0.00     0.042 A 
ATOM     14  C   UNL d   1       1.643   2.913  -2.051  0.00  0.00     0.030 A 
ATOM     15  C   UNL d   1       2.004   4.204  -2.447  0.00  0.00     0.009 A 
ATOM     16  C   UNL d   1       1.381   5.322  -1.878  0.00  0.00    -0.062 A 
ATOM     17  C   UNL d   1       0.427   5.130  -0.871  0.00  0.00     0.009 A 
ATOM     18  C   UNL d   1       1.710   6.699  -2.376  0.00  0.00     0.048 C 
ATOM     19  C   UNL d   1       0.065   3.840  -0.476  0.00  0.00     0.030 A 
ENDBRANCH  11  13
ENDBRANCH   1  11
TORSDOF 3
