REMARK  6 active torsions:
REMARK  status: ('A' for Active; 'I' for Inactive)
REMARK    1  A    between atoms: C_4  and  C_1 
REMARK    2  A    between atoms: C_8  and  C_2 
REMARK    3  A    between atoms: O_13  and  C_3 
REMARK    4  A    between atoms: O_14  and  C_4 
REMARK    5  A    between atoms: O_15  and  C_6 
REMARK    6  A    between atoms: O_16  and  C_7 
ROOT
ATOM      1  C   UNL d   1      -0.690  -0.102   1.153  0.00  0.00     0.118 C 
ATOM      2  C   UNL d   1       0.400  -0.787   0.745  0.00  0.00     0.041 C 
ATOM      3  C   UNL d   1      -1.173  -0.148   2.483  0.00  0.00     0.106 C 
ATOM      4  N   UNL d   1      -1.651  -0.119   3.539  0.00  0.00    -0.191 NA
ENDROOT
BRANCH   1   5
ATOM      5  C   UNL d   1      -1.409   0.710   0.139  0.00  0.00     0.187 C 
ATOM      6  O   UNL d   1      -1.070   0.766  -1.036  0.00  0.00    -0.645 OA
BRANCH   5   7
ATOM      7  O   UNL d   1      -2.488   1.390   0.587  0.00  0.00    -0.772 OA
ATOM      8  H   UNL d   1      -2.732   1.331   1.533  0.00  0.00     0.167 HD
ENDBRANCH   5   7
ENDBRANCH   1   5
BRANCH   2   9
ATOM      9  C   UNL d   1       1.176  -1.658   1.628  0.00  0.00    -0.029 A 
ATOM     10  C   UNL d   1       0.836  -3.005   1.745  0.00  0.00     0.051 A 
ATOM     11  C   UNL d   1       1.526  -3.847   2.632  0.00  0.00     0.105 A 
ATOM     12  C   UNL d   1       2.584  -3.333   3.421  0.00  0.00     0.135 A 
ATOM     13  C   UNL d   1       2.901  -1.959   3.317  0.00  0.00     0.105 A 
ATOM     14  C   UNL d   1       2.199  -1.143   2.417  0.00  0.00     0.051 A 
BRANCH  11  15
ATOM     15  O   UNL d   1       1.123  -5.147   2.822  0.00  0.00    -0.353 OA
ATOM     16  C   UNL d   1       0.522  -5.802   1.709  0.00  0.00     0.210 C 
ENDBRANCH  11  15
BRANCH  12  17
ATOM     17  O   UNL d   1       3.325  -4.057   4.317  0.00  0.00    -0.351 OA
ATOM     18  C   UNL d   1       3.321  -5.476   4.269  0.00  0.00     0.210 C 
ENDBRANCH  12  17
BRANCH  13  19
ATOM     19  O   UNL d   1       3.825  -1.228   4.020  0.00  0.00    -0.353 OA
ATOM     20  C   UNL d   1       4.774  -1.886   4.843  0.00  0.00     0.210 C 
ENDBRANCH  13  19
ENDBRANCH   2   9
TORSDOF 6
