REMARK  5 active torsions:
REMARK  status: ('A' for Active; 'I' for Inactive)
REMARK    1  A    between atoms: N_2  and  S_1 
REMARK    2  A    between atoms: C_5  and  S_1 
REMARK    3  A    between atoms: N_3  and  N_2 
REMARK    4  A    between atoms: C_4  and  N_3 
REMARK    5  A    between atoms: N_9  and  C_4 
ROOT
ATOM      1  S   UNL d   1       1.010   0.238   0.033  0.00  0.00     0.276 S 
ATOM      2  O   UNL d   1       0.466   1.576  -0.072  0.00  0.00    -0.199 OA
ATOM      3  O   UNL d   1       2.440   0.018   0.013  0.00  0.00    -0.199 OA
ENDROOT
BRANCH   1   4
ATOM      4  N   UNL d   1       0.338  -0.684  -1.207  0.00  0.00    -0.221 N 
ATOM      5  H   UNL d   1      -0.317  -1.442  -0.996  0.00  0.00     0.200 HD
BRANCH   4   6
ATOM      6  N   UNL d   1       0.686  -0.396  -2.578  0.00  0.00    -0.267 N 
ATOM      7  H   UNL d   1       1.356   0.354  -2.725  0.00  0.00     0.190 HD
BRANCH   6   8
ATOM      8  C   UNL d   1       0.162  -1.124  -3.634  0.00  0.00     0.186 C 
ATOM      9  S   UNL d   1      -0.900  -2.403  -3.428  0.00  0.00    -0.040 SA
BRANCH   8  10
ATOM     10  N   UNL d   1       0.632  -0.658  -4.846  0.00  0.00    -0.370 N 
ATOM     11  C   UNL d   1       0.312  -1.157  -6.172  0.00  0.00     0.148 C 
ATOM     12  H   UNL d   1       1.213   0.169  -4.828  0.00  0.00     0.161 HD
ENDBRANCH   8  10
ENDBRANCH   6   8
ENDBRANCH   4   6
ENDBRANCH   1   4
BRANCH   1  13
ATOM     13  C   UNL d   1       0.332  -0.535   1.474  0.00  0.00     0.081 A 
ATOM     14  C   UNL d   1       1.052  -1.541   2.122  0.00  0.00     0.026 A 
ATOM     15  C   UNL d   1       0.514  -2.147   3.258  0.00  0.00     0.008 A 
ATOM     16  C   UNL d   1      -0.737  -1.749   3.752  0.00  0.00    -0.062 A 
ATOM     17  C   UNL d   1      -1.435  -0.719   3.107  0.00  0.00     0.008 A 
ATOM     18  C   UNL d   1      -1.311  -2.430   4.961  0.00  0.00     0.048 C 
ATOM     19  C   UNL d   1      -0.902  -0.108   1.970  0.00  0.00     0.026 A 
ENDBRANCH   1  13
TORSDOF 5
