REMARK  7 active torsions:
REMARK  status: ('A' for Active; 'I' for Inactive)
REMARK    1  A    between atoms: C_10  and  S_1 
REMARK    2  A    between atoms: N_13  and  S_1 
REMARK    3  A    between atoms: C_4  and  C_5 
REMARK    4  A    between atoms: C_6  and  S_19 
REMARK    5  A    between atoms: C_21  and  N_13 
REMARK    6  A    between atoms: S_19  and  C_27 
REMARK    7  A    between atoms: C_27  and  C_21 
ROOT
ATOM      1  N   UNL d   1       9.862  -0.285  -3.034  0.00  0.00    -0.352 N 
ATOM      2  HN  UNL d   1      10.878  -0.195  -3.025  1.00  0.00     0.166 HD
ATOM      3  C   UNL d   1       9.078   0.820  -3.144  0.00  0.00     0.118 A 
ATOM      4  C   UNL d   1       7.088  -0.524  -3.041  0.00  0.00     0.015 A 
ATOM      5  C   UNL d   1       7.691   0.732  -3.145  0.00  0.00     0.053 A 
ATOM      6  C   UNL d   1       9.290  -1.495  -2.936  0.00  0.00     0.044 A 
ATOM      7  C   UNL d   1       7.892  -1.686  -2.925  0.00  0.00     0.007 A 
ATOM      8  C   UNL d   1       7.394  -3.010  -2.820  0.00  0.00     0.015 A 
ATOM      9  C   UNL d   1      10.126  -2.601  -2.866  0.00  0.00     0.030 A 
ATOM     10  C   UNL d   1       8.255  -4.105  -2.744  0.00  0.00     0.001 A 
ATOM     11  C   UNL d   1       9.626  -3.900  -2.774  0.00  0.00     0.002 A 
ENDROOT
BRANCH   4  12
ATOM     12  S   UNL d   1       5.302  -0.580  -3.243  0.00  0.00    -0.127 SA
BRANCH  12  13
ATOM     13  C   UNL d   1       4.758  -0.366  -1.504  0.00  0.00     0.100 C 
BRANCH  13  14
ATOM     14  C   UNL d   1       3.223  -0.357  -1.440  0.00  0.00     0.142 C 
BRANCH  14  15
ATOM     15  N   UNL d   1       2.683  -1.641  -1.926  0.00  0.00    -0.315 N 
ATOM     16  H   UNL d   1       3.143  -2.018  -2.758  0.00  0.00     0.172 HD
BRANCH  15  17
ATOM     17  S   UNL d   1       1.008  -1.823  -2.006  0.00  0.00     0.258 S 
ATOM     18  O   UNL d   1       0.752  -3.151  -2.511  0.00  0.00    -0.201 OA
ATOM     19  O   UNL d   1       0.453  -1.345  -0.759  0.00  0.00    -0.201 OA
BRANCH  17  20
ATOM     20  C   UNL d   1       0.558  -0.682  -3.294  0.00  0.00     0.079 A 
ATOM     21  C   UNL d   1       1.028  -0.905  -4.593  0.00  0.00     0.027 A 
ATOM     22  C   UNL d   1       0.699  -0.004  -5.608  0.00  0.00     0.025 A 
ATOM     23  C   UNL d   1      -0.106   1.099  -5.322  0.00  0.00     0.034 A 
ATOM     24  C   UNL d   1      -0.594   1.307  -4.030  0.00  0.00     0.025 A 
ATOM     25 CL   UNL d   1      -0.502   2.212  -6.572  0.00  0.00    -0.084 Cl
ATOM     26  C   UNL d   1      -0.263   0.413  -3.008  0.00  0.00     0.027 A 
ENDBRANCH  17  20
ENDBRANCH  15  17
ENDBRANCH  14  15
ENDBRANCH  13  14
ENDBRANCH  12  13
ENDBRANCH   4  12
BRANCH   3  27
ATOM     27  C   UNL d   1       9.729   2.186  -3.311  0.00  0.00     0.432 C 
ATOM     28  F   UNL d   1      11.091   2.164  -3.333  0.00  0.00    -0.165 F 
ATOM     29  F   UNL d   1       9.348   2.802  -4.468  0.00  0.00    -0.165 F 
ATOM     30  F   UNL d   1       9.386   3.049  -2.310  0.00  0.00    -0.165 F 
ENDBRANCH   3  27
TORSDOF 7
