REMARK  3 active torsions:
REMARK  status: ('A' for Active; 'I' for Inactive)
REMARK       I    between atoms: C_3  and  N_1 
REMARK    1  A    between atoms: C_2  and  C_3 
REMARK    2  A    between atoms: O_19  and  C_14 
REMARK    3  A    between atoms: O_20  and  C_16 
ROOT
ATOM      1  N   UNL d   1      -2.462   0.686  -0.302  0.00  0.00    -0.338 N 
ATOM      2  C   UNL d   1      -3.372   1.062  -1.298  0.00  0.00     0.273 C 
ATOM      3  C   UNL d   1      -0.015   0.649   0.066  0.00  0.00    -0.026 A 
ATOM      4  C   UNL d   1      -1.294   1.470   0.116  0.00  0.00     0.117 C 
ATOM      5  C   UNL d   1      -0.027  -0.750  -0.018  0.00  0.00    -0.045 A 
ATOM      6  C   UNL d   1       1.213   1.328   0.076  0.00  0.00     0.049 A 
ATOM      7  C   UNL d   1      -2.538  -0.657   0.270  0.00  0.00     0.131 C 
ATOM      8  C   UNL d   1       2.424   0.643  -0.004  0.00  0.00     0.102 A 
ATOM      9  C   UNL d   1       1.192  -1.445  -0.074  0.00  0.00     0.047 A 
ATOM     10  C   UNL d   1       2.418  -0.763  -0.056  0.00  0.00     0.102 A 
ATOM     11  O   UNL d   1      -4.197   0.250  -1.732  0.00  0.00    -0.266 OA
ATOM     12  C   UNL d   1      -1.331  -1.502  -0.142  0.00  0.00     0.059 C 
ATOM     13  C   UNL d   1      -1.512   2.074   1.507  0.00  0.00     0.037 C 
ENDROOT
BRANCH   2  14
ATOM     14  C   UNL d   1      -3.336   2.415  -1.884  0.00  0.00     0.125 A 
ATOM     15  N   UNL d   1      -2.890   3.509  -1.240  0.00  0.00    -0.256 N 
ATOM     16  O   UNL d   1      -2.967   4.553  -2.139  0.00  0.00    -0.242 OA
ATOM     17  HN  UNL d   1      -2.560   3.558  -0.276  1.00  0.00     0.195 HD
ATOM     18  C   UNL d   1      -3.521   4.114  -3.298  0.00  0.00     0.075 A 
ATOM     19  C   UNL d   1      -3.809   2.779  -3.177  0.00  0.00     0.071 A 
ATOM     20  C   UNL d   1      -3.677   5.117  -4.365  0.00  0.00     0.079 C 
ENDBRANCH   2  14
BRANCH   8  21
ATOM     21  O   UNL d   1       3.643   1.278   0.002  0.00  0.00    -0.353 OA
ATOM     22  C   UNL d   1       3.653   2.612  -0.503  0.00  0.00     0.210 C 
ENDBRANCH   8  21
BRANCH  10  23
ATOM     23  O   UNL d   1       3.646  -1.375  -0.112  0.00  0.00    -0.353 OA
ATOM     24  C   UNL d   1       3.664  -2.796  -0.146  0.00  0.00     0.210 C 
ENDBRANCH  10  23
TORSDOF 3
