REMARK  5 active torsions:
REMARK  status: ('A' for Active; 'I' for Inactive)
REMARK    1  A    between atoms: C_9  and  C_1 
REMARK    2  A    between atoms: C_8  and  C_2 
REMARK    3  A    between atoms: C_7  and  C_3 
REMARK    4  A    between atoms: O_18  and  C_8 
REMARK    5  A    between atoms: O_19  and  C_9 
ROOT
ATOM      1  C   UNL d   1      -1.273  -1.006   0.110  0.00  0.00     0.052 C 
ATOM      2  C   UNL d   1       1.292  -1.011   0.109  0.00  0.00     0.052 C 
ATOM      3  C   UNL d   1       0.011  -1.836  -0.087  0.00  0.00     0.100 C 
ATOM      4  C   UNL d   1      -1.220   0.346   0.012  0.00  0.00     0.018 C 
ATOM      5  C   UNL d   1       1.236   0.339   0.031  0.00  0.00     0.018 C 
ATOM      6  N   UNL d   1       0.012   0.966  -0.152  0.00  0.00    -0.362 N 
ATOM      7  C   UNL d   1      -2.381   1.309   0.046  0.00  0.00     0.069 C 
ATOM      8  C   UNL d   1       2.428   1.258   0.126  0.00  0.00     0.069 C 
ATOM      9  H   UNL d   1       0.013   1.983  -0.117  0.00  0.00     0.165 HD
ENDROOT
BRANCH   3  10
ATOM     10  C   UNL d   1       0.019  -2.504  -1.474  0.00  0.00    -0.043 A 
ATOM     11  C   UNL d   1      -0.041  -3.904  -1.593  0.00  0.00     0.033 A 
ATOM     12  C   UNL d   1      -0.034  -4.519  -2.852  0.00  0.00     0.056 A 
ATOM     13 CL   UNL d   1      -0.106  -6.246  -2.905  0.00  0.00    -0.083 Cl
ATOM     14  C   UNL d   1       0.032  -3.739  -4.011  0.00  0.00     0.055 A 
ATOM     15  C   UNL d   1       0.086  -2.348  -3.906  0.00  0.00     0.026 A 
ATOM     16 CL   UNL d   1       0.051  -4.426  -5.597  0.00  0.00    -0.083 Cl
ATOM     17  C   UNL d   1       0.078  -1.738  -2.651  0.00  0.00     0.010 A 
ENDBRANCH   3  10
BRANCH   2  18
ATOM     18  C   UNL d   1       2.580  -1.716   0.374  0.00  0.00     0.291 C 
ATOM     19  O   UNL d   1       3.665  -1.163   0.491  0.00  0.00    -0.260 OA
BRANCH  18  20
ATOM     20  O   UNL d   1       2.397  -3.056   0.502  0.00  0.00    -0.323 OA
ATOM     21  C   UNL d   1       3.607  -3.771   0.768  0.00  0.00     0.213 C 
ENDBRANCH  18  20
ENDBRANCH   2  18
BRANCH   1  22
ATOM     22  C   UNL d   1      -2.482  -1.823   0.414  0.00  0.00     0.291 C 
ATOM     23  O   UNL d   1      -2.577  -3.012   0.148  0.00  0.00    -0.260 OA
BRANCH  22  24
ATOM     24  O   UNL d   1      -3.409  -1.114   1.103  0.00  0.00    -0.323 OA
ATOM     25  C   UNL d   1      -4.616  -1.825   1.387  0.00  0.00     0.213 C 
ENDBRANCH  22  24
ENDBRANCH   1  22
TORSDOF 5
