REMARK  2 active torsions:
REMARK  status: ('A' for Active; 'I' for Inactive)
REMARK    1  A    between atoms: C_12  and  C_8 
REMARK    2  A    between atoms: C_14  and  C_11 
ROOT
ATOM      1  N   UNL d   1       0.416   1.378   0.231  0.00  0.00    -0.194 N 
ATOM      2  C   UNL d   1       0.857   0.110   0.147  0.00  0.00     0.176 A 
ATOM      3  N   UNL d   1       2.158   0.058   0.202  0.00  0.00    -0.319 N 
ATOM      4  HN  UNL d   1       2.773  -0.755   0.155  1.00  0.00     0.169 HD
ATOM      5  N   UNL d   1       1.431   2.242   0.359  0.00  0.00    -0.273 N 
ATOM      6  HN  UNL d   1       1.411   3.258   0.447  1.00  0.00     0.189 HD
ATOM      7  C   UNL d   1      -0.933   1.625   0.183  0.00  0.00     0.285 A 
ATOM      8  C   UNL d   1       2.489   1.403   0.341  0.00  0.00     0.133 A 
ATOM      9  C   UNL d   1      -1.585   0.289   0.036  0.00  0.00     0.079 A 
ATOM     10  S   UNL d   1      -0.417  -1.028   0.011  0.00  0.00    -0.046 SA
ATOM     11  C   UNL d   1      -2.905   0.086  -0.085  0.00  0.00     0.036 C 
ATOM     12  O   UNL d   1      -1.413   2.743   0.258  0.00  0.00    -0.265 OA
ENDROOT
BRANCH  11  13
ATOM     13  C   UNL d   1      -3.916   1.143  -0.126  0.00  0.00    -0.035 A 
ATOM     14  C   UNL d   1      -4.279   1.716  -1.352  0.00  0.00     0.013 A 
ATOM     15  C   UNL d   1      -5.294   2.674  -1.408  0.00  0.00     0.024 A 
ATOM     16  C   UNL d   1      -5.943   3.062  -0.237  0.00  0.00     0.034 A 
ATOM     17  C   UNL d   1      -5.565   2.524   0.991  0.00  0.00     0.024 A 
ATOM     18 CL   UNL d   1      -7.237   4.195  -0.313  0.00  0.00    -0.084 Cl
ATOM     19  C   UNL d   1      -4.546   1.569   1.049  0.00  0.00     0.013 A 
ENDBRANCH  11  13
BRANCH   8  20
ATOM     20  C   UNL d   1       3.863   1.870   0.484  0.00  0.00     0.009 A 
ATOM     21  C   UNL d   1       4.131   3.237   0.665  0.00  0.00     0.017 A 
ATOM     22  C   UNL d   1       5.441   3.691   0.833  0.00  0.00     0.025 A 
ATOM     23  C   UNL d   1       6.492   2.777   0.814  0.00  0.00     0.034 A 
ATOM     24  C   UNL d   1       6.244   1.418   0.626  0.00  0.00     0.025 A 
ATOM     25 CL   UNL d   1       8.105   3.331   1.030  0.00  0.00    -0.084 Cl
ATOM     26  C   UNL d   1       4.931   0.965   0.462  0.00  0.00     0.017 A 
ENDBRANCH   8  20
TORSDOF 2
