REMARK  3 active torsions:
REMARK  status: ('A' for Active; 'I' for Inactive)
REMARK    1  A    between atoms: C_12  and  C_3 
REMARK    2  A    between atoms: C_9  and  C_7 
REMARK    3  A    between atoms: N_14  and  C_11 
ROOT
ATOM      1  N   UNL d   1      -0.781   0.034   0.089  0.00  0.00    -0.331 N 
ATOM      2  HN  UNL d   1      -1.764  -0.226   0.174  1.00  0.00     0.168 HD
ATOM      3  C   UNL d   1      -0.262   1.215   0.001  0.00  0.00     0.162 A 
ATOM      4  C   UNL d   1       0.320  -0.782   0.042  0.00  0.00     0.111 A 
ATOM      5  O   UNL d   1       1.089   1.303  -0.086  0.00  0.00    -0.256 OA
ATOM      6  C   UNL d   1       1.559   0.026  -0.050  0.00  0.00     0.316 A 
ATOM      7  C   UNL d   1       0.316  -2.120   0.026  0.00  0.00     0.049 C 
ATOM      8  O   UNL d   1       2.720  -0.336  -0.091  0.00  0.00    -0.257 OA
ENDROOT
BRANCH   7   9
ATOM      9  C   UNL d   1      -0.945  -2.870  -0.001  0.00  0.00    -0.012 A 
ATOM     10  C   UNL d   1      -1.602  -3.176  -1.198  0.00  0.00     0.046 A 
ATOM     11  C   UNL d   1      -2.856  -3.803  -1.184  0.00  0.00     0.054 A 
ATOM     12 CL   UNL d   1      -0.911  -2.787  -2.739  0.00  0.00    -0.083 Cl
ATOM     13  C   UNL d   1      -3.503  -4.157   0.011  0.00  0.00     0.031 A 
ATOM     14  C   UNL d   1      -2.813  -3.857   1.197  0.00  0.00     0.030 A 
ATOM     15  C   UNL d   1      -1.562  -3.222   1.200  0.00  0.00     0.015 A 
BRANCH  13  16
ATOM     16  N   UNL d   1      -4.750  -4.759   0.017  0.00  0.00    -0.390 N 
ATOM     17  C   UNL d   1      -5.226  -5.579  -1.093  0.00  0.00     0.149 C 
ATOM     18  C   UNL d   1      -5.676  -4.631   1.136  0.00  0.00     0.149 C 
ENDBRANCH  13  16
ENDBRANCH   7   9
BRANCH   3  19
ATOM     19  C   UNL d   1      -0.995   2.489   0.008  0.00  0.00     0.015 A 
ATOM     20  C   UNL d   1      -2.387   2.462   0.170  0.00  0.00     0.016 A 
ATOM     21  C   UNL d   1      -3.107   3.656   0.228  0.00  0.00     0.001 A 
ATOM     22  C   UNL d   1      -2.442   4.876   0.115  0.00  0.00     0.000 A 
ATOM     23  C   UNL d   1      -1.059   4.905  -0.067  0.00  0.00     0.001 A 
ATOM     24  C   UNL d   1      -0.333   3.714  -0.123  0.00  0.00     0.016 A 
ENDBRANCH   3  19
TORSDOF 3
