REMARK  3 active torsions:
REMARK  status: ('A' for Active; 'I' for Inactive)
REMARK    1  A    between atoms: N_7  and  C_1 
REMARK    2  A    between atoms: N_2  and  N_7 
REMARK    3  A    between atoms: C_6  and  N_2 
ROOT
ATOM      1  N   UNL d   1       0.466  -3.344   0.017  0.00  0.00    -0.302 N 
ATOM      2  HN  UNL d   1       0.340  -4.039  -0.719  1.00  0.00     0.186 HD
ENDROOT
BRANCH   1   3
ATOM      3  N   UNL d   1      -0.465  -2.377   0.259  0.00  0.00    -0.276 N 
ATOM      4  H   UNL d   1      -0.389  -1.753   1.056  0.00  0.00     0.189 HD
BRANCH   3   5
ATOM      5  C   UNL d   1      -1.567  -2.119  -0.495  0.00  0.00     0.168 C 
ATOM      6  N   UNL d   1      -2.408  -1.143  -0.273  0.00  0.00    -0.364 N 
ATOM      7  C   UNL d   1      -3.377  -1.272  -1.403  0.00  0.00     0.137 C 
ATOM      8  HN  UNL d   1      -2.404  -0.460   0.485  1.00  0.00     0.162 HD
ATOM      9  C   UNL d   1      -2.698  -2.177  -2.439  0.00  0.00     0.115 C 
ATOM     10  N   UNL d   1      -1.777  -2.893  -1.595  0.00  0.00    -0.262 NA
ATOM     11  H   UNL d   1      -0.917  -3.257  -1.988  0.00  0.00     0.130 HD
ENDBRANCH   3   5
ENDBRANCH   1   3
BRANCH   1  12
ATOM     12  C   UNL d   1       1.520  -3.333   0.772  0.00  0.00     0.037 A 
ATOM     13  C   UNL d   1       2.590  -4.316   0.660  0.00  0.00    -0.006 A 
ATOM     14  C   UNL d   1       3.563  -4.014   1.608  0.00  0.00    -0.046 A 
ATOM     15  C   UNL d   1       2.699  -5.391  -0.204  0.00  0.00     0.014 A 
ATOM     16  C   UNL d   1       4.701  -4.798   1.707  0.00  0.00     0.008 A 
ATOM     17  C   UNL d   1       3.203  -2.829   2.445  0.00  0.00     0.045 A 
ATOM     18  C   UNL d   1       4.838  -5.888   0.841  0.00  0.00     0.001 A 
ATOM     19  C   UNL d   1       3.843  -6.185  -0.106  0.00  0.00     0.001 A 
ATOM     20  C   UNL d   1       1.872  -2.340   1.857  0.00  0.00     0.064 A 
ENDBRANCH   1  12
TORSDOF 3
