REMARK  4 active torsions:
REMARK  status: ('A' for Active; 'I' for Inactive)
REMARK    1  A    between atoms: C_3  and  S_1 
REMARK    2  A    between atoms: C_4  and  S_1 
REMARK    3  A    between atoms: C_5  and  C_2 
REMARK    4  A    between atoms: O_13  and  C_5 
ROOT
ATOM      1  S   UNL d   1       1.067  -0.263  -0.213  0.00  0.00     0.082 S 
ATOM      2  O   UNL d   1       0.124  -1.320  -0.717  0.00  0.00    -0.247 OA
ENDROOT
BRANCH   1   3
ATOM      3  C   UNL d   1       2.622  -0.593  -1.268  0.00  0.00     0.053 C 
ATOM      4  C   UNL d   1       3.976  -0.238  -1.081  0.00  0.00     0.057 C 
ATOM      5  C   UNL d   1       4.986  -0.547  -2.043  0.00  0.00     0.020 C 
ATOM      6  C   UNL d   1       4.650  -1.046  -3.284  0.00  0.00     0.001 C 
ATOM      7  C   UNL d   1       3.339  -1.434  -3.490  0.00  0.00     0.002 C 
ATOM      8  C   UNL d   1       2.346  -1.186  -2.518  0.00  0.00     0.022 C 
BRANCH   4   9
ATOM      9  C   UNL d   1       4.499   0.672  -0.063  0.00  0.00     0.177 C 
ATOM     10  O   UNL d   1       3.889   1.554   0.358  0.00  0.00    -0.646 OA
BRANCH   9  11
ATOM     11  O   UNL d   1       5.522   0.159   0.604  0.00  0.00    -0.773 OA
ATOM     12  H   UNL d   1       5.945  -0.602   0.175  0.00  0.00     0.167 HD
ENDBRANCH   9  11
ENDBRANCH   4   9
ENDBRANCH   1   3
BRANCH   1  13
ATOM     13  C   UNL d   1       0.365   1.324  -0.791  0.00  0.00     0.018 C 
ATOM     14  C   UNL d   1      -0.976   1.343  -1.318  0.00  0.00     0.083 C 
ATOM     15  C   UNL d   1      -1.773   2.607  -1.287  0.00  0.00    -0.069 C 
ATOM     16  C   UNL d   1      -2.728   3.273  -2.024  0.00  0.00     0.035 C 
ATOM     17  C   UNL d   1      -2.125   2.842  -0.085  0.00  0.00    -0.055 C 
ATOM     18  C   UNL d   1      -3.777   2.386  -2.168  0.00  0.00     0.005 C 
ATOM     19  C   UNL d   1      -4.717   2.679  -1.236  0.00  0.00     0.005 C 
ATOM     20  C   UNL d   1      -3.916   2.394  -0.128  0.00  0.00     0.039 C 
ATOM     21  C   UNL d   1      -0.474   3.268  -0.042  0.00  0.00     0.008 C 
ATOM     22  C   UNL d   1       0.787   2.525  -0.519  0.00  0.00     0.018 C 
ENDBRANCH   1  13
TORSDOF 4
