REMARK  6 active torsions:
REMARK  status: ('A' for Active; 'I' for Inactive)
REMARK       I    between atoms: N_8  and  C_1 
REMARK       I    between atoms: N_9  and  C_1 
REMARK    1  A    between atoms: N_2  and  N_8 
REMARK    2  A    between atoms: N_4  and  N_9 
REMARK       I    between atoms: C_6  and  N_11 
REMARK       I    between atoms: C_7  and  N_10 
REMARK    3  A    between atoms: N_10  and  C_17 
REMARK    4  A    between atoms: N_11  and  C_18 
REMARK    5  A    between atoms: C_20  and  C_15 
REMARK    6  A    between atoms: C_19  and  C_16 
ROOT
ATOM      1  C   UNL d   1       0.972  -0.028  -0.069  0.00  0.00     0.353 C 
ATOM      2  N   UNL d   1       0.293   1.120  -0.489  0.00  0.00    -0.251 N 
ATOM      3  N   UNL d   1       0.088  -1.023   0.353  0.00  0.00    -0.251 N 
ATOM      4  O   UNL d   1       2.196  -0.148  -0.072  0.00  0.00    -0.244 OA
ATOM      5  H   UNL d   1      -0.715   1.149  -0.501  0.00  0.00     0.191 HD
ATOM      6  H   UNL d   1      -0.902  -0.831   0.403  0.00  0.00     0.191 HD
ENDROOT
BRANCH   2   7
ATOM      7  N   UNL d   1       1.001   2.199  -0.943  0.00  0.00    -0.307 N 
ATOM      8  C   UNL d   1       0.310   3.231  -1.309  0.00  0.00     0.118 C 
ATOM      9  HN  UNL d   1       2.020   2.191  -0.991  1.00  0.00     0.186 HD
BRANCH   8  10
ATOM     10  C   UNL d   1       0.960   4.457  -1.823  0.00  0.00    -0.019 A 
ATOM     11  C   UNL d   1       2.347   4.542  -1.961  0.00  0.00     0.015 A 
ATOM     12  C   UNL d   1       2.932   5.714  -2.460  0.00  0.00     0.030 A 
ATOM     13  C   UNL d   1       2.141   6.812  -2.824  0.00  0.00     0.034 A 
ATOM     14  C   UNL d   1       0.755   6.715  -2.675  0.00  0.00     0.030 A 
ATOM     15  C   UNL d   1       0.164   5.545  -2.179  0.00  0.00     0.015 A 
BRANCH  13  16
ATOM     16  N   UNL d   1       2.797   7.960  -3.327  0.00  0.00    -0.328 N 
ATOM     17  C   UNL d   1       2.210   9.138  -3.751  0.00  0.00     0.218 C 
ATOM     18  O   UNL d   1       1.010   9.399  -3.756  0.00  0.00    -0.274 OA
ATOM     19  C   UNL d   1       3.198  10.165  -4.250  0.00  0.00     0.117 C 
ATOM     20  H   UNL d   1       3.807   7.899  -3.387  0.00  0.00     0.169 HD
ENDBRANCH  13  16
ENDBRANCH   8  10
ENDBRANCH   2   7
BRANCH   3  21
ATOM     21  N   UNL d   1       0.562  -2.212   0.848  0.00  0.00    -0.307 N 
ATOM     22  C   UNL d   1      -0.348  -3.058   1.215  0.00  0.00     0.118 C 
ATOM     23  HN  UNL d   1       1.559  -2.416   0.922  1.00  0.00     0.186 HD
BRANCH  22  24
ATOM     24  C   UNL d   1      -0.035  -4.375   1.810  0.00  0.00    -0.019 A 
ATOM     25  C   UNL d   1       1.273  -4.799   2.052  0.00  0.00     0.015 A 
ATOM     26  C   UNL d   1       1.500  -6.039   2.671  0.00  0.00     0.030 A 
ATOM     27  C   UNL d   1       0.429  -6.863   3.051  0.00  0.00     0.034 A 
ATOM     28  C   UNL d   1      -0.871  -6.432   2.776  0.00  0.00     0.030 A 
ATOM     29  C   UNL d   1      -1.104  -5.197   2.162  0.00  0.00     0.015 A 
BRANCH  27  30
ATOM     30  N   UNL d   1       0.720  -8.081   3.707  0.00  0.00    -0.328 N 
ATOM     31  C   UNL d   1      -0.193  -9.006   4.187  0.00  0.00     0.218 C 
ATOM     32  O   UNL d   1      -1.416  -8.942   4.103  0.00  0.00    -0.274 OA
ATOM     33  C   UNL d   1       0.442 -10.189   4.875  0.00  0.00     0.117 C 
ATOM     34  H   UNL d   1       1.702  -8.278   3.860  0.00  0.00     0.169 HD
ENDBRANCH  27  30
ENDBRANCH  22  24
ENDBRANCH   3  21
TORSDOF 6
