REMARK  4 active torsions:
REMARK  status: ('A' for Active; 'I' for Inactive)
REMARK    1  A    between atoms: N_2  and  C_1 
REMARK    2  A    between atoms: N_3  and  C_6 
REMARK    3  A    between atoms: N_7  and  C_5 
REMARK    4  A    between atoms: C_14  and  N_7 
ROOT
ATOM      1  C   UNL d   1       1.373  -0.318   0.164  0.00  0.00     0.131 A 
ATOM      2  C   UNL d   1       0.472  -1.392   0.216  0.00  0.00     0.074 A 
ATOM      3  C   UNL d   1       0.959   1.014  -0.029  0.00  0.00     0.066 A 
ATOM      4  C   UNL d   1      -0.893  -1.126   0.077  0.00  0.00     0.105 A 
ATOM      5  C   UNL d   1      -0.424   1.241  -0.133  0.00  0.00     0.034 A 
ATOM      6  C   UNL d   1      -1.346   0.188  -0.085  0.00  0.00     0.038 A 
ENDROOT
BRANCH   3   7
ATOM      7  N   UNL d   1       1.875   2.090  -0.083  0.00  0.00    -0.354 N 
ATOM      8  H   UNL d   1       2.642   1.931  -0.736  0.00  0.00     0.166 HD
BRANCH   7   9
ATOM      9  C   UNL d   1       1.621   3.449   0.187  0.00  0.00     0.032 A 
ATOM     10  C   UNL d   1       0.903   3.832   1.331  0.00  0.00     0.031 A 
ATOM     11  C   UNL d   1       0.571   5.168   1.555  0.00  0.00     0.021 A 
ATOM     12  C   UNL d   1       0.949   6.135   0.631  0.00  0.00     0.011 A 
ATOM     13  C   UNL d   1       1.671   5.777  -0.506  0.00  0.00     0.021 A 
ATOM     14 BR   UNL d   1       0.463   7.941   0.912  0.00  0.00    -0.051 Br
ATOM     15  C   UNL d   1       2.006   4.438  -0.726  0.00  0.00     0.031 A 
ENDBRANCH   7   9
ENDBRANCH   3   7
BRANCH   1  16
ATOM     16  N   UNL d   1       2.781  -0.613   0.361  0.00  0.00    -0.113 N 
ATOM     17  O   UNL d   1       3.084  -1.247   1.380  0.00  0.00    -0.532 OA
ATOM     18  O   UNL d   1       3.566  -0.236  -0.520  0.00  0.00    -0.532 OA
ENDBRANCH   1  16
BRANCH   4  19
ATOM     19  N   UNL d   1      -1.860  -2.230   0.089  0.00  0.00    -0.116 N 
ATOM     20  O   UNL d   1      -1.410  -3.382   0.159  0.00  0.00    -0.532 OA
ATOM     21  O   UNL d   1      -3.062  -1.943   0.019  0.00  0.00    -0.532 OA
ENDBRANCH   4  19
TORSDOF 4
