REMARK  5 active torsions:
REMARK  status: ('A' for Active; 'I' for Inactive)
REMARK    1  A    between atoms: C_8  and  C_1 
REMARK    2  A    between atoms: C_11  and  C_4 
REMARK       I    between atoms: C_7  and  N_9 
REMARK       I    between atoms: N_10  and  C_7 
REMARK    3  A    between atoms: N_9  and  C_8 
REMARK    4  A    between atoms: C_13  and  N_10 
REMARK    5  A    between atoms: O_16  and  C_15 
ROOT
ATOM      1  C   UNL d   1       0.392  -2.528   0.271  0.00  0.00     0.168 C 
ENDROOT
BRANCH   1   2
ATOM      2  C   UNL d   1       0.105  -1.079   0.328  0.00  0.00     0.020 A 
ATOM      3  C   UNL d   1       0.263  -0.153   1.411  0.00  0.00     0.075 A 
ATOM      4  N   UNL d   1      -0.188   1.060   1.050  0.00  0.00    -0.260 N 
ATOM      5  O   UNL d   1      -0.654   0.944  -0.238  0.00  0.00    -0.242 OA
ATOM      6  HN  UNL d   1      -0.186   1.905   1.622  1.00  0.00     0.195 HD
ATOM      7  C   UNL d   1      -0.490  -0.329  -0.666  0.00  0.00     0.082 A 
ATOM      8  C   UNL d   1      -0.995  -0.638  -2.019  0.00  0.00     0.079 C 
BRANCH   3   9
ATOM      9  C   UNL d   1       0.786  -0.368   2.764  0.00  0.00    -0.007 A 
ATOM     10  C   UNL d   1       0.212   0.314   3.849  0.00  0.00     0.014 A 
ATOM     11  C   UNL d   1       0.693   0.130   5.148  0.00  0.00     0.001 A 
ATOM     12  C   UNL d   1       1.757  -0.737   5.380  0.00  0.00     0.000 A 
ATOM     13  C   UNL d   1       2.342  -1.417   4.315  0.00  0.00     0.001 A 
ATOM     14  C   UNL d   1       1.862  -1.230   3.015  0.00  0.00     0.014 A 
ENDBRANCH   3   9
ENDBRANCH   1   2
BRANCH   1  15
ATOM     15  N   UNL d   1       1.713  -2.749  -0.282  0.00  0.00    -0.338 N 
ATOM     16  C   UNL d   1       2.041  -4.029  -0.670  0.00  0.00     0.320 C 
ATOM     17  N   UNL d   1       3.364  -4.153  -1.026  0.00  0.00    -0.309 N 
ATOM     18  O   UNL d   1       1.193  -4.917  -0.678  0.00  0.00    -0.247 OA
ATOM     19  H   UNL d   1       3.951  -3.344  -0.898  0.00  0.00     0.170 HD
ATOM     20  H   UNL d   1       2.460  -2.146   0.021  0.00  0.00     0.164 HD
BRANCH  17  21
ATOM     21  C   UNL d   1       4.002  -5.328  -1.490  0.00  0.00     0.039 A 
ATOM     22  C   UNL d   1       3.308  -6.504  -1.796  0.00  0.00     0.066 A 
ATOM     23  C   UNL d   1       3.980  -7.656  -2.209  0.00  0.00     0.070 A 
ATOM     24  C   UNL d   1       5.365  -7.620  -2.354  0.00  0.00     0.037 A 
ATOM     25  C   UNL d   1       6.072  -6.449  -2.078  0.00  0.00     0.005 A 
ATOM     26  C   UNL d   1       5.392  -5.307  -1.646  0.00  0.00     0.030 A 
BRANCH  23  27
ATOM     27  O   UNL d   1       3.391  -8.860  -2.492  0.00  0.00    -0.356 OA
ATOM     28  C   UNL d   1       1.992  -8.958  -2.231  0.00  0.00     0.210 C 
ENDBRANCH  23  27
ENDBRANCH  17  21
ENDBRANCH   1  15
TORSDOF 5
