REMARK  4 active torsions:
REMARK  status: ('A' for Active; 'I' for Inactive)
REMARK    1  A    between atoms: C_2  and  C_1 
REMARK       I    between atoms: N_6  and  C_1 
REMARK       I    between atoms: C_3  and  N_4 
REMARK    2  A    between atoms: C_9  and  C_3 
REMARK    3  A    between atoms: N_4  and  C_5 
REMARK    4  A    between atoms: C_10  and  N_6 
ROOT
ATOM      1  C   UNL d   1       0.223  -0.191   1.346  0.00  0.00     0.059 A 
ATOM      2  C   UNL d   1       0.771   0.674   2.317  0.00  0.00     0.050 A 
ATOM      3  C   UNL d   1      -0.950  -0.909   1.654  0.00  0.00     0.019 A 
ATOM      4  C   UNL d   1       0.073   0.883   3.517  0.00  0.00     0.030 A 
ATOM      5  C   UNL d   1      -1.617  -0.707   2.863  0.00  0.00     0.001 A 
ATOM      6  C   UNL d   1      -1.117   0.205   3.784  0.00  0.00     0.002 A 
ENDROOT
BRANCH   1   7
ATOM      7  C   UNL d   1       0.916  -0.407   0.030  0.00  0.00     0.258 C 
ATOM      8  N   UNL d   1       0.109  -0.841  -1.008  0.00  0.00    -0.323 N 
ATOM      9  H   UNL d   1      -0.890  -0.823  -0.857  0.00  0.00     0.169 HD
ATOM     10  O   UNL d   1       2.109  -0.136  -0.063  0.00  0.00    -0.267 OA
BRANCH   8  11
ATOM     11  C   UNL d   1       0.512  -1.186  -2.314  0.00  0.00     0.035 A 
ATOM     12  C   UNL d   1       1.845  -1.288  -2.721  0.00  0.00     0.031 A 
ATOM     13  C   UNL d   1       2.160  -1.609  -4.046  0.00  0.00     0.026 A 
ATOM     14  C   UNL d   1       1.141  -1.839  -4.966  0.00  0.00     0.034 A 
ATOM     15  C   UNL d   1      -0.190  -1.769  -4.568  0.00  0.00     0.026 A 
ATOM     16 CL   UNL d   1       1.527  -2.208  -6.601  0.00  0.00    -0.084 Cl
ATOM     17  C   UNL d   1      -0.502  -1.448  -3.244  0.00  0.00     0.031 A 
ENDBRANCH   8  11
ENDBRANCH   1   7
BRANCH   2  18
ATOM     18  N   UNL d   1       2.008   1.330   2.091  0.00  0.00    -0.322 N 
ATOM     19  C   UNL d   1       2.929   1.597   3.088  0.00  0.00     0.256 C 
ATOM     20  O   UNL d   1       2.826   1.287   4.273  0.00  0.00    -0.267 OA
ATOM     21  H   UNL d   1       2.397   1.231   1.150  0.00  0.00     0.169 HD
BRANCH  19  22
ATOM     22  C   UNL d   1       4.176   2.259   2.645  0.00  0.00     0.032 A 
ATOM     23  C   UNL d   1       4.133   3.399   1.835  0.00  0.00     0.017 A 
ATOM     24  C   UNL d   1       5.320   4.066   1.522  0.00  0.00     0.001 A 
ATOM     25  C   UNL d   1       6.540   3.589   2.005  0.00  0.00     0.000 A 
ATOM     26  C   UNL d   1       6.584   2.443   2.801  0.00  0.00     0.001 A 
ATOM     27  C   UNL d   1       5.399   1.782   3.129  0.00  0.00     0.017 A 
ENDBRANCH  19  22
ENDBRANCH   2  18
TORSDOF 4
