REMARK  6 active torsions:
REMARK  status: ('A' for Active; 'I' for Inactive)
REMARK    1  A    between atoms: C_2  and  C_1 
REMARK    2  A    between atoms: N_4  and  C_1 
REMARK    3  A    between atoms: C_3  and  O_9 
REMARK    4  A    between atoms: C_10  and  N_4 
REMARK    5  A    between atoms: O_17  and  N_5 
REMARK    6  A    between atoms: O_9  and  C_14 
ROOT
ATOM      1  C   UNL d   1       0.894   0.058   0.192  0.00  0.00     0.139 C 
ATOM      2  N   UNL d   1       0.424   1.275   0.177  0.00  0.00    -0.252 N 
ATOM      3  HN  UNL d   1       0.922   2.068  -0.228  1.00  0.00     0.196 HD
ENDROOT
BRANCH   1   4
ATOM      4  C   UNL d   1       2.364  -0.048  -0.156  0.00  0.00     0.053 A 
ATOM      5  C   UNL d   1       2.856  -1.069  -0.991  0.00  0.00     0.049 A 
ATOM      6 CL   UNL d   1       1.855  -2.280  -1.717  0.00  0.00    -0.083 Cl
ATOM      7  C   UNL d   1       4.223  -1.145  -1.302  0.00  0.00     0.025 A 
ATOM      8  C   UNL d   1       5.118  -0.199  -0.811  0.00  0.00     0.003 A 
ATOM      9  C   UNL d   1       4.649   0.821   0.007  0.00  0.00     0.025 A 
ATOM     10  C   UNL d   1       3.290   0.895   0.348  0.00  0.00     0.049 A 
ATOM     11 CL   UNL d   1       2.891   2.157   1.470  0.00  0.00    -0.083 Cl
ENDBRANCH   1   4
BRANCH   1  12
ATOM     12  N   UNL d   1       0.218  -1.108   0.544  0.00  0.00    -0.340 N 
ATOM     13  H   UNL d   1       0.759  -1.954   0.671  0.00  0.00     0.167 HD
BRANCH  12  14
ATOM     14  C   UNL d   1      -1.148  -1.383   0.306  0.00  0.00     0.033 A 
ATOM     15  C   UNL d   1      -1.881  -0.770  -0.720  0.00  0.00     0.032 A 
ATOM     16  C   UNL d   1      -3.268  -0.899  -0.809  0.00  0.00     0.039 A 
ATOM     17  C   UNL d   1      -3.952  -1.635   0.151  0.00  0.00     0.078 A 
ATOM     18  C   UNL d   1      -3.226  -2.348   1.109  0.00  0.00     0.039 A 
ATOM     19  C   UNL d   1      -1.836  -2.225   1.185  0.00  0.00     0.032 A 
BRANCH  17  20
ATOM     20  O   UNL d   1      -5.305  -1.764   0.216  0.00  0.00    -0.255 OA
BRANCH  20  21
ATOM     21  C   UNL d   1      -6.096  -0.606  -0.033  0.00  0.00     0.530 C 
ATOM     22  F   UNL d   1      -5.391   0.531  -0.214  0.00  0.00    -0.144 F 
ATOM     23  F   UNL d   1      -6.859  -0.819  -1.128  0.00  0.00    -0.144 F 
ATOM     24  F   UNL d   1      -6.924  -0.413   1.020  0.00  0.00    -0.144 F 
ENDBRANCH  20  21
ENDBRANCH  17  20
ENDBRANCH  12  14
ENDBRANCH   1  12
BRANCH   2  25
ATOM     25  O   UNL d   1      -0.835   1.377   0.776  0.00  0.00    -0.288 OA
ATOM     26  H   UNL d   1      -0.998   2.336   0.768  0.00  0.00     0.244 HD
ENDBRANCH   2  25
TORSDOF 6
