REMARK  0 active torsions:
REMARK  status: ('A' for Active; 'I' for Inactive)
ROOT
ATOM      1  C   UNL d   1       0.615  -0.625  -0.640  0.00  0.00     0.010 C 
ATOM      2  C   UNL d   1      -0.119  -1.208   0.604  0.00  0.00     0.157 C 
ATOM      3  C   UNL d   1      -0.421   0.510  -0.764  0.00  0.00    -0.008 C 
ATOM      4  O   UNL d   1      -1.495  -1.365   0.158  0.00  0.00    -0.364 OA
ATOM      5  C   UNL d   1      -0.001   1.143   0.599  0.00  0.00     0.000 C 
ATOM      6  C   UNL d   1      -1.758  -0.225  -0.677  0.00  0.00     0.180 C 
ATOM      7  C   UNL d   1       0.406  -2.450   1.184  0.00  0.00     0.098 C 
ATOM      8  C   UNL d   1      -0.161  -0.030   1.591  0.00  0.00     0.060 C 
ATOM      9  N   UNL d   1       0.804  -3.429   1.661  0.00  0.00    -0.194 NA
ATOM     10  C   UNL d   1       1.942   0.100  -0.319  0.00  0.00     0.014 C 
ATOM     11  C   UNL d   1       1.507   1.367   0.427  0.00  0.00     0.006 C 
ATOM     12  C   UNL d   1       0.760  -1.585  -1.813  0.00  0.00     0.020 C 
ATOM     13  C   UNL d   1      -0.381   1.462  -1.948  0.00  0.00     0.019 C 
ENDROOT
TORSDOF 0
