REMARK  3 active torsions:
REMARK  status: ('A' for Active; 'I' for Inactive)
REMARK    1  A    between atoms: O_6  and  C_4 
REMARK    2  A    between atoms: C_7  and  O_6 
REMARK    3  A    between atoms: C_10  and  C_7 
ROOT
ATOM      1  C   UNL d   1      -0.420   0.280  -0.007  0.00  0.00     0.116 A 
ATOM      2  C   UNL d   1      -1.847   0.213  -0.028  0.00  0.00     0.105 C 
ATOM      3  N   UNL d   1      -3.009   0.190  -0.050  0.00  0.00    -0.191 NA
ATOM      4  C   UNL d   1       0.331   1.467   0.024  0.00  0.00     0.092 A 
ATOM      5  C   UNL d   1       0.252  -0.951  -0.019  0.00  0.00     0.139 A 
ATOM      6  F   UNL d   1      -0.444  -2.098  -0.050  0.00  0.00    -0.204 F 
ATOM      7  C   UNL d   1       2.388   0.135   0.030  0.00  0.00     0.006 A 
ATOM      8  C   UNL d   1       1.736   1.371   0.041  0.00  0.00     0.038 A 
ATOM      9  C   UNL d   1       1.640  -1.033  -0.001  0.00  0.00     0.044 A 
ENDROOT
BRANCH   4  10
ATOM     10  O   UNL d   1      -0.082   2.775   0.039  0.00  0.00    -0.345 OA
BRANCH  10  11
ATOM     11  C   UNL d   1      -1.474   3.082   0.004  0.00  0.00     0.214 C 
BRANCH  11  12
ATOM     12  C   UNL d   1      -1.725   4.575  -0.032  0.00  0.00    -0.034 A 
ATOM     13  C   UNL d   1      -2.904   5.046  -0.634  0.00  0.00     0.011 A 
ATOM     14  C   UNL d   1      -3.209   6.409  -0.640  0.00  0.00     0.024 A 
ATOM     15  C   UNL d   1      -2.342   7.311  -0.032  0.00  0.00     0.034 A 
ATOM     16  C   UNL d   1      -1.175   6.861   0.583  0.00  0.00     0.024 A 
ATOM     17 CL   UNL d   1      -2.721   8.989  -0.029  0.00  0.00    -0.084 Cl
ATOM     18  C   UNL d   1      -0.869   5.496   0.588  0.00  0.00     0.011 A 
ENDBRANCH  11  12
ENDBRANCH  10  11
ENDBRANCH   4  10
TORSDOF 3
