REMARK  12 active torsions:
REMARK  status: ('A' for Active; 'I' for Inactive)
REMARK    1  A    between atoms: C_3  and  N_1 
REMARK    2  A    between atoms: N_2  and  C_4 
REMARK    3  A    between atoms: C_5  and  O_16 
REMARK    4  A    between atoms: O_15  and  C_6 
REMARK    5  A    between atoms: O_19  and  C_11 
REMARK    6  A    between atoms: C_12  and  O_20 
REMARK    7  A    between atoms: C_25  and  O_15 
REMARK    8  A    between atoms: O_16  and  C_26 
REMARK    9  A    between atoms: C_27  and  O_19 
REMARK   10  A    between atoms: O_20  and  C_28 
REMARK   11  A    between atoms: C_28  and  C_25 
REMARK   12  A    between atoms: C_26  and  C_27 
ROOT
ATOM      1  C   UNL d   1       5.625  -1.838   2.869  0.00  0.00     0.314 C 
ATOM      2  C   UNL d   1       5.772  -0.912   4.128  0.00  0.00     0.314 C 
ATOM      3  O   UNL d   1       5.323  -3.184   3.282  0.00  0.00    -0.354 OA
ATOM      4  O   UNL d   1       6.803  -1.419   4.992  0.00  0.00    -0.354 OA
ATOM      5  C   UNL d   1       6.353  -3.671   4.148  0.00  0.00     0.197 C 
ATOM      6  C   UNL d   1       6.514  -2.773   5.373  0.00  0.00     0.197 C 
ENDROOT
BRANCH   1   7
ATOM      7  O   UNL d   1       4.641  -1.411   1.928  0.00  0.00    -0.354 OA
BRANCH   7   8
ATOM      8  C   UNL d   1       4.863  -0.158   1.278  0.00  0.00     0.198 C 
BRANCH   8   9
ATOM      9  C   UNL d   1       6.223  -0.008   0.579  0.00  0.00     0.202 C 
BRANCH   9  10
ATOM     10  O   UNL d   1       6.402  -1.085  -0.344  0.00  0.00    -0.346 OA
BRANCH  10  11
ATOM     11  C   UNL d   1       7.615  -1.157  -0.971  0.00  0.00     0.101 A 
ATOM     12  C   UNL d   1       7.664  -1.579  -2.305  0.00  0.00     0.136 A 
ATOM     13  C   UNL d   1       8.878  -1.773  -2.980  0.00  0.00     0.039 A 
ATOM     14  C   UNL d   1      10.074  -1.543  -2.305  0.00  0.00     0.003 A 
ATOM     15  C   UNL d   1      10.048  -1.132  -0.973  0.00  0.00     0.003 A 
ATOM     16  C   UNL d   1       8.828  -0.948  -0.307  0.00  0.00     0.039 A 
BRANCH  12  17
ATOM     17  N   UNL d   1       6.438  -1.808  -3.045  0.00  0.00    -0.113 N 
ATOM     18  O   UNL d   1       5.648  -0.858  -3.146  0.00  0.00    -0.532 OA
ATOM     19  O   UNL d   1       6.306  -2.913  -3.588  0.00  0.00    -0.532 OA
ENDBRANCH  12  17
ENDBRANCH  10  11
ENDBRANCH   9  10
ENDBRANCH   8   9
ENDBRANCH   7   8
ENDBRANCH   1   7
BRANCH   2  20
ATOM     20  O   UNL d   1       4.529  -0.736   4.819  0.00  0.00    -0.354 OA
BRANCH  20  21
ATOM     21  C   UNL d   1       4.595   0.119   5.966  0.00  0.00     0.198 C 
BRANCH  21  22
ATOM     22  C   UNL d   1       4.913   1.569   5.607  0.00  0.00     0.202 C 
BRANCH  22  23
ATOM     23  O   UNL d   1       4.959   2.384   6.780  0.00  0.00    -0.346 OA
BRANCH  23  24
ATOM     24  C   UNL d   1       5.266   3.703   6.566  0.00  0.00     0.101 A 
ATOM     25  C   UNL d   1       4.780   4.662   7.463  0.00  0.00     0.136 A 
ATOM     26  C   UNL d   1       5.095   6.024   7.337  0.00  0.00     0.039 A 
ATOM     27  C   UNL d   1       5.918   6.440   6.293  0.00  0.00     0.003 A 
ATOM     28  C   UNL d   1       6.426   5.501   5.398  0.00  0.00     0.003 A 
ATOM     29  C   UNL d   1       6.110   4.145   5.536  0.00  0.00     0.039 A 
BRANCH  25  30
ATOM     30  N   UNL d   1       3.915   4.269   8.557  0.00  0.00    -0.113 N 
ATOM     31  O   UNL d   1       2.857   3.688   8.275  0.00  0.00    -0.532 OA
ATOM     32  O   UNL d   1       4.267   4.604   9.699  0.00  0.00    -0.532 OA
ENDBRANCH  25  30
ENDBRANCH  23  24
ENDBRANCH  22  23
ENDBRANCH  21  22
ENDBRANCH  20  21
ENDBRANCH   2  20
TORSDOF 12
