REMARK  4 active torsions:
REMARK  status: ('A' for Active; 'I' for Inactive)
REMARK    1  A    between atoms: C_5  and  N_2 
REMARK    2  A    between atoms: C_14  and  C_7 
REMARK    3  A    between atoms: C_8  and  C_11 
REMARK    4  A    between atoms: O_25  and  C_13 
ROOT
ATOM      1  C   UNL d   1       1.187  -0.615  -0.255  0.00  0.00     0.183 C 
ATOM      2  N   UNL d   1       0.035  -1.343   0.194  0.00  0.00    -0.296 N 
ATOM      3  N   UNL d   1       1.137   0.763  -0.256  0.00  0.00    -0.332 N 
ATOM      4  HN  UNL d   1       1.987   1.295  -0.439  1.00  0.00     0.168 HD
ATOM      5  C   UNL d   1      -1.135  -0.621   0.429  0.00  0.00     0.102 C 
ATOM      6  C   UNL d   1       0.035   1.390  -0.030  0.00  0.00     0.045 C 
ATOM      7  C   UNL d   1      -1.223   0.706   0.306  0.00  0.00     0.048 C 
ATOM      8  S   UNL d   1       2.614  -1.282  -0.904  0.00  0.00    -0.040 SA
ENDROOT
BRANCH   2   9
ATOM      9  C   UNL d   1       0.034  -2.799   0.297  0.00  0.00     0.075 C 
ATOM     10  C   UNL d   1       1.149  -3.450   0.866  0.00  0.00     0.049 C 
ATOM     11  C   UNL d   1       1.303  -4.848   0.834  0.00  0.00     0.050 C 
ATOM     12  C   UNL d   1       0.266  -5.622   0.315  0.00  0.00     0.019 C 
ATOM     13  C   UNL d   1      -0.896  -5.013  -0.156  0.00  0.00     0.040 C 
ATOM     14  C   UNL d   1      -1.034  -3.614  -0.157  0.00  0.00     0.095 C 
BRANCH  11  15
ATOM     15  C   UNL d   1       2.579  -5.504   1.297  0.00  0.00     0.417 C 
ATOM     16  F   UNL d   1       3.536  -4.627   1.709  0.00  0.00    -0.166 F 
ATOM     17  F   UNL d   1       2.376  -6.353   2.341  0.00  0.00    -0.166 F 
ATOM     18  F   UNL d   1       3.160  -6.256   0.318  0.00  0.00    -0.166 F 
ENDBRANCH  11  15
BRANCH  14  19
ATOM     19  O   UNL d   1      -2.149  -3.016  -0.695  0.00  0.00    -0.354 OA
ATOM     20  C   UNL d   1      -3.366  -3.752  -0.574  0.00  0.00     0.210 C 
ENDBRANCH  14  19
ENDBRANCH   2   9
BRANCH   6  21
ATOM     21  C   UNL d   1       0.038   2.881  -0.136  0.00  0.00    -0.009 A 
ATOM     22  C   UNL d   1       0.987   3.466  -0.988  0.00  0.00     0.014 A 
ATOM     23  C   UNL d   1       1.090   4.854  -1.095  0.00  0.00     0.007 A 
ATOM     24  C   UNL d   1       0.248   5.681  -0.348  0.00  0.00    -0.062 A 
ATOM     25  C   UNL d   1      -0.706   5.099   0.496  0.00  0.00     0.007 A 
ATOM     26  C   UNL d   1       0.409   7.171  -0.438  0.00  0.00     0.048 C 
ATOM     27  C   UNL d   1      -0.813   3.705   0.604  0.00  0.00     0.014 A 
ENDBRANCH   6  21
TORSDOF 4
