REMARK  4 active torsions:
REMARK  status: ('A' for Active; 'I' for Inactive)
REMARK    1  A    between atoms: S_6  and  C_1 
REMARK    2  A    between atoms: C_5  and  S_6 
REMARK    3  A    between atoms: C_16  and  C_5 
REMARK    4  A    between atoms: C_15  and  C_9 
ROOT
ATOM      1  C   UNL d   1      -8.449   0.192  -0.752  0.00  0.00     0.124 C 
ATOM      2  N   UNL d   1      -9.271  -2.257  -0.757  0.00  0.00    -0.191 NA
ATOM      3  N   UNL d   1     -10.140   2.066  -1.306  0.00  0.00    -0.191 NA
ATOM      4  C   UNL d   1      -8.907  -1.155  -0.754  0.00  0.00     0.110 C 
ATOM      5  C   UNL d   1      -9.389   1.218  -1.059  0.00  0.00     0.110 C 
ATOM      6  C   UNL d   1      -7.172   0.527  -0.482  0.00  0.00     0.035 C 
ENDROOT
BRANCH   6   7
ATOM      7  C   UNL d   1      -6.078  -0.380  -0.154  0.00  0.00     0.022 C 
ATOM      8  C   UNL d   1      -4.814  -0.012   0.139  0.00  0.00     0.017 C 
BRANCH   8   9
ATOM      9  S   UNL d   1      -3.530  -1.148   0.429  0.00  0.00    -0.064 SA
BRANCH   9  10
ATOM     10  C   UNL d   1      -4.160  -2.111   1.758  0.00  0.00     0.118 A 
ATOM     11  N   UNL d   1      -5.172  -1.763   2.522  0.00  0.00    -0.344 N 
ATOM     12  C   UNL d   1      -5.426  -2.771   3.449  0.00  0.00     0.050 A 
ATOM     13  HN  UNL d   1      -5.692  -0.888   2.448  1.00  0.00     0.167 HD
ATOM     14  C   UNL d   1      -6.448  -2.776   4.424  0.00  0.00     0.031 A 
ATOM     15  C   UNL d   1      -4.579  -3.879   3.377  0.00  0.00     0.034 A 
ATOM     16  C   UNL d   1      -6.606  -3.883   5.270  0.00  0.00     0.002 A 
ATOM     17  C   UNL d   1      -5.756  -4.979   5.164  0.00  0.00     0.002 A 
ATOM     18  C   UNL d   1      -4.724  -4.992   4.223  0.00  0.00     0.021 A 
ATOM     19  S   UNL d   1      -3.423  -3.616   2.135  0.00  0.00    -0.063 SA
ENDBRANCH   9  10
ENDBRANCH   8   9
BRANCH   8  20
ATOM     20  C   UNL d   1      -4.362   1.392   0.110  0.00  0.00    -0.019 A 
ATOM     21  C   UNL d   1      -4.524   2.197   1.243  0.00  0.00     0.013 A 
ATOM     22  C   UNL d   1      -4.154   3.543   1.213  0.00  0.00     0.007 A 
ATOM     23  C   UNL d   1      -3.603   4.105   0.055  0.00  0.00    -0.062 A 
ATOM     24  C   UNL d   1      -3.444   3.303  -1.081  0.00  0.00     0.007 A 
ATOM     25  C   UNL d   1      -3.251   5.564   0.018  0.00  0.00     0.048 C 
ATOM     26  C   UNL d   1      -3.818   1.955  -1.055  0.00  0.00     0.013 A 
ENDBRANCH   8  20
ENDBRANCH   6   7
TORSDOF 4
