REMARK  8 active torsions:
REMARK  status: ('A' for Active; 'I' for Inactive)
REMARK    1  A    between atoms: C_2  and  C_1 
REMARK    2  A    between atoms: C_17  and  N_3 
REMARK    3  A    between atoms: C_15  and  N_4 
REMARK    4  A    between atoms: S_14  and  C_10 
REMARK    5  A    between atoms: C_16  and  C_13 
REMARK    6  A    between atoms: C_19  and  S_14 
REMARK    7  A    between atoms: C_18  and  C_15 
REMARK    8  A    between atoms: C_22  and  C_19 
ROOT
ATOM      1  C   UNL d   1      -0.243  -1.406   0.918  0.00  0.00     0.153 C 
ATOM      2  N   UNL d   1       1.085  -0.978   0.961  0.00  0.00    -0.305 N 
ATOM      3  N   UNL d   1      -1.015  -0.333   1.030  0.00  0.00    -0.281 N 
ATOM      4  HN  UNL d   1      -2.021  -0.346   1.201  1.00  0.00     0.188 HD
ATOM      5  C   UNL d   1       0.990   0.410   0.750  0.00  0.00     0.163 C 
ATOM      6  N   UNL d   1      -0.253   0.795   0.882  0.00  0.00    -0.278 N 
ATOM      7  HN  UNL d   1      -0.592   1.757   0.875  1.00  0.00     0.189 HD
ENDROOT
BRANCH   1   8
ATOM      8  C   UNL d   1      -0.835  -2.635   0.423  0.00  0.00     0.098 A 
ATOM      9  N   UNL d   1      -2.105  -3.162   0.689  0.00  0.00    -0.284 N 
ATOM     10  N   UNL d   1      -2.475  -4.109  -0.233  0.00  0.00    -0.301 N 
ATOM     11  C   UNL d   1      -1.470  -4.170  -1.110  0.00  0.00     0.036 A 
ATOM     12  HN  UNL d   1      -3.338  -4.653  -0.246  1.00  0.00     0.187 HD
ATOM     13  C   UNL d   1      -0.408  -3.342  -0.688  0.00  0.00     0.062 A 
BRANCH   9  14
ATOM     14  C   UNL d   1      -3.167  -2.626   1.564  0.00  0.00     0.187 C 
BRANCH  14  15
ATOM     15  C   UNL d   1      -3.551  -3.408   2.815  0.00  0.00    -0.038 A 
ATOM     16  C   UNL d   1      -3.330  -4.775   3.030  0.00  0.00     0.015 A 
ATOM     17  C   UNL d   1      -3.802  -5.422   4.189  0.00  0.00    -0.061 A 
ATOM     18  C   UNL d   1      -3.573  -6.886   4.444  0.00  0.00     0.048 C 
ATOM     19  C   UNL d   1      -4.531  -4.697   5.143  0.00  0.00     0.007 A 
ATOM     20  C   UNL d   1      -4.788  -3.350   4.939  0.00  0.00     0.001 A 
ATOM     21  C   UNL d   1      -4.307  -2.714   3.791  0.00  0.00     0.009 A 
ENDBRANCH  14  15
ENDBRANCH   9  14
BRANCH  11  22
ATOM     22  C   UNL d   1      -1.479  -5.000  -2.398  0.00  0.00    -0.007 C 
ATOM     23  C   UNL d   1      -0.475  -6.163  -2.257  0.00  0.00     0.021 C 
ATOM     24  C   UNL d   1      -2.850  -5.603  -2.772  0.00  0.00     0.021 C 
ATOM     25  C   UNL d   1      -1.046  -4.122  -3.602  0.00  0.00     0.021 C 
ENDBRANCH  11  22
ENDBRANCH   1   8
BRANCH   2  26
ATOM     26  C   UNL d   1       2.384  -1.664   1.065  0.00  0.00     0.094 C 
ATOM     27  C   UNL d   1       2.565  -3.187   0.927  0.00  0.00     0.026 C 
ATOM     28  C   UNL d   1       2.390  -4.012   2.193  0.00  0.00     0.002 C 
ATOM     29  C   UNL d   1       3.174  -3.498   3.390  0.00  0.00     0.000 C 
ATOM     30  C   UNL d   1       3.166  -1.988   3.553  0.00  0.00     0.002 C 
ATOM     31  C   UNL d   1       3.260  -1.185   2.260  0.00  0.00     0.026 C 
ENDBRANCH   2  26
BRANCH   5  32
ATOM     32  S   UNL d   1       2.353   1.428   0.395  0.00  0.00    -0.088 SA
BRANCH  32  33
ATOM     33  C   UNL d   1       1.717   3.036  -0.201  0.00  0.00     0.121 C 
BRANCH  33  34
ATOM     34  C   UNL d   1       2.916   3.974  -0.364  0.00  0.00    -0.049 A 
ATOM     35  C   UNL d   1       3.661   3.980  -1.557  0.00  0.00     0.008 A 
ATOM     36  C   UNL d   1       4.912   4.618  -1.610  0.00  0.00     0.001 A 
ATOM     37  C   UNL d   1       5.414   5.274  -0.482  0.00  0.00     0.000 A 
ATOM     38  C   UNL d   1       4.637   5.353   0.669  0.00  0.00     0.001 A 
ATOM     39  C   UNL d   1       3.384   4.718   0.727  0.00  0.00     0.008 A 
ENDBRANCH  33  34
ENDBRANCH  32  33
ENDBRANCH   5  32
TORSDOF 8
