REMARK  6 active torsions:
REMARK  status: ('A' for Active; 'I' for Inactive)
REMARK    1  A    between atoms: C_6  and  N_1 
REMARK    2  A    between atoms: S_2  and  C_8 
REMARK    3  A    between atoms: N_5  and  S_2 
REMARK    4  A    between atoms: C_12  and  C_21 
REMARK    5  A    between atoms: O_26  and  C_12 
REMARK    6  A    between atoms: C_29  and  O_26 
ROOT
ATOM      1  C   UNL d   1       2.854  -1.610   0.111  0.00  0.00     0.067 A 
ATOM      2  C   UNL d   1       5.052  -3.340   0.306  0.00  0.00     0.081 A 
ATOM      3  C   UNL d   1       3.108  -2.559  -0.897  0.00  0.00     0.062 A 
ATOM      4  C   UNL d   1       4.215  -3.406  -0.811  0.00  0.00     0.051 A 
ATOM      5  C   UNL d   1       3.742  -1.513   1.195  0.00  0.00     0.033 A 
ATOM      6  C   UNL d   1       4.832  -2.384   1.301  0.00  0.00     0.027 A 
ATOM      7 CL   UNL d   1       2.167  -2.632  -2.348  0.00  0.00    -0.082 Cl
ENDROOT
BRANCH   2   8
ATOM      8  S   UNL d   1       6.478  -4.412   0.396  0.00  0.00     0.260 S 
ATOM      9  O   UNL d   1       6.847  -4.743  -0.961  0.00  0.00    -0.200 OA
ATOM     10  O   UNL d   1       7.422  -3.794   1.301  0.00  0.00    -0.200 OA
BRANCH   8  11
ATOM     11  N   UNL d   1       5.860  -5.825   1.148  0.00  0.00    -0.307 N 
ATOM     12  C   UNL d   1       5.507  -5.682   2.580  0.00  0.00     0.136 C 
ATOM     13  C   UNL d   1       5.286  -7.057   3.206  0.00  0.00     0.035 C 
ATOM     14  C   UNL d   1       4.224  -7.860   2.449  0.00  0.00     0.088 C 
ATOM     15  C   UNL d   1       4.660  -7.982   0.983  0.00  0.00     0.035 C 
ATOM     16  C   UNL d   1       4.889  -6.612   0.347  0.00  0.00     0.136 C 
BRANCH  14  17
ATOM     17  C   UNL d   1       2.824  -7.264   2.530  0.00  0.00     0.263 C 
ATOM     18  O   UNL d   1       1.969  -7.426   1.668  0.00  0.00    -0.265 OA
BRANCH  17  19
ATOM     19  O   UNL d   1       2.640  -6.548   3.672  0.00  0.00    -0.322 OA
BRANCH  19  20
ATOM     20  C   UNL d   1       1.360  -5.911   3.808  0.00  0.00     0.174 C 
ATOM     21  C   UNL d   1       1.333  -4.607   3.028  0.00  0.00     0.034 C 
ENDBRANCH  19  20
ENDBRANCH  17  19
ENDBRANCH  14  17
ENDBRANCH   8  11
ENDBRANCH   2   8
BRANCH   1  22
ATOM     22  N   UNL d   1       1.740  -0.743   0.048  0.00  0.00    -0.250 N 
ATOM     23  C   UNL d   1       1.833   0.622   0.111  0.00  0.00     0.232 C 
ATOM     24  C   UNL d   1       0.461   1.210  -0.070  0.00  0.00     0.123 C 
ATOM     25  O   UNL d   1       2.844   1.299   0.237  0.00  0.00    -0.273 OA
ATOM     26  C   UNL d   1      -0.480   0.007   0.010  0.00  0.00     0.050 C 
ATOM     27  C   UNL d   1       0.444  -1.193   0.027  0.00  0.00     0.240 C 
ATOM     28  C   UNL d   1      -1.489  -0.070  -1.135  0.00  0.00     0.020 C 
ATOM     29  C   UNL d   1      -1.377   0.043   1.252  0.00  0.00     0.020 C 
ATOM     30  O   UNL d   1       0.062  -2.353   0.119  0.00  0.00    -0.272 OA
ATOM     31  C   UNL d   1      -2.666   0.790  -0.688  0.00  0.00     0.001 C 
ATOM     32  C   UNL d   1      -2.602   0.852   0.836  0.00  0.00     0.001 C 
ENDBRANCH   1  22
TORSDOF 6
