REMARK  4 active torsions:
REMARK  status: ('A' for Active; 'I' for Inactive)
REMARK    1  A    between atoms: C_4  and  C_1 
REMARK    2  A    between atoms: C_6  and  N_3 
REMARK    3  A    between atoms: C_5  and  C_6 
REMARK       I    between atoms: N_9  and  C_5 
REMARK    4  A    between atoms: C_16  and  N_9 
ROOT
ATOM      1  C   UNL d   1       0.292  -1.219   1.058  0.00  0.00     0.115 C 
ATOM      2  C   UNL d   1       1.491  -0.364   1.160  0.00  0.00     0.263 C 
ATOM      3  N   UNL d   1       1.528   0.681   0.235  0.00  0.00    -0.315 N 
ATOM      4  C   UNL d   1      -0.846  -0.650   0.623  0.00  0.00     0.023 C 
ATOM      5  C   UNL d   1       0.341   1.286  -0.156  0.00  0.00     0.095 C 
ATOM      6  O   UNL d   1       2.393  -0.598   1.958  0.00  0.00    -0.267 OA
ATOM      7  C   UNL d   1      -0.837   0.709   0.129  0.00  0.00     0.018 C 
ENDROOT
BRANCH   3   8
ATOM      8  C   UNL d   1       2.821   1.304  -0.051  0.00  0.00     0.234 C 
BRANCH   8   9
ATOM      9  C   UNL d   1       3.810   0.260  -0.628  0.00  0.00     0.240 C 
ATOM     10  N   UNL d   1       4.448  -0.470   0.364  0.00  0.00    -0.326 N 
ATOM     11  H   UNL d   1       4.058  -0.360   1.303  0.00  0.00     0.169 HD
ATOM     12  O   UNL d   1       3.912   0.088  -1.839  0.00  0.00    -0.271 OA
BRANCH  10  13
ATOM     13  C   UNL d   1       5.324  -1.559   0.223  0.00  0.00     0.034 A 
ATOM     14  C   UNL d   1       5.888  -1.960  -0.994  0.00  0.00     0.029 A 
ATOM     15  C   UNL d   1       6.731  -3.074  -1.043  0.00  0.00     0.002 A 
ATOM     16  C   UNL d   1       7.026  -3.793   0.112  0.00  0.00     0.000 A 
ATOM     17  C   UNL d   1       6.475  -3.400   1.327  0.00  0.00     0.002 A 
ATOM     18  C   UNL d   1       5.632  -2.283   1.382  0.00  0.00     0.029 A 
ENDBRANCH  10  13
ENDBRANCH   8   9
ENDBRANCH   3   8
BRANCH   1  19
ATOM     19  C   UNL d   1       0.519  -2.669   1.248  0.00  0.00     0.422 C 
ATOM     20  F   UNL d   1       1.824  -3.042   1.274  0.00  0.00    -0.166 F 
ATOM     21  F   UNL d   1      -0.054  -3.138   2.385  0.00  0.00    -0.166 F 
ATOM     22  F   UNL d   1      -0.040  -3.374   0.223  0.00  0.00    -0.166 F 
ENDBRANCH   1  19
TORSDOF 4
