REMARK  5 active torsions:
REMARK  status: ('A' for Active; 'I' for Inactive)
REMARK    1  A    between atoms: C_8  and  C_1 
REMARK    2  A    between atoms: O_15  and  C_2 
REMARK    3  A    between atoms: N_4  and  C_11 
REMARK    4  A    between atoms: C_14  and  N_6 
REMARK    5  A    between atoms: N_9  and  C_8 
ROOT
ATOM      1  C   UNL d   1      -0.459  -0.841  -0.419  0.00  0.00     0.006 A 
ATOM      2  C   UNL d   1      -0.549   0.548  -0.233  0.00  0.00     0.079 A 
ATOM      3  C   UNL d   1       0.591   1.360  -0.162  0.00  0.00    -0.026 A 
ATOM      4  C   UNL d   1       0.821  -1.409  -0.527  0.00  0.00     0.042 A 
ATOM      5  C   UNL d   1       1.982  -0.624  -0.470  0.00  0.00     0.049 A 
ATOM      6  C   UNL d   1       1.851   0.757  -0.278  0.00  0.00     0.040 A 
ATOM      7  C   UNL d   1       0.519   2.849   0.057  0.00  0.00     0.051 C 
ENDROOT
BRANCH   5   8
ATOM      8  N   UNL d   1       3.277  -1.185  -0.494  0.00  0.00    -0.300 N 
ATOM      9  N   UNL d   1       3.378  -2.099  -1.339  0.00  0.00    -0.300 N 
ATOM     10  HN  UNL d   1       2.641  -2.346  -1.999  1.00  0.00     0.187 HD
ATOM     11  HN  UNL d   1       4.041  -0.880   0.109  1.00  0.00     0.187 HD
BRANCH   9  12
ATOM     12  C   UNL d   1       4.628  -2.748  -1.275  0.00  0.00     0.048 A 
ATOM     13  C   UNL d   1       4.674  -4.119  -1.569  0.00  0.00     0.032 A 
ATOM     14  C   UNL d   1       5.881  -4.823  -1.536  0.00  0.00     0.026 A 
ATOM     15  C   UNL d   1       7.060  -4.157  -1.212  0.00  0.00     0.034 A 
ATOM     16  C   UNL d   1       7.042  -2.794  -0.927  0.00  0.00     0.026 A 
ATOM     17 CL   UNL d   1       8.547  -5.020  -1.167  0.00  0.00    -0.084 Cl
ATOM     18  C   UNL d   1       5.831  -2.094  -0.965  0.00  0.00     0.032 A 
ENDBRANCH   9  12
ENDBRANCH   5   8
BRANCH   1  19
ATOM     19  C   UNL d   1      -1.678  -1.755  -0.400  0.00  0.00     0.314 C 
BRANCH  19  20
ATOM     20  N   UNL d   1      -2.801  -1.195  -1.167  0.00  0.00     0.096 N 
ATOM     21  C   UNL d   1      -2.623  -1.337  -2.632  0.00  0.00     0.299 C 
ATOM     22  C   UNL d   1      -3.189  -2.622  -3.265  0.00  0.00     0.198 C 
ATOM     23  O   UNL d   1      -4.540  -2.856  -2.861  0.00  0.00    -0.388 OA
ATOM     24  C   UNL d   1      -4.602  -2.993  -1.440  0.00  0.00     0.198 C 
ATOM     25  C   UNL d   1      -4.117  -1.714  -0.742  0.00  0.00     0.299 C 
ENDBRANCH  19  20
ENDBRANCH   1  19
BRANCH   2  26
ATOM     26  O   UNL d   1      -1.774   1.153  -0.116  0.00  0.00    -0.360 OA
ATOM     27  H   UNL d   1      -2.429   0.513  -0.470  0.00  0.00     0.217 HD
ENDBRANCH   2  26
TORSDOF 5
