REMARK  2 active torsions:
REMARK  status: ('A' for Active; 'I' for Inactive)
REMARK    1  A    between atoms: C_7  and  C_3 
REMARK    2  A    between atoms: O_17  and  C_13 
ROOT
ATOM      1  C   UNL d   1       1.293   0.316   0.017  0.00  0.00     0.058 C 
ATOM      2  C   UNL d   1      -1.270   0.329   0.000  0.00  0.00     0.058 C 
ATOM      3  C   UNL d   1       0.015   1.143  -0.137  0.00  0.00     0.110 C 
ATOM      4  N   UNL d   1       0.002  -1.677  -0.036  0.00  0.00    -0.361 N 
ATOM      5  C   UNL d   1      -1.221  -1.024   0.015  0.00  0.00     0.023 C 
ATOM      6  C   UNL d   1       1.228  -1.037   0.034  0.00  0.00     0.023 C 
ATOM      7  C   UNL d   1      -2.504   1.037   0.114  0.00  0.00     0.098 C 
ATOM      8  C   UNL d   1       2.534   1.011   0.138  0.00  0.00     0.098 C 
ATOM      9  N   UNL d   1       3.540   1.576   0.258  0.00  0.00    -0.192 NA
ATOM     10  N   UNL d   1      -3.504   1.613   0.231  0.00  0.00    -0.192 NA
ATOM     11  C   UNL d   1      -2.458  -1.883   0.075  0.00  0.00     0.069 C 
ATOM     12  C   UNL d   1       2.456  -1.910   0.120  0.00  0.00     0.069 C 
ATOM     13  H   UNL d   1      -0.005  -2.692   0.032  0.00  0.00     0.165 HD
ENDROOT
BRANCH   3  14
ATOM     14  C   UNL d   1       0.034   1.898  -1.468  0.00  0.00    -0.041 A 
ATOM     15  C   UNL d   1       0.090   3.302  -1.479  0.00  0.00     0.044 A 
ATOM     16  C   UNL d   1       0.148   4.001  -2.686  0.00  0.00     0.068 A 
ATOM     17  C   UNL d   1       0.138   3.294  -3.890  0.00  0.00     0.037 A 
ATOM     18  C   UNL d   1       0.070   1.902  -3.897  0.00  0.00     0.003 A 
ATOM     19  C   UNL d   1       0.020   1.206  -2.692  0.00  0.00     0.008 A 
BRANCH  16  20
ATOM     20  O   UNL d   1       0.225   5.361  -2.819  0.00  0.00    -0.356 OA
ATOM     21  C   UNL d   1       0.250   6.119  -1.616  0.00  0.00     0.210 C 
ENDBRANCH  16  20
ENDBRANCH   3  14
TORSDOF 2
