REMARK  3 active torsions:
REMARK  status: ('A' for Active; 'I' for Inactive)
REMARK    1  A    between atoms: C_7  and  N_1 
REMARK    2  A    between atoms: N_9  and  C_3 
REMARK    3  A    between atoms: O_16  and  C_13 
ROOT
ATOM      1  N   UNL d   1      -0.650   1.235  -0.002  0.00  0.00    -0.254 N 
ATOM      2  C   UNL d   1      -1.397   0.047   0.078  0.00  0.00     0.335 A 
ATOM      3  C   UNL d   1       0.753   1.214  -0.057  0.00  0.00     0.094 A 
ATOM      4  N   UNL d   1      -0.683  -1.119   0.077  0.00  0.00    -0.275 N 
ATOM      5  C   UNL d   1       1.399   0.038  -0.057  0.00  0.00     0.117 A 
ATOM      6  C   UNL d   1       0.666  -1.227  -0.009  0.00  0.00     0.252 A 
ATOM      7  O   UNL d   1      -2.628  -0.030   0.121  0.00  0.00    -0.246 OA
ATOM      8  O   UNL d   1       1.253  -2.302  -0.032  0.00  0.00    -0.268 OA
ATOM      9  H   UNL d   1      -1.218  -1.973   0.093  0.00  0.00     0.173 HD
ENDROOT
BRANCH   1  10
ATOM     10  C   UNL d   1      -1.387   2.466  -0.040  0.00  0.00     0.045 A 
ATOM     11  C   UNL d   1      -2.339   2.753   0.947  0.00  0.00     0.033 A 
ATOM     12  C   UNL d   1      -3.013   3.980   0.953  0.00  0.00     0.039 A 
ATOM     13  C   UNL d   1      -2.765   4.920  -0.047  0.00  0.00     0.068 A 
ATOM     14  C   UNL d   1      -1.826   4.633  -1.039  0.00  0.00     0.039 A 
ATOM     15  C   UNL d   1      -1.141   3.416  -1.037  0.00  0.00     0.033 A 
BRANCH  13  16
ATOM     16  O   UNL d   1      -3.339   6.157  -0.132  0.00  0.00    -0.356 OA
ATOM     17  C   UNL d   1      -4.620   6.288   0.473  0.00  0.00     0.210 C 
ENDBRANCH  13  16
ENDBRANCH   1  10
BRANCH   3  18
ATOM     18  N   UNL d   1       1.509   2.379  -0.049  0.00  0.00    -0.288 NA
ATOM     19  H   UNL d   1       1.030   3.145   0.423  0.00  0.00     0.125 HD
ATOM     20  H   UNL d   1       2.456   2.261   0.302  0.00  0.00     0.125 HD
ENDBRANCH   3  18
TORSDOF 3
