REMARK  4 active torsions:
REMARK  status: ('A' for Active; 'I' for Inactive)
REMARK       I    between atoms: C_3  and  N_5 
REMARK    1  A    between atoms: C_15  and  C_3 
REMARK    2  A    between atoms: N_5  and  C_7 
REMARK    3  A    between atoms: C_6  and  S_11 
REMARK    4  A    between atoms: S_11  and  C_15 
ROOT
ATOM      1  C   UNL d   1      -3.640   3.106   0.114  0.00  0.00     0.231 C 
ATOM      2  N   UNL d   1      -3.534   1.725   0.031  0.00  0.00    -0.326 N 
ATOM      3  O   UNL d   1      -2.706   3.893   0.259  0.00  0.00    -0.272 OA
ATOM      4  H   UNL d   1      -4.395   1.210  -0.104  0.00  0.00     0.169 HD
ENDROOT
BRANCH   2   5
ATOM      5  C   UNL d   1      -2.344   0.962   0.029  0.00  0.00     0.037 A 
ATOM      6  C   UNL d   1      -1.067   1.526   0.030  0.00  0.00     0.069 A 
ATOM      7  C   UNL d   1       0.067   0.715  -0.014  0.00  0.00     0.104 A 
ATOM      8  C   UNL d   1      -0.059  -0.675  -0.013  0.00  0.00     0.102 A 
ATOM      9  O   UNL d   1       1.277   1.361  -0.057  0.00  0.00    -0.346 OA
ATOM     10  O   UNL d   1       1.016  -1.526  -0.028  0.00  0.00    -0.346 OA
ATOM     11  C   UNL d   1      -1.326  -1.252  -0.014  0.00  0.00     0.042 A 
ATOM     12  C   UNL d   1       2.236  -0.837   0.278  0.00  0.00     0.202 C 
ATOM     13  C   UNL d   1       2.319   0.478  -0.479  0.00  0.00     0.202 C 
ATOM     14  C   UNL d   1      -2.465  -0.435   0.003  0.00  0.00     0.032 A 
ENDBRANCH   2   5
BRANCH   1  15
ATOM     15  C   UNL d   1      -5.074   3.615   0.045  0.00  0.00     0.184 C 
BRANCH  15  16
ATOM     16  S   UNL d   1      -5.297   4.702  -1.397  0.00  0.00    -0.103 SA
BRANCH  16  17
ATOM     17  C   UNL d   1      -5.047   3.521  -2.704  0.00  0.00     0.069 A 
ATOM     18  N   UNL d   1      -5.454   2.248  -2.488  0.00  0.00    -0.361 N 
ATOM     19  C   UNL d   1      -5.308   1.378  -3.513  0.00  0.00     0.089 A 
ATOM     20  HN  UNL d   1      -5.853   1.959  -1.595  1.00  0.00     0.165 HD
ATOM     21  C   UNL d   1      -4.767   1.714  -4.743  0.00  0.00     0.017 A 
ATOM     22  C   UNL d   1      -4.349   3.024  -4.940  0.00  0.00     0.004 A 
ATOM     23  C   UNL d   1      -4.494   3.946  -3.908  0.00  0.00     0.037 A 
ENDBRANCH  16  17
ENDBRANCH  15  16
ENDBRANCH   1  15
TORSDOF 4
