REMARK  5 active torsions:
REMARK  status: ('A' for Active; 'I' for Inactive)
REMARK    1  A    between atoms: C_6  and  C_1 
REMARK    2  A    between atoms: C_12  and  C_4 
REMARK       I    between atoms: N_8  and  C_6 
REMARK    3  A    between atoms: N_11  and  N_8 
REMARK    4  A    between atoms: C_9  and  C_10 
REMARK    5  A    between atoms: C_16  and  N_11 
ROOT
ATOM      1  C   UNL d   1       0.789  -3.692  -0.266  0.00  0.00     0.275 C 
ATOM      2  N   UNL d   1      -0.498  -4.009   0.161  0.00  0.00    -0.265 N 
ATOM      3  O   UNL d   1       1.661  -3.598   0.594  0.00  0.00    -0.266 OA
ATOM      4  H   UNL d   1      -0.625  -4.044   1.169  0.00  0.00     0.190 HD
ENDROOT
BRANCH   1   5
ATOM      5  C   UNL d   1       1.073  -3.470  -1.678  0.00  0.00     0.094 A 
ATOM      6  C   UNL d   1       2.120  -2.672  -2.279  0.00  0.00     0.083 A 
ATOM      7  N   UNL d   1       2.042  -2.756  -3.621  0.00  0.00    -0.259 N 
ATOM      8  O   UNL d   1       1.037  -3.629  -3.912  0.00  0.00    -0.241 OA
ATOM      9  HN  UNL d   1       2.626  -2.259  -4.294  1.00  0.00     0.195 HD
ATOM     10  C   UNL d   1       0.481  -4.089  -2.767  0.00  0.00     0.090 A 
ATOM     11  C   UNL d   1      -0.540  -5.137  -2.977  0.00  0.00     0.080 C 
BRANCH   6  12
ATOM     12  C   UNL d   1       3.188  -1.832  -1.708  0.00  0.00    -0.006 A 
ATOM     13  C   UNL d   1       3.030  -1.100  -0.527  0.00  0.00     0.014 A 
ATOM     14  C   UNL d   1       4.059  -0.269  -0.058  0.00  0.00     0.001 A 
ATOM     15  C   UNL d   1       5.256  -0.153  -0.768  0.00  0.00     0.000 A 
ATOM     16  C   UNL d   1       5.431  -0.873  -1.942  0.00  0.00     0.001 A 
ATOM     17  C   UNL d   1       4.407  -1.706  -2.403  0.00  0.00     0.014 A 
ENDBRANCH   6  12
ENDBRANCH   1   5
BRANCH   2  18
ATOM     18  N   UNL d   1      -1.647  -3.807  -0.605  0.00  0.00    -0.298 N 
ATOM     19  H   UNL d   1      -1.897  -2.829  -0.761  0.00  0.00     0.187 HD
BRANCH  18  20
ATOM     20  C   UNL d   1      -2.757  -4.630  -0.297  0.00  0.00     0.048 A 
ATOM     21  C   UNL d   1      -3.996  -4.334  -0.878  0.00  0.00     0.031 A 
ATOM     22  C   UNL d   1      -5.108  -5.173  -0.700  0.00  0.00     0.010 A 
ATOM     23  C   UNL d   1      -5.025  -6.359   0.049  0.00  0.00    -0.051 A 
ATOM     24  C   UNL d   1      -3.775  -6.664   0.607  0.00  0.00     0.010 A 
ATOM     25  C   UNL d   1      -2.660  -5.827   0.419  0.00  0.00     0.031 A 
BRANCH  23  26
ATOM     26  C   UNL d   1      -6.258  -7.268   0.212  0.00  0.00    -0.024 C 
ATOM     27  C   UNL d   1      -5.973  -8.571   0.994  0.00  0.00     0.019 C 
ATOM     28  C   UNL d   1      -7.365  -6.509   0.975  0.00  0.00     0.019 C 
ATOM     29  C   UNL d   1      -6.798  -7.687  -1.173  0.00  0.00     0.019 C 
ENDBRANCH  23  26
ENDBRANCH  18  20
ENDBRANCH   2  18
TORSDOF 5
