REMARK  4 active torsions:
REMARK  status: ('A' for Active; 'I' for Inactive)
REMARK       I    between atoms: N_2  and  C_1 
REMARK       I    between atoms: N_4  and  C_1 
REMARK    1  A    between atoms: C_6  and  N_3 
REMARK    2  A    between atoms: C_5  and  N_4 
REMARK    3  A    between atoms: C_17  and  C_6 
REMARK    4  A    between atoms: C_18  and  C_6 
ROOT
ATOM      1  C   UNL d   1       1.003  -0.017   0.050  0.00  0.00     0.323 C 
ATOM      2  N   UNL d   1       0.424  -0.897  -0.854  0.00  0.00    -0.331 N 
ATOM      3  N   UNL d   1      -0.164  -2.790  -3.059  0.00  0.00     0.105 N 
ATOM      4  N   UNL d   1       0.539   1.276   0.011  0.00  0.00    -0.309 N 
ATOM      5  O   UNL d   1       1.881  -0.403   0.814  0.00  0.00    -0.247 OA
ATOM      6  C   UNL d   1       0.863  -2.298  -0.789  0.00  0.00     0.158 C 
ATOM      7  C   UNL d   1      -0.707  -0.653  -1.760  0.00  0.00     0.158 C 
ATOM      8  C   UNL d   1       1.036  -2.897  -2.191  0.00  0.00     0.293 C 
ATOM      9  C   UNL d   1      -0.508  -1.345  -3.128  0.00  0.00     0.293 C 
ATOM     10  H   UNL d   1      -0.265   1.467  -0.557  0.00  0.00     0.170 HD
ENDROOT
BRANCH   3  11
ATOM     11  C   UNL d   1      -1.319  -3.612  -2.582  0.00  0.00     0.289 C 
BRANCH  11  12
ATOM     12  C   UNL d   1      -2.526  -3.487  -3.518  0.00  0.00    -0.021 A 
ATOM     13  C   UNL d   1      -2.428  -3.834  -4.876  0.00  0.00     0.010 A 
ATOM     14  C   UNL d   1      -3.536  -3.741  -5.717  0.00  0.00     0.001 A 
ATOM     15  C   UNL d   1      -4.754  -3.287  -5.216  0.00  0.00     0.000 A 
ATOM     16  C   UNL d   1      -4.864  -2.917  -3.877  0.00  0.00     0.001 A 
ATOM     17  C   UNL d   1      -3.758  -3.017  -3.031  0.00  0.00     0.010 A 
ENDBRANCH  11  12
BRANCH  11  18
ATOM     18  C   UNL d   1      -1.012  -5.097  -2.331  0.00  0.00    -0.021 A 
ATOM     19  C   UNL d   1      -1.685  -5.771  -1.295  0.00  0.00     0.010 A 
ATOM     20  C   UNL d   1      -1.434  -7.120  -1.035  0.00  0.00     0.001 A 
ATOM     21  C   UNL d   1      -0.511  -7.818  -1.808  0.00  0.00     0.000 A 
ATOM     22  C   UNL d   1       0.145  -7.176  -2.856  0.00  0.00     0.001 A 
ATOM     23  C   UNL d   1      -0.114  -5.830  -3.125  0.00  0.00     0.010 A 
ENDBRANCH  11  18
ENDBRANCH   3  11
BRANCH   4  24
ATOM     24  C   UNL d   1       0.977   2.357   0.817  0.00  0.00     0.039 A 
ATOM     25  C   UNL d   1       2.057   2.285   1.701  0.00  0.00     0.053 A 
ATOM     26  C   UNL d   1       2.369   3.369   2.523  0.00  0.00     0.037 A 
ATOM     27 CL   UNL d   1       3.673   3.243   3.640  0.00  0.00    -0.084 Cl
ATOM     28  C   UNL d   1       1.629   4.543   2.462  0.00  0.00     0.048 A 
ATOM     29  C   UNL d   1       0.581   4.632   1.552  0.00  0.00     0.037 A 
ATOM     30  C   UNL d   1       0.254   3.553   0.729  0.00  0.00     0.053 A 
ATOM     31 CL   UNL d   1      -0.340   6.084   1.454  0.00  0.00    -0.084 Cl
ENDBRANCH   4  24
TORSDOF 4
