REMARK  6 active torsions:
REMARK  status: ('A' for Active; 'I' for Inactive)
REMARK    1  A    between atoms: C_6  and  S_1 
REMARK    2  A    between atoms: C_8  and  S_1 
REMARK    3  A    between atoms: C_2  and  C_14 
REMARK    4  A    between atoms: C_19  and  C_8 
REMARK    5  A    between atoms: C_14  and  S_17 
REMARK    6  A    between atoms: S_17  and  C_19 
ROOT
ATOM      1  C   UNL d   1       0.957  -2.703  -0.832  0.00  0.00     0.089 C 
ENDROOT
BRANCH   1   2
ATOM      2  S   UNL d   1       0.277  -4.379  -0.536  0.00  0.00    -0.164 SA
BRANCH   2   3
ATOM      3  C   UNL d   1      -1.480  -4.083  -0.916  0.00  0.00     0.114 C 
BRANCH   3   4
ATOM      4  C   UNL d   1      -2.307  -5.314  -0.708  0.00  0.00    -0.031 A 
ATOM      5  C   UNL d   1      -2.595  -6.221  -1.709  0.00  0.00     0.059 A 
ATOM      6  S   UNL d   1      -3.633  -7.467  -1.194  0.00  0.00    -0.101 SA
ATOM      7  C   UNL d   1      -3.718  -6.838   0.404  0.00  0.00     0.015 A 
ATOM      8  C   UNL d   1      -2.943  -5.682   0.542  0.00  0.00    -0.011 A 
ATOM      9  C   UNL d   1      -4.454  -7.373   1.481  0.00  0.00     0.019 A 
ATOM     10  C   UNL d   1      -2.911  -5.065   1.822  0.00  0.00     0.013 A 
ATOM     11  C   UNL d   1      -3.632  -5.597   2.896  0.00  0.00     0.001 A 
ATOM     12  C   UNL d   1      -4.401  -6.739   2.723  0.00  0.00     0.001 A 
ENDBRANCH   3   4
ENDBRANCH   2   3
ENDBRANCH   1   2
BRANCH   1  13
ATOM     13  C   UNL d   1       0.347  -1.682   0.109  0.00  0.00     0.156 C 
BRANCH  13  14
ATOM     14  S   UNL d   1       0.989  -0.039  -0.073  0.00  0.00     0.176 S 
ATOM     15  O   UNL d   1       0.176   0.835   0.749  0.00  0.00    -0.223 OA
ATOM     16  O   UNL d   1       2.428  -0.091   0.098  0.00  0.00    -0.223 OA
BRANCH  14  17
ATOM     17  C   UNL d   1       0.672   0.406  -1.770  0.00  0.00     0.059 A 
ATOM     18  C   UNL d   1      -0.524   1.044  -2.117  0.00  0.00     0.026 A 
ATOM     19  C   UNL d   1      -0.751   1.388  -3.454  0.00  0.00     0.044 A 
ATOM     20  C   UNL d   1       0.217   1.106  -4.412  0.00  0.00     0.116 A 
ATOM     21  C   UNL d   1       1.424   0.506  -4.062  0.00  0.00     0.044 A 
ATOM     22  F   UNL d   1      -0.010   1.424  -5.692  0.00  0.00    -0.206 F 
ATOM     23  C   UNL d   1       1.660   0.163  -2.730  0.00  0.00     0.026 A 
ENDBRANCH  14  17
ENDBRANCH  13  14
ENDBRANCH   1  13
TORSDOF 6
