REMARK  0 active torsions:
REMARK  status: ('A' for Active; 'I' for Inactive)
ROOT
ATOM      1  C   UNL d   1      -0.111   1.426  -0.011  0.00  0.00     0.194 A 
ATOM      2  C   UNL d   1      -0.086  -1.443   0.002  0.00  0.00     0.194 A 
ATOM      3  C   UNL d   1       1.204   0.718  -0.004  0.00  0.00     0.035 A 
ATOM      4  C   UNL d   1       1.218  -0.706  -0.004  0.00  0.00     0.035 A 
ATOM      5  C   UNL d   1      -1.369   0.674  -0.005  0.00  0.00     0.029 A 
ATOM      6  C   UNL d   1      -1.361  -0.707  -0.002  0.00  0.00     0.029 A 
ATOM      7  C   UNL d   1       2.423   1.445  -0.002  0.00  0.00    -0.047 A 
ATOM      8  C   UNL d   1       2.458  -1.400  -0.007  0.00  0.00    -0.047 A 
ATOM      9  O   UNL d   1      -0.205   2.648  -0.026  0.00  0.00    -0.287 OA
ATOM     10  O   UNL d   1      -0.158  -2.665   0.016  0.00  0.00    -0.287 OA
ATOM     11  C   UNL d   1       3.631   0.733  -0.001  0.00  0.00     0.008 A 
ATOM     12  C   UNL d   1       3.648  -0.654  -0.005  0.00  0.00     0.008 A 
ATOM     13  C   UNL d   1      -2.589   1.370  -0.006  0.00  0.00     0.016 A 
ATOM     14  C   UNL d   1      -2.579  -1.407  -0.001  0.00  0.00     0.016 A 
ATOM     15  C   UNL d   1       2.592   2.945   0.001  0.00  0.00     0.049 C 
ATOM     16  C   UNL d   1       2.671  -2.894  -0.014  0.00  0.00     0.049 C 
ATOM     17  C   UNL d   1      -3.798   0.676  -0.004  0.00  0.00     0.001 A 
ATOM     18  C   UNL d   1      -3.793  -0.715  -0.002  0.00  0.00     0.001 A 
ENDROOT
TORSDOF 0
