REMARK  3 active torsions:
REMARK  status: ('A' for Active; 'I' for Inactive)
REMARK    1  A    between atoms: C_7  and  C_3 
REMARK    2  A    between atoms: N_10  and  N_14 
REMARK    3  A    between atoms: C_13  and  C_19 
ROOT
ATOM      1  N   UNL d   1       1.488  -0.619  -0.111  0.00  0.00    -0.334 N 
ATOM      2  HN  UNL d   1       2.394  -1.085  -0.147  1.00  0.00     0.168 HD
ATOM      3  C   UNL d   1       1.317   0.749  -0.031  0.00  0.00     0.051 A 
ATOM      4  C   UNL d   1       0.329  -1.244  -0.134  0.00  0.00     0.163 A 
ATOM      5  S   UNL d   1      -1.042  -0.198  -0.090  0.00  0.00    -0.062 SA
ATOM      6  C   UNL d   1      -0.000   1.162   0.014  0.00  0.00     0.083 A 
ATOM      7  N   UNL d   1       0.166  -2.595  -0.173  0.00  0.00    -0.280 N 
ATOM      8  H   UNL d   1      -0.791  -2.935  -0.198  0.00  0.00     0.189 HD
ENDROOT
BRANCH   7   9
ATOM      9  N   UNL d   1       1.145  -3.412   0.298  0.00  0.00    -0.309 N 
ATOM     10  C   UNL d   1       0.924  -4.686   0.263  0.00  0.00     0.120 C 
ATOM     11  HN  UNL d   1       2.019  -3.036   0.665  1.00  0.00     0.186 HD
BRANCH  10  12
ATOM     12  C   UNL d   1       1.923  -5.620   0.837  0.00  0.00     0.002 A 
ATOM     13  C   UNL d   1       1.761  -7.009   0.795  0.00  0.00     0.045 A 
ATOM     14 CL   UNL d   1       0.416  -7.774   0.027  0.00  0.00    -0.083 Cl
ATOM     15  C   UNL d   1       2.719  -7.837   1.393  0.00  0.00     0.024 A 
ATOM     16  C   UNL d   1       3.836  -7.288   2.027  0.00  0.00     0.002 A 
ATOM     17  C   UNL d   1       4.005  -5.907   2.061  0.00  0.00     0.001 A 
ATOM     18  C   UNL d   1       3.053  -5.077   1.469  0.00  0.00     0.014 A 
ENDBRANCH  10  12
ENDBRANCH   7   9
BRANCH   3  19
ATOM     19  C   UNL d   1       2.466   1.642  -0.026  0.00  0.00    -0.006 A 
ATOM     20  C   UNL d   1       3.618   1.280  -0.744  0.00  0.00     0.053 A 
ATOM     21  C   UNL d   1       4.737   2.113  -0.754  0.00  0.00     0.103 A 
ATOM     22  O   UNL d   1       5.821   1.683  -1.477  0.00  0.00    -0.346 OA
ATOM     23  C   UNL d   1       4.717   3.320  -0.052  0.00  0.00     0.102 A 
ATOM     24  C   UNL d   1       7.003   2.412  -1.131  0.00  0.00     0.202 C 
ATOM     25  C   UNL d   1       6.717   3.903  -1.064  0.00  0.00     0.202 C 
ATOM     26  O   UNL d   1       5.770   4.197  -0.031  0.00  0.00    -0.346 OA
ATOM     27  C   UNL d   1       3.587   3.681   0.681  0.00  0.00     0.040 A 
ATOM     28  C   UNL d   1       2.466   2.846   0.692  0.00  0.00     0.017 A 
ENDBRANCH   3  19
TORSDOF 3
