REMARK  9 active torsions:
REMARK  status: ('A' for Active; 'I' for Inactive)
REMARK    1  A    between atoms: C_7  and  N_1 
REMARK    2  A    between atoms: S_8  and  C_2 
REMARK    3  A    between atoms: C_17  and  S_8 
REMARK    4  A    between atoms: C_9  and  C_17 
REMARK       I    between atoms: N_10  and  C_9 
REMARK    5  A    between atoms: C_20  and  N_10 
REMARK    6  A    between atoms: C_12  and  C_13 
REMARK    7  A    between atoms: O_21  and  C_22 
REMARK    8  A    between atoms: C_25  and  O_21 
REMARK    9  A    between atoms: C_28  and  C_25 
ROOT
ATOM      1  N   UNL d   1       0.904  -0.788  -0.117  0.00  0.00    -0.241 N 
ATOM      2  C   UNL d   1       0.829   0.517  -0.471  0.00  0.00     0.170 A 
ATOM      3  C   UNL d   1      -0.400  -1.170   0.106  0.00  0.00     0.347 A 
ATOM      4  N   UNL d   1      -0.356   1.047  -0.415  0.00  0.00    -0.275 N 
ATOM      5  HN  UNL d   1      -0.629   2.010  -0.611  1.00  0.00     0.189 HD
ATOM      6  N   UNL d   1      -1.152   0.001  -0.030  0.00  0.00    -0.249 N 
ATOM      7  O   UNL d   1      -0.853  -2.266   0.378  0.00  0.00    -0.245 OA
ATOM      8  H   UNL d   1      -2.159   0.069   0.032  0.00  0.00     0.192 HD
ENDROOT
BRANCH   2   9
ATOM      9  S   UNL d   1       2.171   1.427  -1.087  0.00  0.00    -0.083 SA
BRANCH   9  10
ATOM     10  C   UNL d   1       2.224   0.771  -2.780  0.00  0.00     0.185 C 
BRANCH  10  11
ATOM     11  C   UNL d   1       1.084   1.160  -3.717  0.00  0.00     0.231 C 
ATOM     12  N   UNL d   1       0.108   1.989  -3.207  0.00  0.00    -0.327 N 
ATOM     13  H   UNL d   1       0.264   2.362  -2.276  0.00  0.00     0.169 HD
ATOM     14  O   UNL d   1       1.100   0.713  -4.864  0.00  0.00    -0.272 OA
BRANCH  12  15
ATOM     15  C   UNL d   1      -1.136   2.313  -3.791  0.00  0.00     0.034 A 
ATOM     16  C   UNL d   1      -1.609   1.752  -4.974  0.00  0.00     0.030 A 
ATOM     17  C   UNL d   1      -2.887   2.068  -5.453  0.00  0.00     0.010 A 
ATOM     18  C   UNL d   1      -3.736   2.959  -4.772  0.00  0.00    -0.051 A 
ATOM     19  C   UNL d   1      -3.235   3.537  -3.597  0.00  0.00     0.010 A 
ATOM     20  C   UNL d   1      -1.958   3.213  -3.112  0.00  0.00     0.030 A 
BRANCH  18  21
ATOM     21  C   UNL d   1      -5.151   3.233  -5.311  0.00  0.00    -0.024 C 
ATOM     22  C   UNL d   1      -5.959   4.237  -4.458  0.00  0.00     0.019 C 
ATOM     23  C   UNL d   1      -5.070   3.809  -6.742  0.00  0.00     0.019 C 
ATOM     24  C   UNL d   1      -5.953   1.913  -5.345  0.00  0.00     0.019 C 
ENDBRANCH  18  21
ENDBRANCH  12  15
ENDBRANCH  10  11
ENDBRANCH   9  10
ENDBRANCH   2   9
BRANCH   1  25
ATOM     25  C   UNL d   1       2.012  -1.635  -0.106  0.00  0.00     0.046 A 
ATOM     26  C   UNL d   1       2.058  -2.735  -0.967  0.00  0.00     0.033 A 
ATOM     27  C   UNL d   1       3.224  -3.495  -1.052  0.00  0.00     0.039 A 
ATOM     28  C   UNL d   1       4.318  -3.213  -0.231  0.00  0.00     0.069 A 
ATOM     29  C   UNL d   1       4.251  -2.148   0.666  0.00  0.00     0.039 A 
ATOM     30  C   UNL d   1       3.105  -1.352   0.720  0.00  0.00     0.033 A 
BRANCH  28  31
ATOM     31  O   UNL d   1       5.395  -4.034  -0.411  0.00  0.00    -0.347 OA
BRANCH  31  32
ATOM     32  C   UNL d   1       6.361  -4.041   0.637  0.00  0.00     0.214 C 
BRANCH  32  33
ATOM     33  C   UNL d   1       7.244  -5.246   0.448  0.00  0.00    -0.034 A 
ATOM     34  C   UNL d   1       8.507  -5.128  -0.146  0.00  0.00     0.009 A 
ATOM     35  C   UNL d   1       9.314  -6.255  -0.311  0.00  0.00     0.001 A 
ATOM     36  C   UNL d   1       8.861  -7.506   0.105  0.00  0.00     0.000 A 
ATOM     37  C   UNL d   1       7.598  -7.636   0.679  0.00  0.00     0.001 A 
ATOM     38  C   UNL d   1       6.790  -6.511   0.846  0.00  0.00     0.009 A 
ENDBRANCH  32  33
ENDBRANCH  31  32
ENDBRANCH  28  31
ENDBRANCH   1  25
TORSDOF 9
