REMARK  4 active torsions:
REMARK  status: ('A' for Active; 'I' for Inactive)
REMARK    1  A    between atoms: C_2  and  C_1 
REMARK       I    between atoms: N_3  and  C_1 
REMARK    2  A    between atoms: C_4  and  N_3 
REMARK    3  A    between atoms: C_7  and  C_4 
REMARK    4  A    between atoms: C_8  and  C_7 
ROOT
ATOM      1  C   UNL d   1       1.187   1.491   0.651  0.00  0.00     0.254 C 
ATOM      2  N   UNL d   1       0.159   0.615   0.904  0.00  0.00    -0.348 N 
ATOM      3  O   UNL d   1       1.046   2.700   0.493  0.00  0.00    -0.268 OA
ATOM      4  H   UNL d   1       0.403  -0.362   1.001  0.00  0.00     0.163 HD
ENDROOT
BRANCH   2   5
ATOM      5  C   UNL d   1      -1.268   0.939   1.031  0.00  0.00     0.026 C 
ATOM      6  C   UNL d   1      -1.995  -0.341   1.486  0.00  0.00     0.038 C 
ATOM      7  C   UNL d   1      -1.470   1.974   2.165  0.00  0.00     0.038 C 
BRANCH   5   8
ATOM      8  C   UNL d   1      -1.880   1.534  -0.277  0.00  0.00     0.038 C 
BRANCH   8   9
ATOM      9  C   UNL d   1      -1.845   0.789  -1.651  0.00  0.00    -0.049 C 
ATOM     10  C   UNL d   1      -2.643  -0.523  -1.658  0.00  0.00     0.014 C 
ATOM     11  C   UNL d   1      -2.512   1.727  -2.689  0.00  0.00     0.014 C 
ATOM     12  C   UNL d   1      -0.415   0.507  -2.136  0.00  0.00     0.014 C 
ENDBRANCH   8   9
ENDBRANCH   5   8
ENDBRANCH   2   5
BRANCH   1  13
ATOM     13  C   UNL d   1       2.535   0.873   0.462  0.00  0.00     0.053 A 
ATOM     14  C   UNL d   1       2.986  -0.283   1.120  0.00  0.00     0.049 A 
ATOM     15 CL   UNL d   1       2.102  -1.079   2.376  0.00  0.00    -0.083 Cl
ATOM     16  C   UNL d   1       4.227  -0.842   0.786  0.00  0.00     0.025 A 
ATOM     17  C   UNL d   1       5.031  -0.248  -0.186  0.00  0.00     0.002 A 
ATOM     18  C   UNL d   1       4.611   0.921  -0.813  0.00  0.00     0.001 A 
ATOM     19  C   UNL d   1       3.373   1.480  -0.489  0.00  0.00     0.019 A 
ENDBRANCH   1  13
TORSDOF 4
